data_PCOD8007988
_publ_section_title
;
Structure prediction by ZEFSAII (Michael W. Deem and Ramdas Pophale) SiO2 
 PCOD8007988
Probable space group: P -1
;
_chemical_formula_sum "Si O2"
_cell_formula_units_Z 16
_cell_length_a 12.316173
_cell_length_b 12.168947
_cell_length_c 11.884649
_cell_angle_alpha 52.350295
_cell_angle_beta 31.387833
_cell_angle_gamma 65.081722
_cell_volume 712.542226
_symmetry_space_group_name_H-M "P -1"
_symmetry_group_IT_number 2
_symmetry_cell_setting 'triclinic'
loop_
_space_group_symop_operation_xyz
x,y,z
-x,-y,-z
loop_
_atom_site_type_symbol
_atom_site_label
_atom_site_fract_x
_atom_site_fract_y
_atom_site_fract_z
Si Si1 0.714681 0.114541 0.889370
Si Si2 0.343641 0.586968 0.731204
Si Si3 0.244300 0.587227 0.237969
Si Si4 0.934166 0.953501 0.214088
Si Si5 0.399659 0.310730 0.776925
Si Si6 0.941130 0.217052 0.171716
Si Si7 0.679051 0.106720 0.680669
Si Si8 0.560479 0.668698 0.711082
O O1 0.741113 0.284147 0.768389
O O2 0.786980 0.077916 0.721582
O O3 0.858596 0.062514 0.888593
O O4 0.462072 0.031676 0.174954
O O5 0.325193 0.416779 0.867310
O O6 0.424247 0.614997 0.515703
O O7 0.121215 0.638058 0.906996
O O8 0.500213 0.677997 0.628359
O O9 0.373369 0.479243 0.239603
O O10 0.000000 0.500000 0.500000
O O11 0.350622 0.658813 0.981787
O O12 0.752304 0.806429 0.479776
O O13 0.837905 0.080787 0.270180
O O14 0.000000 0.000000 0.000000
O O15 0.505225 0.197038 0.816625
O O16 0.194449 0.235296 0.931743
O O17 0.865948 0.188734 0.384154
#
# Coordination Sequence:
#
# PCOD8007988 Si02
#       8
#     2   2   2   2   2   2   2   2
#     4  11  23  45  66  97 133 172 221 279 335 388
#     4  10  23  38  65  92 134 172 215 275 326 399
#     4  11  24  44  68  93 135 176 227 276 329 393
#     4  12  26  43  71  99 138 182 221 274 333 405
#     4  10  20  42  62  97 129 166 220 273 336 390
#     4  11  23  40  65  97 128 173 223 266 337 397
#     4  10  23  42  68  94 129 169 217 287 332 390
#     4  11  25  43  65 100 130 179 226 271 333 402
#
# _framework density 22.454808
#
# number of rings (size 3 to 8) (size 9 to 14) (size 15 to 20)
#    0.000    1.250    2.500    2.625    3.500    3.000 
#    2.250    0.000    0.000    0.000    0.000    0.000 
#    0.000    0.000    0.000    0.000    0.000    0.000 
#
# Total GULP energy -198278.114644 kJ/mol
# GULP energy per Si atom -12392.382165 kJ/mol
# Density = 2.240370 g / cm^3
# Si number density = 22.454808 Si / 1000 Ang^3
#
#
#
# Elastic Constant Matrix: (Units=GPa)
#
#
# Indices 1 2 3 4 5 6 
#
# 1 117.0044 24.0933 25.9224 2.3454 -1.2505 12.8529
# 2 24.0933 123.6247 28.9914 -11.3933 -1.4858 11.6322
# 3 25.9224 28.9914 89.3755 -6.6886 -4.6036 5.4464
# 4 2.3454 -11.3933 -6.6886 33.0566 5.3498 -5.6197
# 5 -1.2505 -1.4858 -4.6036 5.3498 28.8507 -3.7315
# 6 12.8529 11.6322 5.4464 -5.6197 -3.7315 28.7539
#
#
#
# Elastic Compliance Matrix: (Units=1/GPa)
#
#
# Indices 1 2 3 4 5 6 
#
# 1 0.009792 -0.001189 -0.002390 -0.002233 -0.000108 -0.003894
# 2 -0.001189 0.009329 -0.002384 0.002529 -0.000730 -0.002392
# 3 -0.002390 -0.002384 0.012855 0.001725 0.001522 0.000133
# 4 -0.002233 0.002529 0.001725 0.033403 -0.005173 0.005505
# 5 -0.000108 -0.000730 0.001522 -0.005173 0.036307 0.003756
# 6 -0.003894 -0.002392 0.000133 0.005505 0.003756 0.039024
#
#
# Mechanical properties :
#
#
# Convention : Reuss Voigt Hill
#
# Bulk Modulus (GPa) = 49.87299 54.22429 52.04864
# Shear Modulus (GPa) = 31.38358 34.86541 33.12450
#
# Velocity S-wave (km/s) = 3.74255 3.94470 3.84495
# Velocity P-wave (km/s) = 6.39798 6.70434 6.55295
#
# Compressibility (1/GPa) = 0.02005093
#
# Stress axis : x y z
#
# Youngs Moduli (GPa) = 102.12126 107.19223 77.79282
#
# Poissons Ratio (x) = 0.12741 0.18592
# Poissons Ratio (y) = 0.12138 0.18546
# Poissons Ratio (z) = 0.24406 0.25554
#
# Static dielectric constant tensor:
#      x y z
#    x 3.942140 -0.098440 0.004440 
#    y -0.098440 4.626790 -0.055700 
#    z 0.004440 -0.055700 3.843540 
# 
# 
# High freq. dielectric constant tensor:
#      x y z
#    x 1.882450 -0.000170 -0.002770 
#    y -0.000170 1.904420 -0.009140 
#    z -0.002770 -0.009140 1.871420 
# 
# From -- ./inp_files/427211.got.cif
#   From: 2010.06.25/outbox.cif.g09.slc.cpg/sg2_214_cif.got.tgz:427211.got - 2010.06.27 13:26:56.
