data_PCOD8007582
_publ_section_title
;
Structure prediction by ZEFSAII (Michael W. Deem and Ramdas Pophale) SiO2 
 PCOD8007582
Probable space group: P -1
;
_chemical_formula_sum "Si O2"
_cell_formula_units_Z 16
_cell_length_a 21.133313
_cell_length_b 11.063497
_cell_length_c 9.132447
_cell_angle_alpha 74.744441
_cell_angle_beta 40.402527
_cell_angle_gamma 44.193931
_cell_volume 752.287241
_symmetry_space_group_name_H-M "P -1"
_symmetry_group_IT_number 2
_symmetry_cell_setting 'triclinic'
loop_
_space_group_symop_operation_xyz
x,y,z
-x,-y,-z
loop_
_atom_site_type_symbol
_atom_site_label
_atom_site_fract_x
_atom_site_fract_y
_atom_site_fract_z
Si Si1 0.178651 0.995412 0.283479
Si Si2 0.408757 0.532379 0.006399
Si Si3 0.027580 0.591128 0.824619
Si Si4 0.801527 0.476454 0.705206
Si Si5 0.887111 0.293796 0.151773
Si Si6 0.689507 0.941580 0.159081
Si Si7 0.683385 0.665736 0.169703
Si Si8 0.228562 0.853599 0.561367
O O1 0.265631 0.781721 0.119268
O O2 0.189649 0.971412 0.445454
O O3 0.978949 0.218096 0.518754
O O4 0.297053 0.990150 0.033670
O O5 0.315596 0.495932 0.192211
O O6 0.500000 0.500000 0.000000
O O7 0.573906 0.335124 0.670206
O O8 0.145780 0.458385 0.510130
O O9 0.135773 0.575797 0.730486
O O10 0.836031 0.840559 0.041272
O O11 0.000000 0.500000 0.000000
O O12 0.697964 0.636513 0.978116
O O13 0.806625 0.429389 0.098472
O O14 0.790661 0.274845 0.390012
O O15 0.091469 0.046633 0.859518
O O16 0.737982 0.747271 0.095523
O O17 0.510605 0.150024 0.491491
#
# Coordination Sequence:
#
# PCOD8007582 Si02
#       8
#     2   2   2   2   2   2   2   2
#     4  10  20  41  65  94 126 169 211 257 317 377
#     4  10  21  39  62  93 131 160 209 259 318 366
#     4  11  23  42  65  92 126 170 211 259 321 374
#     4  11  24  40  68  94 126 170 215 261 311 388
#     4  11  22  41  66  90 135 165 212 260 318 376
#     4  10  24  41  66  91 130 170 205 271 318 372
#     4  11  23  45  64  94 129 165 220 258 319 375
#     4  10  22  39  64  97 123 172 208 262 314 374
#
# _framework density 21.268471000000002
#
# number of rings (size 3 to 8) (size 9 to 14) (size 15 to 20)
#    0.000    1.500    2.500    2.625    1.750    5.000 
#    0.000    1.875    0.000    0.000    0.000    0.000 
#    0.000    0.000    0.000    0.000    0.000    0.000 
#
# Total GULP energy -198230.100903 kJ/mol
# GULP energy per Si atom -12389.381306 kJ/mol
# Density = 2.122006 g / cm^3
# Si number density = 21.268471 Si / 1000 Ang^3
#
#
#
# Elastic Constant Matrix: (Units=GPa)
#
#
# Indices 1 2 3 4 5 6 
#
# 1 74.4419 23.3361 41.4984 -9.4295 3.8702 -2.8510
# 2 23.3361 91.9118 49.5544 -23.1510 3.8353 8.6441
# 3 41.4984 49.5544 147.2293 -11.5816 -6.9617 6.3814
# 4 -9.4295 -23.1510 -11.5816 45.8367 0.5467 0.8104
# 5 3.8702 3.8353 -6.9617 0.5467 24.6630 -2.1369
# 6 -2.8510 8.6441 6.3814 0.8104 -2.1369 18.7698
#
#
#
# Elastic Compliance Matrix: (Units=1/GPa)
#
#
# Indices 1 2 3 4 5 6 
#
# 1 0.016992 -0.001882 -0.004396 0.001394 -0.003255 0.004511
# 2 -0.001882 0.016254 -0.004288 0.006914 -0.004210 -0.007091
# 3 -0.004396 -0.004288 0.009677 -0.000646 0.003972 -0.001503
# 4 0.001394 0.006914 -0.000646 0.025534 -0.002400 -0.004129
# 5 -0.003255 -0.004210 0.003972 -0.002400 0.043331 0.005131
# 6 0.004511 -0.007091 -0.001503 -0.004129 0.005131 0.058501
#
#
# Mechanical properties :
#
#
# Convention : Reuss Voigt Hill
#
# Bulk Modulus (GPa) = 45.88998 60.26231 53.07615
# Shear Modulus (GPa) = 25.16553 31.13351 28.14952
#
# Velocity S-wave (km/s) = 3.44355 3.83016 3.64199
# Velocity P-wave (km/s) = 6.11834 6.92501 6.53413
#
# Compressibility (1/GPa) = 0.02179125
#
# Stress axis : x y z
#
# Youngs Moduli (GPa) = 58.85042 61.52342 103.34154
#
# Poissons Ratio (x) = 0.11576 0.45429
# Poissons Ratio (y) = 0.11073 0.44315
# Poissons Ratio (z) = 0.25870 0.26383
#
# Static dielectric constant tensor:
#      x y z
#    x 1.609380 -0.616020 1.462120 
#    y -0.616020 3.860100 0.483670 
#    z 1.462120 0.483670 3.043910 
# 
# 
# High freq. dielectric constant tensor:
#      x y z
#    x 1.807440 0.000670 -0.010150 
#    y 0.000670 1.831130 -0.005520 
#    z -0.010150 -0.005520 1.861760 
# 
# From -- ./inp_files/245683.got.cif
#   From: 2010.06.25/outbox.cif.g09.slc.cpg/sg2_123_cif.got.tgz:245683.got - 2010.06.27 13:26:56.
