data_PCOD8007680
_publ_section_title
;
Structure prediction by ZEFSAII (Michael W. Deem and Ramdas Pophale) SiO2 
 PCOD8007680
Probable space group: P -1
;
_chemical_formula_sum "Si O2"
_cell_formula_units_Z 16
_cell_length_a 21.117526
_cell_length_b 18.280048
_cell_length_c 11.482607
_cell_angle_alpha 30.959183
_cell_angle_beta 138.821380
_cell_angle_gamma 160.427532
_cell_volume 723.452402
_symmetry_space_group_name_H-M "P -1"
_symmetry_group_IT_number 2
_symmetry_cell_setting 'triclinic'
loop_
_space_group_symop_operation_xyz
x,y,z
-x,-y,-z
loop_
_atom_site_type_symbol
_atom_site_label
_atom_site_fract_x
_atom_site_fract_y
_atom_site_fract_z
Si Si1 0.320359 0.136733 0.535006
Si Si2 0.136602 0.098692 0.909178
Si Si3 0.001002 0.629358 0.414192
Si Si4 0.251656 0.815010 0.696881
Si Si5 0.994411 0.217808 0.229456
Si Si6 0.728679 0.670693 0.467440
Si Si7 0.283006 0.326850 0.040399
Si Si8 0.419420 0.811787 0.536342
O O1 0.487219 0.354998 0.571520
O O2 0.370584 0.326228 0.252969
O O3 0.316290 0.978098 0.682103
O O4 0.108146 0.889169 0.641327
O O5 0.240513 0.300251 0.667137
O O6 0.299419 0.302604 0.960601
O O7 0.952709 0.963625 0.866806
O O8 0.061584 0.842600 0.128910
O O9 0.791279 0.390867 0.512380
O O10 0.000000 0.500000 0.500000
O O11 0.156572 0.808441 0.488666
O O12 0.442334 0.993448 0.652297
O O13 0.085323 0.480717 0.947458
O O14 0.177047 0.343753 0.319417
O O15 0.827207 0.940546 0.288067
O O16 0.403178 0.628894 0.808488
O O17 0.500000 0.000000 0.500000
#
# Coordination Sequence:
#
# PCOD8007680 Si02
#       8
#     2   2   2   2   2   2   2   2
#     4  12  25  45  72 102 134 185 241 282 336 414
#     4  10  20  41  66  99 134 171 216 284 345 406
#     4  11  22  40  67  99 139 177 215 274 354 411
#     4  12  26  43  69 102 140 182 227 286 346 411
#     4  11  27  48  65  99 142 185 239 280 343 404
#     4  11  25  43  74  95 134 187 236 286 342 400
#     4  10  22  39  68 100 137 169 223 282 349 407
#     4  11  25  39  63 102 139 174 221 281 346 412
#
# _framework density 22.116173
#
# number of rings (size 3 to 8) (size 9 to 14) (size 15 to 20)
#    0.000    1.000    3.750    2.250    3.500    4.500 
#    0.000    0.000    0.000    0.000    0.000    0.000 
#    0.000    0.000    0.000    0.000    0.000    0.000 
#
# Total GULP energy -198433.096320 kJ/mol
# GULP energy per Si atom -12402.068520 kJ/mol
# Density = 2.206584 g / cm^3
# Si number density = 22.116173 Si / 1000 Ang^3
#
#
#
# Elastic Constant Matrix: (Units=GPa)
#
#
# Indices 1 2 3 4 5 6 
#
# 1 103.7590 21.4129 32.1800 -10.8223 7.6954 -7.4041
# 2 21.4129 105.4918 18.7647 -2.8276 12.2545 -3.9411
# 3 32.1800 18.7647 80.0427 -11.1801 8.2948 -1.3102
# 4 -10.8223 -2.8276 -11.1801 31.2137 -5.6389 1.8202
# 5 7.6954 12.2545 8.2948 -5.6389 37.3331 -7.6681
# 6 -7.4041 -3.9411 -1.3102 1.8202 -7.6681 33.3593
#
#
#
# Elastic Compliance Matrix: (Units=1/GPa)
#
#
# Indices 1 2 3 4 5 6 
#
# 1 0.011565 -0.001482 -0.003920 0.002305 -0.000257 0.002053
# 2 -0.001482 0.010387 -0.001641 -0.000679 -0.002795 0.000228
# 3 -0.003920 -0.001641 0.015123 0.003668 -0.001676 -0.001055
# 4 0.002305 -0.000679 0.003668 0.034855 0.004119 -0.000379
# 5 -0.000257 -0.002795 -0.001676 0.004119 0.030029 0.006225
# 6 0.002053 0.000228 -0.001055 -0.000379 0.006225 0.031869
#
#
# Mechanical properties :
#
#
# Convention : Reuss Voigt Hill
#
# Bulk Modulus (GPa) = 43.49770 48.22319 45.86045
# Shear Modulus (GPa) = 32.13828 34.84361 33.49095
#
# Velocity S-wave (km/s) = 3.81617 3.97354 3.89565
# Velocity P-wave (km/s) = 6.25524 6.55010 6.40437
#
# Compressibility (1/GPa) = 0.02298972
#
# Stress axis : x y z
#
# Youngs Moduli (GPa) = 86.46541 96.27327 66.12590
#
# Poissons Ratio (x) = 0.14267 0.25922
# Poissons Ratio (y) = 0.12814 0.10849
# Poissons Ratio (z) = 0.33895 0.15796
#
# Static dielectric constant tensor:
#      x y z
#    x 4.369910 0.712770 -0.197840 
#    y 0.712770 5.593660 -0.575230 
#    z -0.197840 -0.575230 4.016130 
# 
# 
# High freq. dielectric constant tensor:
#      x y z
#    x 1.879820 0.004030 0.007240 
#    y 0.004030 1.876500 -0.009850 
#    z 0.007240 -0.009850 1.860330 
# 
# From -- ./inp_files/472346.got.cif
#   From: 2010.06.25/outbox.cif.g09.slc.cpg/sg2_237_cif.got.tgz:472346.got - 2010.06.27 13:26:56.
