data_PCOD8007613
_publ_section_title
;
Structure prediction by ZEFSAII (Michael W. Deem and Ramdas Pophale) SiO2 
 PCOD8007613
Probable space group: P -1
;
_chemical_formula_sum "Si O2"
_cell_formula_units_Z 12
_cell_length_a 12.562770
_cell_length_b 14.112871
_cell_length_c 11.223313
_cell_angle_alpha 147.793567
_cell_angle_beta 31.280043
_cell_angle_gamma 148.031523
_cell_volume 491.073289
_symmetry_space_group_name_H-M "P -1"
_symmetry_group_IT_number 2
_symmetry_cell_setting 'triclinic'
loop_
_space_group_symop_operation_xyz
x,y,z
-x,-y,-z
loop_
_atom_site_type_symbol
_atom_site_label
_atom_site_fract_x
_atom_site_fract_y
_atom_site_fract_z
Si Si1 0.869097 0.061742 0.487964
Si Si2 0.048452 0.293406 0.965449
Si Si3 0.140058 0.678572 0.427720
Si Si4 0.554484 0.256258 0.354875
Si Si5 0.645083 0.434766 0.706936
Si Si6 0.813225 0.579666 0.280523
O O1 0.766297 0.139810 0.561396
O O2 0.088184 0.240916 0.528314
O O3 0.950374 0.903262 0.188703
O O4 0.665430 0.961537 0.676274
O O5 0.217156 0.345493 0.741853
O O6 0.147463 0.481176 0.157388
O O7 0.789311 0.238075 0.117145
O O8 0.293476 0.725527 0.450951
O O9 0.879785 0.629759 0.656778
O O10 0.509754 0.339024 0.612825
O O11 0.578824 0.401521 0.372424
O O12 0.500000 0.500000 0.000000
O O13 0.000000 0.500000 0.000000
#
# Coordination Sequence:
#
# PCOD8007613 Si02
#       6
#     2   2   2   2   2   2
#     4  12  22  40  67  93 124 169 204 249 321 364
#     4  10  22  42  62  94 129 162 208 254 307 371
#     4  10  22  41  63  91 130 157 205 268 295 364
#     4  10  23  41  63  95 124 162 214 251 309 372
#     4  10  20  41  66  88 125 166 202 258 314 357
#     4  10  20  43  63  90 134 158 202 268 296 366
#
# _framework density 24.436271000000001
#
# number of rings (size 3 to 8) (size 9 to 14) (size 15 to 20)
#    0.000    1.667    5.000    1.500    0.000    5.333 
#    3.000   11.667    0.000    0.000    0.000    0.000 
#    0.000    0.000    0.000    0.000    0.000    0.000 
#
# Total GULP energy -148775.168215 kJ/mol
# GULP energy per Si atom -12397.930685 kJ/mol
# Density = 2.438065 g / cm^3
# Si number density = 24.436271 Si / 1000 Ang^3
#
#
#
# Elastic Constant Matrix: (Units=GPa)
#
#
# Indices 1 2 3 4 5 6 
#
# 1 86.5285 25.2084 -6.2270 13.6240 17.4713 -34.8002
# 2 25.2084 149.3652 35.8203 -7.3108 -0.0613 -27.8717
# 3 -6.2270 35.8203 112.8412 2.3193 6.8677 -15.4424
# 4 13.6240 -7.3108 2.3193 45.5137 -10.7384 -8.3458
# 5 17.4713 -0.0613 6.8677 -10.7384 21.4905 -0.7929
# 6 -34.8002 -27.8717 -15.4424 -8.3458 -0.7929 39.8157
#
#
#
# Elastic Compliance Matrix: (Units=1/GPa)
#
#
# Indices 1 2 3 4 5 6 
#
# 1 0.033940 -0.003713 0.009283 -0.015078 -0.037116 0.026766
# 2 -0.003713 0.008837 -0.003113 0.004752 0.006519 0.002859
# 3 0.009283 -0.003113 0.012613 -0.005499 -0.013988 0.009395
# 4 -0.015078 0.004752 -0.005499 0.034038 0.030881 -0.004236
# 5 -0.037116 0.006519 -0.013988 0.030881 0.095707 -0.024924
# 6 0.026766 0.002859 0.009395 -0.004236 -0.024924 0.052772
#
#
# Mechanical properties :
#
#
# Convention : Reuss Voigt Hill
#
# Bulk Modulus (GPa) = 16.58258 50.92646 33.75452
# Shear Modulus (GPa) = 19.75561 40.95951 30.35756
#
# Velocity S-wave (km/s) = 2.84642 4.09856 3.52847
# Velocity P-wave (km/s) = 4.19566 6.57900 5.51756
#
# Compressibility (1/GPa) = 0.06030424
#
# Stress axis : x y z
#
# Youngs Moduli (GPa) = 29.46373 113.16000 79.28521
#
# Poissons Ratio (x) = 0.42016 -0.73604
# Poissons Ratio (y) = 0.10940 0.24683
# Poissons Ratio (z) = -0.27353 0.35229
#
# Static dielectric constant tensor:
#      x y z
#    x 4.821730 -0.251860 0.032680 
#    y -0.251860 4.618980 -0.289820 
#    z 0.032680 -0.289820 4.294520 
# 
# 
# High freq. dielectric constant tensor:
#      x y z
#    x 1.983830 -0.012770 -0.018530 
#    y -0.012770 1.964360 -0.022990 
#    z -0.018530 -0.022990 1.971750 
# 
# From -- ./inp_files/453446.got.cif
#   From: 2010.06.25/outbox.cif.g09.slc.cpg/sg2_227_cif.got.tgz:453446.got - 2010.06.27 13:26:56.
