data_PCOD8007655
_publ_section_title
;
Structure prediction by ZEFSAII (Michael W. Deem and Ramdas Pophale) SiO2 
 PCOD8007655
Probable space group: P -1
;
_chemical_formula_sum "Si O2"
_cell_formula_units_Z 16
_cell_length_a 20.295498
_cell_length_b 18.162817
_cell_length_c 11.692231
_cell_angle_alpha 150.198544
_cell_angle_beta 29.442517
_cell_angle_gamma 158.437216
_cell_volume 737.627019
_symmetry_space_group_name_H-M "P -1"
_symmetry_group_IT_number 2
_symmetry_cell_setting 'triclinic'
loop_
_space_group_symop_operation_xyz
x,y,z
-x,-y,-z
loop_
_atom_site_type_symbol
_atom_site_label
_atom_site_fract_x
_atom_site_fract_y
_atom_site_fract_z
Si Si1 0.551359 0.398439 0.939337
Si Si2 0.517378 0.352312 0.508401
Si Si3 0.527007 0.167227 0.870083
Si Si4 0.022883 0.306872 0.299266
Si Si5 0.252600 0.125168 0.386892
Si Si6 0.610699 0.900433 0.420179
Si Si7 0.049567 0.429788 0.177264
Si Si8 0.121367 0.299813 0.690126
O O1 0.509357 0.222962 0.845910
O O2 0.459474 0.290167 0.809722
O O3 0.776749 0.616704 0.878489
O O4 0.454808 0.466108 0.230390
O O5 0.347999 0.222095 0.496222
O O6 0.467969 0.186648 0.450867
O O7 0.725871 0.478549 0.310167
O O8 0.723041 0.376952 0.911122
O O9 0.528033 0.990216 0.619066
O O10 0.361399 0.089079 0.099030
O O11 0.049938 0.488899 0.562598
O O12 0.979739 0.286806 0.202084
O O13 0.842297 0.078897 0.317765
O O14 0.250910 0.280998 0.535138
O O15 0.032559 0.897179 0.427678
O O16 0.995023 0.296244 0.966146
#
# Coordination Sequence:
#
# PCOD8007655 Si02
#       8
#     2   2   2   2   2   2   2   2
#     4  11  23  41  69  89 126 170 215 265 302 375
#     4  12  25  44  61  95 138 166 204 259 324 380
#     4  10  20  41  66  95 125 161 216 262 310 368
#     4   9  21  38  60  95 122 164 209 258 314 364
#     4  11  23  39  66  94 123 170 212 262 310 372
#     4  11  26  40  64  96 131 170 204 260 322 380
#     4   9  18  37  64  91 129 155 208 272 305 360
#     4  11  23  39  66  99 121 166 219 264 308 376
#
# _framework density 21.691181
#
# number of rings (size 3 to 8) (size 9 to 14) (size 15 to 20)
#    0.000    1.500    2.500    3.375    3.500    3.000 
#    0.000    0.625    0.000    0.000    0.000    0.000 
#    0.000    0.000    0.000    0.000    0.000    0.000 
#
# Total GULP energy -198443.616225 kJ/mol
# GULP energy per Si atom -12402.726014 kJ/mol
# Density = 2.164181 g / cm^3
# Si number density = 21.691181 Si / 1000 Ang^3
#
#
#
# Elastic Constant Matrix: (Units=GPa)
#
#
# Indices 1 2 3 4 5 6 
#
# 1 61.8202 37.9198 11.1924 0.9093 17.1651 -7.3796
# 2 37.9198 100.8869 14.8957 -0.8689 12.1649 -20.4745
# 3 11.1924 14.8957 91.4971 -3.6112 16.2766 -3.5567
# 4 0.9093 -0.8689 -3.6112 25.2280 4.2888 6.4494
# 5 17.1651 12.1649 16.2766 4.2888 27.4203 2.1739
# 6 -7.3796 -20.4745 -3.5567 6.4494 2.1739 26.2093
#
#
#
# Elastic Compliance Matrix: (Units=1/GPa)
#
#
# Indices 1 2 3 4 5 6 
#
# 1 0.024252 -0.007241 0.000550 0.000538 -0.012551 0.002155
# 2 -0.007241 0.015082 -0.000840 -0.001569 -0.002223 0.010200
# 3 0.000550 -0.000840 0.012572 0.002805 -0.007967 0.001176
# 4 0.000538 -0.001569 0.002805 0.044001 -0.007322 -0.010914
# 5 -0.012551 -0.002223 -0.007967 -0.007322 0.051888 -0.008853
# 6 0.002155 0.010200 0.001176 -0.010914 -0.008853 0.050309
#
#
# Mechanical properties :
#
#
# Convention : Reuss Voigt Hill
#
# Bulk Modulus (GPa) = 27.14092 42.46891 34.80491
# Shear Modulus (GPa) = 22.17790 28.45128 25.31459
#
# Velocity S-wave (km/s) = 3.20103 3.62560 3.41991
# Velocity P-wave (km/s) = 5.11876 6.09492 5.62804
#
# Compressibility (1/GPa) = 0.03684474
#
# Stress axis : x y z
#
# Youngs Moduli (GPa) = 41.23298 66.30241 79.53997
#
# Poissons Ratio (x) = 0.48013 -0.04374
# Poissons Ratio (y) = 0.29859 0.06678
# Poissons Ratio (z) = -0.02267 0.05567
#
# Static dielectric constant tensor:
#      x y z
#    x 3.611580 0.000370 0.088440 
#    y 0.000370 3.878550 -0.105640 
#    z 0.088440 -0.105640 3.856750 
# 
# 
# High freq. dielectric constant tensor:
#      x y z
#    x 1.824010 0.008460 0.011320 
#    y 0.008460 1.858190 -0.007840 
#    z 0.011320 -0.007840 1.855370 
# 
# From -- ./inp_files/393140.got.cif
#   From: 2010.06.25/outbox.cif.g09.slc.cpg/sg2_197_cif.got.tgz:393140.got - 2010.06.27 13:26:56.
