data_PCOD8007396
_publ_section_title
;
Structure prediction by ZEFSAII (Michael W. Deem and Ramdas Pophale) SiO2 
 PCOD8007396
Probable space group: P -1
;
_chemical_formula_sum "Si O2"
_cell_formula_units_Z 16
_cell_length_a 19.093065
_cell_length_b 19.019125
_cell_length_c 7.594943
_cell_angle_alpha 130.701159
_cell_angle_beta 43.411711
_cell_angle_gamma 157.045108
_cell_volume 737.757884
_symmetry_space_group_name_H-M "P -1"
_symmetry_group_IT_number 2
_symmetry_cell_setting 'triclinic'
loop_
_space_group_symop_operation_xyz
x,y,z
-x,-y,-z
loop_
_atom_site_type_symbol
_atom_site_label
_atom_site_fract_x
_atom_site_fract_y
_atom_site_fract_z
Si Si1 0.220259 0.542203 0.417971
Si Si2 0.804296 0.805257 0.962946
Si Si3 0.542741 0.346889 0.521143
Si Si4 0.706889 0.653509 0.542229
Si Si5 0.438788 0.054518 0.658029
Si Si6 0.233434 0.811636 0.320677
Si Si7 0.427815 0.072666 0.091871
Si Si8 0.295181 0.412275 0.915534
O O1 0.280054 0.551947 0.516468
O O2 0.364123 0.737847 0.422258
O O3 0.993426 0.399508 0.602063
O O4 0.234384 0.471661 0.133052
O O5 0.628093 0.742956 0.187971
O O6 0.748252 0.670466 0.955168
O O7 0.848201 0.805527 0.683891
O O8 0.000000 0.000000 0.000000
O O9 0.622584 0.486759 0.473066
O O10 0.451616 0.192942 0.323051
O O11 0.528885 0.587785 0.734358
O O12 0.818450 0.726406 0.269242
O O13 0.500000 0.000000 0.500000
O O14 0.282205 0.926017 0.572324
O O15 0.349178 0.025386 0.956797
O O16 0.269581 0.890364 0.196285
O O17 0.363729 0.820349 0.114013
#
# Coordination Sequence:
#
# PCOD8007396 Si02
#       8
#     2   2   2   2   2   2   2   2
#     4  12  22  41  71  94 131 175 215 267 326 380
#     4  11  23  39  62  90 131 164 203 267 320 375
#     4  11  21  40  66  89 126 169 210 265 322 382
#     4  10  20  41  62  89 121 161 214 255 316 380
#     4  10  23  45  64  91 131 169 214 276 319 374
#     4  10  24  43  64  95 129 170 218 268 320 384
#     4  10  22  44  64  92 132 167 215 269 323 382
#     4  10  21  39  64  89 120 164 210 258 311 383
#
# _framework density 21.687332000000001
#
# number of rings (size 3 to 8) (size 9 to 14) (size 15 to 20)
#    0.000    1.500    3.750    1.500    1.750    3.000 
#    6.750    0.000    0.000    0.000    0.000    0.000 
#    0.000    0.000    0.000    0.000    0.000    0.000 
#
# Total GULP energy -198353.908908 kJ/mol
# GULP energy per Si atom -12397.119307 kJ/mol
# Density = 2.163797 g / cm^3
# Si number density = 21.687332 Si / 1000 Ang^3
#
#
#
# Elastic Constant Matrix: (Units=GPa)
#
#
# Indices 1 2 3 4 5 6 
#
# 1 78.8218 27.9802 32.9913 -1.7700 16.7819 2.7595
# 2 27.9802 85.3989 15.4455 9.0633 -0.9396 7.4784
# 3 32.9913 15.4455 94.4469 23.3023 14.4260 -2.5463
# 4 -1.7700 9.0633 23.3023 27.7687 1.0567 2.5225
# 5 16.7819 -0.9396 14.4260 1.0567 46.3927 10.5892
# 6 2.7595 7.4784 -2.5463 2.5225 10.5892 20.1455
#
#
#
# Elastic Compliance Matrix: (Units=1/GPa)
#
#
# Indices 1 2 3 4 5 6 
#
# 1 0.019149 -0.006035 -0.007261 0.009460 -0.005045 0.000167
# 2 -0.006035 0.014760 0.000142 -0.004918 0.003940 -0.006090
# 3 -0.007261 0.000142 0.017919 -0.016062 -0.004282 0.007469
# 4 0.009460 -0.004918 -0.016062 0.052454 0.002409 -0.009334
# 5 -0.005045 0.003940 -0.004282 0.002409 0.028527 -0.016609
# 6 0.000167 -0.006090 0.007469 -0.009334 -0.016609 0.062720
#
#
# Mechanical properties :
#
#
# Convention : Reuss Voigt Hill
#
# Bulk Modulus (GPa) = 39.18568 45.72240 42.45404
# Shear Modulus (GPa) = 21.70659 31.01142 26.35901
#
# Velocity S-wave (km/s) = 3.16711 3.78555 3.49006
# Velocity P-wave (km/s) = 5.61087 6.34314 5.98821
#
# Compressibility (1/GPa) = 0.02551953
#
# Stress axis : x y z
#
# Youngs Moduli (GPa) = 52.22233 67.75090 55.80590
#
# Poissons Ratio (x) = 0.40886 0.40521
# Poissons Ratio (y) = 0.31515 -0.00790
# Poissons Ratio (z) = 0.37919 -0.00959
#
# Static dielectric constant tensor:
#      x y z
#    x 4.475860 -0.277010 0.520120 
#    y -0.277010 3.932210 0.164790 
#    z 0.520120 0.164790 4.438900 
# 
# 
# High freq. dielectric constant tensor:
#      x y z
#    x 1.857060 -0.004080 0.015840 
#    y -0.004080 1.822870 0.021220 
#    z 0.015840 0.021220 1.863580 
# 
# From -- ./inp_files/349709.got.cif
#   From: 2010.06.25/outbox.cif.g09.slc.cpg/sg2_175_cif.got.tgz:349709.got - 2010.06.27 13:26:56.
