data_PCOD8007581
_publ_section_title
;
Structure prediction by ZEFSAII (Michael W. Deem and Ramdas Pophale) SiO2 
 PCOD8007581
Probable space group: P -1
;
_chemical_formula_sum "Si O2"
_cell_formula_units_Z 16
_cell_length_a 20.165340
_cell_length_b 7.910832
_cell_length_c 22.809383
_cell_angle_alpha 73.487622
_cell_angle_beta 11.592739
_cell_angle_gamma 73.539483
_cell_volume 700.816571
_symmetry_space_group_name_H-M "P -1"
_symmetry_group_IT_number 2
_symmetry_cell_setting 'triclinic'
loop_
_space_group_symop_operation_xyz
x,y,z
-x,-y,-z
loop_
_atom_site_type_symbol
_atom_site_label
_atom_site_fract_x
_atom_site_fract_y
_atom_site_fract_z
Si Si1 0.806442 0.779825 0.248212
Si Si2 0.787543 0.136495 0.744351
Si Si3 0.878630 0.384267 0.402969
Si Si4 0.748740 0.820323 0.000618
Si Si5 0.531055 0.700702 0.609968
Si Si6 0.453305 0.471712 0.974439
Si Si7 0.478649 0.851755 0.901306
Si Si8 0.267230 0.936212 0.626756
O O1 0.634903 0.656891 0.457457
O O2 0.576971 0.805951 0.387158
O O3 0.870958 0.975014 0.201523
O O4 0.140848 0.677171 0.952322
O O5 0.154406 0.068638 0.413420
O O6 0.706183 0.308505 0.757379
O O7 0.765880 0.171627 0.829428
O O8 0.500000 0.000000 0.000000
O O9 0.603059 0.242389 0.666796
O O10 0.715567 0.571160 0.507884
O O11 0.086833 0.413541 0.279026
O O12 0.121966 0.308841 0.149546
O O13 0.709191 0.023274 0.994303
O O14 0.997323 0.819067 0.840275
O O15 0.619549 0.903323 0.529465
O O16 0.500000 0.500000 0.000000
O O17 0.541415 0.649294 0.843994
#
# Coordination Sequence:
#
# PCOD8007581 Si02
#       8
#     2   2   2   2   2   2   2   2
#     4   9  20  38  71  95 125 162 226 258 301 371
#     4  11  22  40  65  92 126 157 199 262 325 369
#     4  12  27  44  62  94 135 165 211 269 325 381
#     4  12  26  42  63  95 132 171 207 261 330 375
#     4  10  20  41  65  94 125 171 212 265 308 371
#     4  10  24  45  67  94 122 169 219 265 312 382
#     4  11  23  41  62  92 118 164 214 252 304 382
#     4   9  22  39  70  93 128 168 217 257 311 379
#
# _framework density 22.830508999999999
#
# number of rings (size 3 to 8) (size 9 to 14) (size 15 to 20)
#    0.750    0.750    0.000    4.875    1.750    5.000 
#    4.500    3.750    0.000    0.000    0.000    0.000 
#    0.000    0.000    0.000    0.000    0.000    0.000 
#
# Total GULP energy -198280.938077 kJ/mol
# GULP energy per Si atom -12392.558630 kJ/mol
# Density = 2.277855 g / cm^3
# Si number density = 22.830509 Si / 1000 Ang^3
#
#
#
# Elastic Constant Matrix: (Units=GPa)
#
#
# Indices 1 2 3 4 5 6 
#
# 1 93.9422 31.0633 43.5383 -4.5948 -36.4474 -10.2531
# 2 31.0633 63.1398 12.2692 6.0503 -15.6552 -14.5256
# 3 43.5383 12.2692 122.2395 7.7992 -12.7416 -4.3054
# 4 -4.5948 6.0503 7.7992 32.0526 -6.1020 -9.6508
# 5 -36.4474 -15.6552 -12.7416 -6.1020 45.2286 -1.9598
# 6 -10.2531 -14.5256 -4.3054 -9.6508 -1.9598 30.9575
#
#
#
# Elastic Compliance Matrix: (Units=1/GPa)
#
#
# Indices 1 2 3 4 5 6 
#
# 1 0.023882 -0.005052 -0.006598 0.012229 0.017702 0.009555
# 2 -0.005052 0.021096 0.000435 -0.001757 0.003461 0.007957
# 3 -0.006598 0.000435 0.010404 -0.004794 -0.002978 -0.002217
# 4 0.012229 -0.001757 -0.004794 0.042175 0.014306 0.016612
# 5 0.017702 0.003461 -0.002978 0.014306 0.039272 0.014019
# 6 0.009555 0.007957 -0.002217 0.016612 0.014019 0.044958
#
#
# Mechanical properties :
#
#
# Convention : Reuss Voigt Hill
#
# Bulk Modulus (GPa) = 30.34612 50.34033 40.34322
# Shear Modulus (GPa) = 23.23413 34.47780 28.85597
#
# Velocity S-wave (km/s) = 3.19357 3.89030 3.55902
# Velocity P-wave (km/s) = 5.18838 6.50205 5.88200
#
# Compressibility (1/GPa) = 0.03295314
#
# Stress axis : x y z
#
# Youngs Moduli (GPa) = 41.87262 47.40269 96.11443
#
# Poissons Ratio (x) = 0.23948 0.63413
# Poissons Ratio (y) = 0.21154 -0.04182
# Poissons Ratio (z) = 0.27626 -0.02063
#
# Static dielectric constant tensor:
#      x y z
#    x 4.025170 -0.078820 0.111050 
#    y -0.078820 4.328110 0.184030 
#    z 0.111050 0.184030 4.154560 
# 
# 
# High freq. dielectric constant tensor:
#      x y z
#    x 1.879370 -0.019230 -0.011220 
#    y -0.019230 1.900470 0.007650 
#    z -0.011220 0.007650 1.902470 
# 
# From -- ./inp_files/613600.got.cif
#   From: 2010.06.25/outbox.cif.g09.slc.cpg/sg2_307_cif.got.tgz:613600.got - 2010.06.27 13:26:56.
