data_PCOD8007416
_publ_section_title
;
Structure prediction by ZEFSAII (Michael W. Deem and Ramdas Pophale) SiO2 
 PCOD8007416
Probable space group: P -1
;
_chemical_formula_sum "Si O2"
_cell_formula_units_Z 16
_cell_length_a 8.057212
_cell_length_b 11.877965
_cell_length_c 11.270171
_cell_angle_alpha 130.023155
_cell_angle_beta 63.135463
_cell_angle_gamma 102.355524
_cell_volume 732.178597
_symmetry_space_group_name_H-M "P -1"
_symmetry_group_IT_number 2
_symmetry_cell_setting 'triclinic'
loop_
_space_group_symop_operation_xyz
x,y,z
-x,-y,-z
loop_
_atom_site_type_symbol
_atom_site_label
_atom_site_fract_x
_atom_site_fract_y
_atom_site_fract_z
Si Si1 0.071265 0.504695 0.640705
Si Si2 0.141959 0.261398 0.268115
Si Si3 0.780118 0.388082 0.810547
Si Si4 0.531006 0.149635 0.027402
Si Si5 0.409837 0.551966 0.688625
Si Si6 0.121863 0.179490 0.649594
Si Si7 0.135040 0.023568 0.303557
Si Si8 0.417660 0.371379 0.790917
O O1 0.183602 0.394981 0.434218
O O2 0.194404 0.516140 0.726086
O O3 0.030552 0.670988 0.711593
O O4 0.878608 0.445162 0.700305
O O5 0.324924 0.219579 0.096147
O O6 0.098353 0.117292 0.258013
O O7 0.604449 0.307667 0.761380
O O8 0.928169 0.284825 0.770167
O O9 0.710140 0.521499 0.009351
O O10 0.595449 0.271606 0.178840
O O11 0.500000 0.000000 0.000000
O O12 0.692371 0.108834 0.850298
O O13 0.500000 0.500000 0.500000
O O14 0.490435 0.461627 0.716550
O O15 0.192131 0.130075 0.462075
O O16 0.293342 0.243212 0.703993
O O17 0.061483 0.040072 0.648817
#
# Coordination Sequence:
#
# PCOD8007416 Si02
#       8
#     2   2   2   2   2   2   2   2
#     4  11  22  37  70  96 131 168 224 282 335 388
#     4  10  20  41  62  97 132 172 215 279 337 391
#     4  11  23  42  68 100 132 168 222 289 333 388
#     4  10  22  39  62  90 135 174 213 272 332 397
#     4  12  23  39  68 102 131 174 229 275 336 403
#     4  11  22  42  69  94 131 183 224 274 329 411
#     4  10  22  40  68  91 138 184 220 266 343 401
#     4  11  25  41  68 103 133 170 230 282 336 390
#
# _framework density 21.852591
#
# number of rings (size 3 to 8) (size 9 to 14) (size 15 to 20)
#    0.000    1.250    3.750    1.875    5.250    1.000 
#    0.000    5.000   13.750    0.000    0.000    0.000 
#    0.000    0.000    0.000    0.000    0.000    0.000 
#
# Total GULP energy -198264.055754 kJ/mol
# GULP energy per Si atom -12391.503485 kJ/mol
# Density = 2.180285 g / cm^3
# Si number density = 21.852591 Si / 1000 Ang^3
#
#
#
# Elastic Constant Matrix: (Units=GPa)
#
#
# Indices 1 2 3 4 5 6 
#
# 1 103.8970 14.3246 11.6803 12.9322 10.1701 16.7252
# 2 14.3246 61.4934 -3.8944 3.1185 -2.5217 8.2448
# 3 11.6803 -3.8944 90.6833 3.5921 -9.8240 13.8777
# 4 12.9322 3.1185 3.5921 31.4023 3.0273 1.3101
# 5 10.1701 -2.5217 -9.8240 3.0273 33.9302 8.0607
# 6 16.7252 8.2448 13.8777 1.3101 8.0607 31.4769
#
#
#
# Elastic Compliance Matrix: (Units=1/GPa)
#
#
# Indices 1 2 3 4 5 6 
#
# 1 0.011454 -0.002059 -0.001022 -0.003975 -0.002509 -0.004289
# 2 -0.002059 0.017887 0.002395 -0.001362 0.004101 -0.005640
# 3 -0.001022 0.002395 0.013126 -0.001606 0.006183 -0.007388
# 4 -0.003975 -0.001362 -0.001606 0.033985 -0.003009 0.002533
# 5 -0.002509 0.004101 0.006183 -0.003009 0.035291 -0.011380
# 6 -0.004289 -0.005640 -0.007388 0.002533 -0.011380 0.041591
#
#
# Mechanical properties :
#
#
# Convention : Reuss Voigt Hill
#
# Bulk Modulus (GPa) = 24.33410 33.36608 28.85009
# Shear Modulus (GPa) = 29.69024 34.95942 32.32483
#
# Velocity S-wave (km/s) = 3.69000 4.00407 3.85024
# Velocity P-wave (km/s) = 5.41429 6.05629 5.74426
#
# Compressibility (1/GPa) = 0.04109460
#
# Stress axis : x y z
#
# Youngs Moduli (GPa) = 87.30251 55.90718 76.18520
#
# Poissons Ratio (x) = 0.11513 0.07785
# Poissons Ratio (y) = 0.17978 -0.18245
# Poissons Ratio (z) = 0.08921 -0.13389
#
# Static dielectric constant tensor:
#      x y z
#    x 4.059440 0.100500 -0.218750 
#    y 0.100500 3.890230 -0.013450 
#    z -0.218750 -0.013450 4.265810 
# 
# 
# High freq. dielectric constant tensor:
#      x y z
#    x 1.846750 0.010290 -0.015740 
#    y 0.010290 1.859800 -0.004490 
#    z -0.015740 -0.004490 1.864960 
# 
# From -- ./inp_files/393005.got.cif
#   From: 2010.06.25/outbox.cif.g09.slc.cpg/sg2_197_cif.got.tgz:393005.got - 2010.06.27 13:26:56.
