data_PCOD8007534
_publ_section_title
;
Structure prediction by ZEFSAII (Michael W. Deem and Ramdas Pophale) SiO2 
 PCOD8007534
Probable space group: P -1
;
_chemical_formula_sum "Si O2"
_cell_formula_units_Z 16
_cell_length_a 8.283010
_cell_length_b 8.513338
_cell_length_c 14.933377
_cell_angle_alpha 70.362765
_cell_angle_beta 127.814825
_cell_angle_gamma 81.986486
_cell_volume 693.949170
_symmetry_space_group_name_H-M "P -1"
_symmetry_group_IT_number 2
_symmetry_cell_setting 'triclinic'
loop_
_space_group_symop_operation_xyz
x,y,z
-x,-y,-z
loop_
_atom_site_type_symbol
_atom_site_label
_atom_site_fract_x
_atom_site_fract_y
_atom_site_fract_z
Si Si1 0.849412 0.849524 0.561683
Si Si2 0.315886 0.761451 0.653550
Si Si3 0.939774 0.948958 0.759187
Si Si4 0.559601 0.339561 0.776145
Si Si5 0.451298 0.824869 0.013704
Si Si6 0.656647 0.620034 0.946531
Si Si7 0.502273 0.306203 0.564640
Si Si8 0.028491 0.718281 0.985702
O O1 0.708022 0.729162 0.536032
O O2 0.062640 0.775579 0.578750
O O3 0.688766 0.070338 0.441206
O O4 0.955480 0.824835 0.701719
O O5 0.471910 0.564151 0.696141
O O6 0.434485 0.767274 0.787379
O O7 0.747146 0.160043 0.634226
O O8 0.184013 0.928945 0.875677
O O9 0.849539 0.881467 0.829484
O O10 0.490055 0.278948 0.672185
O O11 0.464679 0.273988 0.841841
O O12 0.841602 0.230063 0.901102
O O13 0.600651 0.659447 0.024545
O O14 0.500000 0.000000 0.000000
O O15 0.895230 0.623392 0.006687
O O16 0.744077 0.406116 0.981128
O O17 0.500000 0.500000 0.500000
#
# Coordination Sequence:
#
# PCOD8007534 Si02
#       8
#     2   2   2   2   2   2   2   2
#     4  11  24  42  71  96 128 184 233 287 328 402
#     4  10  22  42  70  96 133 175 232 283 332 408
#     4  11  24  44  66  98 132 178 232 276 338 406
#     4  10  25  44  64 101 137 177 222 282 347 407
#     4  11  26  39  71 103 143 177 218 286 351 415
#     4  10  20  41  65 104 130 171 224 273 343 401
#     4  12  28  45  68  97 141 184 229 286 340 406
#     4   9  22  38  72  96 131 172 217 283 336 408
#
# _framework density 23.056443999999999
#
# number of rings (size 3 to 8) (size 9 to 14) (size 15 to 20)
#    0.000    1.500    1.250    1.875    7.000    7.000 
#    0.000    0.000    0.000    0.000    0.000    0.000 
#    0.000    0.000    0.000    0.000    0.000    0.000 
#
# Total GULP energy -198232.402637 kJ/mol
# GULP energy per Si atom -12389.525165 kJ/mol
# Density = 2.300397 g / cm^3
# Si number density = 23.056444 Si / 1000 Ang^3
#
#
#
# Elastic Constant Matrix: (Units=GPa)
#
#
# Indices 1 2 3 4 5 6 
#
# 1 95.4212 21.8049 27.1342 8.8722 3.2048 5.8128
# 2 21.8049 72.7811 28.8948 10.1818 -0.6506 11.5032
# 3 27.1342 28.8948 101.7052 16.3254 -2.6836 10.6273
# 4 8.8722 10.1818 16.3254 40.2767 -5.2961 -5.2860
# 5 3.2048 -0.6506 -2.6836 -5.2961 29.7600 -0.4036
# 6 5.8128 11.5032 10.6273 -5.2860 -0.4036 39.9387
#
#
#
# Elastic Compliance Matrix: (Units=1/GPa)
#
#
# Indices 1 2 3 4 5 6 
#
# 1 0.011897 -0.002385 -0.002246 -0.001430 -0.001799 -0.000654
# 2 -0.002385 0.016790 -0.003245 -0.002965 -0.000251 -0.004020
# 3 -0.002246 -0.003245 0.012258 -0.003912 0.000546 -0.002513
# 4 -0.001430 -0.002965 -0.003912 0.028916 0.004963 0.005980
# 5 -0.001799 -0.000251 0.000546 0.004963 0.034739 0.001197
# 6 -0.000654 -0.004020 -0.002513 0.005980 0.001197 0.027764
#
#
# Mechanical properties :
#
#
# Convention : Reuss Voigt Hill
#
# Bulk Modulus (GPa) = 39.69184 47.28614 43.48899
# Shear Modulus (GPa) = 31.94620 34.80001 33.37310
#
# Velocity S-wave (km/s) = 3.72636 3.88924 3.80867
# Velocity P-wave (km/s) = 5.98053 6.38135 6.18419
#
# Compressibility (1/GPa) = 0.02519409
#
# Stress axis : x y z
#
# Youngs Moduli (GPa) = 84.05632 59.55759 81.57844
#
# Poissons Ratio (x) = 0.14206 0.18322
# Poissons Ratio (y) = 0.20049 0.26468
# Poissons Ratio (z) = 0.18878 0.19323
#
# Static dielectric constant tensor:
#      x y z
#    x 4.032780 -0.022570 -0.070250 
#    y -0.022570 4.160660 0.031280 
#    z -0.070250 0.031280 4.306920 
# 
# 
# High freq. dielectric constant tensor:
#      x y z
#    x 1.908060 0.003530 -0.002460 
#    y 0.003530 1.905390 0.002710 
#    z -0.002460 0.002710 1.921880 
# 
# From -- ./inp_files/272701.got.cif
#   From: 2010.06.25/outbox.cif.g09.slc.cpg/sg2_137_cif.got.tgz:272701.got - 2010.06.27 13:26:56.
