data_PCOD8007544
_publ_section_title
;
Structure prediction by ZEFSAII (Michael W. Deem and Ramdas Pophale) SiO2 
 PCOD8007544
Probable space group: P -1
;
_chemical_formula_sum "Si O2"
_cell_formula_units_Z 16
_cell_length_a 14.133981
_cell_length_b 6.804923
_cell_length_c 13.970085
_cell_angle_alpha 114.932106
_cell_angle_beta 119.793294
_cell_angle_gamma 41.185986
_cell_volume 765.182698
_symmetry_space_group_name_H-M "P -1"
_symmetry_group_IT_number 2
_symmetry_cell_setting 'triclinic'
loop_
_space_group_symop_operation_xyz
x,y,z
-x,-y,-z
loop_
_atom_site_type_symbol
_atom_site_label
_atom_site_fract_x
_atom_site_fract_y
_atom_site_fract_z
Si Si1 0.370069 0.215922 0.340545
Si Si2 0.116793 0.509059 0.598069
Si Si3 0.745938 0.768648 0.189345
Si Si4 0.511474 0.152982 0.866946
Si Si5 0.661312 0.971808 0.521155
Si Si6 0.950898 0.110973 0.104763
Si Si7 0.137932 0.890010 0.329228
Si Si8 0.282080 0.845887 0.895526
O O1 0.358110 0.050264 0.381672
O O2 0.211736 0.559417 0.323871
O O3 0.401519 0.049256 0.223789
O O4 0.501630 0.204516 0.433687
O O5 0.191107 0.302746 0.686806
O O6 0.245826 0.354175 0.550085
O O7 0.000000 0.500000 0.500000
O O8 0.025399 0.857047 0.646965
O O9 0.570113 0.936949 0.139819
O O10 0.841602 0.465792 0.114592
O O11 0.763338 0.977011 0.190151
O O12 0.380908 0.502627 0.844366
O O13 0.628680 0.101515 0.986328
O O14 0.746543 0.081460 0.575820
O O15 0.863832 0.026967 0.091600
O O16 0.100798 0.953981 0.210458
O O17 0.000000 0.000000 0.000000
#
# Coordination Sequence:
#
# PCOD8007544 Si02
#       8
#     2   2   2   2   2   2   2   2
#     4  11  23  39  65  94 124 159 206 258 312 370
#     4   9  19  40  61  88 122 160 206 249 294 372
#     4  10  20  41  65  87 121 164 208 255 308 366
#     4  10  22  41  62  95 124 153 215 258 302 376
#     4  10  22  42  61  91 127 159 207 258 308 363
#     4  10  24  40  59  93 125 158 210 255 301 380
#     4  10  23  40  63  88 125 165 202 251 315 362
#     4  10  23  41  65  90 122 167 206 252 315 362
#
# _framework density 20.910039000000001
#
# number of rings (size 3 to 8) (size 9 to 14) (size 15 to 20)
#    0.000    2.000    1.250    0.750    3.500    5.000 
#    9.000    0.000    0.000    0.000    0.000    0.000 
#    0.000    0.000    0.000    0.000    0.000    0.000 
#
# Total GULP energy -198364.923306 kJ/mol
# GULP energy per Si atom -12397.807707 kJ/mol
# Density = 2.086245 g / cm^3
# Si number density = 20.910039 Si / 1000 Ang^3
#
#
#
# Elastic Constant Matrix: (Units=GPa)
#
#
# Indices 1 2 3 4 5 6 
#
# 1 83.7701 26.5211 21.7291 2.8318 -6.9807 0.3928
# 2 26.5211 88.5572 24.5839 0.8846 -10.3362 -8.7451
# 3 21.7291 24.5839 89.3842 5.7120 -13.9285 -7.6932
# 4 2.8318 0.8846 5.7120 23.4749 -9.0254 0.8984
# 5 -6.9807 -10.3362 -13.9285 -9.0254 31.9810 4.7093
# 6 0.3928 -8.7451 -7.6932 0.8984 4.7093 27.8500
#
#
#
# Elastic Compliance Matrix: (Units=1/GPa)
#
#
# Indices 1 2 3 4 5 6 
#
# 1 0.013789 -0.003559 -0.002368 -0.000486 0.001003 -0.002120
# 2 -0.003559 0.013592 -0.002288 0.001319 0.002518 0.003218
# 3 -0.002368 -0.002288 0.013280 -0.001510 0.003748 0.002398
# 4 -0.000486 0.001319 -0.001510 0.048477 0.013919 -0.003914
# 5 0.001003 0.002518 0.003748 0.013919 0.038623 -0.005168
# 6 -0.002120 0.003218 0.002398 -0.003914 -0.005168 0.038610
#
#
# Mechanical properties :
#
#
# Convention : Reuss Voigt Hill
#
# Bulk Modulus (GPa) = 41.27310 45.26441 43.26876
# Shear Modulus (GPa) = 26.19503 29.25300 27.72402
#
# Velocity S-wave (km/s) = 3.54326 3.74437 3.64520
# Velocity P-wave (km/s) = 6.04325 6.35515 6.20116
#
# Compressibility (1/GPa) = 0.02422886
#
# Stress axis : x y z
#
# Youngs Moduli (GPa) = 72.52397 73.57430 75.30381
#
# Poissons Ratio (x) = 0.26188 0.17833
# Poissons Ratio (y) = 0.25815 0.17229
# Poissons Ratio (z) = 0.17174 0.16833
#
# Static dielectric constant tensor:
#      x y z
#    x 3.792410 -0.389080 -0.009980 
#    y -0.389080 3.868040 0.097990 
#    z -0.009980 0.097990 3.926420 
# 
# 
# High freq. dielectric constant tensor:
#      x y z
#    x 1.809940 -0.019370 0.002860 
#    y -0.019370 1.809680 -0.003710 
#    z 0.002860 -0.003710 1.834630 
# 
# From -- ./inp_files/454686.got.cif
#   From: 2010.06.25/outbox.cif.g09.slc.cpg/sg2_228_cif.got.tgz:454686.got - 2010.06.27 13:26:56.
