data_PCOD8007736
_publ_section_title
;
Structure prediction by ZEFSAII (Michael W. Deem and Ramdas Pophale) SiO2 
 PCOD8007736
Probable space group: P -1
;
_chemical_formula_sum "Si O2"
_cell_formula_units_Z 16
_cell_length_a 7.278452
_cell_length_b 9.817217
_cell_length_c 18.384530
_cell_angle_alpha 147.087031
_cell_angle_beta 89.455721
_cell_angle_gamma 92.346817
_cell_volume 712.443440
_symmetry_space_group_name_H-M "P -1"
_symmetry_group_IT_number 2
_symmetry_cell_setting 'triclinic'
loop_
_space_group_symop_operation_xyz
x,y,z
-x,-y,-z
loop_
_atom_site_type_symbol
_atom_site_label
_atom_site_fract_x
_atom_site_fract_y
_atom_site_fract_z
Si Si1 0.106425 0.140523 0.691514
Si Si2 0.437437 0.249886 0.647123
Si Si3 0.831251 0.675148 0.075290
Si Si4 0.934873 0.451058 0.559918
Si Si5 0.268401 0.597555 0.179914
Si Si6 0.792977 0.901730 0.959037
Si Si7 0.406758 0.322885 0.269002
Si Si8 0.229181 0.831578 0.782837
O O1 0.219012 0.234834 0.661376
O O2 0.225072 0.256994 0.812230
O O3 0.898313 0.219037 0.733191
O O4 0.090303 0.841287 0.555482
O O5 0.544075 0.267880 0.731947
O O6 0.486778 0.474655 0.692988
O O7 0.500000 0.000000 0.500000
O O8 0.872519 0.944862 0.156237
O O9 0.689148 0.510532 0.950003
O O10 0.000000 0.500000 0.000000
O O11 0.738316 0.563065 0.625248
O O12 0.000000 0.500000 0.500000
O O13 0.089125 0.585519 0.672320
O O14 0.209362 0.379297 0.138174
O O15 0.695536 0.898796 0.879067
O O16 0.704839 0.092162 0.100942
O O17 0.000000 0.000000 0.000000
O O18 0.568400 0.219731 0.273900
#
# Coordination Sequence:
#
# PCOD8007736 Si02
#       8
#     2   2   2   2   2   2   2   2
#     4  11  23  42  68  93 129 173 221 265 327 391
#     4  11  24  41  61  95 136 171 214 267 318 395
#     4   9  20  46  68  94 128 168 224 270 324 390
#     4  12  25  43  66  97 133 179 217 271 335 393
#     4   9  23  41  65  93 127 172 219 268 326 380
#     4  10  20  41  67  96 132 172 219 272 328 387
#     4  11  25  43  65 101 135 170 226 269 332 399
#     4  11  23  42  69  99 132 173 217 279 332 385
#
# _framework density 22.457924999999999
#
# number of rings (size 3 to 8) (size 9 to 14) (size 15 to 20)
#    0.000    1.500    3.750    0.375    3.500    1.500 
#    2.250    0.000    0.000    0.000    0.000    0.000 
#    0.000    0.000    0.000    0.000    0.000    0.000 
#
# Total GULP energy -198219.091583 kJ/mol
# GULP energy per Si atom -12388.693224 kJ/mol
# Density = 2.240681 g / cm^3
# Si number density = 22.457925 Si / 1000 Ang^3
#
#
#
# Elastic Constant Matrix: (Units=GPa)
#
#
# Indices 1 2 3 4 5 6 
#
# 1 117.6574 34.9343 43.4231 15.7958 -14.2531 2.2239
# 2 34.9343 62.6199 33.3070 -4.3360 -1.9783 5.2547
# 3 43.4231 33.3070 136.6717 8.2644 -2.9601 -1.3788
# 4 15.7958 -4.3360 8.2644 18.8342 5.5256 -4.5792
# 5 -14.2531 -1.9783 -2.9601 5.5256 33.4806 -4.0537
# 6 2.2239 5.2547 -1.3788 -4.5792 -4.0537 35.1996
#
#
#
# Elastic Compliance Matrix: (Units=1/GPa)
#
#
# Indices 1 2 3 4 5 6 
#
# 1 0.014650 -0.008140 -0.001529 -0.016111 0.008167 -0.000926
# 2 -0.008140 0.023830 -0.004275 0.015264 -0.005175 -0.001821
# 3 -0.001529 -0.004275 0.009088 -0.003698 0.000592 0.000678
# 4 -0.016111 0.015264 -0.003698 0.078797 -0.018475 0.006718
# 5 0.008167 -0.005175 0.000592 -0.018475 0.036391 0.002067
# 6 -0.000926 -0.001821 0.000678 0.006718 0.002067 0.029878
#
#
# Mechanical properties :
#
#
# Convention : Reuss Voigt Hill
#
# Bulk Modulus (GPa) = 50.81036 60.03087 55.42061
# Shear Modulus (GPa) = 22.01846 31.18851 26.60349
#
# Velocity S-wave (km/s) = 3.13458 3.73064 3.44552
# Velocity P-wave (km/s) = 5.98119 6.73389 6.36867
#
# Compressibility (1/GPa) = 0.01968102
#
# Stress axis : x y z
#
# Youngs Moduli (GPa) = 68.25823 41.96358 110.03830
#
# Poissons Ratio (x) = 0.34156 0.16828
# Poissons Ratio (y) = 0.55559 0.47039
# Poissons Ratio (z) = 0.10439 0.17939
#
# Static dielectric constant tensor:
#      x y z
#    x 4.775640 -0.333780 -1.102730 
#    y -0.333780 4.016580 0.274880 
#    z -1.102730 0.274880 6.529690 
# 
# 
# High freq. dielectric constant tensor:
#      x y z
#    x 1.882720 -0.007410 -0.001140 
#    y -0.007410 1.860530 -0.001960 
#    z -0.001140 -0.001960 1.913020 
# 
# From -- ./inp_files/583375.got.cif
#   From: 2010.06.25/outbox.cif.g09.slc.cpg/sg2_292_cif.got.tgz:583375.got - 2010.06.27 13:26:56.
