data_PCOD8007753
_publ_section_title
;
Structure prediction by ZEFSAII (Michael W. Deem and Ramdas Pophale) SiO2 
 PCOD8007753
Probable space group: P -1
;
_chemical_formula_sum "Si O2"
_cell_formula_units_Z 12
_cell_length_a 7.815827
_cell_length_b 11.843471
_cell_length_c 7.814435
_cell_angle_alpha 58.225250
_cell_angle_beta 125.381202
_cell_angle_gamma 88.235583
_cell_volume 438.648928
_symmetry_space_group_name_H-M "P -1"
_symmetry_group_IT_number 2
_symmetry_cell_setting 'triclinic'
loop_
_space_group_symop_operation_xyz
x,y,z
-x,-y,-z
loop_
_atom_site_type_symbol
_atom_site_label
_atom_site_fract_x
_atom_site_fract_y
_atom_site_fract_z
Si Si1 0.091831 0.778819 0.754933
Si Si2 0.836605 0.522026 0.048034
Si Si3 0.749114 0.524242 0.456298
Si Si4 0.509785 0.216529 0.178796
Si Si5 0.532508 0.942112 0.257932
Si Si6 0.341412 0.721994 0.296116
O O1 0.243495 0.605263 0.909946
O O2 0.200232 0.862587 0.626346
O O3 0.148603 0.787660 0.978434
O O4 0.814601 0.830980 0.531438
O O5 0.599788 0.692604 0.777918
O O6 0.980805 0.503930 0.326551
O O7 0.000000 0.500000 0.000000
O O8 0.606535 0.653093 0.134568
O O9 0.606668 0.592922 0.497323
O O10 0.753275 0.361654 0.556734
O O11 0.438291 0.084748 0.220007
O O12 0.370083 0.863587 0.272326
O O13 0.500000 0.000000 0.000000
#
# Coordination Sequence:
#
# PCOD8007753 Si02
#       6
#     2   2   2   2   2   2
#     4  11  22  41  70 100 142 185 226 282 355 418
#     4  12  23  42  71 101 142 185 235 295 341 399
#     4  10  20  41  68 100 136 182 237 280 340 418
#     4  11  25  41  69 110 137 181 240 281 348 422
#     4  12  22  42  70 104 147 184 221 292 360 416
#     4  10  21  38  71 101 135 186 229 277 355 415
#
# _framework density 27.356729999999999
#
# number of rings (size 3 to 8) (size 9 to 14) (size 15 to 20)
#    0.000    1.000    6.667    1.500    0.000    0.000 
#    0.000    1.667    0.000    0.000    0.000    1.167 
#    0.000    0.000    0.000    0.000    0.000    0.000 
#
# Total GULP energy -148705.530254 kJ/mol
# GULP energy per Si atom -12392.127521 kJ/mol
# Density = 2.729446 g / cm^3
# Si number density = 27.356730 Si / 1000 Ang^3
#
#
#
# Elastic Constant Matrix: (Units=GPa)
#
#
# Indices 1 2 3 4 5 6 
#
# 1 53.5434 38.8848 11.3335 -2.4569 5.1546 16.6376
# 2 38.8848 198.1447 20.7893 -25.6028 0.1768 42.5516
# 3 11.3335 20.7893 100.9692 10.8871 13.1586 17.6882
# 4 -2.4569 -25.6028 10.8871 31.8912 11.4040 3.3812
# 5 5.1546 0.1768 13.1586 11.4040 34.0171 -3.3698
# 6 16.6376 42.5516 17.6882 3.3812 -3.3698 59.2287
#
#
#
# Elastic Compliance Matrix: (Units=1/GPa)
#
#
# Indices 1 2 3 4 5 6 
#
# 1 0.023016 -0.003408 -0.000776 0.001150 -0.003959 -0.004076
# 2 -0.003408 0.007884 -0.000901 0.007712 -0.002257 -0.005006
# 3 -0.000776 -0.000901 0.011422 -0.003163 -0.003490 -0.002564
# 4 0.001150 0.007712 -0.003163 0.044919 -0.014875 -0.008330
# 5 -0.003959 -0.002257 -0.003490 -0.014875 0.037012 0.006731
# 6 -0.004076 -0.005006 -0.002564 -0.008330 0.006731 0.023249
#
#
# Mechanical properties :
#
#
# Convention : Reuss Voigt Hill
#
# Bulk Modulus (GPa) = 31.10240 54.96360 43.03300
# Shear Modulus (GPa) = 29.69328 43.80405 36.74867
#
# Velocity S-wave (km/s) = 3.29813 4.00586 3.66910
# Velocity P-wave (km/s) = 5.08895 6.44445 5.80639
#
# Compressibility (1/GPa) = 0.03215186
#
# Stress axis : x y z
#
# Youngs Moduli (GPa) = 43.44793 126.84280 87.55408
#
# Poissons Ratio (x) = 0.43227 0.06792
# Poissons Ratio (y) = 0.14807 0.07890
# Poissons Ratio (z) = 0.03370 0.11430
#
# Static dielectric constant tensor:
#      x y z
#    x 5.791990 0.007000 0.204880 
#    y 0.007000 6.352970 -0.290540 
#    z 0.204880 -0.290540 5.023180 
# 
# 
# High freq. dielectric constant tensor:
#      x y z
#    x 2.098570 0.022330 0.000970 
#    y 0.022330 2.107230 0.006520 
#    z 0.000970 0.006520 2.104740 
# 
# From -- ./inp_files/175597.got.cif
#   From: 2010.06.25/outbox.cif.g09.slc.cpg/sg2_88_cif.got.tgz:175597.got - 2010.06.27 13:26:56.
