data_PCOD8007428
_publ_section_title
;
Structure prediction by ZEFSAII (Michael W. Deem and Ramdas Pophale) SiO2 
 PCOD8007428
Probable space group: P -1
;
_chemical_formula_sum "Si O2"
_cell_formula_units_Z 16
_cell_length_a 12.020820
_cell_length_b 17.069213
_cell_length_c 8.274671
_cell_angle_alpha 89.804806
_cell_angle_beta 46.767885
_cell_angle_gamma 53.748599
_cell_volume 728.123692
_symmetry_space_group_name_H-M "P -1"
_symmetry_group_IT_number 2
_symmetry_cell_setting 'triclinic'
loop_
_space_group_symop_operation_xyz
x,y,z
-x,-y,-z
loop_
_atom_site_type_symbol
_atom_site_label
_atom_site_fract_x
_atom_site_fract_y
_atom_site_fract_z
Si Si1 0.077136 0.712142 0.861375
Si Si2 0.681045 0.928085 0.015849
Si Si3 0.229933 0.705670 0.049524
Si Si4 0.529439 0.343542 0.677551
Si Si5 0.989612 0.549793 0.345207
Si Si6 0.797125 0.790168 0.601265
Si Si7 0.920287 0.119155 0.533181
Si Si8 0.725831 0.535821 0.389658
O O1 0.300223 0.648148 0.514031
O O2 0.110901 0.604213 0.850541
O O3 0.795487 0.851291 0.071656
O O4 0.094974 0.752812 0.008775
O O5 0.693142 0.847333 0.886045
O O6 0.835556 0.935250 0.779023
O O7 0.387196 0.080895 0.334146
O O8 0.174105 0.808408 0.200877
O O9 0.100337 0.690739 0.287001
O O10 0.540347 0.575747 0.713446
O O11 0.694929 0.212323 0.618327
O O12 0.445418 0.350259 0.580353
O O13 0.269620 0.471433 0.033017
O O14 0.778836 0.706621 0.572138
O O15 0.916327 0.521630 0.273142
O O16 0.000000 0.500000 0.500000
O O17 0.000000 0.000000 0.500000
#
# Coordination Sequence:
#
# PCOD8007428 Si02
#       8
#     2   2   2   2   2   2   2   2
#     4  10  20  41  63  88 119 158 201 244 298 365
#     4   9  21  38  61  83 121 163 197 244 301 344
#     4  10  21  39  63  88 113 158 204 244 298 355
#     4  10  22  41  60  88 121 160 196 246 312 345
#     4  12  24  36  61  94 122 159 201 247 300 353
#     4  10  21  40  58  86 123 157 203 245 288 363
#     4  10  22  40  62  86 121 160 202 252 293 360
#     4  11  22  39  63  92 125 153 198 254 298 355
#
# _framework density 21.974288999999999
#
# number of rings (size 3 to 8) (size 9 to 14) (size 15 to 20)
#    0.000    1.750    0.000    4.875    3.500    0.500 
#    4.500   10.000    0.000    0.000    0.000    0.000 
#    0.000    0.000    0.000    0.000    0.000    0.000 
#
# Total GULP energy -198257.290527 kJ/mol
# GULP energy per Si atom -12391.080658 kJ/mol
# Density = 2.192427 g / cm^3
# Si number density = 21.974289 Si / 1000 Ang^3
#
#
#
# Elastic Constant Matrix: (Units=GPa)
#
#
# Indices 1 2 3 4 5 6 
#
# 1 117.0636 64.9212 11.0147 15.0511 12.9012 -8.2495
# 2 64.9212 113.7141 22.0419 20.3498 17.2521 -1.5080
# 3 11.0147 22.0419 66.8968 3.9936 3.8260 3.6371
# 4 15.0511 20.3498 3.9936 21.0716 -2.2801 1.5928
# 5 12.9012 17.2521 3.8260 -2.2801 29.9996 1.3880
# 6 -8.2495 -1.5080 3.6371 1.5928 1.3880 29.2230
#
#
#
# Elastic Compliance Matrix: (Units=1/GPa)
#
#
# Indices 1 2 3 4 5 6 
#
# 1 0.013092 -0.006420 0.000119 -0.003711 -0.002405 0.003666
# 2 -0.006420 0.016148 -0.003216 -0.011182 -0.006982 0.000362
# 3 0.000119 -0.003216 0.016106 0.000114 -0.000148 -0.002136
# 4 -0.003711 -0.011182 0.000114 0.062726 0.013042 -0.005677
# 5 -0.002405 -0.006982 -0.000148 0.013042 0.039561 -0.003611
# 6 0.003666 0.000362 -0.002136 -0.005677 -0.003611 0.036020
#
#
# Mechanical properties :
#
#
# Convention : Reuss Voigt Hill
#
# Bulk Modulus (GPa) = 38.00453 54.84780 46.42616
# Shear Modulus (GPa) = 23.64537 29.37195 26.50866
#
# Velocity S-wave (km/s) = 3.28387 3.65999 3.47702
# Velocity P-wave (km/s) = 5.63125 6.54789 6.10679
#
# Compressibility (1/GPa) = 0.02631265
#
# Stress axis : x y z
#
# Youngs Moduli (GPa) = 76.38175 61.92751 62.08747
#
# Poissons Ratio (x) = 0.39757 -0.00742
# Poissons Ratio (y) = 0.49037 0.19970
# Poissons Ratio (z) = -0.00913 0.19918
#
# Static dielectric constant tensor:
#      x y z
#    x 4.103520 -0.154030 -0.064170 
#    y -0.154030 3.765570 -0.082120 
#    z -0.064170 -0.082120 4.205420 
# 
# 
# High freq. dielectric constant tensor:
#      x y z
#    x 1.866760 -0.009670 -0.002760 
#    y -0.009670 1.843630 -0.004960 
#    z -0.002760 -0.004960 1.866070 
# 
# From -- ./inp_files/277959.got.cif
#   From: 2010.06.25/outbox.cif.g09.slc.cpg/sg2_139_cif.got.tgz:277959.got - 2010.06.27 13:26:56.
