data_PCOD8007378
_publ_section_title
;
Structure prediction by ZEFSAII (Michael W. Deem and Ramdas Pophale) SiO2 
 PCOD8007378
Probable space group: P -1
;
_chemical_formula_sum "Si O2"
_cell_formula_units_Z 14
_cell_length_a 15.861161
_cell_length_b 9.332926
_cell_length_c 8.748911
_cell_angle_alpha 59.702987
_cell_angle_beta 87.021483
_cell_angle_gamma 46.576640
_cell_volume 716.816036
_symmetry_space_group_name_H-M "P -1"
_symmetry_group_IT_number 2
_symmetry_cell_setting 'triclinic'
loop_
_space_group_symop_operation_xyz
x,y,z
-x,-y,-z
loop_
_atom_site_type_symbol
_atom_site_label
_atom_site_fract_x
_atom_site_fract_y
_atom_site_fract_z
Si Si1 0.883600 0.894359 0.838304
Si Si2 0.968431 0.748857 0.228877
Si Si3 0.699205 0.086585 0.210057
Si Si4 0.369492 0.507186 0.489622
Si Si5 0.224852 0.391526 0.574155
Si Si6 0.493794 0.486344 0.761717
Si Si7 0.084254 0.481379 0.811154
O O1 0.985772 0.751314 0.764671
O O2 0.755880 0.184987 0.644826
O O3 0.947816 0.872786 0.999768
O O4 0.848901 0.750815 0.951181
O O5 0.989207 0.518741 0.314704
O O6 0.092310 0.640644 0.360956
O O7 0.837359 0.968477 0.225309
O O8 0.635925 0.269022 0.263995
O O9 0.715710 0.866708 0.360205
O O10 0.606547 0.241627 0.988201
O O11 0.331219 0.373784 0.549211
O O12 0.457911 0.398505 0.690229
O O13 0.451708 0.431959 0.372238
O O14 0.192706 0.426063 0.740573
#
# Coordination Sequence:
#
# PCOD8007378 Si02
#       7
#     2   2   2   2   2   2   2
#     4   9  18  34  56  78 120 147 183 210 283 341
#     4   9  18  35  59  86 109 146 174 235 280 338
#     4  10  20  41  62  80 106 152 193 229 265 347
#     4  11  23  38  54  87 113 150 183 239 271 330
#     4  11  22  34  60  90 115 135 187 238 289 315
#     4  10  23  41  60  74 111 160 195 215 278 327
#     4   8  17  34  55  82 111 154 176 218 279 348
#
# _framework density 19.530812000000001
#
# number of rings (size 3 to 8) (size 9 to 14) (size 15 to 20)
#    0.857    1.429    1.429    1.714    4.000    2.286 
#    0.000    1.429    0.000    0.000    0.000    0.000 
#    0.000    0.000    0.000    0.000    0.000    0.000 
#
# Total GULP energy -173536.493915 kJ/mol
# GULP energy per Si atom -12395.463851 kJ/mol
# Density = 1.948636 g / cm^3
# Si number density = 19.530812 Si / 1000 Ang^3
#
#
#
# Elastic Constant Matrix: (Units=GPa)
#
#
# Indices 1 2 3 4 5 6 
#
# 1 82.8895 5.2439 14.0612 4.5905 2.9240 -4.4577
# 2 5.2439 68.1685 11.9961 7.2056 3.9517 -13.4803
# 3 14.0612 11.9961 58.4712 -1.2586 5.9130 -2.5945
# 4 4.5905 7.2056 -1.2586 17.7419 -5.5725 -4.2576
# 5 2.9240 3.9517 5.9130 -5.5725 13.4482 -0.8724
# 6 -4.4577 -13.4803 -2.5945 -4.2576 -0.8724 14.8201
#
#
#
# Elastic Compliance Matrix: (Units=1/GPa)
#
#
# Indices 1 2 3 4 5 6 
#
# 1 0.013009 0.000668 -0.002904 -0.004275 -0.003352 0.002587
# 2 0.000668 0.019120 -0.002937 -0.006541 -0.006220 0.014833
# 3 -0.002904 -0.002937 0.019066 0.001234 -0.006392 -0.000229
# 4 -0.004275 -0.006541 0.001234 0.075013 0.034466 0.016560
# 5 -0.003352 -0.006220 -0.006392 0.034466 0.094506 0.007680
# 6 0.002587 0.014833 -0.000229 0.016560 0.007680 0.086916
#
#
# Mechanical properties :
#
#
# Convention : Reuss Voigt Hill
#
# Bulk Modulus (GPa) = 24.47998 30.23685 27.35842
# Shear Modulus (GPa) = 15.07874 21.08390 18.08132
#
# Velocity S-wave (km/s) = 2.78159 3.28917 3.04597
# Velocity P-wave (km/s) = 4.78305 5.47175 5.13895
#
# Compressibility (1/GPa) = 0.04084971
#
# Stress axis : x y z
#
# Youngs Moduli (GPa) = 76.87179 52.30060 52.44905
#
# Poissons Ratio (x) = -0.03494 0.15230
# Poissons Ratio (y) = -0.05135 0.15404
# Poissons Ratio (z) = 0.22321 0.15360
#
# Static dielectric constant tensor:
#      x y z
#    x 3.183710 -0.195220 -0.016760 
#    y -0.195220 3.504440 0.129100 
#    z -0.016760 0.129100 3.552970 
# 
# 
# High freq. dielectric constant tensor:
#      x y z
#    x 1.721040 -0.017500 0.000010 
#    y -0.017500 1.760270 0.009880 
#    z 0.000010 0.009880 1.765160 
# 
# From -- ./inp_files/294485.got.cif
#   From: 2010.06.25/outbox.cif.g09.slc.cpg/sg2_148_cif.got.tgz:294485.got - 2010.06.27 13:26:56.
