data_PCOD8007771
_publ_section_title
;
Structure prediction by ZEFSAII (Michael W. Deem and Ramdas Pophale) SiO2 
 PCOD8007771
Probable space group: P -1
;
_chemical_formula_sum "Si O2"
_cell_formula_units_Z 16
_cell_length_a 15.369836
_cell_length_b 9.436244
_cell_length_c 8.628388
_cell_angle_alpha 102.589128
_cell_angle_beta 94.246889
_cell_angle_gamma 38.784121
_cell_volume 755.558505
_symmetry_space_group_name_H-M "P -1"
_symmetry_group_IT_number 2
_symmetry_cell_setting 'triclinic'
loop_
_space_group_symop_operation_xyz
x,y,z
-x,-y,-z
loop_
_atom_site_type_symbol
_atom_site_label
_atom_site_fract_x
_atom_site_fract_y
_atom_site_fract_z
Si Si1 0.233808 0.176028 0.176523
Si Si2 0.018381 0.724238 0.809765
Si Si3 0.458943 0.340227 0.981742
Si Si4 0.542707 0.464795 0.253422
Si Si5 0.696407 0.147284 0.472098
Si Si6 0.157106 0.326075 0.530324
Si Si7 0.102087 0.896486 0.349097
Si Si8 0.801567 0.489087 0.924163
O O1 0.248733 0.227589 0.362718
O O2 0.190851 0.354876 0.091787
O O3 0.116621 0.203471 0.168528
O O4 0.382263 0.915367 0.087674
O O5 0.147905 0.478929 0.674850
O O6 0.079362 0.690836 0.974605
O O7 0.974476 0.926251 0.762408
O O8 0.398302 0.506296 0.864796
O O9 0.454147 0.451001 0.157512
O O10 0.355920 0.338885 0.994276
O O11 0.672998 0.227557 0.310639
O O12 0.450422 0.679213 0.413894
O O13 0.776793 0.159826 0.585671
O O14 0.780522 0.887120 0.411529
O O15 0.000000 0.500000 0.500000
O O16 0.164384 0.661744 0.248818
O O17 0.000000 0.000000 0.500000
#
# Coordination Sequence:
#
# PCOD8007771 Si02
#       8
#     2   2   2   2   2   2   2   2
#     4  11  23  45  67  91 134 184 219 269 335 400
#     4  11  25  45  68  97 133 179 223 269 335 403
#     4  11  23  44  65  98 138 172 217 285 328 392
#     4  10  23  40  72  94 132 178 221 269 336 404
#     4  11  21  43  67 102 123 176 230 267 326 404
#     4  10  20  41  68  92 130 171 226 270 321 400
#     4  12  25  43  67  97 138 168 217 285 334 392
#     4  12  27  42  65 103 135 171 223 278 336 391
#
# _framework density 21.176389
#
# number of rings (size 3 to 8) (size 9 to 14) (size 15 to 20)
#    0.000    1.000    5.000    1.875    7.000    1.000 
#    0.000    0.625    0.000    0.000    0.000    0.000 
#    0.000    0.000    0.000    0.000    0.000    0.000 
#
# Total GULP energy -198418.726475 kJ/mol
# GULP energy per Si atom -12401.170405 kJ/mol
# Density = 2.112819 g / cm^3
# Si number density = 21.176389 Si / 1000 Ang^3
#
#
#
# Elastic Constant Matrix: (Units=GPa)
#
#
# Indices 1 2 3 4 5 6 
#
# 1 61.5256 21.5642 14.0855 2.4236 -16.4457 3.6943
# 2 21.5642 129.7419 35.5989 -18.1090 -13.0528 9.1620
# 3 14.0855 35.5989 80.7254 -6.9472 -8.3761 -2.7608
# 4 2.4236 -18.1090 -6.9472 47.6922 -1.2832 -5.7275
# 5 -16.4457 -13.0528 -8.3761 -1.2832 28.6639 -1.7014
# 6 3.6943 9.1620 -2.7608 -5.7275 -1.7014 28.5490
#
#
#
# Elastic Compliance Matrix: (Units=1/GPa)
#
#
# Indices 1 2 3 4 5 6 
#
# 1 0.020237 -0.001996 -0.001860 -0.002026 0.009951 -0.001972
# 2 -0.001996 0.009859 -0.003582 0.003085 0.002288 -0.002497
# 3 -0.001860 -0.003582 0.014705 0.001309 0.001846 0.003185
# 4 -0.002026 0.003085 0.001309 0.022979 0.001898 0.004122
# 5 0.009951 0.002288 0.001846 0.001898 0.042325 0.001060
# 6 -0.001972 -0.002497 0.003185 0.004122 0.001060 0.037282
#
#
# Mechanical properties :
#
#
# Convention : Reuss Voigt Hill
#
# Bulk Modulus (GPa) = 33.41694 46.05446 39.73570
# Shear Modulus (GPa) = 29.02956 34.36398 31.69677
#
# Velocity S-wave (km/s) = 3.70651 4.03271 3.87304
# Velocity P-wave (km/s) = 5.84227 6.59385 6.22941
#
# Compressibility (1/GPa) = 0.02992494
#
# Stress axis : x y z
#
# Youngs Moduli (GPa) = 49.41514 101.42770 68.00382
#
# Poissons Ratio (x) = 0.20240 0.12651
# Poissons Ratio (y) = 0.09861 0.24360
# Poissons Ratio (z) = 0.09193 0.36333
#
# Static dielectric constant tensor:
#      x y z
#    x 3.568300 0.152990 0.037890 
#    y 0.152990 3.896420 0.051820 
#    z 0.037890 0.051820 4.239090 
# 
# 
# High freq. dielectric constant tensor:
#      x y z
#    x 1.806940 0.005650 -0.005880 
#    y 0.005650 1.842370 -0.000570 
#    z -0.005880 -0.000570 1.844670 
# 
# From -- ./inp_files/207836.got.cif
#   From: 2010.06.25/outbox.cif.g09.slc.cpg/sg2_104_cif.got.tgz:207836.got - 2010.06.27 13:26:56.
