data_PCOD8007910
_publ_section_title
;
Structure prediction by ZEFSAII (Michael W. Deem and Ramdas Pophale) SiO2 
 PCOD8007910
Probable space group: P -1
;
_chemical_formula_sum "Si O2"
_cell_formula_units_Z 16
_cell_length_a 11.895430
_cell_length_b 12.337091
_cell_length_c 8.548832
_cell_angle_alpha 43.602032
_cell_angle_beta 126.325035
_cell_angle_gamma 113.368115
_cell_volume 695.899084
_symmetry_space_group_name_H-M "P -1"
_symmetry_group_IT_number 2
_symmetry_cell_setting 'triclinic'
loop_
_space_group_symop_operation_xyz
x,y,z
-x,-y,-z
loop_
_atom_site_type_symbol
_atom_site_label
_atom_site_fract_x
_atom_site_fract_y
_atom_site_fract_z
Si Si1 0.933204 0.069524 0.214273
Si Si2 0.889311 0.430339 0.870633
Si Si3 0.871101 0.598063 0.364484
Si Si4 0.673383 0.985253 0.915590
Si Si5 0.422905 0.327274 0.977686
Si Si6 0.592105 0.805021 0.572890
Si Si7 0.390296 0.501989 0.270530
Si Si8 0.838084 0.925386 0.835470
O O1 0.027676 0.006406 0.209133
O O2 0.935634 0.259258 0.018292
O O3 0.776917 0.009732 0.122941
O O4 0.000000 0.000000 0.500000
O O5 0.869841 0.564179 0.583214
O O6 0.749812 0.408113 0.878279
O O7 0.000000 0.500000 0.000000
O O8 0.714588 0.554010 0.224941
O O9 0.000000 0.500000 0.500000
O O10 0.888734 0.777461 0.140848
O O11 0.527751 0.083066 0.723525
O O12 0.754064 0.043946 0.763362
O O13 0.633877 0.804762 0.048976
O O14 0.551785 0.409464 0.924142
O O15 0.477278 0.257881 0.259669
O O16 0.638726 0.673533 0.622585
O O17 0.732465 0.888633 0.645662
O O18 0.500000 0.500000 0.500000
#
# Coordination Sequence:
#
# PCOD8007910 Si02
#       8
#     2   2   2   2   2   2   2   2
#     4  12  27  44  64 103 137 175 227 274 341 404
#     4  12  27  44  68  99 139 181 224 278 343 395
#     4  10  20  41  71  94 131 176 229 270 338 388
#     4  10  23  44  70  95 132 177 223 272 332 404
#     4  10  23  42  70  99 133 176 226 277 338 395
#     4  10  22  43  70  96 131 173 228 272 332 398
#     4  12  24  42  65 100 139 173 220 279 330 403
#     4  10  22  44  72  96 132 176 224 285 330 402
#
# _framework density 22.991838999999999
#
# number of rings (size 3 to 8) (size 9 to 14) (size 15 to 20)
#    0.000    1.500    2.500    3.750    5.250    3.000 
#    2.250    1.875    0.000    0.000    0.000    0.000 
#    0.000    0.000    0.000    0.000    0.000    0.000 
#
# Total GULP energy -198296.301485 kJ/mol
# GULP energy per Si atom -12393.518843 kJ/mol
# Density = 2.293951 g / cm^3
# Si number density = 22.991839 Si / 1000 Ang^3
#
#
#
# Elastic Constant Matrix: (Units=GPa)
#
#
# Indices 1 2 3 4 5 6 
#
# 1 105.3452 -12.6879 19.7613 -9.7300 16.7730 5.8040
# 2 -12.6879 93.6813 20.2709 17.0740 14.4090 1.7032
# 3 19.7613 20.2709 114.4509 11.4406 12.5783 9.0703
# 4 -9.7300 17.0740 11.4406 28.2345 0.0878 10.2333
# 5 16.7730 14.4090 12.5783 0.0878 34.0032 2.3848
# 6 5.8040 1.7032 9.0703 10.2333 2.3848 27.4081
#
#
#
# Elastic Compliance Matrix: (Units=1/GPa)
#
#
# Indices 1 2 3 4 5 6 
#
# 1 0.011629 0.002068 -0.001970 0.004738 -0.005671 -0.003215
# 2 0.002068 0.013658 -0.001495 -0.007906 -0.006425 0.002719
# 3 -0.001970 -0.001495 0.010003 -0.003318 -0.001989 -0.001388
# 4 0.004738 -0.007906 -0.003318 0.049799 0.003396 -0.018302
# 5 -0.005671 -0.006425 -0.001989 0.003396 0.035805 -0.002125
# 6 -0.003215 0.002719 -0.001388 -0.018302 -0.002125 0.044475
#
#
# Mechanical properties :
#
#
# Convention : Reuss Voigt Hill
#
# Bulk Modulus (GPa) = 30.77285 40.90733 35.84009
# Shear Modulus (GPa) = 27.93398 37.00469 32.46933
#
# Velocity S-wave (km/s) = 3.48940 4.01617 3.76202
# Velocity P-wave (km/s) = 5.44498 6.27192 5.87302
#
# Compressibility (1/GPa) = 0.03249618
#
# Stress axis : x y z
#
# Youngs Moduli (GPa) = 85.99329 73.21776 99.97391
#
# Poissons Ratio (x) = -0.15145 0.19693
# Poissons Ratio (y) = -0.17787 0.14948
# Poissons Ratio (z) = 0.16939 0.10948
#
# Static dielectric constant tensor:
#      x y z
#    x 4.312300 -0.059460 0.172090 
#    y -0.059460 4.132260 -0.066790 
#    z 0.172090 -0.066790 4.422530 
# 
# 
# High freq. dielectric constant tensor:
#      x y z
#    x 1.916610 -0.004310 0.013830 
#    y -0.004310 1.895090 0.016790 
#    z 0.013830 0.016790 1.908280 
# 
# From -- ./inp_files/261812.got.cif
#   From: 2010.06.25/outbox.cif.g09.slc.cpg/sg2_131_cif.got.tgz:261812.got - 2010.06.27 13:26:56.
