data_PCOD8007826
_publ_section_title
;
Structure prediction by ZEFSAII (Michael W. Deem and Ramdas Pophale) SiO2 
 PCOD8007826
Probable space group: P -1
;
_chemical_formula_sum "Si O2"
_cell_formula_units_Z 14
_cell_length_a 28.028280
_cell_length_b 5.064359
_cell_length_c 7.823764
_cell_angle_alpha 82.927131
_cell_angle_beta 142.308520
_cell_angle_gamma 92.979847
_cell_volume 671.938313
_symmetry_space_group_name_H-M "P -1"
_symmetry_group_IT_number 2
_symmetry_cell_setting 'triclinic'
loop_
_space_group_symop_operation_xyz
x,y,z
-x,-y,-z
loop_
_atom_site_type_symbol
_atom_site_label
_atom_site_fract_x
_atom_site_fract_y
_atom_site_fract_z
Si Si1 0.732703 0.283554 0.054582
Si Si2 0.833817 0.748572 0.381095
Si Si3 0.005035 0.119579 0.321928
Si Si4 0.538704 0.753362 0.920826
Si Si5 0.946547 0.636979 0.986841
Si Si6 0.381224 0.736411 0.950441
Si Si7 0.377701 0.632109 0.580501
O O1 0.804232 0.468762 0.259495
O O2 0.681093 0.307019 0.076586
O O3 0.764565 0.977861 0.147838
O O4 0.686574 0.382356 0.746245
O O5 0.906337 0.811723 0.463460
O O6 0.861033 0.720414 0.659387
O O7 0.000000 0.000000 0.500000
O O8 0.946434 0.392011 0.139994
O O9 0.980753 0.904375 0.131882
O O10 0.554090 0.514528 0.845969
O O11 0.582510 0.663935 0.232344
O O12 0.573001 0.003713 0.907636
O O13 0.446586 0.809958 0.692910
O O14 0.000000 0.500000 0.000000
O O15 0.340795 0.758625 0.643535
#
# Coordination Sequence:
#
# PCOD8007826 Si02
#       7
#     2   2   2   2   2   2   2
#     4  12  25  39  61  88 134 164 198 248 312 392
#     4  11  24  43  58  92 124 162 199 238 320 368
#     4  11  22  42  69  98 117 155 216 259 297 360
#     4   9  20  40  64  85 119 156 218 266 298 345
#     4  10  20  41  69  84 124 160 198 258 293 357
#     4  10  21  40  58  89 116 162 211 249 305 370
#     4   9  23  39  63  87 123 160 207 265 306 346
#
# _framework density 20.835246000000001
#
# number of rings (size 3 to 8) (size 9 to 14) (size 15 to 20)
#    0.857    0.857    0.000    6.000    2.000    1.143 
#    7.714    0.000    0.000    0.000    0.000    0.000 
#    0.000    0.000    0.000    0.000    0.000    0.000 
#
# Total GULP energy -173478.493116 kJ/mol
# GULP energy per Si atom -12391.320937 kJ/mol
# Density = 2.078782 g / cm^3
# Si number density = 20.835246 Si / 1000 Ang^3
#
#
#
# Elastic Constant Matrix: (Units=GPa)
#
#
# Indices 1 2 3 4 5 6 
#
# 1 78.1449 10.6113 15.0687 1.6026 -10.9084 8.1877
# 2 10.6113 101.4540 7.0326 10.7027 3.8262 12.6156
# 3 15.0687 7.0326 78.0389 5.0039 -9.4785 6.5360
# 4 1.6026 10.7027 5.0039 31.2708 -0.8023 4.9558
# 5 -10.9084 3.8262 -9.4785 -0.8023 13.9928 -2.9095
# 6 8.1877 12.6156 6.5360 4.9558 -2.9095 28.2113
#
#
#
# Elastic Compliance Matrix: (Units=1/GPa)
#
#
# Indices 1 2 3 4 5 6 
#
# 1 0.015014 -0.001673 -0.001279 0.000652 0.010853 -0.002308
# 2 -0.001673 0.011189 -0.000853 -0.003064 -0.006033 -0.004404
# 3 -0.001279 -0.000853 0.014399 -0.001499 0.008606 -0.001433
# 4 0.000652 -0.003064 -0.001499 0.033950 0.001385 -0.004293
# 5 0.010853 -0.006033 0.008606 0.001385 0.088831 0.006472
# 6 -0.002308 -0.004404 -0.001433 -0.004293 0.006472 0.039840
#
#
# Mechanical properties :
#
#
# Convention : Reuss Voigt Hill
#
# Bulk Modulus (GPa) = 30.30821 35.89588 33.10204
# Shear Modulus (GPa) = 22.53987 29.69000 26.11494
#
# Velocity S-wave (km/s) = 3.29266 3.77900 3.54418
# Velocity P-wave (km/s) = 5.38829 6.02552 5.71580
#
# Compressibility (1/GPa) = 0.03299436
#
# Stress axis : x y z
#
# Youngs Moduli (GPa) = 66.60474 89.37187 69.44797
#
# Poissons Ratio (x) = 0.14950 0.08880
# Poissons Ratio (y) = 0.11141 0.05922
# Poissons Ratio (z) = 0.08516 0.07621
#
# Static dielectric constant tensor:
#      x y z
#    x 3.545380 -0.525110 -0.156240 
#    y -0.525110 -3.738340 0.231380 
#    z -0.156240 0.231380 3.733580 
# 
# 
# High freq. dielectric constant tensor:
#      x y z
#    x 1.803790 0.009550 -0.008880 
#    y 0.009550 1.831560 -0.001050 
#    z -0.008880 -0.001050 1.798870 
# 
# From -- ./inp_files/358089.got.cif
#   From: 2010.06.25/outbox.cif.g09.slc.cpg/sg2_180_cif.got.tgz:358089.got - 2010.06.27 13:26:56.
