data_PCOD8007025
_publ_section_title
;
Structure prediction by ZEFSAII (Michael W. Deem and Ramdas Pophale) SiO2 
 PCOD8007025
Probable space group: P -1
;
_chemical_formula_sum "Si O2"
_cell_formula_units_Z 16
_cell_length_a 19.203716
_cell_length_b 12.180019
_cell_length_c 11.813119
_cell_angle_alpha 48.023574
_cell_angle_beta 154.169819
_cell_angle_gamma 141.448231
_cell_volume 744.007170
_symmetry_space_group_name_H-M "P -1"
_symmetry_group_IT_number 2
_symmetry_cell_setting 'triclinic'
loop_
_space_group_symop_operation_xyz
x,y,z
-x,-y,-z
loop_
_atom_site_type_symbol
_atom_site_label
_atom_site_fract_x
_atom_site_fract_y
_atom_site_fract_z
Si Si1 0.062220 0.271458 0.399760
Si Si2 0.177271 0.919557 0.393351
Si Si3 0.573346 0.804607 0.251199
Si Si4 0.276226 0.704540 0.064693
Si Si5 0.794869 0.913311 0.118267
Si Si6 0.642414 0.515714 0.499767
Si Si7 0.773504 0.814125 0.906946
Si Si8 0.495631 0.894058 0.833723
O O1 0.145586 0.217714 0.661237
O O2 0.235898 0.431761 0.473309
O O3 0.934188 0.107854 0.240263
O O4 0.938523 0.339924 0.227679
O O5 0.265073 0.806891 0.555552
O O6 0.276214 0.008619 0.596946
O O7 0.234743 0.080085 0.282491
O O8 0.948517 0.787990 0.163116
O O9 0.361535 0.705737 0.065577
O O10 0.657710 0.683073 0.465950
O O11 0.567097 0.849935 0.081375
O O12 0.273017 0.558495 0.238351
O O13 0.414808 0.896677 0.191264
O O14 0.808502 0.926502 0.994251
O O15 0.573253 0.834643 0.884806
O O16 0.421181 0.377699 0.237503
#
# Coordination Sequence:
#
# PCOD8007025 Si02
#       8
#     2   2   2   2   2   2   2   2
#     4  10  22  40  64  91 116 161 217 248 296 359
#     4  10  22  41  62  94 119 165 204 245 301 372
#     4  11  21  39  70  90 120 159 210 255 295 358
#     4  10  21  36  64  94 119 154 206 258 301 347
#     4  10  22  41  65  89 120 166 205 248 301 369
#     4  12  22  41  59  95 128 158 195 259 312 354
#     4  11  24  38  61  90 132 161 193 250 314 366
#     4  10  20  40  66  94 113 161 216 249 289 362
#
# _framework density 21.505168000000001
#
# number of rings (size 3 to 8) (size 9 to 14) (size 15 to 20)
#    0.000    1.500    3.750    3.000    5.250    1.000 
#    0.000    1.875    0.000    0.000    0.000    0.000 
#    0.000    0.000    0.000    0.000    0.000    0.000 
#
# Total GULP energy -198399.868915 kJ/mol
# GULP energy per Si atom -12399.991807 kJ/mol
# Density = 2.145622 g / cm^3
# Si number density = 21.505168 Si / 1000 Ang^3
#
#
#
# Elastic Constant Matrix: (Units=GPa)
#
#
# Indices 1 2 3 4 5 6 
#
# 1 81.3316 4.4752 34.6958 0.5825 30.2864 11.6438
# 2 4.4752 49.9022 23.5020 -11.2151 15.0260 13.0447
# 3 34.6958 23.5020 114.9125 -12.4600 46.4816 1.5365
# 4 0.5825 -11.2151 -12.4600 33.8570 -2.7159 7.8159
# 5 30.2864 15.0260 46.4816 -2.7159 42.6097 -0.0801
# 6 11.6438 13.0447 1.5365 7.8159 -0.0801 28.4569
#
#
#
# Elastic Compliance Matrix: (Units=1/GPa)
#
#
# Indices 1 2 3 4 5 6 
#
# 1 0.019765 0.007255 -0.000487 0.003469 -0.015877 -0.012384
# 2 0.007255 0.033476 -0.001189 0.014481 -0.014783 -0.022268
# 3 -0.000487 -0.001189 0.016444 0.004651 -0.016879 -0.001468
# 4 0.003469 0.014481 0.004651 0.039606 -0.010158 -0.019215
# 5 -0.015877 -0.014783 -0.016879 -0.010158 0.057765 0.017137
# 6 -0.012384 -0.022268 -0.001468 -0.019215 0.017137 0.055821
#
#
# Mechanical properties :
#
#
# Convention : Reuss Voigt Hill
#
# Bulk Modulus (GPa) = 12.37008 41.27691 26.82349
# Shear Modulus (GPa) = 20.94975 33.21626 27.08301
#
# Velocity S-wave (km/s) = 3.12456 3.93437 3.55261
# Velocity P-wave (km/s) = 4.33380 6.31463 5.41555
#
# Compressibility (1/GPa) = 0.08084023
#
# Stress axis : x y z
#
# Youngs Moduli (GPa) = 50.59574 29.87247 60.81253
#
# Poissons Ratio (x) = -0.21671 0.02963
# Poissons Ratio (y) = -0.36705 0.07232
# Poissons Ratio (z) = 0.02465 0.03553
#
# Static dielectric constant tensor:
#      x y z
#    x 4.076010 0.177610 0.534180 
#    y 0.177610 3.569050 -0.130090 
#    z 0.534180 -0.130090 4.184990 
# 
# 
# High freq. dielectric constant tensor:
#      x y z
#    x 1.852580 0.021130 0.026570 
#    y 0.021130 1.809870 -0.019810 
#    z 0.026570 -0.019810 1.853500 
# 
# From -- ./inp_files/284731.got.cif
#   From: 2010.06.25/outbox.cif.g09.slc.cpg/sg2_143_cif.got.tgz:284731.got - 2010.06.27 13:26:56.
