data_PCOD8007274
_publ_section_title
;
Structure prediction by ZEFSAII (Michael W. Deem and Ramdas Pophale) SiO2 
 PCOD8007274
Probable space group: P -1
;
_chemical_formula_sum "Si O2"
_cell_formula_units_Z 12
_cell_length_a 12.200437
_cell_length_b 9.367273
_cell_length_c 5.042699
_cell_angle_alpha 65.557459
_cell_angle_beta 95.266569
_cell_angle_gamma 106.765034
_cell_volume 502.102435
_symmetry_space_group_name_H-M "P -1"
_symmetry_group_IT_number 2
_symmetry_cell_setting 'triclinic'
loop_
_space_group_symop_operation_xyz
x,y,z
-x,-y,-z
loop_
_atom_site_type_symbol
_atom_site_label
_atom_site_fract_x
_atom_site_fract_y
_atom_site_fract_z
Si Si1 0.528335 0.113632 0.667333
Si Si2 0.768085 0.150851 0.828049
Si Si3 0.122804 0.523369 0.130558
Si Si4 0.888671 0.954215 0.692299
Si Si5 0.688783 0.811932 0.367363
Si Si6 0.172368 0.351009 0.783495
O O1 0.664384 0.208998 0.621104
O O2 0.445705 0.235394 0.543318
O O3 0.500000 0.000000 0.500000
O O4 0.500000 0.000000 0.000000
O O5 0.826233 0.285543 0.951801
O O6 0.860634 0.119294 0.661527
O O7 0.714665 0.982219 0.090705
O O8 0.888706 0.574075 0.519794
O O9 0.196631 0.463545 0.966019
O O10 0.000000 0.500000 0.000000
O O11 0.776687 0.837877 0.611987
O O12 0.908819 0.833872 0.025741
O O13 0.000000 0.000000 0.500000
O O14 0.707654 0.668819 0.291233
#
# Coordination Sequence:
#
# PCOD8007274 Si02
#       6
#     2   2   2   2   2   2
#     4  10  20  40  70 103 132 170 226 292 339 388
#     4  10  25  42  70 106 134 180 235 281 336 407
#     4  12  28  46  67  95 147 190 223 276 344 414
#     4  11  24  42  73 103 136 179 234 283 340 405
#     4  10  22  43  73 100 134 175 231 288 339 397
#     4  11  26  47  66  98 140 184 227 279 346 406
#
# _framework density 23.899505999999999
#
# number of rings (size 3 to 8) (size 9 to 14) (size 15 to 20)
#    0.000    1.333    3.333    0.500    7.000    1.333 
#    0.000    4.167    0.000    0.000    0.000    0.000 
#    0.000    0.000    0.000    0.000    0.000    0.000 
#
# Total GULP energy -148721.088256 kJ/mol
# GULP energy per Si atom -12393.424021 kJ/mol
# Density = 2.384511 g / cm^3
# Si number density = 23.899506 Si / 1000 Ang^3
#
#
#
# Elastic Constant Matrix: (Units=GPa)
#
#
# Indices 1 2 3 4 5 6 
#
# 1 163.5007 71.7756 31.5538 16.8907 12.5749 -30.7201
# 2 71.7756 154.3094 18.2937 40.4733 0.0210 -37.3540
# 3 31.5538 18.2937 110.2042 18.9242 3.9563 -11.6455
# 4 16.8907 40.4733 18.9242 38.8630 -5.2876 -1.8062
# 5 12.5749 0.0210 3.9563 -5.2876 28.2910 12.7160
# 6 -30.7201 -37.3540 -11.6455 -1.8062 12.7160 42.2733
#
#
#
# Elastic Compliance Matrix: (Units=1/GPa)
#
#
# Indices 1 2 3 4 5 6 
#
# 1 0.009257 -0.001918 -0.000939 -0.002270 -0.007525 0.006940
# 2 -0.001918 0.014987 0.002822 -0.016729 -0.009290 0.014706
# 3 -0.000939 0.002822 0.011174 -0.008433 -0.005503 0.006184
# 4 -0.002270 -0.016729 -0.008433 0.050162 0.022020 -0.023235
# 5 -0.007525 -0.009290 -0.005503 0.022020 0.057805 -0.031641
# 6 0.006940 0.014706 0.006184 -0.023235 -0.031641 0.051923
#
#
# Mechanical properties :
#
#
# Convention : Reuss Voigt Hill
#
# Bulk Modulus (GPa) = 28.29073 74.58447 51.43760
# Shear Modulus (GPa) = 24.13592 42.31155 33.22373
#
# Velocity S-wave (km/s) = 3.18133 4.21217 3.73251
# Velocity P-wave (km/s) = 5.03563 7.41160 6.33598
#
# Compressibility (1/GPa) = 0.03534727
#
# Stress axis : x y z
#
# Youngs Moduli (GPa) = 108.03189 66.72400 89.49682
#
# Poissons Ratio (x) = 0.12797 0.08400
# Poissons Ratio (y) = 0.20719 -0.25252
# Poissons Ratio (z) = 0.10140 -0.18826
#
# Static dielectric constant tensor:
#      x y z
#    x 5.247840 -0.652230 0.235570 
#    y -0.652230 4.240990 0.317480 
#    z 0.235570 0.317480 4.614420 
# 
# 
# High freq. dielectric constant tensor:
#      x y z
#    x 1.950170 -0.038620 0.011700 
#    y -0.038620 1.930000 0.019960 
#    z 0.011700 0.019960 1.953890 
# 
# From -- ./inp_files/19477.got.cif
#   From: 2010.06.25/outbox.cif.g09.slc.cpg/sg2_10_cif.got.tgz:19477.got - 2010.06.27 13:26:56.
