data_PCOD8007240
_publ_section_title
;
Structure prediction by ZEFSAII (Michael W. Deem and Ramdas Pophale) SiO2 
 PCOD8007240
Probable space group: P -1
;
_chemical_formula_sum "Si O2"
_cell_formula_units_Z 16
_cell_length_a 8.971675
_cell_length_b 26.683322
_cell_length_c 12.096851
_cell_angle_alpha 148.961717
_cell_angle_beta 148.778613
_cell_angle_gamma 41.976344
_cell_volume 773.356785
_symmetry_space_group_name_H-M "P -1"
_symmetry_group_IT_number 2
_symmetry_cell_setting 'triclinic'
loop_
_space_group_symop_operation_xyz
x,y,z
-x,-y,-z
loop_
_atom_site_type_symbol
_atom_site_label
_atom_site_fract_x
_atom_site_fract_y
_atom_site_fract_z
Si Si1 0.223296 0.441869 0.734851
Si Si2 0.148861 0.354505 0.294894
Si Si3 0.718033 0.568767 0.710357
Si Si4 0.740589 0.781469 0.176393
Si Si5 0.369827 0.907749 0.021133
Si Si6 0.711626 0.877486 0.564206
Si Si7 0.603338 0.195188 0.367919
Si Si8 0.543722 0.259161 0.680844
O O1 0.079763 0.422066 0.485876
O O2 0.302167 0.343447 0.664724
O O3 0.022170 0.511319 0.815840
O O4 0.500000 0.500000 0.000000
O O5 0.287421 0.413669 0.393030
O O6 0.390406 0.275543 0.333186
O O7 0.857985 0.303151 0.975764
O O8 0.500000 0.500000 0.500000
O O9 0.648268 0.670789 0.920766
O O10 0.607786 0.832464 0.079617
O O11 0.636361 0.850441 0.340480
O O12 0.079841 0.765606 0.356607
O O13 0.432368 0.016722 0.302541
O O14 0.399582 0.901164 0.893345
O O15 0.053846 0.877076 0.803304
O O16 0.552091 0.797106 0.379303
O O17 0.530990 0.180287 0.422993
#
# Coordination Sequence:
#
# PCOD8007240 Si02
#       8
#     2   2   2   2   2   2   2   2
#     4  11  24  42  65  90 129 174 218 260 323 381
#     4  11  22  43  63  88 131 171 206 267 320 376
#     4  12  25  38  64  96 122 169 216 259 315 374
#     4  11  22  43  63  88 133 164 207 264 324 373
#     4  10  21  44  66  92 126 167 209 263 327 372
#     4  10  25  39  67  96 122 167 214 261 319 393
#     4  10  20  40  69  88 126 169 204 265 317 379
#     4  11  23  40  64  94 126 167 212 260 321 375
#
# _framework density 20.689028
#
# number of rings (size 3 to 8) (size 9 to 14) (size 15 to 20)
#    0.000    1.250    3.750    1.500    3.500    1.500 
#    0.000    4.375    0.000    0.000    0.000    0.000 
#    0.000    0.000    0.000    0.000    0.000    0.000 
#
# Total GULP energy -198265.826009 kJ/mol
# GULP energy per Si atom -12391.614126 kJ/mol
# Density = 2.064194 g / cm^3
# Si number density = 20.689028 Si / 1000 Ang^3
#
#
#
# Elastic Constant Matrix: (Units=GPa)
#
#
# Indices 1 2 3 4 5 6 
#
# 1 60.4626 20.7404 26.8734 0.2279 -2.5368 2.7236
# 2 20.7404 89.4496 43.2237 -1.1373 -2.9607 -12.3206
# 3 26.8734 43.2237 93.4266 8.7892 -18.8955 -1.2871
# 4 0.2279 -1.1373 8.7892 36.3175 -4.2176 -4.8920
# 5 -2.5368 -2.9607 -18.8955 -4.2176 34.0208 7.7316
# 6 2.7236 -12.3206 -1.2871 -4.8920 7.7316 31.7424
#
#
#
# Elastic Compliance Matrix: (Units=1/GPa)
#
#
# Indices 1 2 3 4 5 6 
#
# 1 0.019605 -0.002709 -0.004600 0.000467 -0.000660 -0.002687
# 2 -0.002709 0.016685 -0.008058 0.003023 -0.004665 0.007984
# 3 -0.004600 -0.008058 0.018013 -0.004141 0.009577 -0.004973
# 4 0.000467 0.003023 -0.004141 0.029404 0.000417 0.005396
# 5 -0.000660 -0.004665 0.009577 0.000417 0.036633 -0.010224
# 6 -0.002687 0.007984 -0.004973 0.005396 -0.010224 0.037953
#
#
# Mechanical properties :
#
#
# Convention : Reuss Voigt Hill
#
# Bulk Modulus (GPa) = 42.43028 47.22376 44.82702
# Shear Modulus (GPa) = 25.39565 30.58288 27.98926
#
# Velocity S-wave (km/s) = 3.50736 3.84893 3.68211
# Velocity P-wave (km/s) = 6.07908 6.52897 6.30804
#
# Compressibility (1/GPa) = 0.02356807
#
# Stress axis : x y z
#
# Youngs Moduli (GPa) = 51.00833 59.93353 55.51544
#
# Poissons Ratio (x) = 0.16234 0.25540
# Poissons Ratio (y) = 0.13817 0.44735
# Poissons Ratio (z) = 0.23466 0.48296
#
# Static dielectric constant tensor:
#      x y z
#    x 3.855290 -0.059590 -0.445260 
#    y -0.059590 3.804550 -0.047700 
#    z -0.445260 -0.047700 3.917310 
# 
# 
# High freq. dielectric constant tensor:
#      x y z
#    x 1.807830 -0.016040 -0.020740 
#    y -0.016040 1.819060 -0.000760 
#    z -0.020740 -0.000760 1.807470 
# 
# From -- ./inp_files/46223.got.cif
#   From: 2010.06.25/outbox.cif.g09.slc.cpg/sg2_24_cif.got.tgz:46223.got - 2010.06.27 13:26:56.
