data_PCOD8007675
_publ_section_title
;
Structure prediction by ZEFSAII (Michael W. Deem and Ramdas Pophale) SiO2 
 PCOD8007675
Probable space group: P -1
;
_chemical_formula_sum "Si O2"
_cell_formula_units_Z 16
_cell_length_a 8.346162
_cell_length_b 16.678970
_cell_length_c 9.113441
_cell_angle_alpha 35.382283
_cell_angle_beta 77.839084
_cell_angle_gamma 82.998823
_cell_volume 715.303927
_symmetry_space_group_name_H-M "P -1"
_symmetry_group_IT_number 2
_symmetry_cell_setting 'triclinic'
loop_
_space_group_symop_operation_xyz
x,y,z
-x,-y,-z
loop_
_atom_site_type_symbol
_atom_site_label
_atom_site_fract_x
_atom_site_fract_y
_atom_site_fract_z
Si Si1 0.145702 0.235644 0.342267
Si Si2 0.161991 0.934616 0.326193
Si Si3 0.807323 0.524006 0.519525
Si Si4 0.631383 0.254398 0.818591
Si Si5 0.724901 0.788792 0.960735
Si Si6 0.658107 0.582626 0.771972
Si Si7 0.795553 0.006601 0.086003
Si Si8 0.511556 0.164275 0.672062
O O1 0.186784 0.383566 0.196373
O O2 0.954485 0.197813 0.394452
O O3 0.179803 0.102524 0.631739
O O4 0.245149 0.249828 0.152992
O O5 0.336880 0.874066 0.396563
O O6 0.092381 0.974916 0.112811
O O7 0.166119 0.070247 0.224793
O O8 0.698800 0.407322 0.624884
O O9 0.774602 0.671923 0.238411
O O10 0.736579 0.516059 0.712195
O O11 0.000000 0.500000 0.500000
O O12 0.470073 0.196164 0.025988
O O13 0.573142 0.258388 0.656701
O O14 0.778677 0.152550 0.955532
O O15 0.602884 0.736313 0.538317
O O16 0.500000 0.500000 0.000000
O O17 0.618203 0.974331 0.077461
#
# Coordination Sequence:
#
# PCOD8007675 Si02
#       8
#     2   2   2   2   2   2   2   2
#     4  11  26  38  67 100 133 173 210 280 339 375
#     4  11  21  41  68  96 130 167 222 273 331 389
#     4  12  29  44  68  99 132 180 225 274 327 393
#     4  11  21  41  71  91 127 174 223 259 327 392
#     4  12  23  45  66  95 139 170 221 269 329 403
#     4  11  25  48  65  95 138 176 227 269 325 400
#     4  10  20  41  66  98 126 168 220 267 327 393
#     4  10  20  41  70  98 120 174 221 267 324 398
#
# _framework density 22.368113999999998
#
# number of rings (size 3 to 8) (size 9 to 14) (size 15 to 20)
#    0.000    1.000    3.750    3.375    7.000    1.500 
#    2.250    1.250    0.000    0.000    0.000    0.000 
#    0.000    0.000    0.000    0.000    0.000    0.000 
#
# Total GULP energy -198225.613725 kJ/mol
# GULP energy per Si atom -12389.100858 kJ/mol
# Density = 2.231720 g / cm^3
# Si number density = 22.368114 Si / 1000 Ang^3
#
#
#
# Elastic Constant Matrix: (Units=GPa)
#
#
# Indices 1 2 3 4 5 6 
#
# 1 37.4436 31.1254 27.4342 -3.4432 -22.8285 10.8236
# 2 31.1254 148.1219 48.4183 -3.9149 -23.2688 10.1454
# 3 27.4342 48.4183 63.9658 3.5184 -33.5537 1.3617
# 4 -3.4432 -3.9149 3.5184 42.4794 8.4080 -12.6366
# 5 -22.8285 -23.2688 -33.5537 8.4080 37.3008 -9.5110
# 6 10.8236 10.1454 1.3617 -12.6366 -9.5110 33.2638
#
#
#
# Elastic Compliance Matrix: (Units=1/GPa)
#
#
# Indices 1 2 3 4 5 6 
#
# 1 0.050515 -0.004350 -0.008185 -0.002413 0.018749 -0.010331
# 2 -0.004350 0.009712 -0.007930 0.001525 -0.004578 -0.001952
# 3 -0.008185 -0.007930 0.042543 -0.008579 0.032648 0.009416
# 4 -0.002413 0.001525 -0.008579 0.029126 -0.012744 0.008092
# 5 0.018749 -0.004578 0.032648 -0.012744 0.069998 0.009132
# 6 -0.010331 -0.001952 0.009416 0.008092 0.009132 0.039319
#
#
# Mechanical properties :
#
#
# Convention : Reuss Voigt Hill
#
# Bulk Modulus (GPa) = 16.17043 51.49856 33.83450
# Shear Modulus (GPa) = 16.51491 32.11236 24.31363
#
# Velocity S-wave (km/s) = 2.72016 3.79308 3.30051
# Velocity P-wave (km/s) = 4.13650 6.50050 5.44826
#
# Compressibility (1/GPa) = 0.06184128
#
# Stress axis : x y z
#
# Youngs Moduli (GPa) = 19.79598 102.96375 23.50544
#
# Poissons Ratio (x) = 0.44792 0.19239
# Poissons Ratio (y) = 0.08612 0.18639
# Poissons Ratio (z) = 0.16203 0.81646
#
# Static dielectric constant tensor:
#      x y z
#    x 4.654500 -0.021640 -0.401180 
#    y -0.021640 4.244390 -0.176550 
#    z -0.401180 -0.176550 4.060740 
# 
# 
# High freq. dielectric constant tensor:
#      x y z
#    x 1.901370 0.005240 -0.021370 
#    y 0.005240 1.886840 -0.006840 
#    z -0.021370 -0.006840 1.871710 
# 
# From -- ./inp_files/205086.got.cif
#   From: 2010.06.25/outbox.cif.g09.slc.cpg/sg2_103_cif.got.tgz:205086.got - 2010.06.27 13:26:56.
