data_PCOD8007055
_publ_section_title
;
Structure prediction by ZEFSAII (Michael W. Deem and Ramdas Pophale) SiO2 
 PCOD8007055
Probable space group: P -1
;
_chemical_formula_sum "Si O2"
_cell_formula_units_Z 16
_cell_length_a 10.382286
_cell_length_b 9.114078
_cell_length_c 14.000826
_cell_angle_alpha 76.053573
_cell_angle_beta 105.985127
_cell_angle_gamma 47.077440
_cell_volume 739.889158
_symmetry_space_group_name_H-M "P -1"
_symmetry_group_IT_number 2
_symmetry_cell_setting 'triclinic'
loop_
_space_group_symop_operation_xyz
x,y,z
-x,-y,-z
loop_
_atom_site_type_symbol
_atom_site_label
_atom_site_fract_x
_atom_site_fract_y
_atom_site_fract_z
Si Si1 0.108732 0.412610 0.636979
Si Si2 0.479935 0.782518 0.223115
Si Si3 0.467878 0.302641 0.971866
Si Si4 0.703481 0.927432 0.545887
Si Si5 0.809275 0.158043 0.190957
Si Si6 0.372045 0.900264 0.708059
Si Si7 0.737044 0.712871 0.915153
Si Si8 0.683317 0.230166 0.631522
O O1 0.261615 0.423735 0.667334
O O2 0.000000 0.500000 0.500000
O O3 0.245404 0.132367 0.720081
O O4 0.920815 0.620705 0.645751
O O5 0.448697 0.785597 0.104593
O O6 0.391598 0.727534 0.280693
O O7 0.348422 0.052173 0.179138
O O8 0.266764 0.605627 0.889019
O O9 0.696391 0.144845 0.095242
O O10 0.357347 0.251277 0.004378
O O11 0.688421 0.023945 0.425884
O O12 0.704737 0.050782 0.609692
O O13 0.500000 0.000000 0.500000
O O14 0.710981 0.194009 0.268373
O O15 0.077851 0.902319 0.291510
O O16 0.637685 0.679544 0.823017
O O17 0.000000 0.500000 0.000000
O O18 0.500000 0.500000 0.500000
#
# Coordination Sequence:
#
# PCOD8007055 Si02
#       8
#     2   2   2   2   2   2   2   2
#     4   9  19  37  64  87 123 166 214 268 319 379
#     4  11  23  41  62  94 127 167 225 267 325 388
#     4  10  22  42  68  92 121 177 219 271 334 390
#     4  11  23  40  64  93 125 172 221 261 323 381
#     4  10  23  43  63  90 131 165 220 267 337 399
#     4   9  21  38  64  92 125 169 211 270 328 387
#     4  10  20  40  66  97 127 159 218 280 326 380
#     4  12  28  41  61  98 140 175 218 267 328 400
#
# _framework density 21.624860999999999
#
# number of rings (size 3 to 8) (size 9 to 14) (size 15 to 20)
#    0.000    1.750    0.000    4.125    7.000    2.000 
#    2.250    0.000    0.000    0.000    0.000    0.000 
#    0.000    0.000    0.000    0.000    0.000    0.000 
#
# Total GULP energy -198230.699006 kJ/mol
# GULP energy per Si atom -12389.418688 kJ/mol
# Density = 2.157564 g / cm^3
# Si number density = 21.624861 Si / 1000 Ang^3
#
#
#
# Elastic Constant Matrix: (Units=GPa)
#
#
# Indices 1 2 3 4 5 6 
#
# 1 132.0333 20.8889 56.5293 -5.0079 10.5571 -24.2123
# 2 20.8889 60.9803 19.7837 1.7818 11.0078 -11.7756
# 3 56.5293 19.7837 111.4462 -2.6870 6.0557 -16.4386
# 4 -5.0079 1.7818 -2.6870 40.6772 -11.3413 0.6829
# 5 10.5571 11.0078 6.0557 -11.3413 53.1879 -3.5608
# 6 -24.2123 -11.7756 -16.4386 0.6829 -3.5608 27.7770
#
#
#
# Elastic Compliance Matrix: (Units=1/GPa)
#
#
# Indices 1 2 3 4 5 6 
#
# 1 0.010840 -0.000944 -0.004328 0.000738 -0.000881 0.006357
# 2 -0.000944 0.019182 -0.001933 -0.002197 -0.003646 0.005752
# 3 -0.004328 -0.001933 0.011872 0.000335 0.000142 0.002444
# 4 0.000738 -0.002197 0.000335 0.026440 0.005909 0.000017
# 5 -0.000881 -0.003646 0.000142 0.005909 0.020996 0.000317
# 6 0.006357 0.005752 0.002444 0.000017 0.000317 0.045467
#
#
# Mechanical properties :
#
#
# Convention : Reuss Voigt Hill
#
# Bulk Modulus (GPa) = 36.38332 55.42931 45.90631
# Shear Modulus (GPa) = 31.57195 38.14562 34.85878
#
# Velocity S-wave (km/s) = 3.82512 4.20452 4.01930
# Velocity P-wave (km/s) = 6.03075 7.01844 6.54326
#
# Compressibility (1/GPa) = 0.02748512
#
# Stress axis : x y z
#
# Youngs Moduli (GPa) = 92.24954 52.13140 84.23166
#
# Poissons Ratio (x) = 0.04924 0.36452
# Poissons Ratio (y) = 0.08712 0.16279
# Poissons Ratio (z) = 0.39922 0.10075
#
# Static dielectric constant tensor:
#      x y z
#    x 4.307440 0.161400 0.271510 
#    y 0.161400 4.281790 -0.153170 
#    z 0.271510 -0.153170 4.464490 
# 
# 
# High freq. dielectric constant tensor:
#      x y z
#    x 1.855870 -0.003630 0.002990 
#    y -0.003630 1.822970 -0.005550 
#    z 0.002990 -0.005550 1.868470 
# 
# From -- ./inp_files/494690.got.cif
#   From: 2010.06.25/outbox.cif.g09.slc.cpg/sg2_248_cif.got.tgz:494690.got - 2010.06.27 13:26:56.
