data_PCOD8007308
_publ_section_title
;
Structure prediction by ZEFSAII (Michael W. Deem and Ramdas Pophale) SiO2 
 PCOD8007308
Probable space group: P -1
;
_chemical_formula_sum "Si O2"
_cell_formula_units_Z 14
_cell_length_a 15.620320
_cell_length_b 14.176967
_cell_length_c 7.206679
_cell_angle_alpha 67.849040
_cell_angle_beta 135.063104
_cell_angle_gamma 142.120111
_cell_volume 628.469036
_symmetry_space_group_name_H-M "P -1"
_symmetry_group_IT_number 2
_symmetry_cell_setting 'triclinic'
loop_
_space_group_symop_operation_xyz
x,y,z
-x,-y,-z
loop_
_atom_site_type_symbol
_atom_site_label
_atom_site_fract_x
_atom_site_fract_y
_atom_site_fract_z
Si Si1 0.709554 0.170672 0.452023
Si Si2 0.700785 0.580706 0.676078
Si Si3 0.007915 0.252756 0.659928
Si Si4 0.359870 0.017290 0.208391
Si Si5 0.972593 0.528634 0.667790
Si Si6 0.976184 0.865174 0.584658
Si Si7 0.692635 0.346867 0.716815
O O1 0.484932 0.068266 0.175244
O O2 0.876423 0.369528 0.524337
O O3 0.770928 0.116952 0.453009
O O4 0.727872 0.145069 0.714531
O O5 0.500000 0.500000 0.500000
O O6 0.641121 0.424713 0.655123
O O7 0.786482 0.699902 0.539309
O O8 0.870665 0.697187 0.008344
O O9 0.085286 0.408575 0.575089
O O10 0.034938 0.181905 0.607197
O O11 0.493560 0.164522 0.458910
O O12 0.181611 0.969404 0.915590
O O13 0.867509 0.476709 0.740399
O O14 0.789055 0.337597 0.032438
O O15 0.000000 0.000000 0.500000
#
# Coordination Sequence:
#
# PCOD8007308 Si02
#       7
#     2   2   2   2   2   2   2
#     4  10  21  40  70 107 140 176 221 285 361 422
#     4  12  28  49  74 100 141 192 248 292 342 419
#     4  12  25  44  76 101 139 181 241 289 354 425
#     4  10  23  43  69 103 149 179 223 291 360 419
#     4  10  20  40  72 105 140 179 224 291 353 424
#     4  12  29  51  71  99 146 193 240 295 350 418
#     4  10  21  41  73 102 141 183 228 291 354 413
#
# _framework density 22.276357999999998
#
# number of rings (size 3 to 8) (size 9 to 14) (size 15 to 20)
#    0.000    1.143    4.286    0.429    8.000    5.143 
#    0.000    0.000    0.000    0.000    0.000    0.000 
#    0.000    0.000    0.000    0.000    0.000    0.000 
#
# Total GULP energy -173470.110090 kJ/mol
# GULP energy per Si atom -12390.722149 kJ/mol
# Density = 2.222566 g / cm^3
# Si number density = 22.276358 Si / 1000 Ang^3
#
#
#
# Elastic Constant Matrix: (Units=GPa)
#
#
# Indices 1 2 3 4 5 6 
#
# 1 153.1309 29.8326 13.8557 6.2468 6.4672 -7.2811
# 2 29.8326 78.7073 6.5739 -8.1396 5.0828 -3.9991
# 3 13.8557 6.5739 45.1462 5.7152 4.9385 -5.3660
# 4 6.2468 -8.1396 5.7152 26.8565 -2.9323 4.9815
# 5 6.4672 5.0828 4.9385 -2.9323 41.8776 3.3871
# 6 -7.2811 -3.9991 -5.3660 4.9815 3.3871 37.7971
#
#
#
# Elastic Compliance Matrix: (Units=1/GPa)
#
#
# Indices 1 2 3 4 5 6 
#
# 1 0.007415 -0.002851 -0.001252 -0.002684 -0.000952 0.001388
# 2 -0.002851 0.014546 -0.001830 0.005364 -0.000741 0.000089
# 3 -0.001252 -0.001830 0.024497 -0.006615 -0.003277 0.004209
# 4 -0.002684 0.005364 -0.006615 0.042613 0.004083 -0.006871
# 5 -0.000952 -0.000741 -0.003277 0.004083 0.025072 -0.003512
# 6 0.001388 0.000089 0.004209 -0.006871 -0.003512 0.028552
#
#
# Mechanical properties :
#
#
# Convention : Reuss Voigt Hill
#
# Bulk Modulus (GPa) = 28.90923 41.94543 35.42733
# Shear Modulus (GPa) = 30.10380 36.42104 33.26242
#
# Velocity S-wave (km/s) = 3.68010 4.04786 3.86835
# Velocity P-wave (km/s) = 5.57344 6.38101 5.99085
#
# Compressibility (1/GPa) = 0.03459103
#
# Stress axis : x y z
#
# Youngs Moduli (GPa) = 134.86541 68.74701 40.82131
#
# Poissons Ratio (x) = 0.19603 0.05109
# Poissons Ratio (y) = 0.38457 0.07472
# Poissons Ratio (z) = 0.16880 0.12583
#
# Static dielectric constant tensor:
#      x y z
#    x 4.821160 0.167050 -0.029020 
#    y 0.167050 4.036970 -0.173700 
#    z -0.029020 -0.173700 4.036860 
# 
# 
# High freq. dielectric constant tensor:
#      x y z
#    x 1.898430 0.005820 -0.002120 
#    y 0.005820 1.874590 -0.011790 
#    z -0.002120 -0.011790 1.867230 
# 
# From -- ./inp_files/97842.got.cif
#   From: 2010.06.25/outbox.cif.g09.slc.cpg/sg2_49_cif.got.tgz:97842.got - 2010.06.27 13:26:56.
