data_PCOD8007348
_publ_section_title
;
Structure prediction by ZEFSAII (Michael W. Deem and Ramdas Pophale) SiO2 
 PCOD8007348
Probable space group: P -1
;
_chemical_formula_sum "Si O2"
_cell_formula_units_Z 14
_cell_length_a 20.443233
_cell_length_b 18.110802
_cell_length_c 9.237212
_cell_angle_alpha 49.330214
_cell_angle_beta 141.780918
_cell_angle_gamma 159.418497
_cell_volume 686.367580
_symmetry_space_group_name_H-M "P -1"
_symmetry_group_IT_number 2
_symmetry_cell_setting 'triclinic'
loop_
_space_group_symop_operation_xyz
x,y,z
-x,-y,-z
loop_
_atom_site_type_symbol
_atom_site_label
_atom_site_fract_x
_atom_site_fract_y
_atom_site_fract_z
Si Si1 0.654782 0.950663 0.124795
Si Si2 0.092572 0.970996 0.039168
Si Si3 0.329294 0.542363 0.559944
Si Si4 0.116418 0.541942 0.780610
Si Si5 0.939774 0.367822 0.176770
Si Si6 0.037322 0.147729 0.711606
Si Si7 0.986871 0.242092 0.074754
O O1 0.789522 0.988651 0.419037
O O2 0.742988 0.006334 0.041518
O O3 0.364969 0.694561 0.966499
O O4 0.718598 0.115452 0.061284
O O5 0.383425 0.193916 0.282796
O O6 0.955392 0.833073 0.127125
O O7 0.041810 0.038657 0.815564
O O8 0.972367 0.802673 0.923118
O O9 0.188258 0.509978 0.445165
O O10 0.279031 0.400078 0.740523
O O11 0.221000 0.442942 0.334978
O O12 0.000000 0.500000 0.500000
O O13 0.159243 0.664208 0.810941
O O14 0.943808 0.312896 0.838439
O O15 0.000000 0.500000 0.000000
#
# Coordination Sequence:
#
# PCOD8007348 Si02
#       7
#     2   2   2   2   2   2   2
#     4  10  23  42  62  84 123 165 197 248 306 355
#     4  11  22  40  67  89 123 156 199 259 299 350
#     4  10  22  41  63  88 125 160 201 245 301 362
#     4  12  25  38  59  92 123 155 206 248 296 358
#     4  10  20  41  61  85 120 163 201 240 303 358
#     4   9  22  41  63  93 116 157 206 241 311 364
#     4  10  24  41  59  94 122 157 208 244 296 369
#
# _framework density 20.397234000000001
#
# number of rings (size 3 to 8) (size 9 to 14) (size 15 to 20)
#    0.000    2.000    2.857    1.714    6.000    4.000 
#    0.000    6.429    0.000    0.000    0.000    0.000 
#    0.000    0.000    0.000    0.000    0.000    0.000 
#
# Total GULP energy -173570.660124 kJ/mol
# GULP energy per Si atom -12397.904295 kJ/mol
# Density = 2.035081 g / cm^3
# Si number density = 20.397234 Si / 1000 Ang^3
#
#
#
# Elastic Constant Matrix: (Units=GPa)
#
#
# Indices 1 2 3 4 5 6 
#
# 1 108.4313 18.8204 23.9480 -9.1372 -8.8220 -17.1505
# 2 18.8204 59.1206 31.6913 -20.0704 -2.9415 -5.2288
# 3 23.9480 31.6913 81.7611 -18.8654 0.4408 0.7380
# 4 -9.1372 -20.0704 -18.8654 44.1577 5.4621 5.7411
# 5 -8.8220 -2.9415 0.4408 5.4621 28.7399 -3.7854
# 6 -17.1505 -5.2288 0.7380 5.7411 -3.7854 28.0618
#
#
#
# Elastic Compliance Matrix: (Units=1/GPa)
#
#
# Indices 1 2 3 4 5 6 
#
# 1 0.011725 -0.001483 -0.003244 -0.001248 0.004771 0.007874
# 2 -0.001483 0.023926 -0.007248 0.007017 0.001094 0.002454
# 3 -0.003244 -0.007248 0.017080 0.004439 -0.003524 -0.005166
# 4 -0.001248 0.007017 0.004439 0.029050 -0.006089 -0.006337
# 5 0.004771 0.001094 -0.003524 -0.006089 0.038860 0.009700
# 6 0.007874 0.002454 -0.005166 -0.006337 0.009700 0.043646
#
#
# Mechanical properties :
#
#
# Convention : Reuss Voigt Hill
#
# Bulk Modulus (GPa) = 34.74722 44.24804 39.49763
# Shear Modulus (GPa) = 25.27396 31.84876 28.56136
#
# Velocity S-wave (km/s) = 3.52389 3.95577 3.74606
# Velocity P-wave (km/s) = 5.79908 6.52721 6.17389
#
# Compressibility (1/GPa) = 0.02877928
#
# Stress axis : x y z
#
# Youngs Moduli (GPa) = 85.28960 41.79588 58.54687
#
# Poissons Ratio (x) = 0.06200 0.18992
# Poissons Ratio (y) = 0.12652 0.42437
# Poissons Ratio (z) = 0.27668 0.30295
#
# Static dielectric constant tensor:
#      x y z
#    x 3.701090 0.123830 0.025600 
#    y 0.123830 3.713410 -0.231220 
#    z 0.025600 -0.231220 3.609640 
# 
# 
# High freq. dielectric constant tensor:
#      x y z
#    x 1.804730 0.006480 0.000080 
#    y 0.006480 1.796830 -0.024890 
#    z 0.000080 -0.024890 1.788970 
# 
# From -- ./inp_files/188858.got.cif
#   From: 2010.06.25/outbox.cif.g09.slc.cpg/sg2_95_cif.got.tgz:188858.got - 2010.06.27 13:26:56.
