data_PCOD8007764
_publ_section_title
;
Structure prediction by ZEFSAII (Michael W. Deem and Ramdas Pophale) SiO2 
 PCOD8007764
Probable space group: P -1
;
_chemical_formula_sum "Si O2"
_cell_formula_units_Z 16
_cell_length_a 12.448209
_cell_length_b 18.739203
_cell_length_c 9.722197
_cell_angle_alpha 91.984403
_cell_angle_beta 127.490771
_cell_angle_gamma 42.906202
_cell_volume 794.504172
_symmetry_space_group_name_H-M "P -1"
_symmetry_group_IT_number 2
_symmetry_cell_setting 'triclinic'
loop_
_space_group_symop_operation_xyz
x,y,z
-x,-y,-z
loop_
_atom_site_type_symbol
_atom_site_label
_atom_site_fract_x
_atom_site_fract_y
_atom_site_fract_z
Si Si1 0.169567 0.713112 0.110723
Si Si2 0.863279 0.626391 0.237618
Si Si3 0.829666 0.029271 0.267565
Si Si4 0.861165 0.374198 0.683951
Si Si5 0.126043 0.354950 0.443087
Si Si6 0.840623 0.345665 0.194616
Si Si7 0.853453 0.006319 0.974068
Si Si8 0.167958 0.135253 0.694045
O O1 0.517042 0.565639 0.414847
O O2 0.062282 0.693704 0.110646
O O3 0.134521 0.716251 0.922377
O O4 0.966780 0.876813 0.000484
O O5 0.980507 0.595816 0.476846
O O6 0.918396 0.662966 0.172937
O O7 0.030411 0.475299 0.308078
O O8 0.507940 0.779194 0.984048
O O9 0.853546 0.938885 0.339447
O O10 0.000000 0.000000 0.500000
O O11 0.963078 0.967666 0.213192
O O12 0.911520 0.286962 0.607372
O O13 0.928798 0.384789 0.222134
O O14 0.487049 0.175786 0.689900
O O15 0.102517 0.197641 0.496565
O O16 0.500000 0.500000 0.000000
O O17 0.000000 0.000000 0.000000
O O18 0.500000 0.000000 0.000000
#
# Coordination Sequence:
#
# PCOD8007764 Si02
#       8
#     2   2   2   2   2   2   2   2
#     4  11  25  40  67  96 134 172 220 272 331 402
#     4  10  20  41  68  89 128 170 216 267 334 390
#     4  11  25  40  66  98 127 171 224 272 316 397
#     4  11  21  43  66  94 128 182 215 265 341 396
#     4  10  22  40  65  97 127 168 219 271 327 400
#     4  12  25  42  69 102 128 169 229 282 324 394
#     4  11  24  44  64  91 137 175 209 267 344 393
#     4  12  22  44  72  94 131 177 226 273 332 397
#
# _framework density 20.138348000000001
#
# number of rings (size 3 to 8) (size 9 to 14) (size 15 to 20)
#    0.000    1.000    5.000    1.500    3.500    1.500 
#    2.250    0.625    0.000    0.000    0.000    0.000 
#    0.000    0.000    0.000    0.000    0.000    0.000 
#
# Total GULP energy -198440.119507 kJ/mol
# GULP energy per Si atom -12402.507469 kJ/mol
# Density = 2.009251 g / cm^3
# Si number density = 20.138348 Si / 1000 Ang^3
#
#
#
# Elastic Constant Matrix: (Units=GPa)
#
#
# Indices 1 2 3 4 5 6 
#
# 1 124.6569 56.3288 48.3721 7.6544 3.6531 4.5862
# 2 56.3288 152.7777 60.0782 -3.3061 -1.0992 10.1741
# 3 48.3721 60.0782 84.9573 8.9457 -3.7871 7.7534
# 4 7.6544 -3.3061 8.9457 36.7100 1.0278 -3.9091
# 5 3.6531 -1.0992 -3.7871 1.0278 35.3677 4.4325
# 6 4.5862 10.1741 7.7534 -3.9091 4.4325 36.4363
#
#
#
# Elastic Compliance Matrix: (Units=1/GPa)
#
#
# Indices 1 2 3 4 5 6 
#
# 1 0.010956 -0.002299 -0.004579 -0.001296 -0.001694 0.000304
# 2 -0.002299 0.009802 -0.005824 0.002685 -0.000045 -0.000915
# 3 -0.004579 -0.005824 0.019366 -0.004663 0.002848 -0.002765
# 4 -0.001296 0.002685 -0.004663 0.029333 -0.001604 0.003748
# 5 -0.001694 -0.000045 0.002848 -0.001604 0.029316 -0.004119
# 6 0.000304 -0.000915 -0.002765 0.003748 -0.004119 0.029154
#
#
# Mechanical properties :
#
#
# Convention : Reuss Voigt Hill
#
# Bulk Modulus (GPa) = 67.93231 76.88335 72.40783
# Shear Modulus (GPa) = 31.59824 34.87700 33.23762
#
# Velocity S-wave (km/s) = 3.96543 4.16609 4.06700
# Velocity P-wave (km/s) = 7.40083 7.83596 7.62150
#
# Compressibility (1/GPa) = 0.01472054
#
# Stress axis : x y z
#
# Youngs Moduli (GPa) = 91.27610 102.01985 51.63637
#
# Poissons Ratio (x) = 0.23458 0.23643
# Poissons Ratio (y) = 0.20987 0.30071
# Poissons Ratio (z) = 0.41793 0.59413
#
# Static dielectric constant tensor:
#      x y z
#    x 3.670400 -0.071110 -0.164300 
#    y -0.071110 3.785630 -0.119030 
#    z -0.164300 -0.119030 3.669670 
# 
# 
# High freq. dielectric constant tensor:
#      x y z
#    x 1.794500 0.006840 -0.000910 
#    y 0.006840 1.794780 -0.014070 
#    z -0.000910 -0.014070 1.776400 
# 
# From -- ./inp_files/279558.got.cif
#   From: 2010.06.25/outbox.cif.g09.slc.cpg/sg2_140_cif.got.tgz:279558.got - 2010.06.27 13:26:56.
