data_PCOD8007737
_publ_section_title
;
Structure prediction by ZEFSAII (Michael W. Deem and Ramdas Pophale) SiO2 
 PCOD8007737
Probable space group: P -1
;
_chemical_formula_sum "Si O2"
_cell_formula_units_Z 16
_cell_length_a 8.854237
_cell_length_b 15.584202
_cell_length_c 10.380931
_cell_angle_alpha 58.076817
_cell_angle_beta 53.939157
_cell_angle_gamma 38.217048
_cell_volume 710.040898
_symmetry_space_group_name_H-M "P -1"
_symmetry_group_IT_number 2
_symmetry_cell_setting 'triclinic'
loop_
_space_group_symop_operation_xyz
x,y,z
-x,-y,-z
loop_
_atom_site_type_symbol
_atom_site_label
_atom_site_fract_x
_atom_site_fract_y
_atom_site_fract_z
Si Si1 0.912730 0.614880 0.645337
Si Si2 0.085006 0.644284 0.807698
Si Si3 0.136073 0.851031 0.109345
Si Si4 0.677779 0.880913 0.401936
Si Si5 0.533014 0.580128 0.518545
Si Si6 0.801410 0.136545 0.649948
Si Si7 0.213793 0.059716 0.325649
Si Si8 0.393776 0.438161 0.037853
O O1 0.731201 0.755780 0.543776
O O2 0.749601 0.573100 0.771187
O O3 0.007341 0.614302 0.740704
O O4 0.173376 0.511244 0.510880
O O5 0.342523 0.619077 0.697491
O O6 0.844706 0.811741 0.819582
O O7 0.161796 0.541564 0.967468
O O8 0.256675 0.845368 0.184951
O O9 0.935255 0.840143 0.259559
O O10 0.365549 0.717609 0.014465
O O11 0.000000 0.000000 0.000000
O O12 0.500000 0.000000 0.500000
O O13 0.512976 0.933701 0.311145
O O14 0.500000 0.500000 0.500000
O O15 0.456508 0.718507 0.393308
O O16 0.041373 0.118553 0.497883
O O17 0.865929 0.999398 0.683152
O O18 0.500000 0.500000 0.000000
#
# Coordination Sequence:
#
# PCOD8007737 Si02
#       8
#     2   2   2   2   2   2   2   2
#     4  11  22  41  73  93 133 182 229 278 343 413
#     4  10  20  41  67  96 133 173 230 280 350 398
#     4  12  26  44  69  99 143 185 224 283 352 409
#     4  12  21  43  68 103 132 174 238 278 343 411
#     4   9  18  37  66  96 119 172 225 285 331 403
#     4  10  21  40  64 100 134 171 231 274 347 406
#     4  10  22  37  71 101 131 177 220 291 329 412
#     4  12  29  45  65 101 142 186 232 287 344 408
#
# _framework density 22.533913999999999
#
# number of rings (size 3 to 8) (size 9 to 14) (size 15 to 20)
#    0.000    1.250    2.500    4.875    1.750    3.000 
#    0.000    2.500    0.000    0.000    0.000    0.000 
#    0.000    0.000    0.000    0.000    0.000    0.000 
#
# Total GULP energy -198238.521803 kJ/mol
# GULP energy per Si atom -12389.907613 kJ/mol
# Density = 2.248263 g / cm^3
# Si number density = 22.533914 Si / 1000 Ang^3
#
#
#
# Elastic Constant Matrix: (Units=GPa)
#
#
# Indices 1 2 3 4 5 6 
#
# 1 63.3959 31.4166 24.9397 -3.8174 -12.0727 -13.3574
# 2 31.4166 126.1898 40.0762 -23.7148 0.7800 -15.1235
# 3 24.9397 40.0762 103.9518 -20.2348 -14.1478 -10.1988
# 4 -3.8174 -23.7148 -20.2348 43.7189 -5.2809 3.8349
# 5 -12.0727 0.7800 -14.1478 -5.2809 32.7460 -2.3339
# 6 -13.3574 -15.1235 -10.1988 3.8349 -2.3339 36.7745
#
#
#
# Elastic Compliance Matrix: (Units=1/GPa)
#
#
# Indices 1 2 3 4 5 6 
#
# 1 0.021245 -0.004132 -0.002123 -0.001016 0.007277 0.005996
# 2 -0.004132 0.010688 -0.002499 0.003879 -0.002113 0.001663
# 3 -0.002123 -0.002499 0.013034 0.005052 0.005841 0.001660
# 4 -0.001016 0.003879 0.005052 0.027971 0.006234 0.000106
# 5 0.007277 -0.002113 0.005841 0.006234 0.037164 0.005103
# 6 0.005996 0.001663 0.001660 0.000106 0.005103 0.030828
#
#
# Mechanical properties :
#
#
# Convention : Reuss Voigt Hill
#
# Bulk Modulus (GPa) = 36.41759 54.04472 45.23115
# Shear Modulus (GPa) = 29.83472 35.78818 32.81145
#
# Velocity S-wave (km/s) = 3.64262 3.98954 3.82002
# Velocity P-wave (km/s) = 5.82133 6.72738 6.29069
#
# Compressibility (1/GPa) = 0.02745926
#
# Stress axis : x y z
#
# Youngs Moduli (GPa) = 47.07013 93.56047 76.72489
#
# Poissons Ratio (x) = 0.38661 0.16288
# Poissons Ratio (y) = 0.19451 0.19170
# Poissons Ratio (z) = 0.09993 0.23377
#
# Static dielectric constant tensor:
#      x y z
#    x 3.978100 -0.215190 -0.147440 
#    y -0.215190 4.193530 0.121190 
#    z -0.147440 0.121190 4.026490 
# 
# 
# High freq. dielectric constant tensor:
#      x y z
#    x 1.877020 -0.013640 -0.005530 
#    y -0.013640 1.901350 -0.015910 
#    z -0.005530 -0.015910 1.878690 
# 
# From -- ./inp_files/398531.got.cif
#   From: 2010.06.25/outbox.cif.g09.slc.cpg/sg2_200_cif.got.tgz:398531.got - 2010.06.27 13:26:56.
