data_PCOD8007424
_publ_section_title
;
Structure prediction by ZEFSAII (Michael W. Deem and Ramdas Pophale) SiO2 
 PCOD8007424
Probable space group: P -1
;
_chemical_formula_sum "Si O2"
_cell_formula_units_Z 16
_cell_length_a 14.861828
_cell_length_b 11.738965
_cell_length_c 11.907842
_cell_angle_alpha 103.463523
_cell_angle_beta 150.840862
_cell_angle_gamma 59.819896
_cell_volume 763.002867
_symmetry_space_group_name_H-M "P -1"
_symmetry_group_IT_number 2
_symmetry_cell_setting 'triclinic'
loop_
_space_group_symop_operation_xyz
x,y,z
-x,-y,-z
loop_
_atom_site_type_symbol
_atom_site_label
_atom_site_fract_x
_atom_site_fract_y
_atom_site_fract_z
Si Si1 0.001049 0.133706 0.389262
Si Si2 0.866639 0.374107 0.944057
Si Si3 0.987422 0.872567 0.350768
Si Si4 0.700341 0.686357 0.882507
Si Si5 0.507266 0.962275 0.870474
Si Si6 0.416961 0.167280 0.446614
Si Si7 0.652353 0.280496 0.845381
Si Si8 0.801561 0.399339 0.624841
O O1 0.968011 0.202793 0.493623
O O2 0.063172 0.975280 0.449725
O O3 0.766676 0.237868 0.083725
O O4 0.231108 0.093567 0.562256
O O5 0.709083 0.541460 0.868765
O O6 0.833461 0.267841 0.952216
O O7 0.753947 0.401288 0.704870
O O8 0.147241 0.289430 0.224461
O O9 0.161117 0.741816 0.421761
O O10 0.707459 0.964474 0.030503
O O11 0.560152 0.788280 0.642963
O O12 0.582093 0.796637 0.887643
O O13 0.974351 0.609091 0.153157
O O14 0.500000 0.000000 0.000000
O O15 0.594670 0.170562 0.720314
O O16 0.500000 0.000000 0.500000
O O17 0.415638 0.450331 0.637137
#
# Coordination Sequence:
#
# PCOD8007424 Si02
#       8
#     2   2   2   2   2   2   2   2
#     4  10  23  39  60  95 118 157 211 256 310 357
#     4  11  23  41  60  94 126 164 210 243 312 378
#     4   9  21  42  66  81 120 167 207 254 303 367
#     4  10  20  41  67  84 123 172 205 246 306 372
#     4   9  20  39  64  89 116 157 209 252 299 362
#     4  11  25  41  59  92 129 163 203 254 309 365
#     4  12  25  37  62  94 131 155 203 261 306 364
#     4  10  20  41  63  86 121 170 207 245 306 371
#
# _framework density 20.969778999999999
#
# number of rings (size 3 to 8) (size 9 to 14) (size 15 to 20)
#    0.000    1.750    2.500    1.125    8.750    1.000 
#    0.000    0.000    0.000    2.250    0.000    0.000 
#    0.000    0.000    0.000    0.000    0.000    0.000 
#
# Total GULP energy -198295.823725 kJ/mol
# GULP energy per Si atom -12393.488983 kJ/mol
# Density = 2.092205 g / cm^3
# Si number density = 20.969779 Si / 1000 Ang^3
#
#
#
# Elastic Constant Matrix: (Units=GPa)
#
#
# Indices 1 2 3 4 5 6 
#
# 1 61.9693 29.8439 27.1421 -0.1081 -6.9068 -12.2140
# 2 29.8439 98.7943 10.6118 4.7439 -5.5093 -15.5940
# 3 27.1421 10.6118 107.5510 6.8003 -17.1134 -4.8625
# 4 -0.1081 4.7439 6.8003 27.0924 1.7366 0.7013
# 5 -6.9068 -5.5093 -17.1134 1.7366 22.7849 -2.2496
# 6 -12.2140 -15.5940 -4.8625 0.7013 -2.2496 36.3825
#
#
#
# Elastic Compliance Matrix: (Units=1/GPa)
#
#
# Indices 1 2 3 4 5 6 
#
# 1 0.021858 -0.005367 -0.004551 0.001910 0.002212 0.004529
# 2 -0.005367 0.012544 0.000890 -0.002713 0.002667 0.003911
# 3 -0.004551 0.000890 0.011944 -0.003724 0.008192 0.001028
# 4 0.001910 -0.002713 -0.003724 0.038771 -0.006040 -0.002140
# 5 0.002212 0.002667 0.008192 -0.006040 0.052443 0.006340
# 6 0.004529 0.003911 0.001028 -0.002140 0.006340 0.031253
#
#
# Mechanical properties :
#
#
# Convention : Reuss Voigt Hill
#
# Bulk Modulus (GPa) = 35.34963 44.83447 40.09205
# Shear Modulus (GPa) = 25.47132 30.63308 28.05220
#
# Velocity S-wave (km/s) = 3.48899 3.82621 3.66149
# Velocity P-wave (km/s) = 5.75541 6.39897 6.08570
#
# Compressibility (1/GPa) = 0.02828884
#
# Stress axis : x y z
#
# Youngs Moduli (GPa) = 45.75077 79.71791 83.72419
#
# Poissons Ratio (x) = 0.42789 0.38100
# Poissons Ratio (y) = 0.24557 -0.07449
# Poissons Ratio (z) = 0.20819 -0.07092
#
# Static dielectric constant tensor:
#      x y z
#    x 3.804080 -0.225690 0.200820 
#    y -0.225690 3.935620 0.228780 
#    z 0.200820 0.228780 3.981060 
# 
# 
# High freq. dielectric constant tensor:
#      x y z
#    x 1.804970 -0.012950 0.018340 
#    y -0.012950 1.821720 0.018170 
#    z 0.018340 0.018170 1.827640 
# 
# From -- ./inp_files/270808.got.cif
#   From: 2010.06.25/outbox.cif.g09.slc.cpg/sg2_136_cif.got.tgz:270808.got - 2010.06.27 13:26:56.
