data_PCOD8007961
_publ_section_title
;
Structure prediction by ZEFSAII (Michael W. Deem and Ramdas Pophale) SiO2 
 PCOD8007961
Probable space group: P -1
;
_chemical_formula_sum "Si O2"
_cell_formula_units_Z 16
_cell_length_a 20.343448
_cell_length_b 8.639555
_cell_length_c 11.392344
_cell_angle_alpha 138.409533
_cell_angle_beta 41.079706
_cell_angle_gamma 142.113423
_cell_volume 747.666210
_symmetry_space_group_name_H-M "P -1"
_symmetry_group_IT_number 2
_symmetry_cell_setting 'triclinic'
loop_
_space_group_symop_operation_xyz
x,y,z
-x,-y,-z
loop_
_atom_site_type_symbol
_atom_site_label
_atom_site_fract_x
_atom_site_fract_y
_atom_site_fract_z
Si Si1 0.274452 0.319943 0.130229
Si Si2 0.697383 0.598847 0.499424
Si Si3 0.212158 0.902366 0.178916
Si Si4 0.271794 0.719395 0.530074
Si Si5 0.289495 0.486259 0.835841
Si Si6 0.976988 0.370338 0.222918
Si Si7 0.426059 0.346518 0.727753
Si Si8 0.909180 0.845043 0.904761
O O1 0.321111 0.592007 0.298148
O O2 0.154758 0.253704 0.189321
O O3 0.246011 0.066361 0.105674
O O4 0.375207 0.370366 0.933577
O O5 0.742590 0.421147 0.403752
O O6 0.726393 0.610338 0.331010
O O7 0.560695 0.459334 0.629136
O O8 0.763999 0.905919 0.632352
O O9 0.074935 0.677647 0.233136
O O10 0.291424 0.767101 0.006774
O O11 0.146592 0.653699 0.616275
O O12 0.363541 0.036995 0.592926
O O13 0.408831 0.524926 0.752369
O O14 0.184673 0.248042 0.915996
O O15 0.008752 0.281224 0.254127
O O16 0.979329 0.173890 0.006014
#
# Coordination Sequence:
#
# PCOD8007961 Si02
#       8
#     2   2   2   2   2   2   2   2
#     4  10  22  40  63  93 123 161 200 253 305 358
#     4  11  25  41  63  91 124 162 204 254 303 358
#     4  10  24  41  60  95 125 156 204 248 309 362
#     4  11  23  41  64  93 120 162 208 246 304 363
#     4  10  21  41  64  89 121 162 204 252 303 357
#     4  10  20  42  60  91 126 157 204 246 300 369
#     4  11  23  43  63  89 124 161 209 251 300 360
#     4   9  20  41  62  91 124 160 201 244 308 360
#
# _framework density 21.399923999999999
#
# number of rings (size 3 to 8) (size 9 to 14) (size 15 to 20)
#    0.000    1.750    2.500    1.500    0.000    9.500 
#   11.250    0.000    0.000    0.000    0.000    0.000 
#    0.000    0.000    0.000    0.000    0.000    0.000 
#
# Total GULP energy -198417.377751 kJ/mol
# GULP energy per Si atom -12401.086109 kJ/mol
# Density = 2.135122 g / cm^3
# Si number density = 21.399924 Si / 1000 Ang^3
#
#
#
# Elastic Constant Matrix: (Units=GPa)
#
#
# Indices 1 2 3 4 5 6 
#
# 1 77.6238 29.5144 9.3907 16.8100 -10.9604 -5.1357
# 2 29.5144 77.4913 18.1006 8.4817 -9.5314 6.5650
# 3 9.3907 18.1006 13.6872 22.3136 -9.1728 5.6747
# 4 16.8100 8.4817 22.3136 10.2398 -1.8510 -10.6844
# 5 -10.9604 -9.5314 -9.1728 -1.8510 37.7857 -3.7924
# 6 -5.1357 6.5650 5.6747 -10.6844 -3.7924 30.5302
#
#
#
# Elastic Compliance Matrix: (Units=1/GPa)
#
#
# Indices 1 2 3 4 5 6 
#
# 1 0.016023 -0.004622 -0.007898 0.001267 0.002216 0.005876
# 2 -0.004622 0.016799 -0.002268 -0.008075 0.001285 -0.006635
# 3 -0.007898 -0.002268 -0.007505 0.049838 -0.000443 0.017941
# 4 0.001267 -0.008075 0.049838 -0.017950 0.008289 -0.012566
# 5 0.002216 0.001285 -0.000443 0.008289 0.028394 0.006607
# 6 0.005876 -0.006635 0.017941 -0.012566 0.006607 0.028258
#
#
# Mechanical properties :
#
#
# Convention : Reuss Voigt Hill
#
# Bulk Modulus (GPa) = -234.77093 31.42373 -101.67360
# Shear Modulus (GPa) = 54.24562 23.16423 38.70492
#
# Velocity S-wave (km/s) = 5.04019 3.29362 4.25743
# Velocity P-wave (km/s) = 8.72200 5.40184 4.84218
#
# Compressibility (1/GPa) = -0.00425947
#
# Stress axis : x y z
#
# Youngs Moduli (GPa) = 62.41158 59.52831 -133.24394
#
# Poissons Ratio (x) = 0.27512 -1.05237
# Poissons Ratio (y) = 0.28845 -0.30222
# Poissons Ratio (z) = 0.49293 0.13502
#
# Static dielectric constant tensor:
#      x y z
#    x 4.259700 -0.046040 -0.187050 
#    y -0.046040 3.775790 0.217590 
#    z -0.187050 0.217590 3.780130 
# 
# 
# High freq. dielectric constant tensor:
#      x y z
#    x 1.858460 -0.001030 -0.007270 
#    y -0.001030 1.831060 0.017210 
#    z -0.007270 0.017210 1.835580 
# 
# From -- ./inp_files/315728.got.cif
#   From: 2010.06.25/outbox.cif.g09.slc.cpg/sg2_158_cif.got.tgz:315728.got - 2010.06.27 13:26:56.
