data_PCOD8007603
_publ_section_title
;
Structure prediction by ZEFSAII (Michael W. Deem and Ramdas Pophale) SiO2 
 PCOD8007603
Probable space group: P -1
;
_chemical_formula_sum "Si O2"
_cell_formula_units_Z 14
_cell_length_a 14.820932
_cell_length_b 9.593172
_cell_length_c 16.693861
_cell_angle_alpha 146.006723
_cell_angle_beta 27.323576
_cell_angle_gamma 143.810266
_cell_volume 585.713895
_symmetry_space_group_name_H-M "P -1"
_symmetry_group_IT_number 2
_symmetry_cell_setting 'triclinic'
loop_
_space_group_symop_operation_xyz
x,y,z
-x,-y,-z
loop_
_atom_site_type_symbol
_atom_site_label
_atom_site_fract_x
_atom_site_fract_y
_atom_site_fract_z
Si Si1 0.204470 0.588672 0.600929
Si Si2 0.186791 0.691571 0.491764
Si Si3 0.822962 0.340072 0.977326
Si Si4 0.579896 0.028418 0.266438
Si Si5 0.444494 0.263856 0.345501
Si Si6 0.157602 0.827569 0.286775
Si Si7 0.043156 0.898375 0.096312
O O1 0.265546 0.567946 0.449497
O O2 0.299486 0.875243 0.699371
O O3 0.278458 0.408183 0.520608
O O4 0.956841 0.471157 0.740505
O O5 0.000000 0.500000 0.500000
O O6 0.382563 0.789038 0.326232
O O7 0.112967 0.927030 0.700840
O O8 0.639221 0.389186 0.197122
O O9 0.964427 0.628091 0.980686
O O10 0.753618 0.174389 0.873567
O O11 0.940430 0.173539 0.857903
O O12 0.500940 0.259057 0.393726
O O13 0.737265 0.948882 0.042892
O O14 0.351705 0.955549 0.250668
O O15 0.000000 0.000000 0.500000
#
# Coordination Sequence:
#
# PCOD8007603 Si02
#       7
#     2   2   2   2   2   2   2
#     4  11  23  42  65  98 130 176 216 263 330 394
#     4  12  28  45  67  95 138 175 216 270 330 393
#     4  10  20  41  66 100 130 164 223 273 318 387
#     4  11  23  45  68  93 132 171 225 269 322 390
#     4  10  22  37  68 101 128 169 216 276 326 375
#     4  10  21  36  64  98 133 165 212 271 326 379
#     4  10  24  42  69  98 128 175 221 267 325 388
#
# _framework density 23.902453999999999
#
# number of rings (size 3 to 8) (size 9 to 14) (size 15 to 20)
#    0.000    1.429    1.429    3.000    8.000    1.143 
#    2.571    0.000    0.000    0.000    0.000    0.000 
#    0.000    0.000    0.000    0.000    0.000    0.000 
#
# Total GULP energy -173472.831379 kJ/mol
# GULP energy per Si atom -12390.916527 kJ/mol
# Density = 2.384805 g / cm^3
# Si number density = 23.902454 Si / 1000 Ang^3
#
#
#
# Elastic Constant Matrix: (Units=GPa)
#
#
# Indices 1 2 3 4 5 6 
#
# 1 105.8625 35.7900 9.3590 -2.9035 23.2461 5.9993
# 2 35.7900 110.7196 25.7378 -32.6342 5.3408 18.0454
# 3 9.3590 25.7378 59.4885 -18.9276 7.5038 -0.7599
# 4 -2.9035 -32.6342 -18.9276 38.0046 -0.2112 -2.1636
# 5 23.2461 5.3408 7.5038 -0.2112 33.2235 -6.5660
# 6 5.9993 18.0454 -0.7599 -2.1636 -6.5660 33.3022
#
#
#
# Elastic Compliance Matrix: (Units=1/GPa)
#
#
# Indices 1 2 3 4 5 6 
#
# 1 0.012819 -0.004246 -0.000009 -0.002828 -0.008679 -0.001903
# 2 -0.004246 0.015471 -0.002477 0.011327 -0.000266 -0.006992
# 3 -0.000009 -0.002477 0.021094 0.008446 -0.003993 0.001587
# 4 -0.002828 0.011327 0.008446 0.039831 -0.002143 -0.003270
# 5 -0.008679 -0.000266 -0.003993 -0.002143 0.038911 0.009149
# 6 -0.001903 -0.006992 0.001587 -0.003270 0.009149 0.035787
#
#
# Mechanical properties :
#
#
# Convention : Reuss Voigt Hill
#
# Bulk Modulus (GPa) = 27.84012 46.42713 37.13363
# Shear Modulus (GPa) = 26.40595 34.58499 30.49547
#
# Velocity S-wave (km/s) = 3.32737 3.80797 3.57575
# Velocity P-wave (km/s) = 5.14145 6.22896 5.71115
#
# Compressibility (1/GPa) = 0.03591938
#
# Stress axis : x y z
#
# Youngs Moduli (GPa) = 78.01194 64.63584 47.40611
#
# Poissons Ratio (x) = 0.27445 0.00042
# Poissons Ratio (y) = 0.33125 0.11744
# Poissons Ratio (z) = 0.00070 0.16012
#
# Static dielectric constant tensor:
#      x y z
#    x 4.719140 0.473590 0.078050 
#    y 0.473590 4.667160 -0.187160 
#    z 0.078050 -0.187160 3.819350 
# 
# 
# High freq. dielectric constant tensor:
#      x y z
#    x 1.955120 0.018720 0.016110 
#    y 0.018720 1.948590 -0.023680 
#    z 0.016110 -0.023680 1.920300 
# 
# From -- ./inp_files/279769.got.cif
#   From: 2010.06.25/outbox.cif.g09.slc.cpg/sg2_140_cif.got.tgz:279769.got - 2010.06.27 13:26:56.
