data_PCOD8007200
_publ_section_title
;
Structure prediction by ZEFSAII (Michael W. Deem and Ramdas Pophale) SiO2 
 PCOD8007200
Probable space group: P -1
;
_chemical_formula_sum "Si O2"
_cell_formula_units_Z 16
_cell_length_a 14.893141
_cell_length_b 8.322302
_cell_length_c 12.765856
_cell_angle_alpha 149.372771
_cell_angle_beta 65.036308
_cell_angle_gamma 104.448929
_cell_volume 708.307014
_symmetry_space_group_name_H-M "P -1"
_symmetry_group_IT_number 2
_symmetry_cell_setting 'triclinic'
loop_
_space_group_symop_operation_xyz
x,y,z
-x,-y,-z
loop_
_atom_site_type_symbol
_atom_site_label
_atom_site_fract_x
_atom_site_fract_y
_atom_site_fract_z
Si Si1 0.883854 0.474293 0.851208
Si Si2 0.188775 0.573910 0.914802
Si Si3 0.213644 0.775978 0.651740
Si Si4 0.073397 0.680296 0.830099
Si Si5 0.224962 0.816098 0.438895
Si Si6 0.444418 0.364609 0.043295
Si Si7 0.592719 0.532825 0.209811
Si Si8 0.581037 0.091720 0.362697
O O1 0.837261 0.272144 0.676933
O O2 0.005367 0.419913 0.737319
O O3 0.873098 0.346101 0.901688
O O4 0.824757 0.850304 0.082705
O O5 0.119632 0.774132 0.969248
O O6 0.296082 0.681792 0.930672
O O7 0.215629 0.198387 0.655878
O O8 0.164471 0.552574 0.628548
O O9 0.179783 0.723998 0.520181
O O10 0.336961 0.688183 0.549667
O O11 0.000000 0.000000 0.000000
O O12 0.343638 0.634134 0.274682
O O13 0.523785 0.304264 0.067414
O O14 0.500000 0.500000 0.000000
O O15 0.420409 0.032673 0.826706
O O16 0.615222 0.791694 0.259168
O O17 0.532355 0.707612 0.438884
#
# Coordination Sequence:
#
# PCOD8007200 Si02
#       8
#     2   2   2   2   2   2   2   2
#     4  10  20  38  61  87 109 148 193 242 284 320
#     4  11  21  38  59  87 115 144 194 242 280 329
#     4  10  19  37  57  84 119 152 188 224 280 346
#     4  10  24  42  61  79 111 158 192 233 293 342
#     4  11  19  33  62  88 118 143 187 241 276 331
#     4  10  17  26  52  89 117 144 181 227 276 331
#     4  10  17  29  52  86 116 143 183 231 277 325
#     4  10  16  30  54  85 117 149 181 221 278 336
#
# _framework density 22.589075000000001
#
# number of rings (size 3 to 8) (size 9 to 14) (size 15 to 20)
#    0.000    1.750    5.000    2.625    0.000    1.000 
#    0.000    3.125    0.000    0.750    0.000    0.000 
#    0.000    0.000    0.000    0.000    0.000    0.000 
#
# Total GULP energy -198334.197260 kJ/mol
# GULP energy per Si atom -12395.887329 kJ/mol
# Density = 2.253766 g / cm^3
# Si number density = 22.589075 Si / 1000 Ang^3
#
#
#
# Elastic Constant Matrix: (Units=GPa)
#
#
# Indices 1 2 3 4 5 6 
#
# 1 177.1901 58.1003 45.4651 -25.6452 11.1402 -5.2084
# 2 58.1003 73.0062 35.9451 -36.1080 -3.1795 -1.6927
# 3 45.4651 35.9451 98.9047 -31.8042 22.0004 0.7507
# 4 -25.6452 -36.1080 -31.8042 27.4694 -0.2268 -4.4499
# 5 11.1402 -3.1795 22.0004 -0.2268 35.5141 -17.2130
# 6 -5.2084 -1.6927 0.7507 -4.4499 -17.2130 28.6114
#
#
#
# Elastic Compliance Matrix: (Units=1/GPa)
#
#
# Indices 1 2 3 4 5 6 
#
# 1 0.008353 -0.009518 -0.002015 -0.007418 -0.003305 -0.002131
# 2 -0.009518 0.058874 0.003136 0.076321 0.018863 0.024886
# 3 -0.002015 0.003136 0.021854 0.026472 -0.015283 -0.005832
# 4 -0.007418 0.076321 0.026472 0.166163 0.010650 0.034720
# 5 -0.003305 0.018863 -0.015283 0.010650 0.058815 0.037955
# 6 -0.002131 0.024886 -0.005832 0.034720 0.037955 0.064423
#
#
# Mechanical properties :
#
#
# Convention : Reuss Voigt Hill
#
# Bulk Modulus (GPa) = 13.83378 69.79133 41.81256
# Shear Modulus (GPa) = 11.92267 32.29168 22.10717
#
# Velocity S-wave (km/s) = 2.29990 3.78501 3.13176
# Velocity P-wave (km/s) = 3.63182 7.07565 5.62383
#
# Compressibility (1/GPa) = 0.07228684
#
# Stress axis : x y z
#
# Youngs Moduli (GPa) = 119.71838 16.98553 45.75921
#
# Poissons Ratio (x) = 0.16166 0.09219
# Poissons Ratio (y) = 1.13942 -0.14348
# Poissons Ratio (z) = 0.24120 -0.05326
#
# Static dielectric constant tensor:
#      x y z
#    x 4.541510 0.290160 0.014440 
#    y 0.290160 4.102170 -0.623300 
#    z 0.014440 -0.623300 3.980740 
# 
# 
# High freq. dielectric constant tensor:
#      x y z
#    x 1.908300 0.011410 0.003980 
#    y 0.011410 1.848350 -0.041640 
#    z 0.003980 -0.041640 1.878870 
# 
# From -- ./inp_files/445336.got.cif
#   From: 2010.06.25/outbox.cif.g09.slc.cpg/sg2_223_cif.got.tgz:445336.got - 2010.06.27 13:26:56.
