data_PCOD8007773
_publ_section_title
;
Structure prediction by ZEFSAII (Michael W. Deem and Ramdas Pophale) SiO2 
 PCOD8007773
Probable space group: P -1
;
_chemical_formula_sum "Si O2"
_cell_formula_units_Z 16
_cell_length_a 11.999916
_cell_length_b 13.827853
_cell_length_c 9.514330
_cell_angle_alpha 48.689553
_cell_angle_beta 120.506732
_cell_angle_gamma 83.114674
_cell_volume 726.562534
_symmetry_space_group_name_H-M "P -1"
_symmetry_group_IT_number 2
_symmetry_cell_setting 'triclinic'
loop_
_space_group_symop_operation_xyz
x,y,z
-x,-y,-z
loop_
_atom_site_type_symbol
_atom_site_label
_atom_site_fract_x
_atom_site_fract_y
_atom_site_fract_z
Si Si1 0.258656 0.621885 0.075675
Si Si2 0.878054 0.208029 0.750834
Si Si3 0.815117 0.417497 0.240619
Si Si4 0.202354 0.275925 0.601941
Si Si5 0.638758 0.798575 0.722666
Si Si6 0.986760 0.330753 0.918633
Si Si7 0.515259 0.082868 0.774197
Si Si8 0.622695 0.265433 0.757691
O O1 0.408439 0.439408 0.436490
O O2 0.292757 0.746989 0.026021
O O3 0.070084 0.701444 0.943397
O O4 0.261747 0.600352 0.930982
O O5 0.803719 0.322024 0.449617
O O6 0.711611 0.280889 0.670596
O O7 0.999153 0.227910 0.891721
O O8 0.000000 0.000000 0.000000
O O9 0.020987 0.317042 0.437955
O O10 0.691927 0.629481 0.001733
O O11 0.333045 0.161942 0.659877
O O12 0.153456 0.458378 0.416345
O O13 0.337825 0.135591 0.950213
O O14 0.548163 0.807401 0.515017
O O15 0.500000 0.000000 0.500000
O O16 0.818269 0.749703 0.844837
O O17 0.640316 0.099291 0.922791
#
# Coordination Sequence:
#
# PCOD8007773 Si02
#       8
#     2   2   2   2   2   2   2   2
#     4  10  20  41  68  93 119 172 223 265 315 381
#     4  11  26  42  64  93 134 182 213 266 323 392
#     4  11  23  43  68  94 132 172 219 268 328 387
#     4  10  22  37  69  95 125 169 214 274 327 383
#     4  11  25  38  65  98 134 167 211 273 326 394
#     4  10  22  43  66  92 130 172 217 264 332 386
#     4  11  21  41  65  99 130 163 217 276 322 382
#     4  10  21  40  67  90 130 171 216 269 317 381
#
# _framework density 22.021505999999999
#
# number of rings (size 3 to 8) (size 9 to 14) (size 15 to 20)
#    0.000    1.500    2.500    1.500    5.250    3.500 
#    0.000    8.125    0.000    0.000    0.000    0.000 
#    0.000    0.000    0.000    0.000    0.000    0.000 
#
# Total GULP energy -198247.506928 kJ/mol
# GULP energy per Si atom -12390.469183 kJ/mol
# Density = 2.197138 g / cm^3
# Si number density = 22.021506 Si / 1000 Ang^3
#
#
#
# Elastic Constant Matrix: (Units=GPa)
#
#
# Indices 1 2 3 4 5 6 
#
# 1 77.6658 38.4945 31.2556 1.9184 -2.9485 7.6563
# 2 38.4945 116.1450 51.3119 -6.0565 -3.3172 11.1297
# 3 31.2556 51.3119 117.3448 -19.6160 -9.4850 3.4519
# 4 1.9184 -6.0565 -19.6160 40.1917 -1.8079 -1.4876
# 5 -2.9485 -3.3172 -9.4850 -1.8079 30.9412 2.0869
# 6 7.6563 11.1297 3.4519 -1.4876 2.0869 27.1067
#
#
#
# Elastic Compliance Matrix: (Units=1/GPa)
#
#
# Indices 1 2 3 4 5 6 
#
# 1 0.016427 -0.003988 -0.003025 -0.002955 0.000227 -0.002797
# 2 -0.003988 0.012072 -0.004156 -0.000148 -0.000146 -0.003298
# 3 -0.003025 -0.004156 0.012339 0.005728 0.003313 0.001049
# 4 -0.002955 -0.000148 0.005728 0.027984 0.002995 0.001471
# 5 0.000227 -0.000146 0.003313 0.002995 0.033709 -0.002857
# 6 -0.002797 -0.003298 0.001049 0.001471 -0.002857 0.039202
#
#
# Mechanical properties :
#
#
# Convention : Reuss Voigt Hill
#
# Bulk Modulus (GPa) = 54.05192 61.47552 57.76372
# Shear Modulus (GPa) = 29.37070 32.32082 30.84576
#
# Velocity S-wave (km/s) = 3.65599 3.83521 3.74667
# Velocity P-wave (km/s) = 6.51306 6.89844 6.70852
#
# Compressibility (1/GPa) = 0.01850073
#
# Stress axis : x y z
#
# Youngs Moduli (GPa) = 60.87619 82.83773 81.04075
#
# Poissons Ratio (x) = 0.33032 0.24515
# Poissons Ratio (y) = 0.24275 0.33681
# Poissons Ratio (z) = 0.18415 0.34428
#
# Static dielectric constant tensor:
#      x y z
#    x 4.054200 0.117150 0.102440 
#    y 0.117150 4.152790 -0.105440 
#    z 0.102440 -0.105440 4.296980 
# 
# 
# High freq. dielectric constant tensor:
#      x y z
#    x 1.866130 0.011290 0.007880 
#    y 0.011290 1.864560 -0.011230 
#    z 0.007880 -0.011230 1.865040 
# 
# From -- ./inp_files/271857.got.cif
#   From: 2010.06.25/outbox.cif.g09.slc.cpg/sg2_136_cif.got.tgz:271857.got - 2010.06.27 13:26:56.
