data_PCOD8007098
_publ_section_title
;
Structure prediction by ZEFSAII (Michael W. Deem and Ramdas Pophale) SiO2 
 PCOD8007098
Probable space group: P -1
;
_chemical_formula_sum "Si O2"
_cell_formula_units_Z 16
_cell_length_a 13.683072
_cell_length_b 10.928729
_cell_length_c 8.667175
_cell_angle_alpha 139.377546
_cell_angle_beta 91.754137
_cell_angle_gamma 69.606300
_cell_volume 730.554638
_symmetry_space_group_name_H-M "P -1"
_symmetry_group_IT_number 2
_symmetry_cell_setting 'triclinic'
loop_
_space_group_symop_operation_xyz
x,y,z
-x,-y,-z
loop_
_atom_site_type_symbol
_atom_site_label
_atom_site_fract_x
_atom_site_fract_y
_atom_site_fract_z
Si Si1 0.942714 0.227934 0.559406
Si Si2 0.671261 0.351124 0.207998
Si Si3 0.864805 0.675510 0.293847
Si Si4 0.121419 0.757456 0.099921
Si Si5 0.664882 0.790771 0.186655
Si Si6 0.748579 0.551791 0.661631
Si Si7 0.459626 0.222106 0.540177
Si Si8 0.303912 0.092119 0.234504
O O1 0.862832 0.239704 0.709649
O O2 0.873873 0.377728 0.557018
O O3 0.024216 0.308442 0.716155
O O4 0.013318 0.984794 0.262972
O O5 0.702016 0.423562 0.437810
O O6 0.558818 0.556624 0.327544
O O7 0.768700 0.276032 0.013717
O O8 0.648828 0.154532 0.056106
O O9 0.792258 0.724756 0.179304
O O10 0.788338 0.855982 0.588145
O O11 0.898171 0.439936 0.138058
O O12 0.606816 0.717354 0.243202
O O13 0.591770 0.051799 0.407748
O O14 0.667688 0.664572 0.911606
O O15 0.755213 0.739391 0.746395
O O16 0.409098 0.109319 0.319217
#
# Coordination Sequence:
#
# PCOD8007098 Si02
#       8
#     2   2   2   2   2   2   2   2
#     4  11  24  37  64  88 119 161 201 248 291 345
#     4  11  21  42  60  86 128 158 193 243 298 356
#     4  11  20  42  61  85 122 157 201 247 293 347
#     4  11  21  40  60  88 119 158 202 247 294 342
#     4  10  20  40  67  91 114 154 198 252 299 346
#     4  11  23  40  57  91 123 157 197 242 292 358
#     4   9  20  42  68  87 117 151 198 252 301 342
#     4  10  22  40  61  86 121 163 194 239 298 359
#
# _framework density 21.901167999999998
#
# number of rings (size 3 to 8) (size 9 to 14) (size 15 to 20)
#    0.000    1.500    6.250    0.375    0.000    4.000 
#    2.250   10.625    0.000    0.000    0.000    0.000 
#    0.000    0.000    0.000    0.000    0.000    0.000 
#
# Total GULP energy -198401.478230 kJ/mol
# GULP energy per Si atom -12400.092389 kJ/mol
# Density = 2.185132 g / cm^3
# Si number density = 21.901168 Si / 1000 Ang^3
#
#
#
# Elastic Constant Matrix: (Units=GPa)
#
#
# Indices 1 2 3 4 5 6 
#
# 1 36.6372 25.6934 21.6032 5.9030 2.5651 -1.6464
# 2 25.6934 149.0099 55.7419 19.9780 9.0527 -6.7183
# 3 21.6032 55.7419 121.0491 15.1442 18.7361 4.1030
# 4 5.9030 19.9780 15.1442 42.8570 7.3398 1.6255
# 5 2.5651 9.0527 18.7361 7.3398 25.0014 12.2589
# 6 -1.6464 -6.7183 4.1030 1.6255 12.2589 17.7890
#
#
#
# Elastic Compliance Matrix: (Units=1/GPa)
#
#
# Indices 1 2 3 4 5 6 
#
# 1 0.032678 -0.003851 -0.004003 -0.001429 0.000264 0.002442
# 2 -0.003851 0.009296 -0.003032 -0.002453 -0.002988 0.006137
# 3 -0.004003 -0.003032 0.011597 -0.000903 -0.007405 0.000995
# 4 -0.001429 -0.002453 -0.000903 0.026070 -0.006581 0.001303
# 5 0.000264 -0.002988 -0.007405 -0.006581 0.072410 -0.048694
# 6 0.002442 0.006137 0.000995 0.001303 -0.048694 0.091966
#
#
# Mechanical properties :
#
#
# Convention : Reuss Voigt Hill
#
# Bulk Modulus (GPa) = 31.44909 56.97481 44.21195
# Shear Modulus (GPa) = 18.09031 30.70665 24.39848
#
# Velocity S-wave (km/s) = 2.87713 3.74847 3.34132
# Velocity P-wave (km/s) = 5.04261 6.69370 5.92594
#
# Compressibility (1/GPa) = 0.03179742
#
# Stress axis : x y z
#
# Youngs Moduli (GPa) = 30.60205 107.56859 86.22699
#
# Poissons Ratio (x) = 0.41429 0.34519
# Poissons Ratio (y) = 0.11786 0.26147
# Poissons Ratio (z) = 0.12251 0.32618
#
# Static dielectric constant tensor:
#      x y z
#    x 3.471940 -0.040800 -0.110710 
#    y -0.040800 4.205610 0.258150 
#    z -0.110710 0.258150 4.179230 
# 
# 
# High freq. dielectric constant tensor:
#      x y z
#    x 1.818540 0.001610 -0.013330 
#    y 0.001610 1.867630 0.015180 
#    z -0.013330 0.015180 1.879680 
# 
# From -- ./inp_files/306017.got.cif
#   From: 2010.06.25/outbox.cif.g09.slc.cpg/sg2_154_cif.got.tgz:306017.got - 2010.06.27 13:26:56.
