data_PCOD8007143
_publ_section_title
;
Structure prediction by ZEFSAII (Michael W. Deem and Ramdas Pophale) SiO2 
 PCOD8007143
Probable space group: P -1
;
_chemical_formula_sum "Si O2"
_cell_formula_units_Z 16
_cell_length_a 10.866947
_cell_length_b 11.236304
_cell_length_c 9.110721
_cell_angle_alpha 58.328865
_cell_angle_beta 101.244421
_cell_angle_gamma 129.930053
_cell_volume 708.627656
_symmetry_space_group_name_H-M "P -1"
_symmetry_group_IT_number 2
_symmetry_cell_setting 'triclinic'
loop_
_space_group_symop_operation_xyz
x,y,z
-x,-y,-z
loop_
_atom_site_type_symbol
_atom_site_label
_atom_site_fract_x
_atom_site_fract_y
_atom_site_fract_z
Si Si1 0.253920 0.433152 0.975213
Si Si2 0.443684 0.563575 0.323125
Si Si3 0.588940 0.683350 0.757029
Si Si4 0.453486 0.072714 0.813173
Si Si5 0.884729 0.573409 0.755086
Si Si6 0.992003 0.611628 0.248722
Si Si7 0.250254 0.765661 0.425842
Si Si8 0.234856 0.934915 0.592561
O O1 0.421328 0.627035 0.822946
O O2 0.099264 0.328803 0.895750
O O3 0.286317 0.291529 0.108029
O O4 0.201701 0.489537 0.065731
O O5 0.500000 0.500000 0.500000
O O6 0.467829 0.500005 0.218076
O O7 0.558254 0.783692 0.208332
O O8 0.253210 0.472870 0.362061
O O9 0.687874 0.857392 0.559414
O O10 0.584866 0.167561 0.652259
O O11 0.288102 0.922006 0.777861
O O12 0.500000 0.000000 0.000000
O O13 0.939942 0.456213 0.805200
O O14 0.036922 0.791775 0.641218
O O15 0.856052 0.447865 0.429641
O O16 0.142221 0.780084 0.274046
O O17 0.296315 0.880304 0.510308
#
# Coordination Sequence:
#
# PCOD8007143 Si02
#       8
#     2   2   2   2   2   2   2   2
#     4  10  22  38  69  95 133 178 230 285 338 417
#     4  11  23  44  71  94 135 191 230 273 340 432
#     4  10  23  43  66  99 136 189 233 271 353 431
#     4  12  26  43  69 105 142 178 235 291 347 408
#     4  10  23  40  71 101 133 178 229 289 346 410
#     4  10  20  40  67  97 129 175 234 282 340 411
#     4  10  23  40  66  95 136 177 223 282 348 410
#     4  11  24  44  67 102 141 179 227 294 350 406
#
# _framework density 22.578855999999998
#
# number of rings (size 3 to 8) (size 9 to 14) (size 15 to 20)
#    0.000    1.500    2.500    1.500    1.750   10.000 
#    0.000    0.625    0.000    0.000    0.000    0.000 
#    0.000    0.000    0.000    0.000    0.000    0.000 
#
# Total GULP energy -198280.162990 kJ/mol
# GULP energy per Si atom -12392.510187 kJ/mol
# Density = 2.252747 g / cm^3
# Si number density = 22.578856 Si / 1000 Ang^3
#
#
#
# Elastic Constant Matrix: (Units=GPa)
#
#
# Indices 1 2 3 4 5 6 
#
# 1 96.8628 25.5670 35.7965 6.7225 1.4599 12.1946
# 2 25.5670 109.5876 30.7828 13.2215 8.4421 0.3799
# 3 35.7965 30.7828 83.9710 9.0741 13.5535 1.3104
# 4 6.7225 13.2215 9.0741 28.6562 10.7769 7.5053
# 5 1.4599 8.4421 13.5535 10.7769 55.7132 10.4636
# 6 12.1946 0.3799 1.3104 7.5053 10.4636 36.8496
#
#
#
# Elastic Compliance Matrix: (Units=1/GPa)
#
#
# Indices 1 2 3 4 5 6 
#
# 1 0.013321 -0.001747 -0.005287 -0.000199 0.002136 -0.004768
# 2 -0.001747 0.010807 -0.002744 -0.003931 -0.000444 0.001491
# 3 -0.005287 -0.002744 0.015888 -0.001911 -0.003425 0.002575
# 4 -0.000199 -0.003931 -0.001911 0.041225 -0.005667 -0.006613
# 5 0.002136 -0.000444 -0.003425 -0.005667 0.020896 -0.005360
# 6 -0.004768 0.001491 0.002575 -0.006613 -0.005360 0.031477
#
#
# Mechanical properties :
#
#
# Convention : Reuss Voigt Hill
#
# Bulk Modulus (GPa) = 48.87590 52.74599 50.81094
# Shear Modulus (GPa) = 31.25220 37.46212 34.35716
#
# Velocity S-wave (km/s) = 3.72443 4.07771 3.90507
# Velocity P-wave (km/s) = 6.33948 6.75143 6.54869
#
# Compressibility (1/GPa) = 0.02045998
#
# Stress axis : x y z
#
# Youngs Moduli (GPa) = 75.07098 92.53582 62.94173
#
# Poissons Ratio (x) = 0.16162 0.33278
# Poissons Ratio (y) = 0.13112 0.17270
# Poissons Ratio (z) = 0.39691 0.25390
#
# Static dielectric constant tensor:
#      x y z
#    x 4.239750 0.238260 0.022630 
#    y 0.238260 3.873500 0.300400 
#    z 0.022630 0.300400 4.194580 
# 
# 
# High freq. dielectric constant tensor:
#      x y z
#    x 1.894340 0.018480 -0.001390 
#    y 0.018480 1.875600 0.027690 
#    z -0.001390 0.027690 1.888750 
# 
# From -- ./inp_files/262101.got.cif
#   From: 2010.06.25/outbox.cif.g09.slc.cpg/sg2_132_cif.got.tgz:262101.got - 2010.06.27 13:26:56.
