data_PCOD8007043
_publ_section_title
;
Structure prediction by ZEFSAII (Michael W. Deem and Ramdas Pophale) SiO2 
 PCOD8007043
Probable space group: P -1
;
_chemical_formula_sum "Si O2"
_cell_formula_units_Z 16
_cell_length_a 30.547847
_cell_length_b 6.975253
_cell_length_c 13.571245
_cell_angle_alpha 38.226694
_cell_angle_beta 23.889701
_cell_angle_gamma 43.853432
_cell_volume 724.594793
_symmetry_space_group_name_H-M "P -1"
_symmetry_group_IT_number 2
_symmetry_cell_setting 'triclinic'
loop_
_space_group_symop_operation_xyz
x,y,z
-x,-y,-z
loop_
_atom_site_type_symbol
_atom_site_label
_atom_site_fract_x
_atom_site_fract_y
_atom_site_fract_z
Si Si1 0.238361 0.270261 0.512104
Si Si2 0.904180 0.438450 0.643151
Si Si3 0.280024 0.576694 0.692456
Si Si4 0.371351 0.747686 0.943543
Si Si5 0.958167 0.399864 0.326055
Si Si6 0.168084 0.162944 0.220418
Si Si7 0.816666 0.766773 0.133480
Si Si8 0.484198 0.352379 0.486236
O O1 0.344504 0.472713 0.185943
O O2 0.128567 0.408857 0.636308
O O3 0.223218 0.256299 0.664694
O O4 0.264182 0.932764 0.552022
O O5 0.946068 0.505287 0.420992
O O6 0.821857 0.720280 0.733497
O O7 0.000000 0.500000 0.500000
O O8 0.840654 0.118505 0.911853
O O9 0.282269 0.368517 0.672770
O O10 0.387289 0.522212 0.558508
O O11 0.174297 0.469176 0.015611
O O12 0.260727 0.935612 0.082393
O O13 0.408090 0.611561 0.816571
O O14 0.462059 0.986143 0.698462
O O15 0.942208 0.024481 0.498828
O O16 0.077843 0.454323 0.014962
O O17 0.500000 0.500000 0.500000
#
# Coordination Sequence:
#
# PCOD8007043 Si02
#       8
#     2   2   2   2   2   2   2   2
#     4  11  26  42  64 100 143 180 212 270 349 397
#     4  12  22  38  69  96 127 187 243 277 320 376
#     4  11  24  41  65 100 134 176 219 278 341 402
#     4   9  23  44  67 102 129 165 222 271 335 407
#     4  11  24  41  65  96 138 183 237 277 311 392
#     4  10  20  40  66  95 131 175 227 277 319 387
#     4  12  24  41  64  96 143 182 228 277 328 391
#     4  10  23  47  78  99 128 169 222 281 340 407
#
# _framework density 22.081305
#
# number of rings (size 3 to 8) (size 9 to 14) (size 15 to 20)
#    0.000    1.250    3.750    1.500    0.000   11.000 
#    0.000    1.250    0.000    0.000    0.000    0.000 
#    0.000    0.000    0.000    0.000    0.000    0.000 
#
# Total GULP energy -198282.550926 kJ/mol
# GULP energy per Si atom -12392.659433 kJ/mol
# Density = 2.203105 g / cm^3
# Si number density = 22.081305 Si / 1000 Ang^3
#
#
#
# Elastic Constant Matrix: (Units=GPa)
#
#
# Indices 1 2 3 4 5 6 
#
# 1 103.4264 41.2440 25.6486 4.2747 -6.3235 27.1372
# 2 41.2440 111.1624 41.5910 4.7825 0.2171 24.0351
# 3 25.6486 41.5910 112.6377 4.3114 11.8813 7.6789
# 4 4.2747 4.7825 4.3114 39.3959 4.9051 9.8545
# 5 -6.3235 0.2171 11.8813 4.9051 25.2535 5.7091
# 6 27.1372 24.0351 7.6789 9.8545 5.7091 42.5783
#
#
#
# Elastic Compliance Matrix: (Units=1/GPa)
#
#
# Indices 1 2 3 4 5 6 
#
# 1 0.013661 -0.002555 -0.002306 0.000240 0.006231 -0.007740
# 2 -0.002555 0.012494 -0.003927 0.000179 0.002208 -0.005054
# 3 -0.002306 -0.003927 0.011367 -0.000365 -0.006404 0.002580
# 4 0.000240 0.000179 -0.000365 0.027344 -0.003720 -0.006019
# 5 0.006231 0.002208 -0.006404 -0.003720 0.047024 -0.009507
# 6 -0.007740 -0.005054 0.002580 -0.006019 -0.009507 0.033474
#
#
# Mechanical properties :
#
#
# Convention : Reuss Voigt Hill
#
# Bulk Modulus (GPa) = 50.13515 60.46595 55.30055
# Shear Modulus (GPa) = 29.48310 36.02841 32.75576
#
# Velocity S-wave (km/s) = 3.65801 4.04372 3.85569
# Velocity P-wave (km/s) = 6.37146 7.01748 6.70226
#
# Compressibility (1/GPa) = 0.01994608
#
# Stress axis : x y z
#
# Youngs Moduli (GPa) = 73.19952 80.04141 87.97648
#
# Poissons Ratio (x) = 0.20449 0.20289
# Poissons Ratio (y) = 0.18701 0.34546
# Poissons Ratio (z) = 0.16882 0.31430
#
# Static dielectric constant tensor:
#      x y z
#    x 3.783570 0.230910 0.067690 
#    y 0.230910 4.593120 0.068640 
#    z 0.067690 0.068640 4.533960 
# 
# 
# High freq. dielectric constant tensor:
#      x y z
#    x 1.847840 0.016600 -0.001200 
#    y 0.016600 1.885390 0.008590 
#    z -0.001200 0.008590 1.871800 
# 
# From -- ./inp_files/477339.got.cif
#   From: 2010.06.25/outbox.cif.g09.slc.cpg/sg2_239_cif.got.tgz:477339.got - 2010.06.27 13:26:56.
