data_PCOD8007808
_publ_section_title
;
Structure prediction by ZEFSAII (Michael W. Deem and Ramdas Pophale) SiO2 
 PCOD8007808
Probable space group: P -1
;
_chemical_formula_sum "Si O2"
_cell_formula_units_Z 14
_cell_length_a 10.880365
_cell_length_b 9.302639
_cell_length_c 9.202989
_cell_angle_alpha 133.081997
_cell_angle_beta 60.244944
_cell_angle_gamma 116.234689
_cell_volume 582.786366
_symmetry_space_group_name_H-M "P -1"
_symmetry_group_IT_number 2
_symmetry_cell_setting 'triclinic'
loop_
_space_group_symop_operation_xyz
x,y,z
-x,-y,-z
loop_
_atom_site_type_symbol
_atom_site_label
_atom_site_fract_x
_atom_site_fract_y
_atom_site_fract_z
Si Si1 0.855522 0.609130 0.796041
Si Si2 0.296341 0.307810 0.631806
Si Si3 0.060651 0.991361 0.712746
Si Si4 0.175904 0.949532 0.899760
Si Si5 0.607677 0.408109 0.972219
Si Si6 0.101166 0.392348 0.556402
Si Si7 0.493778 0.966041 0.810092
O O1 0.820138 0.596241 0.637105
O O2 0.014633 0.578844 0.736055
O O3 0.818790 0.823541 0.010396
O O4 0.758243 0.434374 0.819998
O O5 0.181743 0.155193 0.684524
O O6 0.379118 0.483448 0.804319
O O7 0.217356 0.422102 0.636164
O O8 0.412898 0.197435 0.408470
O O9 0.112185 0.849892 0.715267
O O10 0.997714 0.825735 0.515298
O O11 0.928264 0.090894 0.926751
O O12 0.329764 0.893965 0.806929
O O13 0.500000 0.500000 0.000000
O O14 0.555255 0.174266 0.845729
O O15 0.500000 0.000000 0.000000
#
# Coordination Sequence:
#
# PCOD8007808 Si02
#       7
#     2   2   2   2   2   2   2
#     4  10  20  44  65  98 140 184 238 294 352 421
#     4  12  26  46  74 110 143 189 247 295 365 430
#     4  10  20  41  69 100 134 184 236 296 348 425
#     4  10  21  42  69  99 140 187 237 288 365 424
#     4  12  26  47  76 104 146 192 241 296 358 438
#     4  10  23  40  69 101 143 185 235 299 359 424
#     4  12  27  49  71 107 152 190 235 306 363 426
#
# _framework density 24.022523
#
# number of rings (size 3 to 8) (size 9 to 14) (size 15 to 20)
#    0.000    1.143    2.857    3.000    0.000    5.714 
#   12.857    0.000    0.000    0.000    0.000    0.000 
#    0.000    0.000    0.000    0.000    0.000    0.000 
#
# Total GULP energy -173534.613514 kJ/mol
# GULP energy per Si atom -12395.329537 kJ/mol
# Density = 2.396785 g / cm^3
# Si number density = 24.022523 Si / 1000 Ang^3
#
#
#
# Elastic Constant Matrix: (Units=GPa)
#
#
# Indices 1 2 3 4 5 6 
#
# 1 165.6081 16.2582 51.8855 -12.9373 -0.4294 -27.7663
# 2 16.2582 47.6080 15.1398 -9.0418 -17.1170 -12.1793
# 3 51.8855 15.1398 82.3586 -14.1411 -3.2664 -8.5492
# 4 -12.9373 -9.0418 -14.1411 36.0263 6.9912 -1.2799
# 5 -0.4294 -17.1170 -3.2664 6.9912 45.1851 -6.5163
# 6 -27.7663 -12.1793 -8.5492 -1.2799 -6.5163 40.3756
#
#
#
# Elastic Compliance Matrix: (Units=1/GPa)
#
#
# Indices 1 2 3 4 5 6 
#
# 1 0.008387 0.000248 -0.004560 0.001394 0.000346 0.004977
# 2 0.000248 0.029753 -0.003324 0.004320 0.011879 0.010496
# 3 -0.004560 -0.003324 0.016209 0.004032 -0.000858 -0.000717
# 4 0.001394 0.004320 0.004032 0.031523 -0.002399 0.003728
# 5 0.000346 0.011879 -0.000858 -0.002399 0.028112 0.008101
# 6 0.004977 0.010496 -0.000717 0.003728 0.008101 0.032630
#
#
# Mechanical properties :
#
#
# Convention : Reuss Voigt Hill
#
# Bulk Modulus (GPa) = 25.58847 51.34908 38.46877
# Shear Modulus (GPa) = 28.58602 38.47014 33.52808
#
# Velocity S-wave (km/s) = 3.45333 4.00612 3.73995
# Velocity P-wave (km/s) = 5.15516 6.54373 5.89050
#
# Compressibility (1/GPa) = 0.03908010
#
# Stress axis : x y z
#
# Youngs Moduli (GPa) = 119.23550 33.60952 61.69260
#
# Poissons Ratio (x) = -0.00835 0.28129
# Poissons Ratio (y) = -0.02962 0.20504
# Poissons Ratio (z) = 0.54366 0.11171
#
# Static dielectric constant tensor:
#      x y z
#    x 4.439750 0.047170 0.146550 
#    y 0.047170 4.077580 -0.036070 
#    z 0.146550 -0.036070 4.614410 
# 
# 
# High freq. dielectric constant tensor:
#      x y z
#    x 1.955610 0.005970 0.008160 
#    y 0.005970 1.965410 0.002600 
#    z 0.008160 0.002600 1.956730 
# 
# From -- ./inp_files/245789.got.cif
#   From: 2010.06.25/outbox.cif.g09.slc.cpg/sg2_123_cif.got.tgz:245789.got - 2010.06.27 13:26:56.
