data_PCOD8007683
_publ_section_title
;
Structure prediction by ZEFSAII (Michael W. Deem and Ramdas Pophale) SiO2 
 PCOD8007683
Probable space group: P -1
;
_chemical_formula_sum "Si O2"
_cell_formula_units_Z 14
_cell_length_a 11.453843
_cell_length_b 7.385649
_cell_length_c 8.392823
_cell_angle_alpha 98.661205
_cell_angle_beta 103.364401
_cell_angle_gamma 123.182779
_cell_volume 543.609147
_symmetry_space_group_name_H-M "P -1"
_symmetry_group_IT_number 2
_symmetry_cell_setting 'triclinic'
loop_
_space_group_symop_operation_xyz
x,y,z
-x,-y,-z
loop_
_atom_site_type_symbol
_atom_site_label
_atom_site_fract_x
_atom_site_fract_y
_atom_site_fract_z
Si Si1 0.706766 0.267870 0.242815
Si Si2 0.858422 0.089369 0.413651
Si Si3 0.005127 0.939733 0.228489
Si Si4 0.374601 0.410985 0.666558
Si Si5 0.845414 0.458923 0.990111
Si Si6 0.418451 0.941618 0.299795
Si Si7 0.681384 0.746909 0.716847
O O1 0.717299 0.497520 0.288833
O O2 0.760963 0.270560 0.081790
O O3 0.827524 0.275946 0.397888
O O4 0.538373 0.044909 0.204943
O O5 0.696031 0.837884 0.318768
O O6 0.952442 0.086418 0.298276
O O7 0.935378 0.130341 0.613915
O O8 0.877325 0.701681 0.070086
O O9 0.140475 0.111646 0.167654
O O10 0.555103 0.576627 0.787899
O O11 0.354947 0.407900 0.470161
O O12 0.715550 0.334250 0.795658
O O13 0.000000 0.500000 0.000000
O O14 0.500000 0.000000 0.500000
O O15 0.333374 0.053491 0.296934
#
# Coordination Sequence:
#
# PCOD8007683 Si02
#       7
#     2   2   2   2   2   2   2
#     4  11  24  43  73 103 137 189 235 286 349 417
#     4  10  21  41  69 102 137 181 235 282 344 426
#     4  10  20  41  66  99 147 179 224 296 348 409
#     4   9  18  37  66  98 135 176 230 283 338 409
#     4  12  25  45  68 105 148 183 230 297 354 404
#     4  11  23  44  74 103 139 184 241 287 344 428
#     4   9  18  36  64  99 134 180 221 287 343 402
#
# _framework density 25.753796000000001
#
# number of rings (size 3 to 8) (size 9 to 14) (size 15 to 20)
#    0.000    1.714    2.857    2.143    0.000    0.571 
#    0.000    2.857   12.571    0.000    0.000    0.000 
#    0.000    0.000    0.000    0.000    0.000    0.000 
#
# Total GULP energy -173466.013140 kJ/mol
# GULP energy per Si atom -12390.429510 kJ/mol
# Density = 2.569518 g / cm^3
# Si number density = 25.753796 Si / 1000 Ang^3
#
#
#
# Elastic Constant Matrix: (Units=GPa)
#
#
# Indices 1 2 3 4 5 6 
#
# 1 132.3072 34.8836 34.8381 -0.9272 -12.8496 27.9678
# 2 34.8836 70.6724 44.0957 15.5352 2.3994 36.4777
# 3 34.8381 44.0957 84.0285 28.3442 2.8233 15.6981
# 4 -0.9272 15.5352 28.3442 41.8590 6.2199 6.9523
# 5 -12.8496 2.3994 2.8233 6.2199 27.3348 4.8969
# 6 27.9678 36.4777 15.6981 6.9523 4.8969 48.5266
#
#
#
# Elastic Compliance Matrix: (Units=1/GPa)
#
#
# Indices 1 2 3 4 5 6 
#
# 1 0.010582 -0.000789 -0.004385 0.003518 0.005620 -0.005158
# 2 -0.000789 0.033479 -0.013388 -0.000236 0.001805 -0.020529
# 3 -0.004385 -0.013388 0.023552 -0.011945 -0.001831 0.006868
# 4 0.003518 -0.000236 -0.011945 0.033155 -0.004222 -0.002310
# 5 0.005620 0.001805 -0.001831 -0.004222 0.041577 -0.007594
# 6 -0.005158 -0.020529 0.006868 -0.002310 -0.007594 0.037888
#
#
# Mechanical properties :
#
#
# Convention : Reuss Voigt Hill
#
# Bulk Modulus (GPa) = 32.79792 57.18255 44.99024
# Shear Modulus (GPa) = 21.97629 35.09013 28.53321
#
# Velocity S-wave (km/s) = 2.92434 3.69524 3.33216
# Velocity P-wave (km/s) = 4.91581 6.36067 5.68433
#
# Compressibility (1/GPa) = 0.03048974
#
# Stress axis : x y z
#
# Youngs Moduli (GPa) = 94.50362 29.86948 42.45939
#
# Poissons Ratio (x) = 0.02356 0.18619
# Poissons Ratio (y) = 0.07453 0.56843
# Poissons Ratio (z) = 0.41441 0.39988
#
# Static dielectric constant tensor:
#      x y z
#    x 5.170260 0.416630 0.262280 
#    y 0.416630 4.717210 0.098100 
#    z 0.262280 0.098100 5.426240 
# 
# 
# High freq. dielectric constant tensor:
#      x y z
#    x 2.054480 0.021120 -0.007740 
#    y 0.021120 2.026840 0.016980 
#    z -0.007740 0.016980 1.990520 
# 
# From -- ./inp_files/239892.got.cif
#   From: 2010.06.25/outbox.cif.g09.slc.cpg/sg2_120_cif.got.tgz:239892.got - 2010.06.27 13:26:56.
