data_PCOD8007161
_publ_section_title
;
Structure prediction by ZEFSAII (Michael W. Deem and Ramdas Pophale) SiO2 
 PCOD8007161
Probable space group: P -1
;
_chemical_formula_sum "Si O2"
_cell_formula_units_Z 16
_cell_length_a 7.903790
_cell_length_b 11.078791
_cell_length_c 8.890048
_cell_angle_alpha 103.885094
_cell_angle_beta 62.330703
_cell_angle_gamma 112.348804
_cell_volume 635.731521
_symmetry_space_group_name_H-M "P -1"
_symmetry_group_IT_number 2
_symmetry_cell_setting 'triclinic'
loop_
_space_group_symop_operation_xyz
x,y,z
-x,-y,-z
loop_
_atom_site_type_symbol
_atom_site_label
_atom_site_fract_x
_atom_site_fract_y
_atom_site_fract_z
Si Si1 0.661864 0.066809 0.656577
Si Si2 0.395829 0.186062 0.522026
Si Si3 0.041897 0.968320 0.238789
Si Si4 0.393870 0.728711 0.039755
Si Si5 0.356591 0.342679 0.310679
Si Si6 0.945401 0.217811 0.332300
Si Si7 0.435578 0.376111 0.806373
Si Si8 0.042094 0.733702 0.988918
O O1 0.561173 0.138930 0.840503
O O2 0.760410 0.167877 0.509683
O O3 0.824597 0.019150 0.664170
O O4 0.507736 0.926563 0.614101
O O5 0.178007 0.098416 0.630774
O O6 0.384310 0.303358 0.456366
O O7 0.495324 0.262457 0.654599
O O8 0.097875 0.886094 0.056926
O O9 0.052064 0.109406 0.212856
O O10 0.435434 0.613194 0.089582
O O11 0.172366 0.676296 0.036501
O O12 0.565380 0.758971 0.851150
O O13 0.497518 0.489367 0.270591
O O14 0.124914 0.332892 0.371317
O O15 0.882324 0.271977 0.216931
O O16 0.195494 0.340883 0.921857
#
# Coordination Sequence:
#
# PCOD8007161 Si02
#       8
#     2   2   2   2   2   2   2   2
#     4  10  20  40  68 101 135 169 215 279 342 387
#     4  10  20  40  69  97 132 176 217 274 333 393
#     4   9  17  37  66  97 133 172 215 268 342 391
#     4  11  26  44  66 101 137 171 223 276 332 386
#     4  12  23  42  69 100 133 175 229 268 320 402
#     4  11  19  38  70  98 131 177 220 268 334 396
#     4  11  25  45  68  96 136 182 219 271 329 387
#     4  10  23  41  67  96 133 177 218 273 331 391
#
# _framework density 25.167856
#
# number of rings (size 3 to 8) (size 9 to 14) (size 15 to 20)
#    0.000    1.500    3.750    1.875    0.000    2.500 
#    0.000    0.625    0.000    0.000    0.000    0.000 
#    0.000    0.000    0.000    0.000    0.000    0.000 
#
# Total GULP energy -198229.706122 kJ/mol
# GULP energy per Si atom -12389.356633 kJ/mol
# Density = 2.511057 g / cm^3
# Si number density = 25.167856 Si / 1000 Ang^3
#
#
#
# Elastic Constant Matrix: (Units=GPa)
#
#
# Indices 1 2 3 4 5 6 
#
# 1 144.8559 21.2588 28.8155 -18.9327 24.4486 -9.9609
# 2 21.2588 85.7027 4.7428 4.0339 14.5975 17.1173
# 3 28.8155 4.7428 77.4066 -17.7144 7.0896 -4.3076
# 4 -18.9327 4.0339 -17.7144 61.2555 6.4938 16.9682
# 5 24.4486 14.5975 7.0896 6.4938 51.1148 13.7068
# 6 -9.9609 17.1173 -4.3076 16.9682 13.7068 31.2758
#
#
#
# Elastic Compliance Matrix: (Units=1/GPa)
#
#
# Indices 1 2 3 4 5 6 
#
# 1 0.009073 -0.002418 -0.002161 0.001386 -0.004956 0.005335
# 2 -0.002418 0.014073 -0.000223 0.000715 -0.000610 -0.008623
# 3 -0.002161 -0.000223 0.014728 0.003741 -0.001437 0.000062
# 4 0.001386 0.000715 0.003741 0.020726 -0.001309 -0.010106
# 5 -0.004956 -0.000610 -0.001437 -0.001309 0.025690 -0.011991
# 6 0.005335 -0.008623 0.000062 -0.010106 -0.011991 0.049139
#
#
# Mechanical properties :
#
#
# Convention : Reuss Voigt Hill
#
# Bulk Modulus (GPa) = 35.37227 46.39995 40.88611
# Shear Modulus (GPa) = 32.79659 45.60576 39.20118
#
# Velocity S-wave (km/s) = 3.61378 4.26145 3.95091
# Velocity P-wave (km/s) = 5.61227 6.53372 6.09045
#
# Compressibility (1/GPa) = 0.02827073
#
# Stress axis : x y z
#
# Youngs Moduli (GPa) = 110.22195 71.05890 67.89666
#
# Poissons Ratio (x) = 0.17179 0.14675
# Poissons Ratio (y) = 0.26647 0.01512
# Poissons Ratio (z) = 0.23822 0.01582
#
# Static dielectric constant tensor:
#      x y z
#    x 4.601510 0.024810 0.200700 
#    y 0.024810 4.630700 0.453170 
#    z 0.200700 0.453170 4.746780 
# 
# 
# High freq. dielectric constant tensor:
#      x y z
#    x 2.013820 0.001220 0.018380 
#    y 0.001220 1.983880 0.008220 
#    z 0.018380 0.008220 2.008150 
# 
# From -- ./inp_files/188334.got.cif
#   From: 2010.06.25/outbox.cif.g09.slc.cpg/sg2_95_cif.got.tgz:188334.got - 2010.06.27 13:26:56.
