data_PCOD8007438
_publ_section_title
;
Structure prediction by ZEFSAII (Michael W. Deem and Ramdas Pophale) SiO2 
 PCOD8007438
Probable space group: P -1
;
_chemical_formula_sum "Si O2"
_cell_formula_units_Z 16
_cell_length_a 20.356069
_cell_length_b 6.396705
_cell_length_c 17.514881
_cell_angle_alpha 110.377794
_cell_angle_beta 20.297116
_cell_angle_gamma 112.762038
_cell_volume 728.747781
_symmetry_space_group_name_H-M "P -1"
_symmetry_group_IT_number 2
_symmetry_cell_setting 'triclinic'
loop_
_space_group_symop_operation_xyz
x,y,z
-x,-y,-z
loop_
_atom_site_type_symbol
_atom_site_label
_atom_site_fract_x
_atom_site_fract_y
_atom_site_fract_z
Si Si1 0.076641 0.440923 0.283936
Si Si2 0.379194 0.875642 0.389298
Si Si3 0.016883 0.503087 0.767816
Si Si4 0.531832 0.856650 0.520926
Si Si5 0.404072 0.319965 0.990270
Si Si6 0.855915 0.944036 0.456069
Si Si7 0.250922 0.299102 0.308712
Si Si8 0.830695 0.542643 0.132837
O O1 0.117367 0.448060 0.149678
O O2 0.959853 0.636439 0.459653
O O3 0.272526 0.494977 0.125558
O O4 0.978680 0.183123 0.378457
O O5 0.235180 0.637639 0.532734
O O6 0.567315 0.844168 0.131738
O O7 0.455744 0.986242 0.399030
O O8 0.277799 0.039825 0.469023
O O9 0.015206 0.234576 0.736149
O O10 0.930574 0.592630 0.948716
O O11 0.731337 0.757704 0.289007
O O12 0.340891 0.669587 0.712194
O O13 0.500000 0.000000 0.500000
O O14 0.612096 0.456289 0.803354
O O15 0.305117 0.183701 0.155860
O O16 0.732463 0.854928 0.655173
O O17 0.000000 0.500000 0.000000
#
# Coordination Sequence:
#
# PCOD8007438 Si02
#       8
#     2   2   2   2   2   2   2   2
#     4  10  22  40  61  93 124 166 214 259 311 374
#     4  11  23  42  63  97 127 165 212 263 315 375
#     4  10  22  41  65  90 129 166 207 260 317 374
#     4  11  27  44  69 101 131 164 220 267 317 394
#     4  11  22  40  65  89 129 168 209 263 315 370
#     4  10  20  41  63  90 131 163 210 266 306 380
#     4  10  22  44  59  91 129 169 211 260 314 369
#     4  11  25  46  68  97 129 173 210 266 328 384
#
# _framework density 21.955470999999999
#
# number of rings (size 3 to 8) (size 9 to 14) (size 15 to 20)
#    0.000    1.500    3.750    1.875    3.500    6.000 
#    2.250    0.000    0.000    0.000    0.000    0.000 
#    0.000    0.000    0.000    0.000    0.000    0.000 
#
# Total GULP energy -198328.975248 kJ/mol
# GULP energy per Si atom -12395.560953 kJ/mol
# Density = 2.190550 g / cm^3
# Si number density = 21.955471 Si / 1000 Ang^3
#
#
#
# Elastic Constant Matrix: (Units=GPa)
#
#
# Indices 1 2 3 4 5 6 
#
# 1 138.1187 20.9350 63.2224 10.1488 22.2983 -12.5921
# 2 20.9350 67.0283 15.4236 9.3227 9.7491 -13.2749
# 3 63.2224 15.4236 102.4311 14.3664 17.7089 -3.0823
# 4 10.1488 9.3227 14.3664 18.8393 0.0571 4.2795
# 5 22.2983 9.7491 17.7089 0.0571 54.4665 4.4426
# 6 -12.5921 -13.2749 -3.0823 4.2795 4.4426 32.1275
#
#
#
# Elastic Compliance Matrix: (Units=1/GPa)
#
#
# Indices 1 2 3 4 5 6 
#
# 1 0.010964 -0.000545 -0.005756 -0.002194 -0.002860 0.004208
# 2 -0.000545 0.019198 0.000041 -0.011453 -0.004014 0.009803
# 3 -0.005756 0.000041 0.014961 -0.008475 -0.002562 0.000679
# 4 -0.002194 -0.011453 -0.008475 0.070170 0.006994 -0.016719
# 5 -0.002860 -0.004014 -0.002562 0.006994 0.021642 -0.006950
# 6 0.004208 0.009803 0.000679 -0.016719 -0.006950 0.040079
#
#
# Mechanical properties :
#
#
# Convention : Reuss Voigt Hill
#
# Bulk Modulus (GPa) = 30.67242 56.30447 43.48844
# Shear Modulus (GPa) = 24.94966 34.95312 29.95139
#
# Velocity S-wave (km/s) = 3.37467 3.99432 3.69750
# Velocity P-wave (km/s) = 5.40233 6.85371 6.17084
#
# Compressibility (1/GPa) = 0.03260258
#
# Stress axis : x y z
#
# Youngs Moduli (GPa) = 91.20446 52.08809 66.83837
#
# Poissons Ratio (x) = 0.02841 0.38475
# Poissons Ratio (y) = 0.04974 -0.00275
# Poissons Ratio (z) = 0.52501 -0.00214
#
# Static dielectric constant tensor:
#      x y z
#    x 4.122900 -0.135040 0.063960 
#    y -0.135040 3.743650 0.025990 
#    z 0.063960 0.025990 4.000840 
# 
# 
# High freq. dielectric constant tensor:
#      x y z
#    x 1.882120 -0.007700 0.008440 
#    y -0.007700 1.848130 0.004100 
#    z 0.008440 0.004100 1.865480 
# 
# From -- ./inp_files/120058.got.cif
#   From: 2010.06.25/outbox.cif.g09.slc.cpg/sg2_61_cif.got.tgz:120058.got - 2010.06.27 13:26:56.
