data_PCOD8007800
_publ_section_title
;
Structure prediction by ZEFSAII (Michael W. Deem and Ramdas Pophale) SiO2 
 PCOD8007800
Probable space group: P -1
;
_chemical_formula_sum "Si O2"
_cell_formula_units_Z 16
_cell_length_a 21.010811
_cell_length_b 6.960043
_cell_length_c 13.991872
_cell_angle_alpha 94.475009
_cell_angle_beta 159.331359
_cell_angle_gamma 83.455786
_cell_volume 715.105537
_symmetry_space_group_name_H-M "P -1"
_symmetry_group_IT_number 2
_symmetry_cell_setting 'triclinic'
loop_
_space_group_symop_operation_xyz
x,y,z
-x,-y,-z
loop_
_atom_site_type_symbol
_atom_site_label
_atom_site_fract_x
_atom_site_fract_y
_atom_site_fract_z
Si Si1 0.711746 0.447141 0.776245
Si Si2 0.823254 0.107667 0.063077
Si Si3 0.998695 0.257903 0.802085
Si Si4 0.496868 0.648718 0.147496
Si Si5 0.247975 0.465089 0.664911
Si Si6 0.704430 0.328431 0.549608
Si Si7 0.058045 0.284506 0.535785
Si Si8 0.609925 0.943339 0.900801
O O1 0.500000 0.500000 0.500000
O O2 0.778282 0.305263 0.950032
O O3 0.754192 0.343081 0.730720
O O4 0.820110 0.635050 0.934422
O O5 0.644589 0.006464 0.841425
O O6 0.897620 0.155226 0.277050
O O7 0.950474 0.962098 0.168928
O O8 0.863565 0.356090 0.537053
O O9 0.890833 0.259243 0.751534
O O10 0.601081 0.645235 0.193671
O O11 0.615720 0.537904 0.394269
O O12 0.443498 0.870633 0.102700
O O13 0.320685 0.543443 0.871138
O O14 0.130606 0.300003 0.529048
O O15 0.559485 0.176911 0.331678
O O16 0.000000 0.500000 0.500000
O O17 0.204691 0.179944 0.809421
#
# Coordination Sequence:
#
# PCOD8007800 Si02
#       8
#     2   2   2   2   2   2   2   2
#     4  12  27  47  72  95 136 180 230 282 333 396
#     4  12  27  44  70 100 135 182 224 278 337 403
#     4  11  25  47  71 101 136 173 231 278 340 399
#     4  10  22  41  67 101 140 174 219 273 336 404
#     4  10  20  41  68  98 137 177 213 277 342 395
#     4  11  26  44  71 102 136 181 223 282 333 393
#     4  12  24  41  70  98 141 177 221 278 337 402
#     4  12  25  41  70 102 137 177 226 271 337 406
#
# _framework density 22.374320999999998
#
# number of rings (size 3 to 8) (size 9 to 14) (size 15 to 20)
#    0.000    0.750    2.500    4.500    3.500    4.000 
#    0.000    0.000    0.000    0.000    0.000    0.000 
#    0.000    0.000    0.000    0.000    0.000    0.000 
#
# Total GULP energy -198337.870273 kJ/mol
# GULP energy per Si atom -12396.116892 kJ/mol
# Density = 2.232340 g / cm^3
# Si number density = 22.374321 Si / 1000 Ang^3
#
#
#
# Elastic Constant Matrix: (Units=GPa)
#
#
# Indices 1 2 3 4 5 6 
#
# 1 105.5298 46.1059 37.0826 16.1705 2.9942 2.6381
# 2 46.1059 120.2790 35.7625 4.5442 11.6207 -21.3225
# 3 37.0826 35.7625 96.5182 7.5281 9.3977 -10.2483
# 4 16.1705 4.5442 7.5281 17.2976 2.5978 3.3923
# 5 2.9942 11.6207 9.3977 2.5978 33.1591 3.0602
# 6 2.6381 -21.3225 -10.2483 3.3923 3.0602 41.8670
#
#
#
# Elastic Compliance Matrix: (Units=1/GPa)
#
#
# Indices 1 2 3 4 5 6 
#
# 1 0.014532 -0.005028 -0.003557 -0.010384 0.002613 -0.003697
# 2 -0.005028 0.012175 -0.001642 0.001593 -0.004052 0.006283
# 3 -0.003557 -0.001642 0.013100 -0.002089 -0.002927 0.002978
# 4 -0.010384 0.001593 -0.002089 0.069478 -0.004068 -0.004378
# 5 0.002613 -0.004052 -0.002927 -0.004068 0.032954 -0.005024
# 6 -0.003697 0.006283 0.002978 -0.004378 -0.005024 0.028769
#
#
# Mechanical properties :
#
#
# Convention : Reuss Voigt Hill
#
# Bulk Modulus (GPa) = 51.67443 62.24768 56.96106
# Shear Modulus (GPa) = 25.26361 32.02314 28.64337
#
# Velocity S-wave (km/s) = 3.36390 3.78728 3.58186
# Velocity P-wave (km/s) = 6.18331 6.85610 6.52838
#
# Compressibility (1/GPa) = 0.01935193
#
# Stress axis : x y z
#
# Youngs Moduli (GPa) = 68.81229 82.13751 76.33650
#
# Poissons Ratio (x) = 0.41302 0.27155
# Poissons Ratio (y) = 0.34602 0.12533
# Poissons Ratio (z) = 0.24478 0.13485
#
# Static dielectric constant tensor:
#      x y z
#    x 4.383460 0.190120 0.327490 
#    y 0.190120 4.138720 0.362710 
#    z 0.327490 0.362710 4.419840 
# 
# 
# High freq. dielectric constant tensor:
#      x y z
#    x 1.904330 0.005930 0.013700 
#    y 0.005930 1.886020 0.007050 
#    z 0.013700 0.007050 1.879410 
# 
# From -- ./inp_files/542219.got.cif
#   From: 2010.06.25/outbox.cif.g09.slc.cpg/sg2_272_cif.got.tgz:542219.got - 2010.06.27 13:26:56.
