data_PCOD8007129
_publ_section_title
;
Structure prediction by ZEFSAII (Michael W. Deem and Ramdas Pophale) SiO2 
 PCOD8007129
Probable space group: P -1
;
_chemical_formula_sum "Si O2"
_cell_formula_units_Z 16
_cell_length_a 9.183326
_cell_length_b 15.011352
_cell_length_c 12.251616
_cell_angle_alpha 54.070571
_cell_angle_beta 103.569693
_cell_angle_gamma 141.580485
_cell_volume 760.058977
_symmetry_space_group_name_H-M "P -1"
_symmetry_group_IT_number 2
_symmetry_cell_setting 'triclinic'
loop_
_space_group_symop_operation_xyz
x,y,z
-x,-y,-z
loop_
_atom_site_type_symbol
_atom_site_label
_atom_site_fract_x
_atom_site_fract_y
_atom_site_fract_z
Si Si1 0.233535 0.279060 0.135136
Si Si2 0.077429 0.818376 0.645991
Si Si3 0.864784 0.027684 0.680746
Si Si4 0.717754 0.192863 0.832401
Si Si5 0.303425 0.229578 0.785192
Si Si6 0.876269 0.524261 0.676417
Si Si7 0.005745 0.165588 0.953086
Si Si8 0.365244 0.889722 0.362786
O O1 0.282088 0.176879 0.213516
O O2 0.101666 0.233438 0.257909
O O3 0.500000 0.500000 0.000000
O O4 0.046618 0.207961 0.057688
O O5 0.967943 0.630244 0.732843
O O6 0.049885 0.875281 0.491630
O O7 0.380850 0.991958 0.608598
O O8 0.668856 0.997562 0.725924
O O9 0.121204 0.163218 0.702899
O O10 0.822230 0.362389 0.792162
O O11 0.605974 0.147820 0.724176
O O12 0.956467 0.251404 0.823408
O O13 0.500000 0.000000 0.000000
O O14 0.605953 0.420672 0.665137
O O15 0.258810 0.271282 0.858565
O O16 0.240732 0.066485 0.928441
O O17 0.102172 0.679799 0.516663
#
# Coordination Sequence:
#
# PCOD8007129 Si02
#       8
#     2   2   2   2   2   2   2   2
#     4  11  24  42  65  99 132 170 220 266 327 395
#     4  11  25  45  65  95 136 177 212 269 328 389
#     4  10  22  43  69  92 129 175 213 269 331 381
#     4  12  23  42  66  96 127 176 216 267 326 386
#     4  10  20  40  67  95 127 163 218 273 320 379
#     4  11  24  42  66  96 131 170 223 270 322 387
#     4  10  21  39  64  94 129 169 211 269 323 382
#     4  11  25  45  64  95 133 173 220 270 325 386
#
# _framework density 21.050999999999998
#
# number of rings (size 3 to 8) (size 9 to 14) (size 15 to 20)
#    0.000    1.250    2.500    3.750    1.750    5.000 
#    2.250    1.875    0.000    0.000    0.000    0.000 
#    0.000    0.000    0.000    0.000    0.000    0.000 
#
# Total GULP energy -198345.093708 kJ/mol
# GULP energy per Si atom -12396.568357 kJ/mol
# Density = 2.100309 g / cm^3
# Si number density = 21.051000 Si / 1000 Ang^3
#
#
#
# Elastic Constant Matrix: (Units=GPa)
#
#
# Indices 1 2 3 4 5 6 
#
# 1 73.9149 53.2758 45.2060 -16.2506 2.4786 -3.1074
# 2 53.2758 98.3289 54.1928 -8.7580 1.8495 -10.8177
# 3 45.2060 54.1928 94.3205 -5.5017 -2.6799 -3.8041
# 4 -16.2506 -8.7580 -5.5017 42.8655 0.1030 -1.3093
# 5 2.4786 1.8495 -2.6799 0.1030 40.5453 -3.0955
# 6 -3.1074 -10.8177 -3.8041 -1.3093 -3.0955 43.9524
#
#
#
# Elastic Compliance Matrix: (Units=1/GPa)
#
#
# Indices 1 2 3 4 5 6 
#
# 1 0.026403 -0.010198 -0.006475 0.007065 -0.001680 -0.001112
# 2 -0.010198 0.019446 -0.006190 -0.000580 -0.000405 0.003484
# 3 -0.006475 -0.006190 0.017207 -0.001528 0.001788 -0.000412
# 4 0.007065 -0.000580 -0.001528 0.025723 -0.000499 0.000956
# 5 -0.001680 -0.000405 0.001788 -0.000499 0.025033 0.001684
# 6 -0.001112 0.003484 -0.000412 0.000956 0.001684 0.023642
#
#
# Mechanical properties :
#
#
# Convention : Reuss Voigt Hill
#
# Bulk Modulus (GPa) = 57.70618 63.54595 60.62606
# Shear Modulus (GPa) = 26.46099 33.06529 29.76314
#
# Velocity S-wave (km/s) = 3.54926 3.96753 3.76421
# Velocity P-wave (km/s) = 6.65345 7.15826 6.91046
#
# Compressibility (1/GPa) = 0.01732917
#
# Stress axis : x y z
#
# Youngs Moduli (GPa) = 37.87510 51.42413 58.11452
#
# Poissons Ratio (x) = 0.52442 0.37632
# Poissons Ratio (y) = 0.38624 0.35974
# Poissons Ratio (z) = 0.24526 0.31832
#
# Static dielectric constant tensor:
#      x y z
#    x 4.199080 -0.018310 0.223310 
#    y -0.018310 3.672170 0.056010 
#    z 0.223310 0.056010 3.825360 
# 
# 
# High freq. dielectric constant tensor:
#      x y z
#    x 1.837690 -0.011130 -0.004180 
#    y -0.011130 1.828030 0.003130 
#    z -0.004180 0.003130 1.817880 
# 
# From -- ./inp_files/271940.got.cif
#   From: 2010.06.25/outbox.cif.g09.slc.cpg/sg2_136_cif.got.tgz:271940.got - 2010.06.27 13:26:56.
