data_PCOD8007625
_publ_section_title
;
Structure prediction by ZEFSAII (Michael W. Deem and Ramdas Pophale) SiO2 
 PCOD8007625
Probable space group: P -1
;
_chemical_formula_sum "Si O2"
_cell_formula_units_Z 14
_cell_length_a 5.251204
_cell_length_b 16.773579
_cell_length_c 8.796300
_cell_angle_alpha 70.529296
_cell_angle_beta 101.743047
_cell_angle_gamma 73.137621
_cell_volume 659.243633
_symmetry_space_group_name_H-M "P -1"
_symmetry_group_IT_number 2
_symmetry_cell_setting 'triclinic'
loop_
_space_group_symop_operation_xyz
x,y,z
-x,-y,-z
loop_
_atom_site_type_symbol
_atom_site_label
_atom_site_fract_x
_atom_site_fract_y
_atom_site_fract_z
Si Si1 0.124848 0.134262 0.176564
Si Si2 0.273062 0.953065 0.164492
Si Si3 0.455589 0.773822 0.771291
Si Si4 0.710294 0.235255 0.578962
Si Si5 0.753165 0.654177 0.140569
Si Si6 0.241991 0.176026 0.841765
Si Si7 0.597602 0.405623 0.659389
O O1 0.361631 0.163729 0.262745
O O2 0.836094 0.169832 0.212595
O O3 0.262160 0.022840 0.254787
O O4 0.059341 0.173004 0.971120
O O5 0.335403 0.853146 0.306404
O O6 0.536200 0.927410 0.095826
O O7 0.000000 0.000000 0.000000
O O8 0.388496 0.744592 0.618071
O O9 0.646656 0.678253 0.938634
O O10 0.562559 0.329514 0.593304
O O11 0.044643 0.210500 0.647978
O O12 0.614324 0.751705 0.151410
O O13 0.622659 0.584104 0.236068
O O14 0.091522 0.617345 0.219608
O O15 0.500000 0.500000 0.500000
#
# Coordination Sequence:
#
# PCOD8007625 Si02
#       7
#     2   2   2   2   2   2   2
#     4  11  24  39  62  88 131 177 214 254 306 376
#     4  12  22  38  65  93 127 168 228 263 305 358
#     4  11  25  42  60  93 136 173 205 250 327 375
#     4  11  25  40  64  93 129 166 212 269 310 377
#     4  10  20  41  66  90 127 165 200 258 322 376
#     4  10  21  39  63  89 122 170 221 257 309 361
#     4  11  23  44  71  97 118 159 217 264 312 377
#
# _framework density 21.236460000000001
#
# number of rings (size 3 to 8) (size 9 to 14) (size 15 to 20)
#    0.000    1.143    2.857    5.143    4.000    1.143 
#    0.000    1.429    0.000    0.000    0.000    0.000 
#    0.000    0.000    0.000    0.000    0.000    0.000 
#
# Total GULP energy -173474.489306 kJ/mol
# GULP energy per Si atom -12391.034950 kJ/mol
# Density = 2.118812 g / cm^3
# Si number density = 21.236460 Si / 1000 Ang^3
#
#
#
# Elastic Constant Matrix: (Units=GPa)
#
#
# Indices 1 2 3 4 5 6 
#
# 1 99.3998 20.7648 32.8895 3.7052 8.1437 4.0395
# 2 20.7648 62.8321 49.8666 -13.6469 -2.3876 8.5757
# 3 32.8895 49.8666 146.4255 6.8438 13.4561 13.2641
# 4 3.7052 -13.6469 6.8438 37.2459 11.2910 -4.1461
# 5 8.1437 -2.3876 13.4561 11.2910 25.3552 -8.5256
# 6 4.0395 8.5757 13.2641 -4.1461 -8.5256 28.6509
#
#
#
# Elastic Compliance Matrix: (Units=1/GPa)
#
#
# Indices 1 2 3 4 5 6 
#
# 1 0.011435 -0.003216 -0.000981 -0.001273 -0.003351 -0.001377
# 2 -0.003216 0.026795 -0.009143 0.010707 0.003379 -0.000779
# 3 -0.000981 -0.009143 0.011386 -0.003923 -0.006488 -0.004895
# 4 -0.001273 0.010707 -0.003923 0.035331 -0.012136 0.000292
# 5 -0.003351 0.003379 -0.006488 -0.012136 0.055470 0.017215
# 6 -0.001377 -0.000779 -0.004895 0.000292 0.017215 0.042761
#
#
# Mechanical properties :
#
#
# Convention : Reuss Voigt Hill
#
# Bulk Modulus (GPa) = 43.60100 57.29990 50.45045
# Shear Modulus (GPa) = 22.98808 31.92616 27.45712
#
# Velocity S-wave (km/s) = 3.29368 3.88153 3.59963
# Velocity P-wave (km/s) = 5.91948 6.86504 6.40972
#
# Compressibility (1/GPa) = 0.02293525
#
# Stress axis : x y z
#
# Youngs Moduli (GPa) = 87.45224 37.32030 87.82344
#
# Poissons Ratio (x) = 0.12004 0.08614
# Poissons Ratio (y) = 0.28129 0.80299
# Poissons Ratio (z) = 0.08578 0.34123
#
# Static dielectric constant tensor:
#      x y z
#    x 3.987340 0.187680 -0.031120 
#    y 0.187680 3.919900 -0.226570 
#    z -0.031120 -0.226570 4.134600 
# 
# 
# High freq. dielectric constant tensor:
#      x y z
#    x 1.848350 0.008660 0.004220 
#    y 0.008660 1.810560 -0.008300 
#    z 0.004220 -0.008300 1.826040 
# 
# From -- ./inp_files/48657.got.cif
#   From: 2010.06.25/outbox.cif.g09.slc.cpg/sg2_25_cif.got.tgz:48657.got - 2010.06.27 13:26:56.
