data_PCOD8007711
_publ_section_title
;
Structure prediction by ZEFSAII (Michael W. Deem and Ramdas Pophale) SiO2 
 PCOD8007711
Probable space group: P -1
;
_chemical_formula_sum "Si O2"
_cell_formula_units_Z 14
_cell_length_a 8.974406
_cell_length_b 10.015754
_cell_length_c 10.873434
_cell_angle_alpha 128.487198
_cell_angle_beta 121.373038
_cell_angle_gamma 82.202206
_cell_volume 626.710153
_symmetry_space_group_name_H-M "P -1"
_symmetry_group_IT_number 2
_symmetry_cell_setting 'triclinic'
loop_
_space_group_symop_operation_xyz
x,y,z
-x,-y,-z
loop_
_atom_site_type_symbol
_atom_site_label
_atom_site_fract_x
_atom_site_fract_y
_atom_site_fract_z
Si Si1 0.334855 0.480844 0.510473
Si Si2 0.956691 0.839949 0.738241
Si Si3 0.215850 0.901047 0.090666
Si Si4 0.385594 0.981534 0.602256
Si Si5 0.880018 0.471497 0.053586
Si Si6 0.514547 0.307112 0.685777
Si Si7 0.106739 0.739250 0.498302
O O1 0.500000 0.500000 0.500000
O O2 0.405070 0.430892 0.644595
O O3 0.262223 0.653818 0.569800
O O4 0.156745 0.319746 0.313536
O O5 0.990625 0.774701 0.581933
O O6 0.143683 0.934729 0.944101
O O7 0.834440 0.975964 0.754119
O O8 0.431418 0.950887 0.200542
O O9 0.114480 0.704159 0.974617
O O10 0.384281 0.803101 0.422441
O O11 0.214040 0.925750 0.587904
O O12 0.373664 0.152509 0.615657
O O13 0.961422 0.628995 0.274782
O O14 0.669060 0.447428 0.912219
O O15 0.000000 0.500000 0.000000
#
# Coordination Sequence:
#
# PCOD8007711 Si02
#       7
#     2   2   2   2   2   2   2
#     4  12  21  40  66  99 127 173 214 270 326 387
#     4  11  24  41  67  99 132 168 219 279 321 386
#     4  10  22  42  68  90 130 178 217 257 334 399
#     4  10  20  41  67  92 128 182 213 261 325 403
#     4  11  21  39  67  99 126 175 216 269 321 397
#     4  10  21  38  66  90 134 174 219 251 329 406
#     4  12  24  41  72 100 132 163 228 280 320 368
#
# _framework density 22.338875000000002
#
# number of rings (size 3 to 8) (size 9 to 14) (size 15 to 20)
#    0.000    1.143    5.714    0.429    0.000    0.571 
#    0.000    3.571    0.000    0.000    0.000    0.000 
#    0.000    0.000    0.000    0.000    0.000    0.000 
#
# Total GULP energy -173488.935934 kJ/mol
# GULP energy per Si atom -12392.066852 kJ/mol
# Density = 2.228803 g / cm^3
# Si number density = 22.338875 Si / 1000 Ang^3
#
#
#
# Elastic Constant Matrix: (Units=GPa)
#
#
# Indices 1 2 3 4 5 6 
#
# 1 89.4478 21.8501 63.9656 4.3260 1.3283 23.5898
# 2 21.8501 87.4876 51.1132 -11.0472 17.2645 13.2835
# 3 63.9656 51.1132 126.2704 -4.2706 1.9606 19.1617
# 4 4.3260 -11.0472 -4.2706 31.0232 6.1225 13.2122
# 5 1.3283 17.2645 1.9606 6.1225 30.0242 4.0806
# 6 23.5898 13.2835 19.1617 13.2122 4.0806 31.6446
#
#
#
# Elastic Compliance Matrix: (Units=1/GPa)
#
#
# Indices 1 2 3 4 5 6 
#
# 1 0.020184 0.002452 -0.009510 0.001478 -0.000506 -0.010869
# 2 0.002452 0.020861 -0.007598 0.012679 -0.012886 -0.009616
# 3 -0.009510 -0.007598 0.015702 -0.000096 0.003739 0.000329
# 4 0.001478 0.012679 -0.000096 0.050173 -0.014116 -0.025494
# 5 -0.000506 -0.012886 0.003739 -0.014116 0.042844 0.003891
# 6 -0.010869 -0.009616 0.000329 -0.025494 0.003891 0.053683
#
#
# Mechanical properties :
#
#
# Convention : Reuss Voigt Hill
#
# Bulk Modulus (GPa) = 36.45170 64.11819 50.28494
# Shear Modulus (GPa) = 20.66942 29.62352 25.14647
#
# Velocity S-wave (km/s) = 3.04512 3.64551 3.35876
# Velocity P-wave (km/s) = 5.35880 6.81795 6.13193
#
# Compressibility (1/GPa) = 0.02743357
#
# Stress axis : x y z
#
# Youngs Moduli (GPa) = 49.54428 47.93645 63.68816
#
# Poissons Ratio (x) = -0.11753 0.60567
# Poissons Ratio (y) = -0.12148 0.48392
# Poissons Ratio (z) = 0.47117 0.36424
#
# Static dielectric constant tensor:
#      x y z
#    x 3.718310 0.162950 0.211660 
#    y 0.162950 4.059620 0.231970 
#    z 0.211660 0.231970 3.857370 
# 
# 
# High freq. dielectric constant tensor:
#      x y z
#    x 1.853310 0.006260 0.029600 
#    y 0.006260 1.888220 -0.008450 
#    z 0.029600 -0.008450 1.888880 
# 
# From -- ./inp_files/393203.got.cif
#   From: 2010.06.25/outbox.cif.g09.slc.cpg/sg2_197_cif.got.tgz:393203.got - 2010.06.27 13:26:56.
