data_PCOD8007231
_publ_section_title
;
Structure prediction by ZEFSAII (Michael W. Deem and Ramdas Pophale) SiO2 
 PCOD8007231
Probable space group: P -1
;
_chemical_formula_sum "Si O2"
_cell_formula_units_Z 16
_cell_length_a 11.189139
_cell_length_b 16.400701
_cell_length_c 10.543729
_cell_angle_alpha 108.277453
_cell_angle_beta 71.737788
_cell_angle_gamma 157.567579
_cell_volume 699.613138
_symmetry_space_group_name_H-M "P -1"
_symmetry_group_IT_number 2
_symmetry_cell_setting 'triclinic'
loop_
_space_group_symop_operation_xyz
x,y,z
-x,-y,-z
loop_
_atom_site_type_symbol
_atom_site_label
_atom_site_fract_x
_atom_site_fract_y
_atom_site_fract_z
Si Si1 0.132302 0.293379 0.820098
Si Si2 0.178117 0.691685 0.467552
Si Si3 0.984466 0.270758 0.129195
Si Si4 0.656042 0.653412 0.631267
Si Si5 0.618753 0.732164 0.257552
Si Si6 0.530222 0.309666 0.436682
Si Si7 0.497348 0.904359 0.711245
Si Si8 0.731592 0.979570 0.258938
O O1 0.458863 0.526541 0.764146
O O2 0.133299 0.190897 0.789210
O O3 0.852623 0.148600 0.749696
O O4 0.110624 0.327287 0.976982
O O5 0.397096 0.876774 0.590246
O O6 0.000000 0.500000 0.500000
O O7 0.892241 0.571585 0.451712
O O8 0.391509 0.796552 0.330828
O O9 0.737888 0.195297 0.161588
O O10 0.812173 0.079041 0.150918
O O11 0.272261 0.479197 0.223145
O O12 0.500000 0.500000 0.500000
O O13 0.672430 0.760918 0.627888
O O14 0.003264 0.835868 0.633001
O O15 0.623489 0.781939 0.417508
O O16 0.717285 0.866780 0.187867
O O17 0.538642 0.220042 0.332804
#
# Coordination Sequence:
#
# PCOD8007231 Si02
#       8
#     2   2   2   2   2   2   2   2
#     4  12  27  46  67  98 150 186 223 293 337 414
#     4  10  20  40  69 103 133 170 223 287 344 393
#     4  12  27  49  67 101 143 188 237 274 343 418
#     4  12  25  42  69 108 142 177 234 286 352 410
#     4  12  23  47  74 100 142 176 234 293 339 414
#     4  11  22  44  71 107 134 178 229 293 358 394
#     4  11  23  44  70  96 139 180 230 288 343 404
#     4  12  25  43  74 104 132 189 232 279 351 412
#
# _framework density 22.869782000000001
#
# number of rings (size 3 to 8) (size 9 to 14) (size 15 to 20)
#    0.000    0.500    6.250    3.000    1.750    2.000 
#    2.250    0.625    0.000    0.000    0.000    0.000 
#    0.000    0.000    0.000    0.000    0.000    0.000 
#
# Total GULP energy -198389.203205 kJ/mol
# GULP energy per Si atom -12399.325200 kJ/mol
# Density = 2.281773 g / cm^3
# Si number density = 22.869782 Si / 1000 Ang^3
#
#
#
# Elastic Constant Matrix: (Units=GPa)
#
#
# Indices 1 2 3 4 5 6 
#
# 1 84.4415 7.6316 32.5796 -0.8553 -16.7295 -4.5933
# 2 7.6316 78.6159 22.4512 -5.7569 1.6112 5.3056
# 3 32.5796 22.4512 99.3750 -20.2005 -13.3575 -11.2560
# 4 -0.8553 -5.7569 -20.2005 23.4298 4.9274 2.9306
# 5 -16.7295 1.6112 -13.3575 4.9274 31.9335 -3.3112
# 6 -4.5933 5.3056 -11.2560 2.9306 -3.3112 47.2088
#
#
#
# Elastic Compliance Matrix: (Units=1/GPa)
#
#
# Indices 1 2 3 4 5 6 
#
# 1 0.015154 -0.000709 -0.004838 -0.005398 0.006910 0.001220
# 2 -0.000709 0.014109 -0.003364 0.001519 -0.003011 -0.002762
# 3 -0.004838 -0.003364 0.015420 0.011350 0.002651 0.003065
# 4 -0.005398 0.001519 0.011350 0.054286 -0.006723 -0.001831
# 5 0.006910 -0.003011 0.002651 -0.006723 0.037722 0.004706
# 6 0.001220 -0.002762 0.003065 -0.001831 0.004706 0.022786
#
#
# Mechanical properties :
#
#
# Convention : Reuss Voigt Hill
#
# Bulk Modulus (GPa) = 37.22863 43.08413 40.15638
# Shear Modulus (GPa) = 26.84524 33.83241 30.33883
#
# Velocity S-wave (km/s) = 3.42984 3.85040 3.64619
# Velocity P-wave (km/s) = 5.65676 6.21669 5.94332
#
# Compressibility (1/GPa) = 0.02686105
#
# Stress axis : x y z
#
# Youngs Moduli (GPa) = 65.98867 70.87716 64.85078
#
# Poissons Ratio (x) = 0.05022 0.31377
# Poissons Ratio (y) = 0.04676 0.21816
# Poissons Ratio (z) = 0.31928 0.23843
#
# Static dielectric constant tensor:
#      x y z
#    x 4.711380 0.390000 0.048370 
#    y 0.390000 4.436980 0.107480 
#    z 0.048370 0.107480 3.852900 
# 
# 
# High freq. dielectric constant tensor:
#      x y z
#    x 1.916320 0.016700 -0.009180 
#    y 0.016700 1.912430 -0.000670 
#    z -0.009180 -0.000670 1.870110 
# 
# From -- ./inp_files/436806.got.cif
#   From: 2010.06.25/outbox.cif.g09.slc.cpg/sg2_219_cif.got.tgz:436806.got - 2010.06.27 13:26:56.
