data_PCOD8007747
_publ_section_title
;
Structure prediction by ZEFSAII (Michael W. Deem and Ramdas Pophale) SiO2 
 PCOD8007747
Probable space group: P -1
;
_chemical_formula_sum "Si O2"
_cell_formula_units_Z 14
_cell_length_a 16.286299
_cell_length_b 11.553013
_cell_length_c 8.172066
_cell_angle_alpha 134.359322
_cell_angle_beta 145.239901
_cell_angle_gamma 54.501895
_cell_volume 626.711899
_symmetry_space_group_name_H-M "P -1"
_symmetry_group_IT_number 2
_symmetry_cell_setting 'triclinic'
loop_
_space_group_symop_operation_xyz
x,y,z
-x,-y,-z
loop_
_atom_site_type_symbol
_atom_site_label
_atom_site_fract_x
_atom_site_fract_y
_atom_site_fract_z
Si Si1 0.356882 0.176102 0.331909
Si Si2 0.057956 0.559580 0.824347
Si Si3 0.133240 0.897798 0.174839
Si Si4 0.646548 0.557444 0.886088
Si Si5 0.755014 0.494970 0.363624
Si Si6 0.688859 0.147670 0.903789
Si Si7 0.359910 0.107304 0.902043
O O1 0.313791 0.350054 0.507004
O O2 0.520478 0.138586 0.600752
O O3 0.265102 0.019968 0.092008
O O4 0.343504 0.193071 0.133458
O O5 0.000000 0.500000 0.500000
O O6 0.927953 0.512915 0.685765
O O7 0.074238 0.750922 0.037605
O O8 0.214929 0.480308 0.042791
O O9 0.231909 0.843163 0.131310
O O10 0.221030 0.001327 0.548703
O O11 0.000000 0.000000 0.000000
O O12 0.500000 0.500000 0.500000
O O13 0.683064 0.482603 0.050489
O O14 0.633928 0.750481 0.082334
O O15 0.723501 0.319205 0.221833
O O16 0.500000 0.000000 0.000000
#
# Coordination Sequence:
#
# PCOD8007747 Si02
#       7
#     2   2   2   2   2   2   2
#     4  11  25  44  64 103 138 181 225 279 347 406
#     4  10  20  41  67  99 128 168 228 274 329 405
#     4  12  22  41  72  98 131 177 227 282 336 404
#     4  11  22  40  70 100 134 171 228 281 331 400
#     4  11  23  45  72 100 134 181 228 279 343 407
#     4  11  22  42  70  97 138 177 225 279 341 409
#     4  12  25  43  67  99 134 174 228 287 332 400
#
# _framework density 22.338812999999998
#
# number of rings (size 3 to 8) (size 9 to 14) (size 15 to 20)
#    0.000    0.857    4.286    5.571    2.000    0.000 
#    2.571    3.571    0.000    0.000    0.000    0.000 
#    0.000    0.000    0.000    0.000    0.000    0.000 
#
# Total GULP energy -173469.686348 kJ/mol
# GULP energy per Si atom -12390.691882 kJ/mol
# Density = 2.228797 g / cm^3
# Si number density = 22.338813 Si / 1000 Ang^3
#
#
#
# Elastic Constant Matrix: (Units=GPa)
#
#
# Indices 1 2 3 4 5 6 
#
# 1 8287.6985-2433.0566-2981.1011 6283.1539 4905.1503-6891.8866
# 2 -2433.0566 876.0089 959.8694-1851.3535-1454.2439 2039.2109
# 3 -2981.1011 959.8694 1253.4522-2289.8004-1774.2063 2509.1975
# 4 6283.1539-1851.3535-2289.8004 4854.6605 3742.2550-5240.8371
# 5 4905.1503-1454.2439-1774.2063 3742.2550 2960.1309-4096.3971
# 6 -6891.8866 2039.2109 2509.1975-5240.8371-4096.3971 5790.1263
#
#
#
# Elastic Compliance Matrix: (Units=1/GPa)
#
#
# Indices 1 2 3 4 5 6 
#
# 1 0.016529 0.000811 -0.001516 -0.005507 -0.004568 0.011829
# 2 0.000811 0.008406 -0.004025 -0.001171 0.001897 0.000032
# 3 -0.001516 -0.004025 0.008176 0.002220 -0.001400 -0.002910
# 4 -0.005507 -0.001171 0.002220 0.013090 -0.004929 0.001256
# 5 -0.004568 0.001897 -0.001400 -0.004929 0.021398 0.005179
# 6 0.011829 0.000032 -0.002910 0.001256 0.005179 0.020302
#
#
# Mechanical properties :
#
#
# Convention : Reuss Voigt Hill
#
# Bulk Modulus (GPa) = 42.27918 167.62033 104.94975
# Shear Modulus (GPa) = 47.50983 3712.41341 1879.96162
#
# Velocity S-wave (km/s) = 4.61671 40.81023 29.04125
# Velocity P-wave (km/s) = 6.88376 47.91483 34.22877
#
# Compressibility (1/GPa) = 0.02365231
#
# Stress axis : x y z
#
# Youngs Moduli (GPa) = 60.50021 118.96819 122.31467
#
# Poissons Ratio (x) = -0.09654 0.18537
# Poissons Ratio (y) = -0.04909 0.49230
# Poissons Ratio (z) = 0.09169 0.47883
#
# Static dielectric constant tensor:
#      x y z
#    x 5.333470 -0.515510 1.518440 
#    y -0.515510 4.449170 -0.127340 
#    z 1.518440 -0.127340 5.241760 
# 
# 
# High freq. dielectric constant tensor:
#      x y z
#    x 1.859610 -0.014000 0.021940 
#    y -0.014000 1.899250 0.019350 
#    z 0.021940 0.019350 1.885380 
# 
# From -- ./inp_files/188487.got.cif
#   From: 2010.06.25/outbox.cif.g09.slc.cpg/sg2_95_cif.got.tgz:188487.got - 2010.06.27 13:26:56.
