data_PCOD8007386
_publ_section_title
;
Structure prediction by ZEFSAII (Michael W. Deem and Ramdas Pophale) SiO2 
 PCOD8007386
Probable space group: P -1
;
_chemical_formula_sum "Si O2"
_cell_formula_units_Z 10
_cell_length_a 7.689158
_cell_length_b 6.944181
_cell_length_c 12.365801
_cell_angle_alpha 118.726942
_cell_angle_beta 118.463171
_cell_angle_gamma 68.880896
_cell_volume 501.586722
_symmetry_space_group_name_H-M "P -1"
_symmetry_group_IT_number 2
_symmetry_cell_setting 'triclinic'
loop_
_space_group_symop_operation_xyz
x,y,z
-x,-y,-z
loop_
_atom_site_type_symbol
_atom_site_label
_atom_site_fract_x
_atom_site_fract_y
_atom_site_fract_z
Si Si1 0.850080 0.495643 0.856084
Si Si2 0.543996 0.354270 0.868138
Si Si3 0.749747 0.889771 0.775025
Si Si4 0.313237 0.009609 0.634767
Si Si5 0.932780 0.020485 0.654550
O O1 0.625903 0.500017 0.838103
O O2 0.853096 0.713229 0.843943
O O3 0.917127 0.281465 0.743890
O O4 0.000000 0.500000 0.000000
O O5 0.719808 0.139149 0.885427
O O6 0.346017 0.262047 0.743278
O O7 0.500000 0.500000 0.000000
O O8 0.527434 0.842701 0.661778
O O9 0.895415 0.880237 0.711589
O O10 0.236537 0.011054 0.490527
O O11 0.154144 0.929645 0.648476
#
# Coordination Sequence:
#
# PCOD8007386 Si02
#       5
#     2   2   2   2   2
#     4  11  23  39  59  88 120 158 199 243 292 344
#     4   9  20  39  58  86 119 152 194 247 283 352
#     4   9  22  39  61  88 116 160 194 239 298 347
#     4   9  20  41  61  89 117 156 194 240 298 345
#     4  10  20  41  62  85 125 149 194 251 283 358
#
# _framework density 19.936733
#
# number of rings (size 3 to 8) (size 9 to 14) (size 15 to 20)
#    1.200    1.200    0.000    1.800    0.000    4.800 
#    7.200    2.000    0.000    0.000    0.000    0.000 
#    0.000    0.000    0.000    0.000    0.000    0.000 
#
# Total GULP energy -123929.364855 kJ/mol
# GULP energy per Si atom -12392.936486 kJ/mol
# Density = 1.989136 g / cm^3
# Si number density = 19.936733 Si / 1000 Ang^3
#
#
#
# Elastic Constant Matrix: (Units=GPa)
#
#
# Indices 1 2 3 4 5 6 
#
# 1 111.8003 39.4392 34.4733 -20.5736 -6.1252 23.0211
# 2 39.4392 107.3004 55.7611 -21.4761 -14.9425 23.9877
# 3 34.4733 55.7611 143.0352 3.2048 -0.1007 12.5062
# 4 -20.5736 -21.4761 3.2048 30.5152 3.8554 -7.4454
# 5 -6.1252 -14.9425 -0.1007 3.8554 35.2413 -3.0633
# 6 23.0211 23.9877 12.5062 -7.4454 -3.0633 20.7554
#
#
#
# Elastic Compliance Matrix: (Units=1/GPa)
#
#
# Indices 1 2 3 4 5 6 
#
# 1 0.013093 0.000342 -0.002477 0.006559 0.000743 -0.010962
# 2 0.000342 0.018070 -0.006180 0.009667 0.005493 -0.013261
# 3 -0.002477 -0.006180 0.010038 -0.006506 -0.002208 0.001181
# 4 0.006559 0.009667 -0.006506 0.045037 0.000440 0.001693
# 5 0.000743 0.005493 -0.002208 0.000440 0.030679 -0.001157
# 6 -0.010962 -0.013261 0.001181 0.001693 -0.001157 0.075389
#
#
# Mechanical properties :
#
#
# Convention : Reuss Voigt Hill
#
# Bulk Modulus (GPa) = 40.69875 69.05369 54.87622
# Shear Modulus (GPa) = 23.02795 32.79986 27.91391
#
# Velocity S-wave (km/s) = 3.40229 4.06050 3.74588
# Velocity P-wave (km/s) = 5.99103 7.52962 6.80395
#
# Compressibility (1/GPa) = 0.02457078
#
# Stress axis : x y z
#
# Youngs Moduli (GPa) = 76.37916 55.34001 99.61744
#
# Poissons Ratio (x) = -0.01890 0.24672
# Poissons Ratio (y) = -0.02609 0.61565
# Poissons Ratio (z) = 0.18917 0.34201
#
# Static dielectric constant tensor:
#      x y z
#    x 3.829360 0.242560 0.039300 
#    y 0.242560 3.278880 0.191740 
#    z 0.039300 0.191740 3.533720 
# 
# 
# High freq. dielectric constant tensor:
#      x y z
#    x 1.794990 0.018000 -0.002400 
#    y 0.018000 1.741920 0.010400 
#    z -0.002400 0.010400 1.779110 
# 
# From -- ./inp_files/18162.got.cif
#   From: 2010.06.25/outbox.cif.g09.slc.cpg/sg2_10_cif.got.tgz:18162.got - 2010.06.27 13:26:56.
