data_PCOD8007846
_publ_section_title
;
Structure prediction by ZEFSAII (Michael W. Deem and Ramdas Pophale) SiO2 
 PCOD8007846
Probable space group: P -1
;
_chemical_formula_sum "Si O2"
_cell_formula_units_Z 16
_cell_length_a 16.226244
_cell_length_b 8.541461
_cell_length_c 12.738071
_cell_angle_alpha 112.099503
_cell_angle_beta 27.878363
_cell_angle_gamma 102.323481
_cell_volume 735.385077
_symmetry_space_group_name_H-M "P -1"
_symmetry_group_IT_number 2
_symmetry_cell_setting 'triclinic'
loop_
_space_group_symop_operation_xyz
x,y,z
-x,-y,-z
loop_
_atom_site_type_symbol
_atom_site_label
_atom_site_fract_x
_atom_site_fract_y
_atom_site_fract_z
Si Si1 0.410214 0.352334 0.530716
Si Si2 0.819013 0.840471 0.145571
Si Si3 0.212871 0.568179 0.620801
Si Si4 0.323963 0.345735 0.243518
Si Si5 0.317371 0.012604 0.887239
Si Si6 0.928253 0.867955 0.616730
Si Si7 0.703372 0.315659 0.758072
Si Si8 0.348744 0.843736 0.440697
O O1 0.500000 0.500000 0.500000
O O2 0.309457 0.288979 0.725575
O O3 0.260569 0.436328 0.631472
O O4 0.570151 0.187888 0.269081
O O5 0.761391 0.951997 0.132739
O O6 0.788088 0.978601 0.311913
O O7 0.024839 0.720242 0.883367
O O8 0.205751 0.445630 0.498619
O O9 0.363023 0.675845 0.458511
O O10 0.229335 0.196223 0.280431
O O11 0.334452 0.477170 0.169711
O O12 0.543961 0.269448 0.998797
O O13 0.446700 0.138807 0.797776
O O14 0.148749 0.047298 0.164644
O O15 0.109417 0.713477 0.396275
O O16 0.000000 0.000000 0.500000
O O17 0.729490 0.194931 0.593403
#
# Coordination Sequence:
#
# PCOD8007846 Si02
#       8
#     2   2   2   2   2   2   2   2
#     4  11  24  41  64  98 136 171 213 274 342 391
#     4  11  23  41  68  95 132 173 224 270 325 410
#     4  11  23  40  67  99 131 171 220 277 337 387
#     4  10  23  45  66  97 131 176 221 277 330 395
#     4  11  23  43  64  95 132 177 225 270 332 406
#     4  12  27  42  66  99 134 177 225 277 335 398
#     4  10  22  43  71  95 129 174 227 274 331 398
#     4  10  20  41  69  96 127 178 217 275 330 400
#
# _framework density 21.757308999999999
#
# number of rings (size 3 to 8) (size 9 to 14) (size 15 to 20)
#    0.000    1.250    1.250    5.625    1.750    4.500 
#    0.000    0.000    0.000    0.000    0.000    0.000 
#    0.000    0.000    0.000    0.000    0.000    0.000 
#
# Total GULP energy -198351.127725 kJ/mol
# GULP energy per Si atom -12396.945483 kJ/mol
# Density = 2.170779 g / cm^3
# Si number density = 21.757309 Si / 1000 Ang^3
#
#
#
# Elastic Constant Matrix: (Units=GPa)
#
#
# Indices 1 2 3 4 5 6 
#
# 1 46.3256 32.3998 23.9059 -0.9551 -6.4542 -4.1711
# 2 32.3998 115.0774 34.6807 -13.6321 3.3964 8.1229
# 3 23.9059 34.6807 117.0995 -6.6425 -3.8716 -3.6668
# 4 -0.9551 -13.6321 -6.6425 33.8831 -4.5191 -6.7607
# 5 -6.4542 3.3964 -3.8716 -4.5191 34.7774 2.2813
# 6 -4.1711 8.1229 -3.6668 -6.7607 2.2813 36.9254
#
#
#
# Elastic Compliance Matrix: (Units=1/GPa)
#
#
# Indices 1 2 3 4 5 6 
#
# 1 0.030174 -0.008067 -0.003542 -0.001513 0.005520 0.004213
# 2 -0.008067 0.012234 -0.001953 0.003404 -0.002268 -0.003033
# 3 -0.003542 -0.001953 0.009985 0.001418 0.000748 0.001235
# 4 -0.001513 0.003404 0.001418 0.032570 0.003451 0.004971
# 5 0.005520 -0.002268 0.000748 0.003451 0.030536 -0.000058
# 6 0.004213 -0.003033 0.001235 0.004971 -0.000058 0.029261
#
#
# Mechanical properties :
#
#
# Convention : Reuss Voigt Hill
#
# Bulk Modulus (GPa) = 39.57629 51.16393 45.37011
# Shear Modulus (GPa) = 27.73030 33.61825 30.67428
#
# Velocity S-wave (km/s) = 3.57393 3.93510 3.75885
# Velocity P-wave (km/s) = 5.93801 6.64932 6.30371
#
# Compressibility (1/GPa) = 0.02526765
#
# Stress axis : x y z
#
# Youngs Moduli (GPa) = 33.14138 81.73877 100.14857
#
# Poissons Ratio (x) = 0.65942 0.35473
# Poissons Ratio (y) = 0.26737 0.19561
# Poissons Ratio (z) = 0.11739 0.15965
#
# Static dielectric constant tensor:
#      x y z
#    x 2.619510 3.452980 -0.273560 
#    y 3.452980 -5.417820 0.264810 
#    z -0.273560 0.264810 4.314000 
# 
# 
# High freq. dielectric constant tensor:
#      x y z
#    x 1.840060 0.004420 -0.000030 
#    y 0.004420 1.860850 -0.003970 
#    z -0.000030 -0.003970 1.869340 
# 
# From -- ./inp_files/447729.got.cif
#   From: 2010.06.25/outbox.cif.g09.slc.cpg/sg2_224_cif.got.tgz:447729.got - 2010.06.27 13:26:56.
