data_PCOD8007547
_publ_section_title
;
Structure prediction by ZEFSAII (Michael W. Deem and Ramdas Pophale) SiO2 
 PCOD8007547
Probable space group: P -1
;
_chemical_formula_sum "Si O2"
_cell_formula_units_Z 14
_cell_length_a 11.763451
_cell_length_b 12.021429
_cell_length_c 10.489466
_cell_angle_alpha 89.193453
_cell_angle_beta 62.560961
_cell_angle_gamma 142.064336
_cell_volume 584.333399
_symmetry_space_group_name_H-M "P -1"
_symmetry_group_IT_number 2
_symmetry_cell_setting 'triclinic'
loop_
_space_group_symop_operation_xyz
x,y,z
-x,-y,-z
loop_
_atom_site_type_symbol
_atom_site_label
_atom_site_fract_x
_atom_site_fract_y
_atom_site_fract_z
Si Si1 0.930043 0.318194 0.568426
Si Si2 0.184908 0.268272 0.779397
Si Si3 0.859201 0.847874 0.806032
Si Si4 0.763626 0.454154 0.355132
Si Si5 0.809579 0.047633 0.196762
Si Si6 0.374452 0.865136 0.701896
Si Si7 0.626470 0.521903 0.741974
O O1 0.941567 0.312183 0.717219
O O2 0.161374 0.415909 0.384847
O O3 0.000000 0.500000 0.500000
O O4 0.617009 0.040524 0.682226
O O5 0.298956 0.477973 0.680664
O O6 0.446911 0.406010 0.708033
O O7 0.095078 0.129718 0.700733
O O8 0.905406 0.054804 0.020431
O O9 0.798053 0.769972 0.690763
O O10 0.978622 0.824048 0.802153
O O11 0.570933 0.660535 0.031185
O O12 0.784911 0.376848 0.234460
O O13 0.518442 0.235395 0.591050
O O14 0.845664 0.207456 0.143822
O O15 0.500000 0.000000 0.500000
#
# Coordination Sequence:
#
# PCOD8007547 Si02
#       7
#     2   2   2   2   2   2   2
#     4  12  22  37  66  92 122 167 212 254 311 373
#     4  11  24  41  64  94 128 164 208 258 314 376
#     4  10  21  38  65  94 125 167 207 260 314 367
#     4  11  24  41  63  96 126 167 207 257 318 366
#     4  10  20  41  65  87 127 167 209 257 308 370
#     4  10  21  38  62  92 124 165 211 255 307 372
#     4  10  22  39  63  96 125 165 211 258 314 369
#
# _framework density 23.958925000000001
#
# number of rings (size 3 to 8) (size 9 to 14) (size 15 to 20)
#    0.000    1.429    2.857    5.143    0.000    4.000 
#    0.000    2.857    0.000    0.000    0.000    0.000 
#    0.000    0.000    0.000    0.000    0.000    0.000 
#
# Total GULP energy -173511.203543 kJ/mol
# GULP energy per Si atom -12393.657396 kJ/mol
# Density = 2.390439 g / cm^3
# Si number density = 23.958925 Si / 1000 Ang^3
#
#
#
# Elastic Constant Matrix: (Units=GPa)
#
#
# Indices 1 2 3 4 5 6 
#
# 1 116.7462 49.4258 22.5384 -2.1819 -25.9904 -28.3224
# 2 49.4258 197.9944 14.3884 6.0587 -16.0645 -12.3655
# 3 22.5384 14.3884 26.3277 0.9867 -16.9789 -10.9734
# 4 -2.1819 6.0587 0.9867 17.7820 -7.4325 -4.4692
# 5 -25.9904 -16.0645 -16.9789 -7.4325 35.8602 2.8686
# 6 -28.3224 -12.3655 -10.9734 -4.4692 2.8686 46.9934
#
#
#
# Elastic Compliance Matrix: (Units=1/GPa)
#
#
# Indices 1 2 3 4 5 6 
#
# 1 0.014026 -0.002392 -0.001766 0.008487 0.009405 0.007645
# 2 -0.002392 0.005772 -0.001376 -0.002408 -0.000262 -0.000457
# 3 -0.001766 -0.001376 0.064786 0.012622 0.030350 0.013049
# 4 0.008487 -0.002408 0.012622 0.070919 0.024735 0.012663
# 5 0.009405 -0.000262 0.030350 0.024735 0.053138 0.011795
# 6 0.007645 -0.000457 0.013049 0.012663 0.011795 0.029298
#
#
# Mechanical properties :
#
#
# Convention : Reuss Voigt Hill
#
# Bulk Modulus (GPa) = 13.60270 57.08596 35.34433
# Shear Modulus (GPa) = 18.28062 37.10816 27.69439
#
# Velocity S-wave (km/s) = 2.76524 3.93978 3.40356
# Velocity P-wave (km/s) = 3.98563 6.67639 5.49815
#
# Compressibility (1/GPa) = 0.07351481
#
# Stress axis : x y z
#
# Youngs Moduli (GPa) = 71.29395 173.26039 15.43548
#
# Poissons Ratio (x) = 0.41448 0.02727
# Poissons Ratio (y) = 0.17055 0.02124
# Poissons Ratio (z) = 0.12594 0.23838
#
# Static dielectric constant tensor:
#      x y z
#    x 4.604770 -0.228620 -0.387360 
#    y -0.228620 5.204890 0.262700 
#    z -0.387360 0.262700 3.984600 
# 
# 
# High freq. dielectric constant tensor:
#      x y z
#    x 1.948630 -0.006340 -0.024320 
#    y -0.006340 1.978350 0.013510 
#    z -0.024320 0.013510 1.913630 
# 
# From -- ./inp_files/257299.got.cif
#   From: 2010.06.25/outbox.cif.g09.slc.cpg/sg2_129_cif.got.tgz:257299.got - 2010.06.27 13:26:56.
