data_PCOD8007009
_publ_section_title
;
Structure prediction by ZEFSAII (Michael W. Deem and Ramdas Pophale) SiO2 
 PCOD8007009
Probable space group: P -1
;
_chemical_formula_sum "Si O2"
_cell_formula_units_Z 16
_cell_length_a 15.211460
_cell_length_b 23.795987
_cell_length_c 17.529289
_cell_angle_alpha 22.630614
_cell_angle_beta 145.875614
_cell_angle_gamma 159.869660
_cell_volume 803.395252
_symmetry_space_group_name_H-M "P -1"
_symmetry_group_IT_number 2
_symmetry_cell_setting 'triclinic'
loop_
_space_group_symop_operation_xyz
x,y,z
-x,-y,-z
loop_
_atom_site_type_symbol
_atom_site_label
_atom_site_fract_x
_atom_site_fract_y
_atom_site_fract_z
Si Si1 0.869423 0.044147 0.386874
Si Si2 0.277077 0.841609 0.601287
Si Si3 0.924712 0.763903 0.982631
Si Si4 0.377872 0.221649 0.834274
Si Si5 0.656072 0.973842 0.167862
Si Si6 0.279695 0.470612 0.450897
Si Si7 0.210154 0.563673 0.024608
Si Si8 0.400417 0.206369 0.337161
O O1 0.104301 0.319370 0.245771
O O2 0.710461 0.016569 0.243583
O O3 0.662108 0.845896 0.552567
O O4 0.000000 0.000000 0.500000
O O5 0.008415 0.672985 0.573489
O O6 0.500000 0.000000 0.500000
O O7 0.342977 0.009276 0.503456
O O8 0.256603 0.669239 0.843095
O O9 0.711827 0.480732 0.208057
O O10 0.785478 0.815511 0.810107
O O11 0.149952 0.945224 0.982433
O O12 0.060967 0.820108 0.930677
O O13 0.253160 0.282435 0.693683
O O14 0.613509 0.433178 0.678834
O O15 0.506588 0.232428 0.983930
O O16 0.479304 0.698982 0.366686
O O17 0.500000 0.000000 0.000000
O O18 0.000000 0.500000 0.000000
#
# Coordination Sequence:
#
# PCOD8007009 Si02
#       8
#     2   2   2   2   2   2   2   2
#     4  12  24  43  69  98 128 172 223 267 322 393
#     4  12  26  43  67  97 132 175 215 273 338 389
#     4  10  23  41  67  94 134 176 212 267 333 391
#     4  10  20  40  69  93 123 170 222 267 314 394
#     4  11  24  38  64  98 130 166 218 273 322 385
#     4  10  20  40  66  92 125 171 219 263 322 388
#     4  12  24  42  68  99 131 167 222 276 325 378
#     4  11  23  44  67  96 134 174 219 268 333 398
#
# _framework density 19.915476999999999
#
# number of rings (size 3 to 8) (size 9 to 14) (size 15 to 20)
#    0.000    1.000    5.000    1.500    7.000    0.000 
#    2.250    1.875    0.000    0.000    0.000    0.000 
#    0.000    0.000    0.000    0.000    0.000    0.000 
#
# Total GULP energy -198509.046989 kJ/mol
# GULP energy per Si atom -12406.815437 kJ/mol
# Density = 1.987015 g / cm^3
# Si number density = 19.915477 Si / 1000 Ang^3
#
#
#
# Elastic Constant Matrix: (Units=GPa)
#
#
# Indices 1 2 3 4 5 6 
#
# 1 94.4355 33.6262 23.9975 -9.9020 -10.2234 3.9922
# 2 33.6262 123.3286 32.5523 2.9472 -17.7356 1.8172
# 3 23.9975 32.5523 74.5803 -6.6518 -5.8839 3.5549
# 4 -9.9020 2.9472 -6.6518 39.5987 -0.1663 -2.7252
# 5 -10.2234 -17.7356 -5.8839 -0.1663 34.9953 -2.3664
# 6 3.9922 1.8172 3.5549 -2.7252 -2.3664 34.4376
#
#
#
# Elastic Compliance Matrix: (Units=1/GPa)
#
#
# Indices 1 2 3 4 5 6 
#
# 1 0.012690 -0.002576 -0.002513 0.002902 0.001945 -0.000712
# 2 -0.002576 0.010359 -0.003573 -0.001983 0.003903 0.000232
# 3 -0.002513 -0.003573 0.016033 0.002263 0.000095 -0.000990
# 4 0.002902 -0.001983 0.002263 0.026624 0.000463 0.001673
# 5 0.001945 0.003903 0.000095 0.000463 0.031257 0.001743
# 6 -0.000712 0.000232 -0.000990 0.001673 0.001743 0.029463
#
#
# Mechanical properties :
#
#
# Convention : Reuss Voigt Hill
#
# Bulk Modulus (GPa) = 45.95738 52.52182 49.23960
# Shear Modulus (GPa) = 33.11237 35.28423 34.19830
#
# Velocity S-wave (km/s) = 4.08198 4.21372 4.14837
# Velocity P-wave (km/s) = 6.73372 7.07839 6.90821
#
# Compressibility (1/GPa) = 0.02175929
#
# Stress axis : x y z
#
# Youngs Moduli (GPa) = 78.80271 96.53456 62.37270
#
# Poissons Ratio (x) = 0.24867 0.15672
# Poissons Ratio (y) = 0.20299 0.22283
# Poissons Ratio (z) = 0.19800 0.34487
#
# Static dielectric constant tensor:
#      x y z
#    x 3.663500 -0.276180 -0.175030 
#    y -0.276180 7.403740 4.423230 
#    z -0.175030 4.423230 9.138090 
# 
# 
# High freq. dielectric constant tensor:
#      x y z
#    x 1.769600 -0.004100 0.012680 
#    y -0.004100 1.785520 0.001110 
#    z 0.012680 0.001110 1.777740 
# 
# From -- ./inp_files/190013.got.cif
#   From: 2010.06.25/outbox.cif.g09.slc.cpg/sg2_96_cif.got.tgz:190013.got - 2010.06.27 13:26:56.
