data_PCOD8007634
_publ_section_title
;
Structure prediction by ZEFSAII (Michael W. Deem and Ramdas Pophale) SiO2 
 PCOD8007634
Probable space group: P -1
;
_chemical_formula_sum "Si O2"
_cell_formula_units_Z 16
_cell_length_a 8.987600
_cell_length_b 14.658243
_cell_length_c 14.226326
_cell_angle_alpha 130.528228
_cell_angle_beta 50.804841
_cell_angle_gamma 148.548765
_cell_volume 728.925626
_symmetry_space_group_name_H-M "P -1"
_symmetry_group_IT_number 2
_symmetry_cell_setting 'triclinic'
loop_
_space_group_symop_operation_xyz
x,y,z
-x,-y,-z
loop_
_atom_site_type_symbol
_atom_site_label
_atom_site_fract_x
_atom_site_fract_y
_atom_site_fract_z
Si Si1 0.474109 0.315531 0.145997
Si Si2 0.323903 0.037208 0.580928
Si Si3 0.361489 0.311509 0.398732
Si Si4 0.088927 0.291984 0.803376
Si Si5 0.463512 0.032735 0.931718
Si Si6 0.844222 0.698340 0.884788
Si Si7 0.312581 0.192724 0.524731
Si Si8 0.608517 0.702637 0.158906
O O1 0.480258 0.320076 0.259211
O O2 0.782411 0.512476 0.117137
O O3 0.216973 0.279012 0.180574
O O4 0.427459 0.158284 0.028575
O O5 0.461803 0.173161 0.526926
O O6 0.371014 0.146236 0.725091
O O7 0.500000 0.000000 0.500000
O O8 0.988468 0.846480 0.571304
O O9 0.500000 0.500000 0.500000
O O10 0.470623 0.273728 0.414388
O O11 0.268953 0.305598 0.660796
O O12 0.139237 0.250545 0.855212
O O13 0.741476 0.130309 0.821092
O O14 0.185293 0.844900 0.865909
O O15 0.500000 0.000000 0.000000
O O16 0.704185 0.500465 0.823500
O O17 0.680920 0.717668 0.030795
O O18 0.000000 0.000000 0.500000
#
# Coordination Sequence:
#
# PCOD8007634 Si02
#       8
#     2   2   2   2   2   2   2   2
#     4  11  24  42  64  91 137 171 213 264 328 400
#     4  10  22  43  66 100 130 169 219 275 327 387
#     4  11  22  44  67  94 126 177 226 261 322 391
#     4  10  20  41  66  91 128 167 212 266 323 387
#     4  12  24  39  63 104 129 161 216 276 324 386
#     4  10  21  42  64  98 126 177 211 260 336 391
#     4   9  20  40  66  88 125 175 211 260 325 378
#     4   9  19  41  69  87 135 173 209 261 333 399
#
# _framework density 21.950112000000001
#
# number of rings (size 3 to 8) (size 9 to 14) (size 15 to 20)
#    0.000    1.750    2.500    1.500    3.500    0.000 
#   11.250    0.625    0.000    0.000    0.000    0.000 
#    0.000    0.000    0.000    0.000    0.000    0.000 
#
# Total GULP energy -198303.365082 kJ/mol
# GULP energy per Si atom -12393.960318 kJ/mol
# Density = 2.190015 g / cm^3
# Si number density = 21.950112 Si / 1000 Ang^3
#
#
#
# Elastic Constant Matrix: (Units=GPa)
#
#
# Indices 1 2 3 4 5 6 
#
# 1 86.9395 45.1091 34.7938 -5.6913 -0.1816 -1.4897
# 2 45.1091 127.0332 28.1888 18.8300 -12.3089 17.0240
# 3 34.7938 28.1888 77.9384 11.0147 5.5671 -2.3788
# 4 -5.6913 18.8300 11.0147 37.1993 -4.5480 2.7670
# 5 -0.1816 -12.3089 5.5671 -4.5480 34.8023 0.6380
# 6 -1.4897 17.0240 -2.3788 2.7670 0.6380 37.0786
#
#
#
# Elastic Compliance Matrix: (Units=1/GPa)
#
#
# Indices 1 2 3 4 5 6 
#
# 1 0.018126 -0.006468 -0.006768 0.007835 -0.000136 0.002682
# 2 -0.006468 0.012474 -0.001221 -0.006044 0.003887 -0.005681
# 3 -0.006768 -0.001221 0.017532 -0.006258 -0.004125 0.001951
# 4 0.007835 -0.006044 -0.006258 0.033382 0.003264 0.000141
# 5 -0.000136 0.003887 -0.004125 0.003264 0.031246 -0.002836
# 6 0.002682 -0.005681 0.001951 0.000141 -0.002836 0.029849
#
#
# Mechanical properties :
#
#
# Convention : Reuss Voigt Hill
#
# Bulk Modulus (GPa) = 52.03646 56.45497 54.24571
# Shear Modulus (GPa) = 28.10093 34.07065 31.08579
#
# Velocity S-wave (km/s) = 3.58190 3.94405 3.76733
# Velocity P-wave (km/s) = 6.39256 6.82028 6.60988
#
# Compressibility (1/GPa) = 0.01921730
#
# Stress axis : x y z
#
# Youngs Moduli (GPa) = 55.17030 80.16839 57.03766
#
# Poissons Ratio (x) = 0.51857 0.38604
# Poissons Ratio (y) = 0.35687 0.06962
# Poissons Ratio (z) = 0.37340 0.09786
#
# Static dielectric constant tensor:
#      x y z
#    x 0.787360 2.239100 -0.068230 
#    y 2.239100 2.281460 0.468580 
#    z -0.068230 0.468580 3.812310 
# 
# 
# High freq. dielectric constant tensor:
#      x y z
#    x 1.853200 -0.016870 0.024010 
#    y -0.016870 1.873940 0.022500 
#    z 0.024010 0.022500 1.846960 
# 
# From -- ./inp_files/317723.got.cif
#   From: 2010.06.25/outbox.cif.g09.slc.cpg/sg2_159_cif.got.tgz:317723.got - 2010.06.27 13:26:56.
