data_PCOD8007451
_publ_section_title
;
Structure prediction by ZEFSAII (Michael W. Deem and Ramdas Pophale) SiO2 
 PCOD8007451
Probable space group: P -1
;
_chemical_formula_sum "Si O2"
_cell_formula_units_Z 16
_cell_length_a 12.673441
_cell_length_b 10.136352
_cell_length_c 14.362162
_cell_angle_alpha 135.616209
_cell_angle_beta 46.534265
_cell_angle_gamma 98.066725
_cell_volume 676.132790
_symmetry_space_group_name_H-M "P -1"
_symmetry_group_IT_number 2
_symmetry_cell_setting 'triclinic'
loop_
_space_group_symop_operation_xyz
x,y,z
-x,-y,-z
loop_
_atom_site_type_symbol
_atom_site_label
_atom_site_fract_x
_atom_site_fract_y
_atom_site_fract_z
Si Si1 0.475650 0.761517 0.235552
Si Si2 0.160688 0.764295 0.351137
Si Si3 0.033199 0.664225 0.780465
Si Si4 0.060803 0.869763 0.035565
Si Si5 0.582512 0.054843 0.259237
Si Si6 0.619127 0.246762 0.516177
Si Si7 0.107015 0.291585 0.411299
Si Si8 0.600363 0.216380 0.130437
O O1 0.274399 0.824201 0.369427
O O2 0.441076 0.000919 0.335235
O O3 0.506590 0.737603 0.316635
O O4 0.675802 0.493741 0.937215
O O5 0.045819 0.732964 0.476953
O O6 0.000000 0.000000 0.500000
O O7 0.165013 0.387201 0.506992
O O8 0.993336 0.888773 0.861393
O O9 0.138643 0.634502 0.798509
O O10 0.812245 0.772227 0.983970
O O11 0.851990 0.988880 0.267368
O O12 0.231432 0.767300 0.954485
O O13 0.547277 0.237489 0.454471
O O14 0.535103 0.190249 0.256236
O O15 0.586930 0.505082 0.662323
O O16 0.000000 0.500000 0.500000
O O17 0.316886 0.017089 0.107939
#
# Coordination Sequence:
#
# PCOD8007451 Si02
#       8
#     2   2   2   2   2   2   2   2
#     4  11  23  43  64  90 128 173 209 251 323 381
#     4  11  25  45  64  89 130 171 209 260 317 379
#     4   9  18  35  63  88 123 170 205 251 320 372
#     4   9  19  38  61  88 130 168 199 260 327 363
#     4  10  20  41  63  93 132 168 208 263 314 382
#     4  11  23  39  66  97 128 163 214 262 316 377
#     4  12  20  39  70  93 124 164 211 270 314 372
#     4  11  22  40  66  97 130 162 214 269 316 369
#
# _framework density 23.663990999999999
#
# number of rings (size 3 to 8) (size 9 to 14) (size 15 to 20)
#    0.000    1.500    3.750    3.000    0.000    0.000 
#    4.500    0.625    0.000    4.500    0.000    0.000 
#    0.000    0.000    0.000    0.000    0.000    0.000 
#
# Total GULP energy -198368.136787 kJ/mol
# GULP energy per Si atom -12398.008549 kJ/mol
# Density = 2.361013 g / cm^3
# Si number density = 23.663991 Si / 1000 Ang^3
#
#
#
# Elastic Constant Matrix: (Units=GPa)
#
#
# Indices 1 2 3 4 5 6 
#
# 1 49.2149 24.2091 37.3909 -5.1575 13.1704 6.6721
# 2 24.2091 140.1472 42.1976 -21.0824 5.0077 6.8458
# 3 37.3909 42.1976 110.6964 -1.1033 38.6000 -4.5368
# 4 -5.1575 -21.0824 -1.1033 36.1473 -2.1240 2.8587
# 5 13.1704 5.0077 38.6000 -2.1240 38.7420 3.2976
# 6 6.6721 6.8458 -4.5368 2.8587 3.2976 32.8614
#
#
#
# Elastic Compliance Matrix: (Units=1/GPa)
#
#
# Indices 1 2 3 4 5 6 
#
# 1 0.029886 -0.001108 -0.010363 0.003983 0.001185 -0.007733
# 2 -0.001108 0.009761 -0.005120 0.005941 0.004841 -0.003518
# 3 -0.010363 -0.005120 0.020940 -0.005523 -0.017689 0.008317
# 4 0.003983 0.005941 -0.005523 0.032353 0.005681 -0.006193
# 5 0.001185 0.004841 -0.017689 0.005681 0.043446 -0.008545
# 6 -0.007733 -0.003518 0.008317 -0.006193 -0.008545 0.035278
#
#
# Mechanical properties :
#
#
# Convention : Reuss Voigt Hill
#
# Bulk Modulus (GPa) = 36.48889 56.40597 46.44743
# Shear Modulus (GPa) = 23.36660 34.63419 29.00039
#
# Velocity S-wave (km/s) = 3.14575 3.82983 3.50452
# Velocity P-wave (km/s) = 5.35233 6.59126 6.00384
#
# Compressibility (1/GPa) = 0.02740560
#
# Stress axis : x y z
#
# Youngs Moduli (GPa) = 33.46062 102.45023 47.75578
#
# Poissons Ratio (x) = 0.11348 0.49490
# Poissons Ratio (y) = 0.03706 0.24450
# Poissons Ratio (z) = 0.34676 0.52452
#
# Static dielectric constant tensor:
#      x y z
#    x 4.659340 0.309220 -0.027470 
#    y 0.309220 4.095290 -0.276700 
#    z -0.027470 -0.276700 4.652950 
# 
# 
# High freq. dielectric constant tensor:
#      x y z
#    x 1.932750 0.012520 0.012300 
#    y 0.012520 1.919650 -0.010880 
#    z 0.012300 -0.010880 1.949990 
# 
# From -- ./inp_files/530131.got.cif
#   From: 2010.06.25/outbox.cif.g09.slc.cpg/sg2_266_cif.got.tgz:530131.got - 2010.06.27 13:26:56.
