data_PCOD8007992
_publ_section_title
;
Structure prediction by ZEFSAII (Michael W. Deem and Ramdas Pophale) SiO2 
 PCOD8007992
Probable space group: P -1
;
_chemical_formula_sum "Si O2"
_cell_formula_units_Z 14
_cell_length_a 10.911753
_cell_length_b 6.511188
_cell_length_c 13.693894
_cell_angle_alpha 91.936242
_cell_angle_beta 45.066104
_cell_angle_gamma 110.459036
_cell_volume 611.104106
_symmetry_space_group_name_H-M "P -1"
_symmetry_group_IT_number 2
_symmetry_cell_setting 'triclinic'
loop_
_space_group_symop_operation_xyz
x,y,z
-x,-y,-z
loop_
_atom_site_type_symbol
_atom_site_label
_atom_site_fract_x
_atom_site_fract_y
_atom_site_fract_z
Si Si1 0.554268 0.920028 0.604638
Si Si2 0.818317 0.444251 0.435024
Si Si3 0.757516 0.707810 0.038635
Si Si4 0.170183 0.907470 0.864917
Si Si5 0.118224 0.266355 0.241827
Si Si6 0.212020 0.193890 0.661225
Si Si7 0.665428 0.663688 0.681536
O O1 0.580035 0.773272 0.498291
O O2 0.664788 0.889919 0.637443
O O3 0.640667 0.187339 0.531571
O O4 0.323287 0.814165 0.752196
O O5 0.807858 0.573876 0.343377
O O6 0.798086 0.579065 0.543283
O O7 0.026008 0.440902 0.317308
O O8 0.788995 0.969570 0.049667
O O9 0.559579 0.528554 0.197190
O O10 0.743755 0.659142 0.930063
O O11 0.951563 0.696604 0.971606
O O12 0.190500 0.117686 0.784122
O O13 0.252100 0.270845 0.255914
O O14 0.947192 0.009663 0.319633
#
# Coordination Sequence:
#
# PCOD8007992 Si02
#       7
#     2   2   2   2   2   2   2
#     4  10  21  38  62  95 119 155 200 245 301 352
#     4  10  21  40  63  93 118 157 199 243 307 343
#     4  10  22  42  61  86 121 162 198 248 294 351
#     4  10  20  42  63  83 126 156 201 247 292 357
#     4  10  22  41  62  90 123 154 200 247 294 357
#     4   9  21  39  63  93 117 157 198 248 297 350
#     4  11  22  40  63  91 121 156 200 245 298 357
#
# _framework density 22.909354
#
# number of rings (size 3 to 8) (size 9 to 14) (size 15 to 20)
#    0.000    2.000    1.429    1.286    0.000    7.429 
#   15.429    0.714    0.000    0.000    0.000    0.000 
#    0.000    0.000    0.000    0.000    0.000    0.000 
#
# Total GULP energy -173527.380377 kJ/mol
# GULP energy per Si atom -12394.812884 kJ/mol
# Density = 2.285721 g / cm^3
# Si number density = 22.909354 Si / 1000 Ang^3
#
#
#
# Elastic Constant Matrix: (Units=GPa)
#
#
# Indices 1 2 3 4 5 6 
#
# 1 102.2142 39.5650 26.7360 7.9255 1.8896 -7.6995
# 2 39.5650 65.8396 16.2615 3.1247 -1.4834 -23.0135
# 3 26.7360 16.2615 99.9693 16.8827 -5.3702 -3.9072
# 4 7.9255 3.1247 16.8827 15.7188 0.6065 -1.3656
# 5 1.8896 -1.4834 -5.3702 0.6065 35.5877 2.5407
# 6 -7.6995 -23.0135 -3.9072 -1.3656 2.5407 26.9658
#
#
#
# Elastic Compliance Matrix: (Units=1/GPa)
#
#
# Indices 1 2 3 4 5 6 
#
# 1 0.013780 -0.009167 -0.001825 -0.003494 -0.001027 -0.004234
# 2 -0.009167 0.028590 -0.001835 0.002800 -0.000194 0.021676
# 3 -0.001825 -0.001835 0.013052 -0.012914 0.002286 -0.001065
# 4 -0.003494 0.002800 -0.012914 0.079153 -0.003269 0.003837
# 5 -0.001027 -0.000194 0.002286 -0.003269 0.028761 -0.003003
# 6 -0.004234 0.021676 -0.001065 0.003837 -0.003003 0.054697
#
#
# Mechanical properties :
#
#
# Convention : Reuss Voigt Hill
#
# Bulk Modulus (GPa) = 33.59362 48.12755 40.86058
# Shear Modulus (GPa) = 19.71534 28.01851 23.86692
#
# Velocity S-wave (km/s) = 2.93675 3.50096 3.23119
# Velocity P-wave (km/s) = 5.11809 6.11520 5.63873
#
# Compressibility (1/GPa) = 0.02976756
#
# Stress axis : x y z
#
# Youngs Moduli (GPa) = 72.56799 34.97725 76.61874
#
# Poissons Ratio (x) = 0.32065 0.13981
# Poissons Ratio (y) = 0.66526 0.14059
# Poissons Ratio (z) = 0.13242 0.06418
#
# Static dielectric constant tensor:
#      x y z
#    x 3.904510 -0.138650 -0.067170 
#    y -0.138650 3.822670 0.094400 
#    z -0.067170 0.094400 4.456940 
# 
# 
# High freq. dielectric constant tensor:
#      x y z
#    x 1.891320 -0.002390 -0.002830 
#    y -0.002390 1.880260 0.007880 
#    z -0.002830 0.007880 1.925580 
# 
# From -- ./inp_files/26803.got.cif
#   From: 2010.06.25/outbox.cif.g09.slc.cpg/sg2_14_cif.got.tgz:26803.got - 2010.06.27 13:26:56.
