data_PCOD8007138
_publ_section_title
;
Structure prediction by ZEFSAII (Michael W. Deem and Ramdas Pophale) SiO2 
 PCOD8007138
Probable space group: P -1
;
_chemical_formula_sum "Si O2"
_cell_formula_units_Z 16
_cell_length_a 11.444987
_cell_length_b 9.054017
_cell_length_c 19.221196
_cell_angle_alpha 127.894267
_cell_angle_beta 148.774346
_cell_angle_gamma 43.079416
_cell_volume 704.938587
_symmetry_space_group_name_H-M "P -1"
_symmetry_group_IT_number 2
_symmetry_cell_setting 'triclinic'
loop_
_space_group_symop_operation_xyz
x,y,z
-x,-y,-z
loop_
_atom_site_type_symbol
_atom_site_label
_atom_site_fract_x
_atom_site_fract_y
_atom_site_fract_z
Si Si1 0.633375 0.936307 0.124793
Si Si2 0.782191 0.248823 0.459016
Si Si3 0.016251 0.850436 0.606255
Si Si4 0.525988 0.890249 0.663681
Si Si5 0.828370 0.038928 0.034087
Si Si6 0.682783 0.238835 0.874804
Si Si7 0.200691 0.642015 0.774051
Si Si8 0.986310 0.470790 0.723547
O O1 0.831776 0.676931 0.162976
O O2 0.805116 0.046381 0.255363
O O3 0.405419 0.013439 0.089825
O O4 0.500000 0.000000 0.000000
O O5 0.828981 0.321929 0.427846
O O6 0.513700 0.244051 0.332194
O O7 0.810889 0.380031 0.575096
O O8 0.000000 0.000000 0.500000
O O9 0.002887 0.727132 0.632559
O O10 0.719637 0.031868 0.490954
O O11 0.800625 0.721431 0.720841
O O12 0.536882 0.100253 0.752564
O O13 0.833545 0.153398 0.141228
O O14 0.798812 0.193700 0.998885
O O15 0.100195 0.819283 0.091915
O O16 0.488791 0.496275 0.845187
O O17 0.169173 0.471455 0.755542
#
# Coordination Sequence:
#
# PCOD8007138 Si02
#       8
#     2   2   2   2   2   2   2   2
#     4  12  24  44  71  98 143 183 226 286 349 416
#     4  10  20  40  67  96 135 178 226 281 337 410
#     4  11  25  44  68 103 140 182 229 289 348 402
#     4  11  23  44  71 104 137 179 239 288 342 418
#     4  11  24  44  69  98 139 183 235 280 341 416
#     4  11  24  43  72 101 134 186 236 283 344 413
#     4  12  24  45  69 102 141 184 231 286 349 407
#     4  12  24  42  75 101 134 192 229 282 357 409
#
# _framework density 22.697012999999998
#
# number of rings (size 3 to 8) (size 9 to 14) (size 15 to 20)
#    0.000    0.750    6.250    3.000    0.000    2.500 
#    4.500    0.625    0.000    0.000    0.000    0.000 
#    0.000    0.000    0.000    0.000    0.000    0.000 
#
# Total GULP energy -198256.627488 kJ/mol
# GULP energy per Si atom -12391.039218 kJ/mol
# Density = 2.264535 g / cm^3
# Si number density = 22.697013 Si / 1000 Ang^3
#
#
#
# Elastic Constant Matrix: (Units=GPa)
#
#
# Indices 1 2 3 4 5 6 
#
# 1 102.7801 48.5040 42.5194 -19.8308 -9.1941 -10.9376
# 2 48.5040 67.5047 20.6457 -26.1685 -11.8490 -17.5166
# 3 42.5194 20.6457 99.5578 -16.9806 -8.7843 -3.4621
# 4 -19.8308 -26.1685 -16.9806 31.8185 0.4465 3.1718
# 5 -9.1941 -11.8490 -8.7843 0.4465 44.5564 -5.3125
# 6 -10.9376 -17.5166 -3.4621 3.1718 -5.3125 40.8172
#
#
#
# Elastic Compliance Matrix: (Units=1/GPa)
#
#
# Indices 1 2 3 4 5 6 
#
# 1 0.016816 -0.011455 -0.005169 -0.001608 -0.000676 -0.000811
# 2 -0.011455 0.035395 0.002483 0.022002 0.008720 0.011756
# 3 -0.005169 0.002483 0.012907 0.005617 0.002156 0.000619
# 4 -0.001608 0.022002 0.005617 0.050780 0.006885 0.006438
# 5 -0.000676 0.008720 0.002156 0.006885 0.025761 0.006562
# 6 -0.000811 0.011756 0.000619 0.006438 0.006562 0.029734
#
#
# Mechanical properties :
#
#
# Convention : Reuss Voigt Hill
#
# Bulk Modulus (GPa) = 27.14641 54.79786 40.97213
# Shear Modulus (GPa) = 23.59013 33.98332 28.78672
#
# Velocity S-wave (km/s) = 3.22739 3.87364 3.56519
# Velocity P-wave (km/s) = 5.08669 6.64849 5.91932
#
# Compressibility (1/GPa) = 0.03683729
#
# Stress axis : x y z
#
# Youngs Moduli (GPa) = 59.46558 28.25255 77.47913
#
# Poissons Ratio (x) = 0.32362 0.40046
# Poissons Ratio (y) = 0.68116 -0.19237
# Poissons Ratio (z) = 0.30736 -0.07015
#
# Static dielectric constant tensor:
#      x y z
#    x 5.029560 -0.055970 -0.227430 
#    y -0.055970 3.807920 -0.027680 
#    z -0.227430 -0.027680 4.709940 
# 
# 
# High freq. dielectric constant tensor:
#      x y z
#    x 1.902500 -0.006380 0.008490 
#    y -0.006380 1.872380 0.007500 
#    z 0.008490 0.007500 1.898810 
# 
# From -- ./inp_files/333761.got.cif
#   From: 2010.06.25/outbox.cif.g09.slc.cpg/sg2_167_cif.got.tgz:333761.got - 2010.06.27 13:26:56.
