data_PCOD8007776
_publ_section_title
;
Structure prediction by ZEFSAII (Michael W. Deem and Ramdas Pophale) SiO2 
 PCOD8007776
Probable space group: P -1
;
_chemical_formula_sum "Si O2"
_cell_formula_units_Z 16
_cell_length_a 7.987552
_cell_length_b 4.944572
_cell_length_c 18.316993
_cell_angle_alpha 97.739157
_cell_angle_beta 125.257074
_cell_angle_gamma 93.871457
_cell_volume 575.841815
_symmetry_space_group_name_H-M "P -1"
_symmetry_group_IT_number 2
_symmetry_cell_setting 'triclinic'
loop_
_space_group_symop_operation_xyz
x,y,z
-x,-y,-z
loop_
_atom_site_type_symbol
_atom_site_label
_atom_site_fract_x
_atom_site_fract_y
_atom_site_fract_z
Si Si1 0.452218 0.098582 0.871964
Si Si2 0.343556 0.684756 0.496622
Si Si3 0.868121 0.636257 0.133083
Si Si4 0.511034 0.235936 0.731888
Si Si5 0.043074 0.653387 0.717078
Si Si6 0.734829 0.072928 0.655433
Si Si7 0.746434 0.343429 0.370697
Si Si8 0.128755 0.925342 0.961665
O O1 0.369917 0.349165 0.902899
O O2 0.562540 0.232759 0.830712
O O3 0.259776 0.844189 0.802954
O O4 0.625248 0.977048 0.957509
O O5 0.500000 0.500000 0.500000
O O6 0.192092 0.724586 0.390100
O O7 0.206426 0.561683 0.529239
O O8 0.489179 0.969309 0.570424
O O9 0.987326 0.612128 0.241489
O O10 0.901604 0.399971 0.076372
O O11 0.948425 0.927689 0.123344
O O12 0.719665 0.211344 0.737184
O O13 0.447989 0.526373 0.703679
O O14 0.315790 0.989081 0.659724
O O15 0.060440 0.564698 0.633128
O O16 0.853377 0.816328 0.681659
O O17 0.000000 0.000000 0.000000
#
# Coordination Sequence:
#
# PCOD8007776 Si02
#       8
#     2   2   2   2   2   2   2   2
#     4  11  25  45  74  95 142 184 224 285 350 401
#     4  10  20  41  68  93 137 188 223 284 340 404
#     4  12  25  48  71 101 141 182 226 285 345 409
#     4  10  21  40  64  96 130 176 224 278 330 401
#     4  11  25  44  68 107 137 181 229 288 343 408
#     4  10  23  41  67 100 136 178 236 280 340 406
#     4  10  21  41  64  97 135 172 227 272 338 399
#     4  12  29  48  71 105 137 181 235 281 338 413
#
# _framework density 27.785408
#
# number of rings (size 3 to 8) (size 9 to 14) (size 15 to 20)
#    0.000    1.250    3.750    1.125    3.500    1.500 
#    4.500    0.625    0.000    0.000    0.000    0.000 
#    0.000    0.000    0.000    0.000    0.000    0.000 
#
# Total GULP energy -198348.840753 kJ/mol
# GULP energy per Si atom -12396.802547 kJ/mol
# Density = 2.772217 g / cm^3
# Si number density = 27.785408 Si / 1000 Ang^3
#
#
#
# Elastic Constant Matrix: (Units=GPa)
#
#
# Indices 1 2 3 4 5 6 
#
# 1 168.0124 50.8059 58.1511 -5.2155 -52.3641 -28.3841
# 2 50.8059 111.2705 38.8761 -21.2429 -15.6403 -21.8702
# 3 58.1511 38.8761 168.7933 -18.0667 -15.9546 -7.5231
# 4 -5.2155 -21.2429 -18.0667 48.4746 -0.1088 -2.5275
# 5 -52.3641 -15.6403 -15.9546 -0.1088 57.6926 6.7181
# 6 -28.3841 -21.8702 -7.5231 -2.5275 6.7181 55.2737
#
#
#
# Elastic Compliance Matrix: (Units=1/GPa)
#
#
# Indices 1 2 3 4 5 6 
#
# 1 0.010371 -0.002361 -0.002214 -0.000564 0.007797 0.003117
# 2 -0.002361 0.012195 -0.001283 0.004801 0.000397 0.003610
# 3 -0.002214 -0.001283 0.007123 0.001825 -0.000319 -0.000553
# 4 -0.000564 0.004801 0.001825 0.023502 0.001012 0.002810
# 5 0.007797 0.000397 -0.000319 0.001012 0.024290 0.001211
# 6 0.003117 0.003610 -0.000553 0.002810 0.001211 0.021027
#
#
# Mechanical properties :
#
#
# Convention : Reuss Voigt Hill
#
# Bulk Modulus (GPa) = 55.63622 82.63805 69.13714
# Shear Modulus (GPa) = 43.02364 52.30438 47.66401
#
# Velocity S-wave (km/s) = 3.93927 4.34342 4.14627
# Velocity P-wave (km/s) = 6.38416 7.41349 6.91799
#
# Compressibility (1/GPa) = 0.01797390
#
# Stress axis : x y z
#
# Youngs Moduli (GPa) = 96.42022 81.99855 140.38952
#
# Poissons Ratio (x) = 0.19361 0.31077
# Poissons Ratio (y) = 0.22766 0.18013
# Poissons Ratio (z) = 0.21344 0.10521
#
# Static dielectric constant tensor:
#      x y z
#    x 5.544630 0.107450 -0.523910 
#    y 0.107450 5.011400 0.123040 
#    z -0.523910 0.123040 5.927380 
# 
# 
# High freq. dielectric constant tensor:
#      x y z
#    x 2.146850 0.003190 -0.016770 
#    y 0.003190 2.118200 -0.000260 
#    z -0.016770 -0.000260 2.151320 
# 
# From -- ./inp_files/552720.got.cif
#   From: 2010.06.25/outbox.cif.g09.slc.cpg/sg2_277_cif.got.tgz:552720.got - 2010.06.27 13:26:56.
