data_PCOD8007970
_publ_section_title
;
Structure prediction by ZEFSAII (Michael W. Deem and Ramdas Pophale) SiO2 
 PCOD8007970
Probable space group: P -1
;
_chemical_formula_sum "Si O2"
_cell_formula_units_Z 14
_cell_length_a 7.876093
_cell_length_b 9.081899
_cell_length_c 10.362168
_cell_angle_alpha 78.770531
_cell_angle_beta 100.768158
_cell_angle_gamma 118.740002
_cell_volume 633.699992
_symmetry_space_group_name_H-M "P -1"
_symmetry_group_IT_number 2
_symmetry_cell_setting 'triclinic'
loop_
_space_group_symop_operation_xyz
x,y,z
-x,-y,-z
loop_
_atom_site_type_symbol
_atom_site_label
_atom_site_fract_x
_atom_site_fract_y
_atom_site_fract_z
Si Si1 0.046988 0.829802 0.069430
Si Si2 0.938263 0.503819 0.246084
Si Si3 0.795402 0.846335 0.826108
Si Si4 0.589800 0.196494 0.136134
Si Si5 0.239078 0.379597 0.364631
Si Si6 0.676983 0.632537 0.335670
Si Si7 0.361059 0.094961 0.877198
O O1 0.057868 0.661889 0.141484
O O2 0.081221 0.948573 0.180866
O O3 0.836261 0.774904 0.980782
O O4 0.201679 0.938678 0.964434
O O5 0.804783 0.342144 0.168808
O O6 0.804535 0.543918 0.318951
O O7 0.098613 0.467144 0.347518
O O8 0.564675 0.784829 0.794340
O O9 0.859554 0.778899 0.720720
O O10 0.568805 0.008223 0.193310
O O11 0.536479 0.213518 0.976526
O O12 0.446812 0.510801 0.313409
O O13 0.264900 0.311368 0.518064
O O14 0.725530 0.798341 0.229410
#
# Coordination Sequence:
#
# PCOD8007970 Si02
#       7
#     2   2   2   2   2   2   2
#     4  10  23  40  66 102 134 165 216 271 337 383
#     4  12  24  42  71  99 130 169 218 277 324 386
#     4  10  20  42  61  97 137 168 214 268 321 397
#     4  10  22  38  67 100 132 167 212 272 341 375
#     4  11  26  43  69  94 132 179 222 261 324 383
#     4  11  25  47  64  96 134 176 221 270 310 393
#     4  10  23  43  65  97 137 170 214 272 327 393
#
# _framework density 22.092476000000001
#
# number of rings (size 3 to 8) (size 9 to 14) (size 15 to 20)
#    0.000    1.429    1.429    3.857    8.000    3.429 
#    0.000    8.571    0.000    0.000    0.000    0.000 
#    0.000    0.000    0.000    0.000    0.000    0.000 
#
# Total GULP energy -173528.770537 kJ/mol
# GULP energy per Si atom -12394.912181 kJ/mol
# Density = 2.204219 g / cm^3
# Si number density = 22.092476 Si / 1000 Ang^3
#
#
#
# Elastic Constant Matrix: (Units=GPa)
#
#
# Indices 1 2 3 4 5 6 
#
# 1 132.4279 36.8518 39.9787 -1.0806 7.2931 -12.2320
# 2 36.8518 96.1167 66.4468 11.4535 8.2596 -10.6406
# 3 39.9787 66.4468 95.5323 8.4835 4.8044 -0.3327
# 4 -1.0806 11.4535 8.4835 27.4812 -0.8646 -2.9435
# 5 7.2931 8.2596 4.8044 -0.8646 30.3817 -0.3156
# 6 -12.2320 -10.6406 -0.3327 -2.9435 -0.3156 40.1340
#
#
#
# Elastic Compliance Matrix: (Units=1/GPa)
#
#
# Indices 1 2 3 4 5 6 
#
# 1 0.009150 -0.001222 -0.003088 0.002058 -0.001290 0.002580
# 2 -0.001222 0.022153 -0.014307 -0.004437 -0.003541 0.005029
# 3 -0.003088 -0.014307 0.021758 -0.001338 0.001104 -0.004643
# 4 0.002058 -0.004437 -0.001338 0.039045 0.002059 0.002320
# 5 -0.001290 -0.003541 0.001104 0.002059 0.034062 -0.000904
# 6 0.002580 0.005029 -0.004643 0.002320 -0.000904 0.027161
#
#
# Mechanical properties :
#
#
# Convention : Reuss Voigt Hill
#
# Bulk Modulus (GPa) = 63.18515 67.84794 65.51655
# Shear Modulus (GPa) = 25.53118 31.65271 28.59194
#
# Velocity S-wave (km/s) = 3.40317 3.78926 3.60139
# Velocity P-wave (km/s) = 6.64112 7.06556 6.85663
#
# Compressibility (1/GPa) = 0.01582650
#
# Stress axis : x y z
#
# Youngs Moduli (GPa) = 109.29307 45.14002 45.95916
#
# Poissons Ratio (x) = 0.05517 0.14191
# Poissons Ratio (y) = 0.13358 0.65756
# Poissons Ratio (z) = 0.33748 0.64584
#
# Static dielectric constant tensor:
#      x y z
#    x 4.341590 -0.190210 0.130910 
#    y -0.190210 3.936160 0.135910 
#    z 0.130910 0.135910 3.639720 
# 
# 
# High freq. dielectric constant tensor:
#      x y z
#    x 1.898160 -0.007120 0.004320 
#    y -0.007120 1.864580 0.016560 
#    z 0.004320 0.016560 1.833840 
# 
# From -- ./inp_files/158158.got.cif
#   From: 2010.06.25/outbox.cif.g09.slc.cpg/sg2_80_cif.got.tgz:158158.got - 2010.06.27 13:26:56.
