data_PCOD8007499
_publ_section_title
;
Structure prediction by ZEFSAII (Michael W. Deem and Ramdas Pophale) SiO2 
 PCOD8007499
Probable space group: P -1
;
_chemical_formula_sum "Si O2"
_cell_formula_units_Z 16
_cell_length_a 9.177372
_cell_length_b 9.075548
_cell_length_c 12.671164
_cell_angle_alpha 50.877252
_cell_angle_beta 91.907725
_cell_angle_gamma 79.133113
_cell_volume 787.857387
_symmetry_space_group_name_H-M "P -1"
_symmetry_group_IT_number 2
_symmetry_cell_setting 'triclinic'
loop_
_space_group_symop_operation_xyz
x,y,z
-x,-y,-z
loop_
_atom_site_type_symbol
_atom_site_label
_atom_site_fract_x
_atom_site_fract_y
_atom_site_fract_z
Si Si1 0.476190 0.119589 0.053130
Si Si2 0.093535 0.480581 0.652899
Si Si3 0.644167 0.195630 0.699418
Si Si4 0.689155 0.446456 0.203861
Si Si5 0.979502 0.102717 0.840811
Si Si6 0.758075 0.108833 0.193731
Si Si7 0.504294 0.393216 0.407788
Si Si8 0.219871 0.296171 0.531075
O O1 0.635935 0.150069 0.078475
O O2 0.405351 0.003209 0.190935
O O3 0.362919 0.333235 0.940450
O O4 0.500000 0.000000 0.000000
O O5 0.172312 0.566500 0.708805
O O6 0.207276 0.425159 0.580343
O O7 0.046735 0.287361 0.773641
O O8 0.945652 0.655562 0.545376
O O9 0.808934 0.175984 0.760870
O O10 0.631487 0.245154 0.551339
O O11 0.518630 0.377147 0.667063
O O12 0.744413 0.305240 0.170579
O O13 0.559758 0.374159 0.296554
O O14 0.074966 0.952045 0.825124
O O15 0.000000 0.000000 0.000000
O O16 0.727960 0.936565 0.343262
O O17 0.342240 0.346512 0.433739
#
# Coordination Sequence:
#
# PCOD8007499 Si02
#       8
#     2   2   2   2   2   2   2   2
#     4  12  22  44  68  94 123 171 222 264 315 380
#     4  10  21  39  64  94 125 165 218 262 313 372
#     4  11  21  39  68 100 119 162 226 277 304 364
#     4  12  26  41  64  96 135 173 206 262 335 388
#     4  11  23  41  67  94 124 168 224 265 312 385
#     4  11  26  43  62  95 136 169 206 266 332 385
#     4  11  22  38  67  98 126 161 220 269 317 371
#     4  10  20  41  64  92 126 166 218 271 302 373
#
# _framework density 20.308243999999998
#
# number of rings (size 3 to 8) (size 9 to 14) (size 15 to 20)
#    0.000    1.000    3.750    4.875    3.500    1.000 
#    0.000    2.500    0.000    0.000    0.000    0.000 
#    0.000    0.000    0.000    0.000    0.000    0.000 
#
# Total GULP energy -198434.540124 kJ/mol
# GULP energy per Si atom -12402.158758 kJ/mol
# Density = 2.026202 g / cm^3
# Si number density = 20.308244 Si / 1000 Ang^3
#
#
#
# Elastic Constant Matrix: (Units=GPa)
#
#
# Indices 1 2 3 4 5 6 
#
# 1 113.9588 38.6764 38.0489 7.2931 10.7021 6.9018
# 2 38.6764 124.8540 45.1761 0.5299 12.0609 4.7270
# 3 38.0489 45.1761 109.6739 -4.4532 5.0712 -2.4304
# 4 7.2931 0.5299 -4.4532 17.7659 -0.5619 -0.3336
# 5 10.7021 12.0609 5.0712 -0.5619 41.1749 5.0465
# 6 6.9018 4.7270 -2.4304 -0.3336 5.0465 19.6722
#
#
#
# Elastic Compliance Matrix: (Units=1/GPa)
#
#
# Indices 1 2 3 4 5 6 
#
# 1 0.011276 -0.001977 -0.003328 -0.005521 -0.001578 -0.003581
# 2 -0.001977 0.010113 -0.003451 -0.000445 -0.001821 -0.001703
# 3 -0.003328 -0.003451 0.011955 0.004533 0.000031 0.003543
# 4 -0.005521 -0.000445 0.004533 0.059810 0.001424 0.003253
# 5 -0.001578 -0.001821 0.000031 0.001424 0.025936 -0.005634
# 6 -0.003581 -0.001703 0.003543 0.003253 -0.005634 0.054437
#
#
# Mechanical properties :
#
#
# Convention : Reuss Voigt Hill
#
# Bulk Modulus (GPa) = 63.16782 65.80995 64.48889
# Shear Modulus (GPa) = 25.46902 30.82828 28.14865
#
# Velocity S-wave (km/s) = 3.54520 3.90040 3.72704
# Velocity P-wave (km/s) = 6.92315 7.26361 7.09542
#
# Compressibility (1/GPa) = 0.01583085
#
# Stress axis : x y z
#
# Youngs Moduli (GPa) = 88.68589 98.88380 83.64517
#
# Poissons Ratio (x) = 0.19552 0.27837
# Poissons Ratio (y) = 0.17536 0.28868
# Poissons Ratio (z) = 0.29514 0.34127
#
# Static dielectric constant tensor:
#      x y z
#    x 3.901590 -0.015600 0.084280 
#    y -0.015600 3.392970 -0.110100 
#    z 0.084280 -0.110100 3.987610 
# 
# 
# High freq. dielectric constant tensor:
#      x y z
#    x 1.804900 0.001040 0.006540 
#    y 0.001040 1.757570 -0.013180 
#    z 0.006540 -0.013180 1.812850 
# 
# From -- ./inp_files/208958.got.cif
#   From: 2010.06.25/outbox.cif.g09.slc.cpg/sg2_105_cif.got.tgz:208958.got - 2010.06.27 13:26:56.
