data_PCOD8007494
_publ_section_title
;
Structure prediction by ZEFSAII (Michael W. Deem and Ramdas Pophale) SiO2 
 PCOD8007494
Probable space group: P -1
;
_chemical_formula_sum "Si O2"
_cell_formula_units_Z 14
_cell_length_a 15.206501
_cell_length_b 12.621791
_cell_length_c 9.466764
_cell_angle_alpha 47.942968
_cell_angle_beta 121.913066
_cell_angle_gamma 151.613378
_cell_volume 631.823305
_symmetry_space_group_name_H-M "P -1"
_symmetry_group_IT_number 2
_symmetry_cell_setting 'triclinic'
loop_
_space_group_symop_operation_xyz
x,y,z
-x,-y,-z
loop_
_atom_site_type_symbol
_atom_site_label
_atom_site_fract_x
_atom_site_fract_y
_atom_site_fract_z
Si Si1 0.679393 0.700619 0.657571
Si Si2 0.838670 0.410324 0.379090
Si Si3 0.894553 0.691795 0.936531
Si Si4 0.255839 0.256169 0.651632
Si Si5 0.697210 0.037392 0.366748
Si Si6 0.722088 0.274229 0.953720
Si Si7 0.272920 0.579758 0.443774
O O1 0.780157 0.708891 0.845113
O O2 0.455154 0.441319 0.725265
O O3 0.725950 0.704911 0.535144
O O4 0.771106 0.963385 0.526938
O O5 0.713252 0.159949 0.404495
O O6 0.720446 0.341779 0.467766
O O7 0.000000 0.500000 0.500000
O O8 0.913122 0.628012 0.155778
O O9 0.772192 0.466903 0.919442
O O10 0.106677 0.961988 0.823664
O O11 0.171785 0.308921 0.596356
O O12 0.477081 0.773034 0.384910
O O13 0.799765 0.221611 0.148701
O O14 0.811581 0.402533 0.758282
O O15 0.500000 0.000000 0.000000
#
# Coordination Sequence:
#
# PCOD8007494 Si02
#       7
#     2   2   2   2   2   2   2
#     4  10  21  41  70  95 131 160 215 267 317 383
#     4  11  26  43  59  91 130 170 216 260 315 381
#     4  11  23  43  66  94 130 171 210 265 318 378
#     4  10  22  38  67 104 124 165 212 265 323 373
#     4   9  21  41  64  94 124 167 211 263 320 373
#     4   9  19  37  67  95 125 165 211 261 320 369
#     4  10  20  41  64  91 128 169 210 264 314 379
#
# _framework density 22.158093000000001
#
# number of rings (size 3 to 8) (size 9 to 14) (size 15 to 20)
#    0.000    2.000    1.429    0.857    4.000    1.714 
#    7.714    4.286    0.000    0.000    0.000    0.000 
#    0.000    0.000    0.000    0.000    0.000    0.000 
#
# Total GULP energy -173513.062654 kJ/mol
# GULP energy per Si atom -12393.790190 kJ/mol
# Density = 2.210766 g / cm^3
# Si number density = 22.158093 Si / 1000 Ang^3
#
#
#
# Elastic Constant Matrix: (Units=GPa)
#
#
# Indices 1 2 3 4 5 6 
#
# 1 85.5730 36.9929 55.6996 1.2235 18.7018 -16.5397
# 2 36.9929 65.8372 61.6155 -13.7187 5.6383 -12.2854
# 3 55.6996 61.6155 170.3699 5.8734 22.8636 -1.4065
# 4 1.2235 -13.7187 5.8734 31.0674 -5.0407 2.6691
# 5 18.7018 5.6383 22.8636 -5.0407 38.4183 5.4454
# 6 -16.5397 -12.2854 -1.4065 2.6691 5.4454 40.4224
#
#
#
# Elastic Compliance Matrix: (Units=1/GPa)
#
#
# Indices 1 2 3 4 5 6 
#
# 1 0.020251 -0.008786 -0.001913 -0.006446 -0.009300 0.007228
# 2 -0.008786 0.034820 -0.011377 0.018767 0.007790 0.004303
# 3 -0.001913 -0.011377 0.011507 -0.007685 -0.004876 -0.002676
# 4 -0.006446 0.018767 -0.007685 0.044098 0.010968 -0.001590
# 5 -0.009300 0.007790 -0.004876 0.010968 0.034748 -0.007013
# 6 0.007228 0.004303 -0.002676 -0.001590 -0.007013 0.029961
#
#
# Mechanical properties :
#
#
# Convention : Reuss Voigt Hill
#
# Bulk Modulus (GPa) = 44.59371 70.04401 57.31886
# Shear Modulus (GPa) = 22.02517 33.14641 27.58579
#
# Velocity S-wave (km/s) = 3.15620 3.87189 3.53222
# Velocity P-wave (km/s) = 5.78369 7.18807 6.52378
#
# Compressibility (1/GPa) = 0.02242469
#
# Stress axis : x y z
#
# Youngs Moduli (GPa) = 49.37988 28.71926 86.90399
#
# Poissons Ratio (x) = 0.25233 0.16627
# Poissons Ratio (y) = 0.43386 0.98873
# Poissons Ratio (z) = 0.09448 0.32675
#
# Static dielectric constant tensor:
#      x y z
#    x 4.072800 -0.616610 0.212340 
#    y -0.616610 4.725720 0.000470 
#    z 0.212340 0.000470 4.362480 
# 
# 
# High freq. dielectric constant tensor:
#      x y z
#    x 1.853540 -0.005530 0.022210 
#    y -0.005530 1.878140 -0.009630 
#    z 0.022210 -0.009630 1.875310 
# 
# From -- ./inp_files/153790.got.cif
#   From: 2010.06.25/outbox.cif.g09.slc.cpg/sg2_77_cif.got.tgz:153790.got - 2010.06.27 13:26:56.
