data_PCOD8007244
_publ_section_title
;
Structure prediction by ZEFSAII (Michael W. Deem and Ramdas Pophale) SiO2 
 PCOD8007244
Probable space group: P -1
;
_chemical_formula_sum "Si O2"
_cell_formula_units_Z 16
_cell_length_a 10.151557
_cell_length_b 5.247517
_cell_length_c 21.304642
_cell_angle_alpha 60.410481
_cell_angle_beta 63.723546
_cell_angle_gamma 90.086755
_cell_volume 848.929993
_symmetry_space_group_name_H-M "P -1"
_symmetry_group_IT_number 2
_symmetry_cell_setting 'triclinic'
loop_
_space_group_symop_operation_xyz
x,y,z
-x,-y,-z
loop_
_atom_site_type_symbol
_atom_site_label
_atom_site_fract_x
_atom_site_fract_y
_atom_site_fract_z
Si Si1 0.925352 0.293028 0.355894
Si Si2 0.655275 0.998496 0.000727
Si Si3 0.964864 0.351545 0.825100
Si Si4 0.547608 0.359677 0.569979
Si Si5 0.062414 0.762011 0.869835
Si Si6 0.095993 0.405571 0.545124
Si Si7 0.416066 0.798766 0.600162
Si Si8 0.247023 0.591334 0.954403
O O1 0.946411 0.466576 0.396158
O O2 0.764079 0.281769 0.359921
O O3 0.052332 0.486064 0.257054
O O4 0.945120 0.958695 0.400193
O O5 0.795775 0.189800 0.905526
O O6 0.658102 0.146495 0.050822
O O7 0.658155 0.649578 0.050663
O O8 0.500000 0.000000 0.000000
O O9 0.061720 0.609463 0.820666
O O10 0.062610 0.112548 0.821437
O O11 0.500000 0.500000 0.500000
O O12 0.728517 0.444084 0.527791
O O13 0.472930 0.493005 0.628057
O O14 0.472710 0.993107 0.628097
O O15 0.913252 0.579064 0.960543
O O16 0.213570 0.744214 0.878001
O O17 0.000000 0.500000 0.500000
O O18 0.500000 0.000000 0.500000
#
# Coordination Sequence:
#
# PCOD8007244 Si02
#       8
#     2   2   2   2   2   2   2   2
#     4  12  21  36  55  80 106 141 170 233 275 311
#     4  10  19  33  53  83 101 150 191 208 245 321
#     4  10  21  33  54  79 111 133 179 221 268 321
#     4  10  16  32  53  77  97 123 169 224 254 301
#     4   9  17  33  51  80 107 133 165 221 277 305
#     4  12  23  35  55  81 106 140 186 221 271 329
#     4  10  16  30  55  76  94 124 173 212 261 302
#     4   9  17  30  55  78 106 132 175 227 255 296
#
# _framework density 18.847254
#
# number of rings (size 3 to 8) (size 9 to 14) (size 15 to 20)
#    0.000    1.750    5.000    2.250    0.000    3.000 
#    0.000    0.000    0.000    9.000    0.000    0.000 
#    0.000    0.000    0.000    0.000    0.000    0.000 
#
# Total GULP energy -198361.368496 kJ/mol
# GULP energy per Si atom -12397.585531 kJ/mol
# Density = 1.880436 g / cm^3
# Si number density = 18.847254 Si / 1000 Ang^3
#
#
#
# Elastic Constant Matrix: (Units=GPa)
#
#
# Indices 1 2 3 4 5 6 
#
# 1 124.0631 56.8140 36.7384 3.7613 25.8060 -6.3305
# 2 56.8140 206.0475 43.6482 20.1133 19.8801 -13.8664
# 3 36.7384 43.6482 64.2038 3.7306 13.9165 -7.8151
# 4 3.7613 20.1133 3.7306 7.9808 2.3545 1.4889
# 5 25.8060 19.8801 13.9165 2.3545 20.6707 -4.0208
# 6 -6.3305 -13.8664 -7.8151 1.4889 -4.0208 8.6367
#
#
#
# Elastic Compliance Matrix: (Units=1/GPa)
#
#
# Indices 1 2 3 4 5 6 
#
# 1 0.012393 -0.002412 -0.003778 0.006599 -0.012351 -0.005095
# 2 -0.002412 0.009317 -0.001777 -0.024974 0.001300 0.016493
# 3 -0.003778 -0.001777 0.021904 -0.004741 -0.005345 0.012527
# 4 0.006599 -0.024974 -0.004741 0.209717 -0.021597 -0.085757
# 5 -0.012351 0.001300 -0.005345 -0.021597 0.073709 0.026236
# 6 -0.005095 0.016493 0.012527 -0.085757 0.026236 0.176865
#
#
# Mechanical properties :
#
#
# Convention : Reuss Voigt Hill
#
# Bulk Modulus (GPa) = 36.12725 74.30173 55.21449
# Shear Modulus (GPa) = 9.45063 24.59855 17.02459
#
# Velocity S-wave (km/s) = 2.24170 3.61661 3.00874
# Velocity P-wave (km/s) = 5.09022 7.54642 6.43657
#
# Compressibility (1/GPa) = 0.02767994
#
# Stress axis : x y z
#
# Youngs Moduli (GPa) = 80.69145 107.32868 45.65376
#
# Poissons Ratio (x) = 0.25890 0.17248
# Poissons Ratio (y) = 0.19464 0.08112
# Poissons Ratio (z) = 0.30485 0.19071
#
# Static dielectric constant tensor:
#      x y z
#    x 3.210810 -0.114360 0.174480 
#    y -0.114360 2.791050 0.159800 
#    z 0.174480 0.159800 2.773400 
# 
# 
# High freq. dielectric constant tensor:
#      x y z
#    x 1.713170 -0.000890 0.001700 
#    y -0.000890 1.766440 0.006740 
#    z 0.001700 0.006740 1.693500 
# 
# From -- ./inp_files/468508.got.cif
#   From: 2010.06.25/outbox.cif.g09.slc.cpg/sg2_235_cif.got.tgz:468508.got - 2010.06.27 13:26:56.
