data_PCOD8007685
_publ_section_title
;
Structure prediction by ZEFSAII (Michael W. Deem and Ramdas Pophale) SiO2 
 PCOD8007685
Probable space group: P -1
;
_chemical_formula_sum "Si O2"
_cell_formula_units_Z 16
_cell_length_a 16.599145
_cell_length_b 5.883047
_cell_length_c 18.444432
_cell_angle_alpha 122.120778
_cell_angle_beta 29.973684
_cell_angle_gamma 128.701644
_cell_volume 702.038388
_symmetry_space_group_name_H-M "P -1"
_symmetry_group_IT_number 2
_symmetry_cell_setting 'triclinic'
loop_
_space_group_symop_operation_xyz
x,y,z
-x,-y,-z
loop_
_atom_site_type_symbol
_atom_site_label
_atom_site_fract_x
_atom_site_fract_y
_atom_site_fract_z
Si Si1 0.568644 0.857153 0.190063
Si Si2 0.764762 0.135957 0.792493
Si Si3 0.085229 0.667862 0.638717
Si Si4 0.897668 0.195073 0.076425
Si Si5 0.266391 0.290485 0.365681
Si Si6 0.314448 0.738496 0.610238
Si Si7 0.680799 0.841206 0.540484
Si Si8 0.442020 0.165058 0.972321
O O1 0.460089 0.512050 0.225936
O O2 0.593260 0.929297 0.098617
O O3 0.762696 0.958156 0.088256
O O4 0.468624 0.036218 0.339951
O O5 0.589759 0.066169 0.871189
O O6 0.877435 0.481651 0.771900
O O7 0.842350 0.940049 0.651035
O O8 0.735227 0.013400 0.876134
O O9 0.152563 0.473105 0.502970
O O10 0.173327 0.734602 0.659780
O O11 0.132732 0.969758 0.610776
O O12 0.783008 0.274087 0.240013
O O13 0.000000 0.500000 0.000000
O O14 0.000000 0.000000 0.000000
O O15 0.290985 0.131284 0.391321
O O16 0.374402 0.472507 0.505344
O O17 0.500000 0.000000 0.500000
O O18 0.500000 0.500000 0.000000
#
# Coordination Sequence:
#
# PCOD8007685 Si02
#       8
#     2   2   2   2   2   2   2   2
#     4  11  24  46  73 101 145 194 254 301 380 457
#     4  11  23  40  64 100 144 182 244 291 369 444
#     4  10  24  39  68 104 138 180 233 313 364 439
#     4  12  32  51  78 117 157 198 256 333 395 453
#     4  10  20  41  67 100 134 186 240 292 368 440
#     4  11  26  50  77 106 145 200 262 309 388 461
#     4  10  22  43  76 103 135 193 243 310 370 449
#     4  11  24  41  66  96 138 201 233 291 357 458
#
# _framework density 22.790776999999999
#
# number of rings (size 3 to 8) (size 9 to 14) (size 15 to 20)
#    0.000    1.250    2.500    2.625    7.000    4.500 
#    0.000    0.000    0.000    0.000    0.000    0.000 
#    0.000    0.000    0.000    0.000    0.000    0.000 
#
# Total GULP energy -198229.415514 kJ/mol
# GULP energy per Si atom -12389.338470 kJ/mol
# Density = 2.273890 g / cm^3
# Si number density = 22.790777 Si / 1000 Ang^3
#
#
#
# Elastic Constant Matrix: (Units=GPa)
#
#
# Indices 1 2 3 4 5 6 
#
# 1 111.9924 50.1471 49.4172 -16.7500 16.9737 10.4731
# 2 50.1471 125.0020 37.4522 -31.5457 15.5929 3.2793
# 3 49.4172 37.4522 101.2047 -20.7781 31.2327 4.8617
# 4 -16.7500 -31.5457 -20.7781 45.5998 -3.2396 0.5956
# 5 16.9737 15.5929 31.2327 -3.2396 36.5812 0.1308
# 6 10.4731 3.2793 4.8617 0.5956 0.1308 40.4113
#
#
#
# Elastic Compliance Matrix: (Units=1/GPa)
#
#
# Indices 1 2 3 4 5 6 
#
# 1 0.012948 -0.003643 -0.004705 0.000095 -0.000420 -0.002494
# 2 -0.003643 0.011453 -0.000504 0.006198 -0.002212 -0.000009
# 3 -0.004705 -0.000504 0.017009 0.004854 -0.011691 -0.000820
# 4 0.000095 0.006198 0.004854 0.028176 -0.004329 -0.001513
# 5 -0.000420 -0.002212 -0.011691 -0.004329 0.038067 0.001636
# 6 -0.002494 -0.000009 -0.000820 -0.001513 0.001636 0.025508
#
#
# Mechanical properties :
#
#
# Convention : Reuss Voigt Hill
#
# Bulk Modulus (GPa) = 42.18400 68.02582 55.10491
# Shear Modulus (GPa) = 31.49301 37.93065 34.71183
#
# Velocity S-wave (km/s) = 3.72133 4.08401 3.90688
# Velocity P-wave (km/s) = 6.08390 7.22160 6.67703
#
# Compressibility (1/GPa) = 0.02370567
#
# Stress axis : x y z
#
# Youngs Moduli (GPa) = 77.23480 87.31708 58.79351
#
# Poissons Ratio (x) = 0.31807 0.27663
# Poissons Ratio (y) = 0.28134 0.02962
# Poissons Ratio (z) = 0.36340 0.04399
#
# Static dielectric constant tensor:
#      x y z
#    x 4.129790 -0.153310 0.134630 
#    y -0.153310 4.677780 -0.282260 
#    z 0.134630 -0.282260 4.533030 
# 
# 
# High freq. dielectric constant tensor:
#      x y z
#    x 1.895620 0.002470 0.017140 
#    y 0.002470 1.912120 -0.005850 
#    z 0.017140 -0.005850 1.906740 
# 
# From -- ./inp_files/574926.got.cif
#   From: 2010.06.25/outbox.cif.g09.slc.cpg/sg2_288_cif.got.tgz:574926.got - 2010.06.27 13:26:56.
