data_PCOD8007277
_publ_section_title
;
Structure prediction by ZEFSAII (Michael W. Deem and Ramdas Pophale) SiO2 
 PCOD8007277
Probable space group: P -1
;
_chemical_formula_sum "Si O2"
_cell_formula_units_Z 12
_cell_length_a 9.005370
_cell_length_b 9.756196
_cell_length_c 12.704050
_cell_angle_alpha 146.645046
_cell_angle_beta 117.486650
_cell_angle_gamma 79.469110
_cell_volume 495.151191
_symmetry_space_group_name_H-M "P -1"
_symmetry_group_IT_number 2
_symmetry_cell_setting 'triclinic'
loop_
_space_group_symop_operation_xyz
x,y,z
-x,-y,-z
loop_
_atom_site_type_symbol
_atom_site_label
_atom_site_fract_x
_atom_site_fract_y
_atom_site_fract_z
Si Si1 0.842119 0.716297 0.001023
Si Si2 0.630056 0.453960 0.392007
Si Si3 0.470401 0.269788 0.641148
Si Si4 0.048537 0.432122 0.271207
Si Si5 0.914856 0.887946 0.510853
Si Si6 0.714554 0.041793 0.018765
O O1 0.666523 0.523322 0.889973
O O2 0.883533 0.542896 0.810805
O O3 0.801451 0.960942 0.096308
O O4 0.019973 0.853465 0.221911
O O5 0.589246 0.695173 0.476655
O O6 0.800337 0.580768 0.607054
O O7 0.655504 0.279276 0.189806
O O8 0.453112 0.235507 0.258404
O O9 0.307367 0.259881 0.659933
O O10 0.500000 0.000000 0.500000
O O11 0.001652 0.683965 0.448333
O O12 0.865077 0.151691 0.045866
O O13 0.000000 0.000000 0.500000
#
# Coordination Sequence:
#
# PCOD8007277 Si02
#       6
#     2   2   2   2   2   2
#     4  11  26  45  70 107 136 175 236 281 341 414
#     4  10  21  40  72 105 136 179 228 281 343 400
#     4  11  25  46  70  99 143 185 226 280 338 412
#     4  12  23  42  74 104 138 178 226 287 345 402
#     4  12  27  47  71  98 139 185 228 284 344 407
#     4  10  20  40  70 106 138 174 224 285 341 405
#
# _framework density 24.235023999999999
#
# number of rings (size 3 to 8) (size 9 to 14) (size 15 to 20)
#    0.000    1.000    3.333    3.000    0.000    7.333 
#    0.000    0.000    0.000    0.000    0.000    0.000 
#    0.000    0.000    0.000    0.000    0.000    0.000 
#
# Total GULP energy -148775.086774 kJ/mol
# GULP energy per Si atom -12397.923898 kJ/mol
# Density = 2.417986 g / cm^3
# Si number density = 24.235024 Si / 1000 Ang^3
#
#
#
# Elastic Constant Matrix: (Units=GPa)
#
#
# Indices 1 2 3 4 5 6 
#
# 1 145.3642 47.4056 50.2182 12.1472 28.3684 15.7256
# 2 47.4056 109.3510 45.0732 18.2087 7.3115 3.6436
# 3 50.2182 45.0732 97.4365 4.2220 19.9391 11.4240
# 4 12.1472 18.2087 4.2220 28.1763 4.0782 3.5643
# 5 28.3684 7.3115 19.9391 4.0782 39.9193 19.4280
# 6 15.7256 3.6436 11.4240 3.5643 19.4280 49.2201
#
#
#
# Elastic Compliance Matrix: (Units=1/GPa)
#
#
# Indices 1 2 3 4 5 6 
#
# 1 0.009745 -0.002507 -0.002787 -0.001434 -0.004788 -0.000287
# 2 -0.002507 0.013369 -0.005129 -0.007205 0.002339 0.000600
# 3 -0.002787 -0.005129 0.014946 0.003014 -0.004551 -0.000621
# 4 -0.001434 -0.007205 0.003014 0.040891 -0.002532 -0.001670
# 5 -0.004788 0.002339 -0.004551 -0.002532 0.036258 -0.011716
# 6 -0.000287 0.000600 -0.000621 -0.001670 -0.011716 0.025254
#
#
# Mechanical properties :
#
#
# Convention : Reuss Voigt Hill
#
# Bulk Modulus (GPa) = 58.09585 70.83840 64.46712
# Shear Modulus (GPa) = 29.93163 37.42678 33.67920
#
# Velocity S-wave (km/s) = 3.51815 3.93405 3.73190
# Velocity P-wave (km/s) = 6.36609 7.06604 6.72518
#
# Compressibility (1/GPa) = 0.01721293
#
# Stress axis : x y z
#
# Youngs Moduli (GPa) = 102.61637 74.79815 66.90905
#
# Poissons Ratio (x) = 0.18755 0.18648
# Poissons Ratio (y) = 0.25730 0.34318
# Poissons Ratio (z) = 0.28600 0.38364
#
# Static dielectric constant tensor:
#      x y z
#    x 4.768860 -0.012080 0.281650 
#    y -0.012080 4.276150 0.471750 
#    z 0.281650 0.471750 4.401410 
# 
# 
# High freq. dielectric constant tensor:
#      x y z
#    x 1.981660 -0.001400 0.017420 
#    y -0.001400 1.955120 0.025680 
#    z 0.017420 0.025680 1.947840 
# 
# From -- ./inp_files/162570.got.cif
#   From: 2010.06.25/outbox.cif.g09.slc.cpg/sg2_82_cif.got.tgz:162570.got - 2010.06.27 13:26:56.
