data_PCOD8007637
_publ_section_title
;
Structure prediction by ZEFSAII (Michael W. Deem and Ramdas Pophale) SiO2 
 PCOD8007637
Probable space group: P -1
;
_chemical_formula_sum "Si O2"
_cell_formula_units_Z 12
_cell_length_a 9.409631
_cell_length_b 12.748925
_cell_length_c 13.110940
_cell_angle_alpha 147.364869
_cell_angle_beta 31.405293
_cell_angle_gamma 137.133045
_cell_volume 441.425926
_symmetry_space_group_name_H-M "P -1"
_symmetry_group_IT_number 2
_symmetry_cell_setting 'triclinic'
loop_
_space_group_symop_operation_xyz
x,y,z
-x,-y,-z
loop_
_atom_site_type_symbol
_atom_site_label
_atom_site_fract_x
_atom_site_fract_y
_atom_site_fract_z
Si Si1 0.291331 0.648904 0.210416
Si Si2 0.273299 0.517032 0.565965
Si Si3 0.393212 0.660188 0.938361
Si Si4 0.876192 0.772095 0.240034
Si Si5 0.630362 0.066211 0.241549
Si Si6 0.068889 0.955923 0.751549
O O1 0.202978 0.785503 0.467583
O O2 0.012947 0.540323 0.251316
O O3 0.500000 0.500000 0.000000
O O4 0.431814 0.750384 0.105137
O O5 0.500000 0.500000 0.500000
O O6 0.332129 0.356221 0.310251
O O7 0.246379 0.722688 0.696483
O O8 0.273278 0.438909 0.843070
O O9 0.177140 0.785033 0.113962
O O10 0.696834 0.919056 0.537034
O O11 0.909063 0.847255 0.166138
O O12 0.745528 0.005954 0.231398
O O13 0.748573 0.923963 0.962372
#
# Coordination Sequence:
#
# PCOD8007637 Si02
#       6
#     2   2   2   2   2   2
#     4  12  26  42  64  98 133 168 214 272 329 379
#     4  11  23  44  70  93 127 175 222 263 315 389
#     4  10  22  40  67  93 124 171 218 261 317 387
#     4  10  20  41  66  92 125 171 218 261 318 390
#     4  10  22  40  64  93 129 175 219 260 322 390
#     4  11  24  38  61  95 132 170 214 271 325 381
#
# _framework density 27.184629999999999
#
# number of rings (size 3 to 8) (size 9 to 14) (size 15 to 20)
#    0.000    1.333    0.000    7.500    0.000    7.333 
#    0.000    5.833    0.000    0.000    0.000    0.000 
#    0.000    0.000    0.000    0.000    0.000    0.000 
#
# Total GULP energy -148751.700484 kJ/mol
# GULP energy per Si atom -12395.975040 kJ/mol
# Density = 2.712276 g / cm^3
# Si number density = 27.184630 Si / 1000 Ang^3
#
#
#
# Elastic Constant Matrix: (Units=GPa)
#
#
# Indices 1 2 3 4 5 6 
#
# 1 103.4206 21.8137 69.8761 6.7979 0.8103 -35.8109
# 2 21.8137 89.0450 50.9128 -17.4880 -7.0278 -34.2253
# 3 69.8761 50.9128 244.1797 -35.4395 11.7638 -21.8525
# 4 6.7979 -17.4880 -35.4395 56.5425 1.1936 -8.9746
# 5 0.8103 -7.0278 11.7638 1.1936 60.2481 1.9355
# 6 -35.8109 -34.2253 -21.8525 -8.9746 1.9355 36.5227
#
#
#
# Elastic Compliance Matrix: (Units=1/GPa)
#
#
# Indices 1 2 3 4 5 6 
#
# 1 0.019287 0.006781 -0.004943 0.000206 0.000776 0.022318
# 2 0.006781 0.025336 -0.003139 0.009898 0.002291 0.030824
# 3 -0.004943 -0.003139 0.006426 0.003195 -0.001519 -0.003078
# 4 0.000206 0.009898 0.003195 0.025545 -0.000547 0.017695
# 5 0.000776 0.002291 -0.001519 -0.000547 0.017131 0.000956
# 6 0.022318 0.030824 -0.003078 0.017695 0.000956 0.080604
#
#
# Mechanical properties :
#
#
# Convention : Reuss Voigt Hill
#
# Bulk Modulus (GPa) = 20.64083 80.20564 50.42324
# Shear Modulus (GPa) = 25.89608 50.26551 38.08080
#
# Velocity S-wave (km/s) = 3.08977 4.30471 3.74681
# Velocity P-wave (km/s) = 4.50979 7.36719 6.10793
#
# Compressibility (1/GPa) = 0.04844766
#
# Stress axis : x y z
#
# Youngs Moduli (GPa) = 51.84769 39.47000 155.62352
#
# Poissons Ratio (x) = -0.26766 0.76932
# Poissons Ratio (y) = -0.35160 0.48843
# Poissons Ratio (z) = 0.25631 0.12388
#
# Static dielectric constant tensor:
#      x y z
#    x 4.583550 -0.222280 0.045630 
#    y -0.222280 5.352600 -0.449830 
#    z 0.045630 -0.449830 6.037370 
# 
# 
# High freq. dielectric constant tensor:
#      x y z
#    x 2.076070 -0.009630 0.005890 
#    y -0.009630 2.121430 -0.012450 
#    z 0.005890 -0.012450 2.149370 
# 
# From -- ./inp_files/382490.got.cif
#   From: 2010.06.25/outbox.cif.g09.slc.cpg/sg2_192_cif.got.tgz:382490.got - 2010.06.27 13:26:56.
