data_PCOD8007063
_publ_section_title
;
Structure prediction by ZEFSAII (Michael W. Deem and Ramdas Pophale) SiO2 
 PCOD8007063
Probable space group: P -1
;
_chemical_formula_sum "Si O2"
_cell_formula_units_Z 16
_cell_length_a 9.234967
_cell_length_b 12.293021
_cell_length_c 23.063143
_cell_angle_alpha 19.539694
_cell_angle_beta 58.369581
_cell_angle_gamma 56.320957
_cell_volume 728.705890
_symmetry_space_group_name_H-M "P -1"
_symmetry_group_IT_number 2
_symmetry_cell_setting 'triclinic'
loop_
_space_group_symop_operation_xyz
x,y,z
-x,-y,-z
loop_
_atom_site_type_symbol
_atom_site_label
_atom_site_fract_x
_atom_site_fract_y
_atom_site_fract_z
Si Si1 0.507693 0.663251 0.242486
Si Si2 0.662574 0.573451 0.894929
Si Si3 0.893690 0.454029 0.490110
Si Si4 0.801972 0.487149 0.677612
Si Si5 0.039194 0.314884 0.145784
Si Si6 0.369614 0.662178 0.102968
Si Si7 0.681016 0.257696 0.302483
Si Si8 0.512889 0.697871 0.455521
O O1 0.303724 0.716209 0.240511
O O2 0.627961 0.442004 0.281183
O O3 0.542514 0.496427 0.381233
O O4 0.559086 0.014834 0.058528
O O5 0.833041 0.505202 0.934031
O O6 0.696100 0.340355 0.947938
O O7 0.619593 0.951911 0.692613
O O8 0.500000 0.500000 0.000000
O O9 0.714839 0.722724 0.401446
O O10 0.000000 0.500000 0.500000
O O11 0.996517 0.551663 0.363250
O O12 0.867108 0.074669 0.684479
O O13 0.792000 0.362592 0.808338
O O14 0.700725 0.867583 0.502869
O O15 0.859347 0.352011 0.198417
O O16 0.000000 0.500000 0.000000
O O17 0.533072 0.357251 0.234164
O O18 0.500000 0.500000 0.500000
#
# Coordination Sequence:
#
# PCOD8007063 Si02
#       8
#     2   2   2   2   2   2   2   2
#     4  11  22  40  66  97 131 173 216 266 322 389
#     4  12  26  45  65  97 132 175 214 270 334 384
#     4  11  24  41  69 100 127 173 218 266 321 382
#     4  10  20  40  66  98 131 170 222 263 319 389
#     4  11  26  44  67  96 132 169 218 271 323 394
#     4  11  23  40  67  97 132 171 216 267 328 384
#     4  10  21  40  67  97 126 175 218 266 322 383
#     4  12  24  44  66  95 136 171 218 266 328 388
#
# _framework density 21.956733
#
# number of rings (size 3 to 8) (size 9 to 14) (size 15 to 20)
#    0.000    1.000    2.500    6.000    5.250    1.000 
#    2.250    2.500    0.000    0.000    0.000    0.000 
#    0.000    0.000    0.000    0.000    0.000    0.000 
#
# Total GULP energy -198427.134908 kJ/mol
# GULP energy per Si atom -12401.695932 kJ/mol
# Density = 2.190676 g / cm^3
# Si number density = 21.956733 Si / 1000 Ang^3
#
#
#
# Elastic Constant Matrix: (Units=GPa)
#
#
# Indices 1 2 3 4 5 6 
#
# 1 116.7808 40.7395 22.0448 12.1017 -12.1051 18.6404
# 2 40.7395 96.4296 37.5818 19.5262 -2.0726 20.2754
# 3 22.0448 37.5818 89.5243 24.5121 -14.9222 2.7636
# 4 12.1017 19.5262 24.5121 40.8934 4.7664 1.1776
# 5 -12.1051 -2.0726 -14.9222 4.7664 31.5287 -4.1804
# 6 18.6404 20.2754 2.7636 1.1776 -4.1804 42.8147
#
#
#
# Elastic Compliance Matrix: (Units=1/GPa)
#
#
# Indices 1 2 3 4 5 6 
#
# 1 0.010814 -0.003593 0.000106 -0.001931 0.003916 -0.002578
# 2 -0.003593 0.015636 -0.005303 -0.002684 -0.003217 -0.005738
# 3 0.000106 -0.005303 0.017397 -0.009124 0.009642 0.002535
# 4 -0.001931 -0.002684 -0.009124 0.032930 -0.010107 0.000808
# 5 0.003916 -0.003217 0.009642 -0.010107 0.039543 0.003335
# 6 -0.002578 -0.005738 0.002535 0.000808 0.003335 0.027336
#
#
# Mechanical properties :
#
#
# Convention : Reuss Voigt Hill
#
# Bulk Modulus (GPa) = 38.07026 55.94076 47.00551
# Shear Modulus (GPa) = 29.41315 36.53860 32.97587
#
# Velocity S-wave (km/s) = 3.66402 4.08379 3.87958
# Velocity P-wave (km/s) = 5.93940 6.91154 6.44383
#
# Compressibility (1/GPa) = 0.02626723
#
# Stress axis : x y z
#
# Youngs Moduli (GPa) = 92.47374 63.95533 57.47990
#
# Poissons Ratio (x) = 0.22979 -0.00611
# Poissons Ratio (y) = 0.33225 0.30484
# Poissons Ratio (z) = -0.00984 0.33918
#
# Static dielectric constant tensor:
#      x y z
#    x 3.847420 0.022170 -0.153990 
#    y 0.022170 4.131490 0.222320 
#    z -0.153990 0.222320 4.260730 
# 
# 
# High freq. dielectric constant tensor:
#      x y z
#    x 1.852200 0.005900 -0.011580 
#    y 0.005900 1.876810 0.010410 
#    z -0.011580 0.010410 1.873210 
# 
# From -- ./inp_files/607728.got.cif
#   From: 2010.06.25/outbox.cif.g09.slc.cpg/sg2_304_cif.got.tgz:607728.got - 2010.06.27 13:26:56.
