data_PCOD8007133
_publ_section_title
;
Structure prediction by ZEFSAII (Michael W. Deem and Ramdas Pophale) SiO2 
 PCOD8007133
Probable space group: P -1
;
_chemical_formula_sum "Si O2"
_cell_formula_units_Z 16
_cell_length_a 11.510652
_cell_length_b 9.439858
_cell_length_c 14.785096
_cell_angle_alpha 97.246306
_cell_angle_beta 31.349546
_cell_angle_gamma 110.752761
_cell_volume 728.350504
_symmetry_space_group_name_H-M "P -1"
_symmetry_group_IT_number 2
_symmetry_cell_setting 'triclinic'
loop_
_space_group_symop_operation_xyz
x,y,z
-x,-y,-z
loop_
_atom_site_type_symbol
_atom_site_label
_atom_site_fract_x
_atom_site_fract_y
_atom_site_fract_z
Si Si1 0.287710 0.517974 0.088984
Si Si2 0.910596 0.809073 0.056402
Si Si3 0.612181 0.243381 0.261661
Si Si4 0.145809 0.829372 0.640855
Si Si5 0.455471 0.521072 0.788320
Si Si6 0.965838 0.369515 0.588056
Si Si7 0.362291 0.146004 0.612347
Si Si8 0.824531 0.051805 0.563543
O O1 0.051536 0.346043 0.208381
O O2 0.181864 0.619872 0.224120
O O3 0.500000 0.500000 0.000000
O O4 0.417133 0.596563 0.913838
O O5 0.683847 0.676934 0.132256
O O6 0.786891 0.767484 0.236491
O O7 0.135789 0.768035 0.892891
O O8 0.000000 0.000000 0.000000
O O9 0.671562 0.419367 0.199737
O O10 0.477361 0.223053 0.445938
O O11 0.441289 0.107043 0.291074
O O12 0.427754 0.844759 0.453429
O O13 0.059679 0.866087 0.604027
O O14 0.154598 0.956102 0.720835
O O15 0.752725 0.598610 0.572455
O O16 0.000000 0.500000 0.500000
O O17 0.791026 0.186906 0.653730
O O18 0.000000 0.000000 0.500000
#
# Coordination Sequence:
#
# PCOD8007133 Si02
#       8
#     2   2   2   2   2   2   2   2
#     4  12  24  39  67  98 135 173 226 273 327 399
#     4  12  25  41  71 101 130 174 232 275 332 401
#     4  11  26  45  67  96 141 174 216 285 340 395
#     4  10  20  40  67  95 134 170 218 277 327 396
#     4  12  26  45  66  98 140 174 221 287 336 393
#     4  12  24  43  70  99 131 184 228 267 339 405
#     4  10  22  41  68  98 126 178 223 270 337 391
#     4  11  22  43  69  98 138 174 219 280 338 395
#
# _framework density 21.967445999999999
#
# number of rings (size 3 to 8) (size 9 to 14) (size 15 to 20)
#    0.000    0.750    3.750    4.875    1.750    2.500 
#    0.000    0.625    0.000    0.000    0.000    0.000 
#    0.000    0.000    0.000    0.000    0.000    0.000 
#
# Total GULP energy -198317.736988 kJ/mol
# GULP energy per Si atom -12394.858562 kJ/mol
# Density = 2.191745 g / cm^3
# Si number density = 21.967446 Si / 1000 Ang^3
#
#
#
# Elastic Constant Matrix: (Units=GPa)
#
#
# Indices 1 2 3 4 5 6 
#
# 1 100.4103 29.2581 29.9512 5.3635 8.2380 1.7508
# 2 29.2581 98.7254 36.5323 6.5564 10.8259 10.7200
# 3 29.9512 36.5323 108.0544 30.4824 11.3239 18.2599
# 4 5.3635 6.5564 30.4824 30.1889 11.0277 0.0954
# 5 8.2380 10.8259 11.3239 11.0277 27.8766 -3.6242
# 6 1.7508 10.7200 18.2599 0.0954 -3.6242 40.6028
#
#
#
# Elastic Compliance Matrix: (Units=1/GPa)
#
#
# Indices 1 2 3 4 5 6 
#
# 1 0.011584 -0.002376 -0.003064 0.002272 -0.001982 0.001324
# 2 -0.002376 0.012667 -0.003677 0.002897 -0.004125 -0.001963
# 3 -0.003064 -0.003677 0.016824 -0.015990 0.001001 -0.006336
# 4 0.002272 0.002897 -0.015990 0.054097 -0.016082 0.004766
# 5 -0.001982 -0.004125 0.001001 -0.016082 0.044632 0.004746
# 6 0.001324 -0.001963 -0.006336 0.004766 0.004746 0.028352
#
#
# Mechanical properties :
#
#
# Convention : Reuss Voigt Hill
#
# Bulk Modulus (GPa) = 43.78477 55.40814 49.59645
# Shear Modulus (GPa) = 25.77265 33.83024 29.80144
#
# Velocity S-wave (km/s) = 3.42895 3.92856 3.68723
# Velocity P-wave (km/s) = 5.97091 6.77169 6.38387
#
# Compressibility (1/GPa) = 0.02283899
#
# Stress axis : x y z
#
# Youngs Moduli (GPa) = 86.32742 78.94464 59.43933
#
# Poissons Ratio (x) = 0.18759 0.18215
# Poissons Ratio (y) = 0.20514 0.21857
# Poissons Ratio (z) = 0.26454 0.29030
#
# Static dielectric constant tensor:
#      x y z
#    x 4.032900 0.259440 0.011340 
#    y 0.259440 4.224360 0.097350 
#    z 0.011340 0.097350 4.152350 
# 
# 
# High freq. dielectric constant tensor:
#      x y z
#    x 1.865040 0.018630 0.001540 
#    y 0.018630 1.868770 -0.001040 
#    z 0.001540 -0.001040 1.864370 
# 
# From -- ./inp_files/428873.got.cif
#   From: 2010.06.25/outbox.cif.g09.slc.cpg/sg2_215_cif.got.tgz:428873.got - 2010.06.27 13:26:56.
