data_PCOD8007272
_publ_section_title
;
Structure prediction by ZEFSAII (Michael W. Deem and Ramdas Pophale) SiO2 
 PCOD8007272
Probable space group: P -1
;
_chemical_formula_sum "Si O2"
_cell_formula_units_Z 16
_cell_length_a 9.398048
_cell_length_b 19.437154
_cell_length_c 12.478870
_cell_angle_alpha 26.558068
_cell_angle_beta 126.140303
_cell_angle_gamma 135.371042
_cell_volume 707.996788
_symmetry_space_group_name_H-M "P -1"
_symmetry_group_IT_number 2
_symmetry_cell_setting 'triclinic'
loop_
_space_group_symop_operation_xyz
x,y,z
-x,-y,-z
loop_
_atom_site_type_symbol
_atom_site_label
_atom_site_fract_x
_atom_site_fract_y
_atom_site_fract_z
Si Si1 0.897444 0.185160 0.529013
Si Si2 0.896641 0.803178 0.605719
Si Si3 0.408415 0.787486 0.757368
Si Si4 0.836593 0.121084 0.178526
Si Si5 0.091303 0.376912 0.745856
Si Si6 0.480273 0.154127 0.053843
Si Si7 0.853795 0.788055 0.217136
Si Si8 0.515591 0.527998 0.093543
O O1 0.807141 0.305544 0.274122
O O2 0.969756 0.116948 0.553747
O O3 0.083088 0.299533 0.535819
O O4 0.715155 0.017939 0.742500
O O5 0.704311 0.609310 0.761736
O O6 0.028645 0.786760 0.783751
O O7 0.802195 0.923895 0.430858
O O8 0.373035 0.724489 0.953096
O O9 0.500000 0.000000 0.500000
O O10 0.560115 0.729737 0.852027
O O11 0.613423 0.103557 0.107340
O O12 0.939441 0.228247 0.967699
O O13 0.116826 0.281444 0.786330
O O14 0.308267 0.494492 0.739777
O O15 0.000000 0.500000 0.500000
O O16 0.382752 0.260561 0.803088
O O17 0.000000 0.000000 0.000000
O O18 0.500000 0.500000 0.000000
#
# Coordination Sequence:
#
# PCOD8007272 Si02
#       8
#     2   2   2   2   2   2   2   2
#     4  10  22  39  68 103 136 180 239 287 357 415
#     4  11  25  42  73 112 143 185 244 307 357 434
#     4  10  22  39  72  99 139 189 238 286 357 424
#     4  11  24  43  75 107 143 189 246 294 370 429
#     4  12  28  50  71 105 151 194 236 300 368 431
#     4  10  20  40  70 102 134 187 237 295 345 431
#     4  10  22  43  70  94 138 192 235 282 350 429
#     4  12  27  45  71 108 150 186 242 304 365 421
#
# _framework density 22.598970999999999
#
# number of rings (size 3 to 8) (size 9 to 14) (size 15 to 20)
#    0.000    1.250    3.750    1.500    7.000    2.500 
#    2.250    5.000    0.000    0.000    0.000    0.000 
#    0.000    0.000    0.000    0.000    0.000    0.000 
#
# Total GULP energy -198254.369981 kJ/mol
# GULP energy per Si atom -12390.898124 kJ/mol
# Density = 2.254753 g / cm^3
# Si number density = 22.598971 Si / 1000 Ang^3
#
#
#
# Elastic Constant Matrix: (Units=GPa)
#
#
# Indices 1 2 3 4 5 6 
#
# 1 159.9045 57.4731 43.1413 15.7715 22.5812 6.8981
# 2 57.4731 140.0061 50.2102 43.1121 18.1607 6.3685
# 3 43.1413 50.2102 73.2245 19.0861 18.5089 12.9224
# 4 15.7715 43.1121 19.0861 49.3485 7.2089 10.3481
# 5 22.5812 18.1607 18.5089 7.2089 38.3361 8.9256
# 6 6.8981 6.3685 12.9224 10.3481 8.9256 41.8307
#
#
#
# Elastic Compliance Matrix: (Units=1/GPa)
#
#
# Indices 1 2 3 4 5 6 
#
# 1 0.008092 -0.002222 -0.002846 0.000778 -0.002540 0.000233
# 2 -0.002222 0.012631 -0.005256 -0.008645 -0.001079 0.002436
# 3 -0.002846 -0.005256 0.021175 -0.001143 -0.004926 -0.003938
# 4 0.000778 -0.008645 -0.001143 0.029199 0.000022 -0.005687
# 5 -0.002540 -0.001079 -0.004926 0.000022 0.031545 -0.004632
# 6 0.000233 0.002436 -0.003938 -0.005687 -0.004632 0.027108
#
#
# Mechanical properties :
#
#
# Convention : Reuss Voigt Hill
#
# Bulk Modulus (GPa) = 47.05590 74.97603 61.01597
# Shear Modulus (GPa) = 31.75000 40.72377 36.23688
#
# Velocity S-wave (km/s) = 3.75231 4.24962 4.00869
# Velocity P-wave (km/s) = 6.29606 7.57152 6.96306
#
# Compressibility (1/GPa) = 0.02125132
#
# Stress axis : x y z
#
# Youngs Moduli (GPa) = 123.57790 79.17281 47.22524
#
# Poissons Ratio (x) = 0.17591 0.13439
# Poissons Ratio (y) = 0.27457 0.24820
# Poissons Ratio (z) = 0.35166 0.41611
#
# Static dielectric constant tensor:
#      x y z
#    x 4.201790 0.325550 0.364500 
#    y 0.325550 4.769270 0.687170 
#    z 0.364500 0.687170 4.246140 
# 
# 
# High freq. dielectric constant tensor:
#      x y z
#    x 1.899280 0.003950 0.017590 
#    y 0.003950 1.900180 0.028690 
#    z 0.017590 0.028690 1.871700 
# 
# From -- ./inp_files/402704.got.cif
#   From: 2010.06.25/outbox.cif.g09.slc.cpg/sg2_202_cif.got.tgz:402704.got - 2010.06.27 13:26:56.
