data_PCOD8007106
_publ_section_title
;
Structure prediction by ZEFSAII (Michael W. Deem and Ramdas Pophale) SiO2 
 PCOD8007106
Probable space group: P -1
;
_chemical_formula_sum "Si O2"
_cell_formula_units_Z 16
_cell_length_a 11.509319
_cell_length_b 14.821875
_cell_length_c 11.687951
_cell_angle_alpha 148.703866
_cell_angle_beta 131.175833
_cell_angle_gamma 55.698494
_cell_volume 779.580252
_symmetry_space_group_name_H-M "P -1"
_symmetry_group_IT_number 2
_symmetry_cell_setting 'triclinic'
loop_
_space_group_symop_operation_xyz
x,y,z
-x,-y,-z
loop_
_atom_site_type_symbol
_atom_site_label
_atom_site_fract_x
_atom_site_fract_y
_atom_site_fract_z
Si Si1 0.354173 0.301577 0.977127
Si Si2 0.796203 0.430505 0.983644
Si Si3 0.767778 0.062454 0.474090
Si Si4 0.042648 0.849221 0.778784
Si Si5 0.846968 0.550207 0.386174
Si Si6 0.698045 0.408541 0.332705
Si Si7 0.144811 0.389160 0.147780
Si Si8 0.091116 0.008654 0.739058
O O1 0.525139 0.350868 0.180352
O O2 0.234435 0.370000 0.067307
O O3 0.307256 0.404514 0.943004
O O4 0.351359 0.091488 0.735588
O O5 0.801267 0.418446 0.111848
O O6 0.971350 0.452307 0.074447
O O7 0.717850 0.251381 0.693317
O O8 0.926004 0.999246 0.563374
O O9 0.785751 0.075335 0.361334
O O10 0.195427 0.750255 0.816285
O O11 0.886966 0.732608 0.548838
O O12 0.087226 0.906149 0.742558
O O13 0.000000 0.000000 0.000000
O O14 0.708408 0.552850 0.393178
O O15 0.000000 0.500000 0.500000
O O16 0.768828 0.474230 0.568491
O O17 0.138490 0.206032 0.011485
#
# Coordination Sequence:
#
# PCOD8007106 Si02
#       8
#     2   2   2   2   2   2   2   2
#     4  11  24  41  61  98 134 165 198 258 327 373
#     4  11  21  39  70  90 121 172 216 250 310 375
#     4   9  21  37  61  93 129 156 204 264 305 371
#     4  11  22  36  65  92 114 167 217 257 307 366
#     4  10  21  40  62  89 120 158 215 262 299 368
#     4  11  24  41  60  92 132 161 208 260 318 367
#     4  10  20  40  67  92 124 166 210 259 301 378
#     4   9  19  37  61  94 120 155 215 264 300 358
#
# _framework density 20.523866000000002
#
# number of rings (size 3 to 8) (size 9 to 14) (size 15 to 20)
#    0.000    1.750    2.500    3.000    7.000    0.500 
#    4.500    1.875    0.000    0.000    0.000    0.000 
#    0.000    0.000    0.000    0.000    0.000    0.000 
#
# Total GULP energy -198318.060832 kJ/mol
# GULP energy per Si atom -12394.878802 kJ/mol
# Density = 2.047715 g / cm^3
# Si number density = 20.523866 Si / 1000 Ang^3
#
#
#
# Elastic Constant Matrix: (Units=GPa)
#
#
# Indices 1 2 3 4 5 6 
#
# 1 40.9672 22.7346 30.2365 -3.7183 6.9393 10.2050
# 2 22.7346 75.7780 38.8614 2.5861 1.7926 18.7770
# 3 30.2365 38.8614 135.0968 2.5148 1.8910 2.6754
# 4 -3.7183 2.5861 2.5148 22.2223 3.5513 3.4192
# 5 6.9393 1.7926 1.8910 3.5513 38.3305 -4.2186
# 6 10.2050 18.7770 2.6754 3.4192 -4.2186 30.3768
#
#
#
# Elastic Compliance Matrix: (Units=1/GPa)
#
#
# Indices 1 2 3 4 5 6 
#
# 1 0.037440 -0.005170 -0.006753 0.010694 -0.008422 -0.011161
# 2 -0.005170 0.019401 -0.004199 -0.001007 -0.000758 -0.009878
# 3 -0.006753 -0.004199 0.010059 -0.002742 0.001674 0.004519
# 4 0.010694 -0.001007 -0.002742 0.049841 -0.007402 -0.009367
# 5 -0.008422 -0.000758 0.001674 -0.007402 0.029136 0.008030
# 6 -0.011161 -0.009878 0.004519 -0.009367 0.008030 0.044546
#
#
# Mechanical properties :
#
#
# Convention : Reuss Voigt Hill
#
# Bulk Modulus (GPa) = 28.85362 48.38967 38.62164
# Shear Modulus (GPa) = 21.34766 28.85321 25.10043
#
# Velocity S-wave (km/s) = 3.22862 3.75352 3.50092
# Velocity P-wave (km/s) = 5.29034 6.51258 5.93302
#
# Compressibility (1/GPa) = 0.03465769
#
# Stress axis : x y z
#
# Youngs Moduli (GPa) = 26.70945 51.54496 99.41029
#
# Poissons Ratio (x) = 0.26648 0.67128
# Poissons Ratio (y) = 0.13808 0.41739
# Poissons Ratio (z) = 0.18036 0.21642
#
# Static dielectric constant tensor:
#      x y z
#    x 3.890270 0.390250 0.029080 
#    y 0.390250 3.600010 0.190080 
#    z 0.029080 0.190080 4.011790 
# 
# 
# High freq. dielectric constant tensor:
#      x y z
#    x 1.788850 0.027230 -0.002230 
#    y 0.027230 1.783750 0.005710 
#    z -0.002230 0.005710 1.811380 
# 
# From -- ./inp_files/272745.got.cif
#   From: 2010.06.25/outbox.cif.g09.slc.cpg/sg2_137_cif.got.tgz:272745.got - 2010.06.27 13:26:56.
