data_PCOD8007670
_publ_section_title
;
Structure prediction by ZEFSAII (Michael W. Deem and Ramdas Pophale) SiO2 
 PCOD8007670
Probable space group: P -1
;
_chemical_formula_sum "Si O2"
_cell_formula_units_Z 14
_cell_length_a 11.329006
_cell_length_b 20.723798
_cell_length_c 9.804626
_cell_angle_alpha 143.265361
_cell_angle_beta 118.120475
_cell_angle_gamma 34.452852
_cell_volume 645.269455
_symmetry_space_group_name_H-M "P -1"
_symmetry_group_IT_number 2
_symmetry_cell_setting 'triclinic'
loop_
_space_group_symop_operation_xyz
x,y,z
-x,-y,-z
loop_
_atom_site_type_symbol
_atom_site_label
_atom_site_fract_x
_atom_site_fract_y
_atom_site_fract_z
Si Si1 0.801600 0.539918 0.603350
Si Si2 0.806670 0.540507 0.918226
Si Si3 0.376769 0.836289 0.407089
Si Si4 0.627928 0.799171 0.709345
Si Si5 0.788279 0.297282 0.171904
Si Si6 0.788709 0.321759 0.513866
Si Si7 0.910043 0.099134 0.453437
O O1 0.619109 0.732091 0.728231
O O2 0.798233 0.417858 0.346452
O O3 0.084828 0.390288 0.501671
O O4 0.706369 0.623992 0.849267
O O5 0.576222 0.693315 0.154291
O O6 0.936318 0.333098 0.646709
O O7 0.000000 0.500000 0.000000
O O8 0.460413 0.867934 0.613100
O O9 0.331101 0.755652 0.332251
O O10 0.107313 0.045566 0.543063
O O11 0.500000 0.000000 0.000000
O O12 0.881606 0.214450 0.237399
O O13 0.505788 0.446029 0.256754
O O14 0.965767 0.104817 0.845788
O O15 0.830405 0.200522 0.439053
#
# Coordination Sequence:
#
# PCOD8007670 Si02
#       7
#     2   2   2   2   2   2   2
#     4  10  23  41  68  93 127 175 214 263 324 382
#     4  11  22  45  66  93 135 171 217 264 321 391
#     4  11  24  43  64  95 134 168 214 271 323 378
#     4  11  23  44  65  95 128 172 218 263 320 386
#     4  10  20  41  66  97 131 165 217 271 318 385
#     4  10  22  39  69  96 127 177 213 264 328 378
#     4  11  23  42  64  99 132 166 220 268 322 381
#
# _framework density 21.696362000000001
#
# number of rings (size 3 to 8) (size 9 to 14) (size 15 to 20)
#    0.000    1.429    2.857    2.143    0.000    1.714 
#   12.857    1.429    0.000    0.000    0.000    0.000 
#    0.000    0.000    0.000    0.000    0.000    0.000 
#
# Total GULP energy -173497.377813 kJ/mol
# GULP energy per Si atom -12392.669844 kJ/mol
# Density = 2.164698 g / cm^3
# Si number density = 21.696362 Si / 1000 Ang^3
#
#
#
# Elastic Constant Matrix: (Units=GPa)
#
#
# Indices 1 2 3 4 5 6 
#
# 1 126.6791 58.9470 56.0668 -12.8024 0.5373 12.7450
# 2 58.9470 99.8866 60.2758 -25.2667 7.2725 10.4684
# 3 56.0668 60.2758 91.1419 -19.5634 -4.0884 8.8209
# 4 -12.8024 -25.2667 -19.5634 27.0473 -0.8210 4.3946
# 5 0.5373 7.2725 -4.0884 -0.8210 34.7945 -3.2250
# 6 12.7450 10.4684 8.8209 4.3946 -3.2250 54.8979
#
#
#
# Elastic Compliance Matrix: (Units=1/GPa)
#
#
# Indices 1 2 3 4 5 6 
#
# 1 0.012023 -0.004703 -0.004580 -0.001848 0.000122 -0.001003
# 2 -0.004703 0.022018 -0.009031 0.012121 -0.005578 -0.002954
# 3 -0.004580 -0.009031 0.021086 0.004902 0.004484 -0.000732
# 4 -0.001848 0.012121 0.004902 0.052049 -0.001342 -0.006915
# 5 0.000122 -0.005578 0.004484 -0.001342 0.030605 0.002220
# 6 -0.001003 -0.002954 -0.000732 -0.006915 0.002220 0.019813
#
#
# Mechanical properties :
#
#
# Convention : Reuss Voigt Hill
#
# Bulk Modulus (GPa) = 54.05573 74.25411 64.15492
# Shear Modulus (GPa) = 24.95140 32.84248 28.89694
#
# Velocity S-wave (km/s) = 3.39488 3.89489 3.65345
# Velocity P-wave (km/s) = 6.35104 7.38413 6.88699
#
# Compressibility (1/GPa) = 0.01849943
#
# Stress axis : x y z
#
# Youngs Moduli (GPa) = 83.17401 45.41707 47.42417
#
# Poissons Ratio (x) = 0.21358 0.21721
# Poissons Ratio (y) = 0.39114 0.42830
# Poissons Ratio (z) = 0.38094 0.41017
#
# Static dielectric constant tensor:
#      x y z
#    x 4.290880 -0.137820 -0.130860 
#    y -0.137820 4.198720 -0.366390 
#    z -0.130860 -0.366390 3.746940 
# 
# 
# High freq. dielectric constant tensor:
#      x y z
#    x 1.871410 -0.005840 -0.011360 
#    y -0.005840 1.854220 -0.031450 
#    z -0.011360 -0.031450 1.837700 
# 
# From -- ./inp_files/72046.got.cif
#   From: 2010.06.25/outbox.cif.g09.slc.cpg/sg2_37_cif.got.tgz:72046.got - 2010.06.27 13:26:56.
