data_PCOD8007821
_publ_section_title
;
Structure prediction by ZEFSAII (Michael W. Deem and Ramdas Pophale) SiO2 
 PCOD8007821
Probable space group: P -1
;
_chemical_formula_sum "Si O2"
_cell_formula_units_Z 16
_cell_length_a 14.095780
_cell_length_b 21.534099
_cell_length_c 8.883987
_cell_angle_alpha 45.439253
_cell_angle_beta 27.405066
_cell_angle_gamma 31.634714
_cell_volume 634.399793
_symmetry_space_group_name_H-M "P -1"
_symmetry_group_IT_number 2
_symmetry_cell_setting 'triclinic'
loop_
_space_group_symop_operation_xyz
x,y,z
-x,-y,-z
loop_
_atom_site_type_symbol
_atom_site_label
_atom_site_fract_x
_atom_site_fract_y
_atom_site_fract_z
Si Si1 0.147792 0.823104 0.191170
Si Si2 0.277440 0.974246 0.126253
Si Si3 0.167700 0.251484 0.134474
Si Si4 0.273099 0.612298 0.961336
Si Si5 0.894460 0.448915 0.417039
Si Si6 0.750346 0.830012 0.155474
Si Si7 0.266146 0.435998 0.129064
Si Si8 0.219492 0.991217 0.845337
O O1 0.996881 0.791308 0.548937
O O2 0.487023 0.702518 0.925918
O O3 0.076866 0.938049 0.171293
O O4 0.011991 0.871804 0.130488
O O5 0.537423 0.836718 0.039780
O O6 0.325303 0.994783 0.851206
O O7 0.000000 0.000000 0.500000
O O8 0.272097 0.067355 0.064335
O O9 0.989611 0.383069 0.233266
O O10 0.229337 0.247142 0.877063
O O11 0.566077 0.581044 0.635138
O O12 0.131685 0.619402 0.303836
O O13 0.360021 0.508718 0.896861
O O14 0.042741 0.742864 0.987930
O O15 0.136484 0.449353 0.123498
O O16 0.473418 0.892409 0.540130
O O17 0.000000 0.500000 0.500000
#
# Coordination Sequence:
#
# PCOD8007821 Si02
#       8
#     2   2   2   2   2   2   2   2
#     4  11  23  41  73  99 140 187 227 290 351 411
#     4  12  27  46  68 101 142 182 234 288 358 419
#     4  12  25  45  68  97 147 183 228 291 364 407
#     4  10  22  42  70 100 135 180 239 284 347 407
#     4  10  22  42  70  99 136 185 231 287 345 420
#     4  12  26  44  69 103 141 181 233 295 345 422
#     4  10  20  41  69 102 138 179 236 289 348 412
#     4  11  25  43  72 103 135 182 243 283 345 430
#
# _framework density 25.220687999999999
#
# number of rings (size 3 to 8) (size 9 to 14) (size 15 to 20)
#    0.000    1.000    2.500    4.500    5.250    0.500 
#    2.250    0.625    0.000    0.000    0.000    0.000 
#    0.000    0.000    0.000    0.000    0.000    0.000 
#
# Total GULP energy -198319.649999 kJ/mol
# GULP energy per Si atom -12394.978125 kJ/mol
# Density = 2.516328 g / cm^3
# Si number density = 25.220688 Si / 1000 Ang^3
#
#
#
# Elastic Constant Matrix: (Units=GPa)
#
#
# Indices 1 2 3 4 5 6 
#
# 1 125.6829 6.7184 43.8240 22.7286 7.4693 -14.9533
# 2 6.7184 56.8324 15.7740 24.4002 -9.6116 -17.8376
# 3 43.8240 15.7740 87.6059 26.5997 0.3253 -11.4500
# 4 22.7286 24.4002 26.5997 34.3136 -7.1767 -14.9553
# 5 7.4693 -9.6116 0.3253 -7.1767 43.0588 13.0858
# 6 -14.9533 -17.8376 -11.4500 -14.9553 13.0858 47.5191
#
#
#
# Elastic Compliance Matrix: (Units=1/GPa)
#
#
# Indices 1 2 3 4 5 6 
#
# 1 0.010564 0.002339 -0.003773 -0.005283 -0.002901 0.002429
# 2 0.002339 0.026895 0.000243 -0.018569 0.001056 0.004755
# 3 -0.003773 0.000243 0.016518 -0.010807 -0.001157 -0.000198
# 4 -0.005283 -0.018569 -0.010807 0.057661 0.004762 0.005599
# 5 -0.002901 0.001056 -0.001157 0.004762 0.026794 -0.006675
# 6 0.002429 0.004755 -0.000198 0.005599 -0.006675 0.027146
#
#
# Mechanical properties :
#
#
# Convention : Reuss Voigt Hill
#
# Bulk Modulus (GPa) = 19.38190 44.75045 32.06617
# Shear Modulus (GPa) = 27.00388 38.56529 32.78459
#
# Velocity S-wave (km/s) = 3.27571 3.91463 3.60934
# Velocity P-wave (km/s) = 4.69134 6.18179 5.48740
#
# Compressibility (1/GPa) = 0.05159452
#
# Stress axis : x y z
#
# Youngs Moduli (GPa) = 94.66096 37.18143 60.53973
#
# Poissons Ratio (x) = -0.08695 0.22843
# Poissons Ratio (y) = -0.22137 -0.01473
# Poissons Ratio (z) = 0.35717 -0.00904
#
# Static dielectric constant tensor:
#      x y z
#    x 5.876840 0.310600 -0.494500 
#    y 0.310600 3.315200 -0.278540 
#    z -0.494500 -0.278540 4.322970 
# 
# 
# High freq. dielectric constant tensor:
#      x y z
#    x 2.018170 -0.002640 -0.013650 
#    y -0.002640 1.993550 0.016030 
#    z -0.013650 0.016030 1.995890 
# 
# From -- ./inp_files/320259.got.cif
#   From: 2010.06.25/outbox.cif.g09.slc.cpg/sg2_161_cif.got.tgz:320259.got - 2010.06.27 13:26:56.
