data_PCOD8007075
_publ_section_title
;
Structure prediction by ZEFSAII (Michael W. Deem and Ramdas Pophale) SiO2 
 PCOD8007075
Probable space group: P -1
;
_chemical_formula_sum "Si O2"
_cell_formula_units_Z 14
_cell_length_a 9.125235
_cell_length_b 8.472057
_cell_length_c 14.509899
_cell_angle_alpha 58.653897
_cell_angle_beta 135.554025
_cell_angle_gamma 104.548256
_cell_volume 657.155517
_symmetry_space_group_name_H-M "P -1"
_symmetry_group_IT_number 2
_symmetry_cell_setting 'triclinic'
loop_
_space_group_symop_operation_xyz
x,y,z
-x,-y,-z
loop_
_atom_site_type_symbol
_atom_site_label
_atom_site_fract_x
_atom_site_fract_y
_atom_site_fract_z
Si Si1 0.373100 0.717256 0.668103
Si Si2 0.513602 0.916144 0.430476
Si Si3 0.136675 0.761635 0.354998
Si Si4 0.720014 0.068886 0.091119
Si Si5 0.144370 0.465567 0.297716
Si Si6 0.790638 0.421831 0.902074
Si Si7 0.718457 0.354425 0.155997
O O1 0.239741 0.713625 0.516211
O O2 0.588234 0.562526 0.809395
O O3 0.232277 0.677916 0.703590
O O4 0.435072 0.918122 0.660587
O O5 0.281921 0.868067 0.322797
O O6 0.698089 0.733671 0.558794
O O7 0.500000 0.000000 0.500000
O O8 0.128768 0.569437 0.356997
O O9 0.902039 0.882595 0.224852
O O10 0.710416 0.159058 0.160729
O O11 0.776628 0.214961 0.995968
O O12 0.500000 0.000000 0.000000
O O13 0.224710 0.582427 0.215089
O O14 0.910871 0.435211 0.172892
O O15 0.000000 0.500000 0.000000
O O16 0.500000 0.500000 0.000000
#
# Coordination Sequence:
#
# PCOD8007075 Si02
#       7
#     2   2   2   2   2   2   2
#     4  11  24  43  73 100 138 186 235 288 354 413
#     4  10  20  40  67 101 131 175 234 289 338 405
#     4  11  25  43  68 103 142 178 234 295 345 414
#     4  12  27  46  70 104 147 181 234 294 351 419
#     4  12  24  42  73 101 139 183 236 290 346 419
#     4  12  23  44  75 100 136 191 232 282 353 417
#     4  12  24  45  68 100 140 187 232 285 355 419
#
# _framework density 21.303937000000001
#
# number of rings (size 3 to 8) (size 9 to 14) (size 15 to 20)
#    0.000    0.571    5.714    3.857    0.000    4.571 
#    0.000    0.000    0.000    0.000    0.000    0.000 
#    0.000    0.000    0.000    0.000    0.000    0.000 
#
# Total GULP energy -173574.609568 kJ/mol
# GULP energy per Si atom -12398.186398 kJ/mol
# Density = 2.125545 g / cm^3
# Si number density = 21.303937 Si / 1000 Ang^3
#
#
#
# Elastic Constant Matrix: (Units=GPa)
#
#
# Indices 1 2 3 4 5 6 
#
# 1 118.1301 46.4952 37.5969 -0.7186 2.4238 -8.5225
# 2 46.4952 133.3537 39.6782 0.7246 12.8945 -18.4985
# 3 37.5969 39.6782 81.0271 -6.7570 23.0105 -13.7609
# 4 -0.7186 0.7246 -6.7570 37.4503 -2.2183 11.0230
# 5 2.4238 12.8945 23.0105 -2.2183 53.0762 -0.1035
# 6 -8.5225 -18.4985 -13.7609 11.0230 -0.1035 44.8872
#
#
#
# Elastic Compliance Matrix: (Units=1/GPa)
#
#
# Indices 1 2 3 4 5 6 
#
# 1 0.010861 -0.002729 -0.004365 -0.000311 0.002045 -0.000319
# 2 -0.002729 0.009846 -0.002866 -0.001732 -0.001091 0.003084
# 3 -0.004365 -0.002866 0.018463 0.001959 -0.007021 0.003153
# 4 -0.000311 -0.001732 0.001959 0.029298 0.000796 -0.007365
# 5 0.002045 -0.001091 -0.007021 0.000796 0.022085 -0.002358
# 6 -0.000319 0.003084 0.003153 -0.007365 -0.002358 0.026258
#
#
# Mechanical properties :
#
#
# Convention : Reuss Voigt Hill
#
# Bulk Modulus (GPa) = 51.94471 64.45016 58.19744
# Shear Modulus (GPa) = 34.92913 40.99878 37.96395
#
# Velocity S-wave (km/s) = 4.05354 4.39164 4.22597
# Velocity P-wave (km/s) = 6.80764 7.48556 7.15463
#
# Compressibility (1/GPa) = 0.01925124
#
# Stress axis : x y z
#
# Youngs Moduli (GPa) = 92.06875 101.56714 54.16278
#
# Poissons Ratio (x) = 0.27715 0.23640
# Poissons Ratio (y) = 0.25123 0.15524
# Poissons Ratio (z) = 0.40184 0.29110
#
# Static dielectric constant tensor:
#      x y z
#    x 4.406940 0.510860 -0.029230 
#    y 0.510860 5.511570 0.082990 
#    z -0.029230 0.082990 3.936110 
# 
# 
# High freq. dielectric constant tensor:
#      x y z
#    x 1.851090 -0.003180 0.011190 
#    y -0.003180 1.838850 -0.003840 
#    z 0.011190 -0.003840 1.835010 
# 
# From -- ./inp_files/156672.got.cif
#   From: 2010.06.25/outbox.cif.g09.slc.cpg/sg2_79_cif.got.tgz:156672.got - 2010.06.27 13:26:56.
