data_PCOD8007718
_publ_section_title
;
Structure prediction by ZEFSAII (Michael W. Deem and Ramdas Pophale) SiO2 
 PCOD8007718
Probable space group: P -1
;
_chemical_formula_sum "Si O2"
_cell_formula_units_Z 12
_cell_length_a 12.979945
_cell_length_b 9.543977
_cell_length_c 9.281167
_cell_angle_alpha 112.646809
_cell_angle_beta 143.688075
_cell_angle_gamma 84.502391
_cell_volume 577.959105
_symmetry_space_group_name_H-M "P -1"
_symmetry_group_IT_number 2
_symmetry_cell_setting 'triclinic'
loop_
_space_group_symop_operation_xyz
x,y,z
-x,-y,-z
loop_
_atom_site_type_symbol
_atom_site_label
_atom_site_fract_x
_atom_site_fract_y
_atom_site_fract_z
Si Si1 0.353727 0.808485 0.641065
Si Si2 0.369570 0.346453 0.699107
Si Si3 0.597811 0.149423 0.964823
Si Si4 0.035168 0.178621 0.761755
Si Si5 0.000366 0.825083 0.605341
Si Si6 0.681353 0.535268 0.624154
O O1 0.424151 0.792245 0.874694
O O2 0.286041 0.633639 0.416909
O O3 0.187183 0.873290 0.491749
O O4 0.518746 0.949250 0.792379
O O5 0.158724 0.270439 0.496511
O O6 0.347149 0.399240 0.535349
O O7 0.500000 0.500000 0.000000
O O8 0.470600 0.216418 0.749662
O O9 0.817112 0.223095 0.189202
O O10 0.092282 0.224285 0.677341
O O11 0.140276 0.332556 0.042840
O O12 0.078068 0.021768 0.795016
O O13 0.500000 0.500000 0.500000
#
# Coordination Sequence:
#
# PCOD8007718 Si02
#       6
#     2   2   2   2   2   2
#     4  10  20  41  67  93 128 169 213 257 317 380
#     4  12  24  43  65  95 131 164 216 267 311 376
#     4  10  21  41  70  95 122 170 217 255 313 384
#     4  10  21  41  67  95 127 169 213 259 318 380
#     4  10  22  42  70  93 125 170 214 259 317 381
#     4  12  25  41  62  95 133 168 212 265 321 372
#
# _framework density 20.762713000000002
#
# number of rings (size 3 to 8) (size 9 to 14) (size 15 to 20)
#    0.000    1.333    3.333    2.500    2.333    1.333 
#    6.000    1.667    0.000    0.000    0.000    0.000 
#    0.000    0.000    0.000    0.000    0.000    0.000 
#
# Total GULP energy -148829.368545 kJ/mol
# GULP energy per Si atom -12402.447379 kJ/mol
# Density = 2.071546 g / cm^3
# Si number density = 20.762713 Si / 1000 Ang^3
#
#
#
# Elastic Constant Matrix: (Units=GPa)
#
#
# Indices 1 2 3 4 5 6 
#
# 1 116.5633 55.7567 42.2018 -0.9676 16.1105 13.4193
# 2 55.7567 96.0777 38.7199 6.2289 0.4185 -4.7676
# 3 42.2018 38.7199 100.9102 17.7716 -5.6676 5.1232
# 4 -0.9676 6.2289 17.7716 30.0048 -13.2974 -1.3738
# 5 16.1105 0.4185 -5.6676 -13.2974 44.9683 6.3872
# 6 13.4193 -4.7676 5.1232 -1.3738 6.3872 34.7367
#
#
#
# Elastic Compliance Matrix: (Units=1/GPa)
#
#
# Indices 1 2 3 4 5 6 
#
# 1 0.014653 -0.007424 -0.003606 0.002005 -0.004292 -0.005279
# 2 -0.007424 0.016331 -0.003193 -0.001033 0.001040 0.005348
# 3 -0.003606 -0.003193 0.014086 -0.007361 0.001151 -0.001626
# 4 0.002005 -0.001033 -0.007361 0.042862 0.011062 -0.000170
# 5 -0.004292 0.001040 0.001151 0.011062 0.027609 -0.003008
# 6 -0.005279 0.005348 -0.001626 -0.000170 -0.003008 0.032348
#
#
# Mechanical properties :
#
#
# Convention : Reuss Voigt Hill
#
# Bulk Modulus (GPa) = 60.14742 65.21201 62.67971
# Shear Modulus (GPa) = 27.49121 33.73349 30.61235
#
# Velocity S-wave (km/s) = 3.64272 4.03515 3.84395
# Velocity P-wave (km/s) = 6.83552 7.29289 7.06791
#
# Compressibility (1/GPa) = 0.01662582
#
# Stress axis : x y z
#
# Youngs Moduli (GPa) = 68.24396 61.23294 70.99020
#
# Poissons Ratio (x) = 0.45459 0.25598
# Poissons Ratio (y) = 0.50664 0.22666
# Poissons Ratio (z) = 0.24607 0.19551
#
# Static dielectric constant tensor:
#      x y z
#    x 3.784000 -0.055610 0.115700 
#    y -0.055610 3.746570 -0.039610 
#    z 0.115700 -0.039610 3.382100 
# 
# 
# High freq. dielectric constant tensor:
#      x y z
#    x 1.808850 -0.011200 0.014920 
#    y -0.011200 1.813580 0.005760 
#    z 0.014920 0.005760 1.813990 
# 
# From -- ./inp_files/145619.got.cif
#   From: 2010.06.25/outbox.cif.g09.slc.cpg/sg2_73_cif.got.tgz:145619.got - 2010.06.27 13:26:56.
