data_PCOD8007611
_publ_section_title
;
Structure prediction by ZEFSAII (Michael W. Deem and Ramdas Pophale) SiO2 
 PCOD8007611
Probable space group: P -1
;
_chemical_formula_sum "Si O2"
_cell_formula_units_Z 16
_cell_length_a 14.956958
_cell_length_b 8.262795
_cell_length_c 9.105895
_cell_angle_alpha 117.145215
_cell_angle_beta 58.703077
_cell_angle_gamma 80.755522
_cell_volume 729.344066
_symmetry_space_group_name_H-M "P -1"
_symmetry_group_IT_number 2
_symmetry_cell_setting 'triclinic'
loop_
_space_group_symop_operation_xyz
x,y,z
-x,-y,-z
loop_
_atom_site_type_symbol
_atom_site_label
_atom_site_fract_x
_atom_site_fract_y
_atom_site_fract_z
Si Si1 0.369109 0.176246 0.528140
Si Si2 0.436900 0.824836 0.107135
Si Si3 0.725053 0.959733 0.924402
Si Si4 0.868107 0.460907 0.533363
Si Si5 0.339100 0.626610 0.315843
Si Si6 0.098435 0.410319 0.747158
Si Si7 0.943088 0.863877 0.538108
Si Si8 0.598815 0.154451 0.404846
O O1 0.231685 0.352483 0.668909
O O2 0.453918 0.275345 0.533343
O O3 0.444545 0.003488 0.266002
O O4 0.360302 0.059500 0.629427
O O5 0.339598 0.776672 0.248772
O O6 0.397383 0.913673 0.015000
O O7 0.570946 0.617982 0.905926
O O8 0.779382 0.706643 0.758833
O O9 0.824339 0.012941 0.799691
O O10 0.693689 0.060453 0.152321
O O11 0.795140 0.336464 0.537621
O O12 0.928842 0.437185 0.309304
O O13 0.969754 0.346682 0.525823
O O14 0.382890 0.676041 0.451931
O O15 0.099421 0.203116 0.600679
O O16 0.000000 0.500000 0.000000
O O17 0.000000 0.000000 0.500000
#
# Coordination Sequence:
#
# PCOD8007611 Si02
#       8
#     2   2   2   2   2   2   2   2
#     4  10  21  43  63  91 129 173 208 253 325 381
#     4  10  20  41  66  87 133 165 215 250 328 374
#     4  11  22  41  67  95 125 169 213 268 312 387
#     4  11  24  42  68  94 129 170 219 257 322 383
#     4  10  23  41  62  98 130 169 206 269 316 382
#     4  11  25  44  67  95 128 170 214 266 316 385
#     4  11  25  46  67  96 126 172 217 267 318 381
#     4  10  24  38  65  96 132 163 210 268 315 378
#
# _framework density 21.937519999999999
#
# number of rings (size 3 to 8) (size 9 to 14) (size 15 to 20)
#    0.000    1.500    2.500    3.000    7.000    3.500 
#    2.250    1.250    0.000    0.000    0.000    0.000 
#    0.000    0.000    0.000    0.000    0.000    0.000 
#
# Total GULP energy -198348.566214 kJ/mol
# GULP energy per Si atom -12396.785388 kJ/mol
# Density = 2.188759 g / cm^3
# Si number density = 21.937520 Si / 1000 Ang^3
#
#
#
# Elastic Constant Matrix: (Units=GPa)
#
#
# Indices 1 2 3 4 5 6 
#
# 1 101.1499 1.5380 30.3996 -7.2791 -1.5335 -4.5916
# 2 1.5380 51.5210 13.2424 -12.0232 1.0192 -14.4526
# 3 30.3996 13.2424 125.7508 -27.0469 9.1247 -3.5765
# 4 -7.2791 -12.0232 -27.0469 31.5511 -3.4811 -4.2746
# 5 -1.5335 1.0192 9.1247 -3.4811 22.7432 -1.6594
# 6 -4.5916 -14.4526 -3.5765 -4.2746 -1.6594 37.0081
#
#
#
# Elastic Compliance Matrix: (Units=1/GPa)
#
#
# Indices 1 2 3 4 5 6 
#
# 1 0.010838 0.001052 -0.002582 0.001145 0.002021 0.001729
# 2 0.001052 0.025247 -0.000266 0.011351 0.001612 0.011348
# 3 -0.002582 -0.000266 0.010650 0.008287 -0.003062 0.001425
# 4 0.001145 0.011351 0.008287 0.045287 0.003962 0.010784
# 5 0.002021 0.001612 -0.003062 0.003962 0.046095 0.003109
# 6 0.001729 0.011348 0.001425 0.010784 0.003109 0.033190
#
#
# Mechanical properties :
#
#
# Convention : Reuss Voigt Hill
#
# Bulk Modulus (GPa) = 23.17851 40.97576 32.07714
# Shear Modulus (GPa) = 26.41615 33.80994 30.11305
#
# Velocity S-wave (km/s) = 3.47386 3.93006 3.70898
# Velocity P-wave (km/s) = 5.16516 6.26999 5.74420
#
# Compressibility (1/GPa) = 0.04314340
#
# Stress axis : x y z
#
# Youngs Moduli (GPa) = 92.26936 39.60907 93.89992
#
# Poissons Ratio (x) = -0.04169 0.24244
# Poissons Ratio (y) = -0.09711 0.02497
# Poissons Ratio (z) = 0.23823 0.01053
#
# Static dielectric constant tensor:
#      x y z
#    x 4.141120 -0.046150 -0.002120 
#    y -0.046150 3.938560 -0.269030 
#    z -0.002120 -0.269030 3.821530 
# 
# 
# High freq. dielectric constant tensor:
#      x y z
#    x 1.876020 -0.002280 -0.003810 
#    y -0.002280 1.860450 -0.021910 
#    z -0.003810 -0.021910 1.850940 
# 
# From -- ./inp_files/225855.got.cif
#   From: 2010.06.25/outbox.cif.g09.slc.cpg/sg2_113_cif.got.tgz:225855.got - 2010.06.27 13:26:56.
