data_PCOD8007844
_publ_section_title
;
Structure prediction by ZEFSAII (Michael W. Deem and Ramdas Pophale) SiO2 
 PCOD8007844
Probable space group: P -1
;
_chemical_formula_sum "Si O2"
_cell_formula_units_Z 16
_cell_length_a 9.111260
_cell_length_b 14.601124
_cell_length_c 8.971697
_cell_angle_alpha 120.753110
_cell_angle_beta 118.286292
_cell_angle_gamma 101.718965
_cell_volume 730.197514
_symmetry_space_group_name_H-M "P -1"
_symmetry_group_IT_number 2
_symmetry_cell_setting 'triclinic'
loop_
_space_group_symop_operation_xyz
x,y,z
-x,-y,-z
loop_
_atom_site_type_symbol
_atom_site_label
_atom_site_fract_x
_atom_site_fract_y
_atom_site_fract_z
Si Si1 0.565349 0.600588 0.977192
Si Si2 0.651113 0.959698 0.071000
Si Si3 0.338545 0.008505 0.340852
Si Si4 0.015389 0.830128 0.802905
Si Si5 0.859672 0.545698 0.512005
Si Si6 0.671912 0.508987 0.688577
Si Si7 0.227429 0.095954 0.631063
Si Si8 0.405544 0.215153 0.344139
O O1 0.363836 0.558945 0.753193
O O2 0.720519 0.597628 0.933090
O O3 0.500000 0.500000 0.000000
O O4 0.684799 0.750652 0.214593
O O5 0.640705 0.930617 0.217236
O O6 0.877283 0.074861 0.209727
O O7 0.587725 0.821444 0.854277
O O8 0.500000 0.000000 0.000000
O O9 0.220250 0.043211 0.421929
O O10 0.465195 0.131304 0.392381
O O11 0.500000 0.000000 0.500000
O O12 0.171967 0.878675 0.058568
O O13 0.950937 0.687727 0.603544
O O14 0.818875 0.824727 0.753933
O O15 0.859180 0.559374 0.705142
O O16 0.000000 0.500000 0.500000
O O17 0.500000 0.500000 0.500000
O O18 0.584526 0.365466 0.589179
O O19 0.000000 0.000000 0.500000
#
# Coordination Sequence:
#
# PCOD8007844 Si02
#       8
#     2   2   2   2   2   2   2   2
#     4  11  25  45  70 102 136 175 225 279 340 404
#     4  11  24  38  64  97 131 170 221 280 328 393
#     4  11  25  41  61  95 134 172 209 277 338 388
#     4  11  23  43  69  91 130 177 231 267 332 407
#     4  11  26  43  71  98 132 178 231 284 334 401
#     4  10  20  41  69  95 128 172 225 270 332 403
#     4  12  25  40  67  97 136 169 220 272 335 396
#     4  11  20  42  68  91 124 175 225 263 329 409
#
# _framework density 21.911878000000002
#
# number of rings (size 3 to 8) (size 9 to 14) (size 15 to 20)
#    0.000    1.000    2.500    6.750    8.750    0.000 
#    0.000    0.625    0.000    0.000    0.000    0.000 
#    0.000    0.000    0.000    0.000    0.000    0.000 
#
# Total GULP energy -198325.303035 kJ/mol
# GULP energy per Si atom -12395.331440 kJ/mol
# Density = 2.186201 g / cm^3
# Si number density = 21.911878 Si / 1000 Ang^3
#
#
#
# Elastic Constant Matrix: (Units=GPa)
#
#
# Indices 1 2 3 4 5 6 
#
# 1 99.1823 17.8663 7.2154 4.2741 -16.9423 -1.4117
# 2 17.8663 103.5874 26.6824 10.1437 4.9977 -5.6793
# 3 7.2154 26.6824 51.9536 13.3869 -5.0988 -0.4099
# 4 4.2741 10.1437 13.3869 41.9517 -1.2359 -5.0637
# 5 -16.9423 4.9977 -5.0988 -1.2359 30.2273 -5.7632
# 6 -1.4117 -5.6793 -0.4099 -5.0637 -5.7632 38.9361
#
#
#
# Elastic Compliance Matrix: (Units=1/GPa)
#
#
# Indices 1 2 3 4 5 6 
#
# 1 0.011752 -0.002384 0.000417 -0.000408 0.007245 0.001102
# 2 -0.002384 0.011936 -0.006012 -0.000743 -0.004187 0.000875
# 3 0.000417 -0.006012 0.024383 -0.006307 0.004951 -0.000693
# 4 -0.000408 -0.000743 -0.006307 0.026490 0.000550 0.003337
# 5 0.007245 -0.004187 0.004951 0.000550 0.039773 0.005663
# 6 0.001102 0.000875 -0.000693 0.003337 0.005663 0.027116
#
#
# Mechanical properties :
#
#
# Convention : Reuss Voigt Hill
#
# Bulk Modulus (GPa) = 31.13876 39.80574 35.47225
# Shear Modulus (GPa) = 29.74213 35.75364 32.74788
#
# Velocity S-wave (km/s) = 3.68822 4.04381 3.87010
# Velocity P-wave (km/s) = 5.69026 6.32526 6.01615
#
# Compressibility (1/GPa) = 0.03211432
#
# Stress axis : x y z
#
# Youngs Moduli (GPa) = 85.08943 83.78005 41.01188
#
# Poissons Ratio (x) = 0.19969 -0.01709
# Poissons Ratio (y) = 0.20281 0.24655
# Poissons Ratio (z) = -0.03546 0.50367
#
# Static dielectric constant tensor:
#      x y z
#    x 4.023740 -0.170210 0.186970 
#    y -0.170210 3.056650 1.687610 
#    z 0.186970 1.687610 1.568870 
# 
# 
# High freq. dielectric constant tensor:
#      x y z
#    x 1.863740 0.003670 -0.023960 
#    y 0.003670 1.876780 0.003570 
#    z -0.023960 0.003570 1.847720 
# 
# From -- ./inp_files/208848.got.cif
#   From: 2010.06.25/outbox.cif.g09.slc.cpg/sg2_105_cif.got.tgz:208848.got - 2010.06.27 13:26:56.
