data_PCOD8007671
_publ_section_title
;
Structure prediction by ZEFSAII (Michael W. Deem and Ramdas Pophale) SiO2 
 PCOD8007671
Probable space group: P -1
;
_chemical_formula_sum "Si O2"
_cell_formula_units_Z 12
_cell_length_a 15.151009
_cell_length_b 13.572081
_cell_length_c 18.770893
_cell_angle_alpha 156.329915
_cell_angle_beta 23.016921
_cell_angle_gamma 143.205024
_cell_volume 583.628141
_symmetry_space_group_name_H-M "P -1"
_symmetry_group_IT_number 2
_symmetry_cell_setting 'triclinic'
loop_
_space_group_symop_operation_xyz
x,y,z
-x,-y,-z
loop_
_atom_site_type_symbol
_atom_site_label
_atom_site_fract_x
_atom_site_fract_y
_atom_site_fract_z
Si Si1 0.466394 0.017128 0.820136
Si Si2 0.696956 0.783741 0.248691
Si Si3 0.022704 0.975859 0.051029
Si Si4 0.677282 0.955458 0.903126
Si Si5 0.667323 0.493803 0.682568
Si Si6 0.899529 0.798975 0.260887
O O1 0.452885 0.907770 0.837758
O O2 0.727508 0.913089 0.528927
O O3 0.383991 0.328548 0.090616
O O4 0.293835 0.919954 0.831737
O O5 0.586816 0.544489 0.176807
O O6 0.760718 0.861236 0.331113
O O7 0.500000 0.000000 0.500000
O O8 0.926655 0.744831 0.001314
O O9 0.868898 0.234531 0.375175
O O10 0.000000 0.000000 0.000000
O O11 0.896463 0.061629 0.793753
O O12 0.500000 0.000000 0.000000
O O13 0.756155 0.649681 0.656647
O O14 0.000000 0.500000 0.000000
#
# Coordination Sequence:
#
# PCOD8007671 Si02
#       6
#     2   2   2   2   2   2
#     4  10  23  42  65  93 128 169 214 260 329 373
#     4  10  20  41  66  97 132 166 216 269 317 387
#     4  11  21  40  66  98 131 168 212 268 325 384
#     4  10  23  44  65  93 133 167 221 267 318 385
#     4   9  21  40  63  93 133 162 215 260 321 383
#     4  12  25  44  67  95 131 172 221 268 321 390
#
# _framework density 20.561038
#
# number of rings (size 3 to 8) (size 9 to 14) (size 15 to 20)
#    1.000    0.667    1.667    3.500    0.000    2.667 
#    3.000    5.000    0.000    0.000    0.000    0.000 
#    0.000    0.000    0.000    0.000    0.000    0.000 
#
# Total GULP energy -148694.206574 kJ/mol
# GULP energy per Si atom -12391.183881 kJ/mol
# Density = 2.051424 g / cm^3
# Si number density = 20.561038 Si / 1000 Ang^3
#
#
#
# Elastic Constant Matrix: (Units=GPa)
#
#
# Indices 1 2 3 4 5 6 
#
# 1 144.3881 40.7962 36.2571 -26.1375 -15.9839 -1.0135
# 2 40.7962 155.2258 52.2368 -33.8090 -10.1000 17.9437
# 3 36.2571 52.2368 97.6405 -24.1212 9.4567 -2.8599
# 4 -26.1375 -33.8090 -24.1212 42.2704 -3.2003 -5.1088
# 5 -15.9839 -10.1000 9.4567 -3.2003 32.7023 -8.1526
# 6 -1.0135 17.9437 -2.8599 -5.1088 -8.1526 38.0615
#
#
#
# Elastic Compliance Matrix: (Units=1/GPa)
#
#
# Indices 1 2 3 4 5 6 
#
# 1 0.009222 -0.000391 -0.002601 0.004632 0.006133 0.002170
# 2 -0.000391 0.009698 -0.004281 0.004931 0.003662 -0.003458
# 3 -0.002601 -0.004281 0.014968 0.003321 -0.006042 0.002225
# 4 0.004632 0.004931 0.003321 0.033388 0.007104 0.004051
# 5 0.006133 0.003662 -0.006042 0.007104 0.038966 0.007283
# 6 0.002170 -0.003458 0.002225 0.004051 0.007283 0.030232
#
#
# Mechanical properties :
#
#
# Convention : Reuss Voigt Hill
#
# Bulk Modulus (GPa) = 51.70205 72.87053 62.28629
# Shear Modulus (GPa) = 31.75263 40.47113 36.11188
#
# Velocity S-wave (km/s) = 3.93403 4.44141 4.19540
# Velocity P-wave (km/s) = 6.77021 7.86254 7.33673
#
# Compressibility (1/GPa) = 0.01934159
#
# Stress axis : x y z
#
# Youngs Moduli (GPa) = 108.43425 103.11838 66.80709
#
# Poissons Ratio (x) = 0.04035 0.17379
# Poissons Ratio (y) = 0.04243 0.28597
# Poissons Ratio (z) = 0.28208 0.44141
#
# Static dielectric constant tensor:
#      x y z
#    x 3.729840 0.252240 -0.042420 
#    y 0.252240 4.436900 -0.347990 
#    z -0.042420 -0.347990 3.506020 
# 
# 
# High freq. dielectric constant tensor:
#      x y z
#    x 1.807970 0.007820 -0.007680 
#    y 0.007820 1.819690 -0.021600 
#    z -0.007680 -0.021600 1.777530 
# 
# From -- ./inp_files/489123.got.cif
#   From: 2010.06.25/outbox.cif.g09.slc.cpg/sg2_245_cif.got.tgz:489123.got - 2010.06.27 13:26:56.
