data_PCOD8007969
_publ_section_title
;
Structure prediction by ZEFSAII (Michael W. Deem and Ramdas Pophale) SiO2 
 PCOD8007969
Probable space group: P -1
;
_chemical_formula_sum "Si O2"
_cell_formula_units_Z 16
_cell_length_a 6.795162
_cell_length_b 13.068302
_cell_length_c 9.283821
_cell_angle_alpha 106.623283
_cell_angle_beta 76.382243
_cell_angle_gamma 80.605703
_cell_volume 743.846057
_symmetry_space_group_name_H-M "P -1"
_symmetry_group_IT_number 2
_symmetry_cell_setting 'triclinic'
loop_
_space_group_symop_operation_xyz
x,y,z
-x,-y,-z
loop_
_atom_site_type_symbol
_atom_site_label
_atom_site_fract_x
_atom_site_fract_y
_atom_site_fract_z
Si Si1 0.492542 0.307940 0.706913
Si Si2 0.927742 0.704353 0.771035
Si Si3 0.061086 0.677541 0.419539
Si Si4 0.085612 0.487781 0.820785
Si Si5 0.732380 0.865567 0.433215
Si Si6 0.493976 0.796542 0.028639
Si Si7 0.844228 0.118054 0.098539
Si Si8 0.423330 0.003675 0.746424
O O1 0.698433 0.325523 0.602484
O O2 0.326827 0.423922 0.761300
O O3 0.425250 0.212521 0.592350
O O4 0.520993 0.276061 0.857430
O O5 0.947042 0.668041 0.586395
O O6 0.065292 0.607541 0.805715
O O7 0.023293 0.809197 0.815358
O O8 0.684518 0.730913 0.869131
O O9 0.045446 0.577041 0.280003
O O10 0.959146 0.794589 0.408993
O O11 0.000000 0.500000 0.000000
O O12 0.752217 0.927800 0.305650
O O13 0.641886 0.955321 0.607561
O O14 0.268445 0.819033 0.998578
O O15 0.538088 0.914747 0.103616
O O16 0.654492 0.098609 0.220105
O O17 0.000000 0.000000 0.000000
#
# Coordination Sequence:
#
# PCOD8007969 Si02
#       8
#     2   2   2   2   2   2   2   2
#     4  10  23  43  69 102 127 174 228 276 331 407
#     4  12  26  46  67 102 137 178 219 281 335 394
#     4  11  25  42  72  99 135 174 222 275 341 393
#     4  11  25  47  74  98 134 171 224 281 338 399
#     4   9  21  40  65  92 139 172 224 271 333 387
#     4  11  24  41  67  96 138 179 227 268 335 392
#     4  12  26  37  64  96 136 172 228 268 322 386
#     4  10  20  42  61  95 133 184 220 277 320 394
#
# _framework density 21.509826
#
# number of rings (size 3 to 8) (size 9 to 14) (size 15 to 20)
#    0.000    1.250    2.500    2.250    5.250    3.000 
#    0.000    2.500    0.000    0.000    0.000    0.000 
#    0.000    0.000    0.000    0.000    0.000    0.000 
#
# Total GULP energy -198461.854493 kJ/mol
# GULP energy per Si atom -12403.865906 kJ/mol
# Density = 2.146087 g / cm^3
# Si number density = 21.509826 Si / 1000 Ang^3
#
#
#
# Elastic Constant Matrix: (Units=GPa)
#
#
# Indices 1 2 3 4 5 6 
#
# 1 81.0492 18.3153 24.3687 6.4100 -5.7657 -21.1796
# 2 18.3153 101.5187 21.8977 8.5368 4.0470 -15.5556
# 3 24.3687 21.8977 119.0223 7.6793 2.0835 -4.1088
# 4 6.4100 8.5368 7.6793 29.1339 -3.6397 -1.7479
# 5 -5.7657 4.0470 2.0835 -3.6397 27.3895 0.2546
# 6 -21.1796 -15.5556 -4.1088 -1.7479 0.2546 31.3025
#
#
#
# Elastic Compliance Matrix: (Units=1/GPa)
#
#
# Indices 1 2 3 4 5 6 
#
# 1 0.016409 -0.000791 -0.002820 -0.001587 0.003480 0.010222
# 2 -0.000791 0.011375 -0.001552 -0.002730 -0.002136 0.004779
# 3 -0.002820 -0.001552 0.009340 -0.001638 -0.001278 -0.001534
# 4 -0.001587 -0.002730 -0.001638 0.036497 0.005050 -0.000649
# 5 0.003480 -0.002136 -0.001278 0.005050 0.038317 0.001095
# 6 0.010222 0.004779 -0.001534 -0.000649 0.001095 0.040991
#
#
# Mechanical properties :
#
#
# Convention : Reuss Voigt Hill
#
# Bulk Modulus (GPa) = 37.31661 47.86151 42.58906
# Shear Modulus (GPa) = 29.03814 33.36577 31.20196
#
# Velocity S-wave (km/s) = 3.67821 3.94278 3.81279
# Velocity P-wave (km/s) = 5.95192 6.55947 6.26307
#
# Compressibility (1/GPa) = 0.02679772
#
# Stress axis : x y z
#
# Youngs Moduli (GPa) = 60.94185 87.91277 107.06881
#
# Poissons Ratio (x) = 0.06955 0.30190
# Poissons Ratio (y) = 0.04821 0.16620
# Poissons Ratio (z) = 0.17184 0.13647
#
# Static dielectric constant tensor:
#      x y z
#    x 3.754740 -0.344460 0.019340 
#    y -0.344460 4.313070 0.011170 
#    z 0.019340 0.011170 3.943140 
# 
# 
# High freq. dielectric constant tensor:
#      x y z
#    x 1.832220 -0.015850 -0.000600 
#    y -0.015850 1.853210 0.000500 
#    z -0.000600 0.000500 1.854020 
# 
# From -- ./inp_files/135633.got.cif
#   From: 2010.06.25/outbox.cif.g09.slc.cpg/sg2_68_cif.got.tgz:135633.got - 2010.06.27 13:26:56.
