data_PCOD8007709
_publ_section_title
;
Structure prediction by ZEFSAII (Michael W. Deem and Ramdas Pophale) SiO2 
 PCOD8007709
Probable space group: P -1
;
_chemical_formula_sum "Si O2"
_cell_formula_units_Z 14
_cell_length_a 19.868598
_cell_length_b 8.748289
_cell_length_c 7.252291
_cell_angle_alpha 72.278656
_cell_angle_beta 37.621181
_cell_angle_gamma 56.874954
_cell_volume 623.765331
_symmetry_space_group_name_H-M "P -1"
_symmetry_group_IT_number 2
_symmetry_cell_setting 'triclinic'
loop_
_space_group_symop_operation_xyz
x,y,z
-x,-y,-z
loop_
_atom_site_type_symbol
_atom_site_label
_atom_site_fract_x
_atom_site_fract_y
_atom_site_fract_z
Si Si1 0.320044 0.241841 0.824367
Si Si2 0.378321 0.146435 0.334684
Si Si3 0.590884 0.624870 0.083085
Si Si4 0.296067 0.877274 0.547239
Si Si5 0.178034 0.040097 0.372201
Si Si6 0.069852 0.607496 0.258952
Si Si7 0.800675 0.234980 0.870844
O O1 0.410016 0.146949 0.483125
O O2 0.406475 0.263281 0.782691
O O3 0.264414 0.117661 0.071264
O O4 0.204467 0.450946 0.927652
O O5 0.331087 0.346040 0.264974
O O6 0.274689 0.081460 0.571421
O O7 0.500000 0.000000 0.000000
O O8 0.658083 0.402624 0.053644
O O9 0.443500 0.706022 0.315219
O O10 0.254229 0.889047 0.422243
O O11 0.205685 0.838881 0.885517
O O12 0.037791 0.209930 0.690185
O O13 0.144295 0.935188 0.328365
O O14 0.106458 0.680910 0.338074
O O15 0.000000 0.500000 0.500000
#
# Coordination Sequence:
#
# PCOD8007709 Si02
#       7
#     2   2   2   2   2   2   2
#     4  10  20  41  67  91 132 173 210 266 316 368
#     4  10  21  38  63  97 125 168 219 254 309 387
#     4  10  23  40  62  96 132 171 213 258 314 389
#     4  11  23  38  62  98 131 164 219 257 319 385
#     4  11  22  40  65  93 132 169 212 270 314 373
#     4   9  22  43  67  93 122 170 220 260 321 384
#     4  11  23  41  66  91 133 167 209 270 324 373
#
# _framework density 22.44434
#
# number of rings (size 3 to 8) (size 9 to 14) (size 15 to 20)
#    0.000    1.714    2.857    0.857    0.000    8.000 
#    0.000    3.571    0.000    0.000    0.000    0.000 
#    0.000    0.000    0.000    0.000    0.000    0.000 
#
# Total GULP energy -173474.757292 kJ/mol
# GULP energy per Si atom -12391.054092 kJ/mol
# Density = 2.239326 g / cm^3
# Si number density = 22.444340 Si / 1000 Ang^3
#
#
#
# Elastic Constant Matrix: (Units=GPa)
#
#
# Indices 1 2 3 4 5 6 
#
# 1 104.9755 34.7576 37.5342 -2.5518 1.3456 -9.6487
# 2 34.7576 97.7176 38.7147 -4.7813 4.7770 -5.4373
# 3 37.5342 38.7147 75.8960 -8.5996 17.7706 -17.3753
# 4 -2.5518 -4.7813 -8.5996 29.8361 -8.6420 -2.6761
# 5 1.3456 4.7770 17.7706 -8.6420 35.0559 -4.7741
# 6 -9.6487 -5.4373 -17.3753 -2.6761 -4.7741 39.6603
#
#
#
# Elastic Compliance Matrix: (Units=1/GPa)
#
#
# Indices 1 2 3 4 5 6 
#
# 1 0.012228 -0.002332 -0.005334 -0.000048 0.002626 0.000631
# 2 -0.002332 0.013426 -0.006258 0.000429 0.001364 -0.001275
# 3 -0.005334 -0.006258 0.023080 0.003261 -0.008870 0.007108
# 4 -0.000048 0.000429 0.003261 0.037335 0.008172 0.004979
# 5 0.002626 0.001364 -0.008870 0.008172 0.034982 0.001702
# 6 0.000631 -0.001275 0.007108 0.004979 0.001702 0.028848
#
#
# Mechanical properties :
#
#
# Convention : Reuss Voigt Hill
#
# Bulk Modulus (GPa) = 47.87837 55.62242 51.75040
# Shear Modulus (GPa) = 27.06973 32.08264 29.57619
#
# Velocity S-wave (km/s) = 3.47664 3.78488 3.63403
# Velocity P-wave (km/s) = 6.12326 6.62847 6.38087
#
# Compressibility (1/GPa) = 0.02088626
#
# Stress axis : x y z
#
# Youngs Moduli (GPa) = 81.77619 74.48375 43.32814
#
# Poissons Ratio (x) = 0.17370 0.23111
# Poissons Ratio (y) = 0.19070 0.27115
# Poissons Ratio (z) = 0.43618 0.46612
#
# Static dielectric constant tensor:
#      x y z
#    x 4.059320 -0.131510 -0.074240 
#    y -0.131510 4.741720 -0.122740 
#    z -0.074240 -0.122740 3.921630 
# 
# 
# High freq. dielectric constant tensor:
#      x y z
#    x 1.883750 0.000770 -0.005190 
#    y 0.000770 1.900890 -0.004850 
#    z -0.005190 -0.004850 1.850720 
# 
# From -- ./inp_files/106605.got.cif
#   From: 2010.06.25/outbox.cif.g09.slc.cpg/sg2_54_cif.got.tgz:106605.got - 2010.06.27 13:26:56.
