data_PCOD8007874
_publ_section_title
;
Structure prediction by ZEFSAII (Michael W. Deem and Ramdas Pophale) SiO2 
 PCOD8007874
Probable space group: P -1
;
_chemical_formula_sum "Si O2"
_cell_formula_units_Z 16
_cell_length_a 18.242750
_cell_length_b 21.594106
_cell_length_c 11.772644
_cell_angle_alpha 38.719929
_cell_angle_beta 151.435193
_cell_angle_gamma 159.361096
_cell_volume 757.324029
_symmetry_space_group_name_H-M "P -1"
_symmetry_group_IT_number 2
_symmetry_cell_setting 'triclinic'
loop_
_space_group_symop_operation_xyz
x,y,z
-x,-y,-z
loop_
_atom_site_type_symbol
_atom_site_label
_atom_site_fract_x
_atom_site_fract_y
_atom_site_fract_z
Si Si1 0.840969 0.311652 0.529472
Si Si2 0.636457 0.819720 0.873405
Si Si3 0.128539 0.700264 0.672357
Si Si4 0.303986 0.479620 0.047736
Si Si5 0.735047 0.881694 0.659835
Si Si6 0.630507 0.458873 0.490091
Si Si7 0.499428 0.042180 0.813206
Si Si8 0.890659 0.541207 0.963514
O O1 0.512298 0.155919 0.330139
O O2 0.887042 0.297391 0.486465
O O3 0.000000 0.500000 0.500000
O O4 0.979621 0.306031 0.810580
O O5 0.607405 0.790564 0.740515
O O6 0.489723 0.647798 0.978302
O O7 0.954239 0.995513 0.097446
O O8 0.863990 0.614374 0.491566
O O9 0.416527 0.906816 0.811171
O O10 0.112752 0.578419 0.863549
O O11 0.417707 0.431340 0.265846
O O12 0.318179 0.527316 0.127701
O O13 0.549234 0.730642 0.526513
O O14 0.733704 0.997658 0.463084
O O15 0.790009 0.517002 0.737970
O O16 0.799816 0.249028 0.892136
O O17 0.500000 0.000000 0.000000
#
# Coordination Sequence:
#
# PCOD8007874 Si02
#       8
#     2   2   2   2   2   2   2   2
#     4  10  20  41  70  94 133 180 220 283 346 404
#     4  10  22  43  68  95 142 175 219 296 342 397
#     4  12  23  43  76 100 131 192 226 276 356 399
#     4  11  24  43  69  96 142 182 220 288 352 398
#     4  11  24  42  68 102 140 177 230 292 336 407
#     4  12  24  41  67 101 135 186 231 273 347 404
#     4  12  25  43  69 105 139 178 232 283 333 411
#     4  12  24  47  69  98 145 181 229 286 333 413
#
# _framework density 21.127020999999999
#
# number of rings (size 3 to 8) (size 9 to 14) (size 15 to 20)
#    0.000    0.750    5.000    4.500    0.000    5.000 
#    0.000    2.500    0.000    0.000    0.000    0.000 
#    0.000    0.000    0.000    0.000    0.000    0.000 
#
# Total GULP energy -198425.865702 kJ/mol
# GULP energy per Si atom -12401.616606 kJ/mol
# Density = 2.107893 g / cm^3
# Si number density = 21.127021 Si / 1000 Ang^3
#
#
#
# Elastic Constant Matrix: (Units=GPa)
#
#
# Indices 1 2 3 4 5 6 
#
# 1 134.7381 36.2796 53.8844 17.0666 -2.2451 -8.8467
# 2 36.2796 101.1343 26.2870 12.7668 3.3873 -18.6088
# 3 53.8844 26.2870 99.0315 22.6459 10.7562 -4.6519
# 4 17.0666 12.7668 22.6459 19.3355 -7.7843 0.5475
# 5 -2.2451 3.3873 10.7562 -7.7843 38.3529 8.4131
# 6 -8.8467 -18.6088 -4.6519 0.5475 8.4131 31.5945
#
#
#
# Elastic Compliance Matrix: (Units=1/GPa)
#
#
# Indices 1 2 3 4 5 6 
#
# 1 0.010165 -0.002255 -0.004897 -0.000992 0.001899 0.000309
# 2 -0.002255 0.013732 0.001257 -0.011253 -0.006054 0.009449
# 3 -0.004897 0.001257 0.019666 -0.024627 -0.012216 0.005944
# 4 -0.000992 -0.011253 -0.024627 0.102906 0.033380 -0.021203
# 5 0.001899 -0.006054 -0.012216 0.033380 0.040471 -0.016188
# 6 0.000309 0.009449 0.005944 -0.021203 -0.016188 0.042856
#
#
# Mechanical properties :
#
#
# Convention : Reuss Voigt Hill
#
# Bulk Modulus (GPa) = 31.47421 63.08954 47.28188
# Shear Modulus (GPa) = 19.82717 32.42009 26.12363
#
# Velocity S-wave (km/s) = 3.06678 3.92156 3.52021
# Velocity P-wave (km/s) = 5.24119 7.10153 6.24107
#
# Compressibility (1/GPa) = 0.03177204
#
# Stress axis : x y z
#
# Youngs Moduli (GPa) = 98.37599 72.82229 50.84806
#
# Poissons Ratio (x) = 0.16423 0.24902
# Poissons Ratio (y) = 0.22186 -0.06390
# Poissons Ratio (z) = 0.48177 -0.09152
#
# Static dielectric constant tensor:
#      x y z
#    x 4.062430 0.051290 0.160040 
#    y 0.051290 3.921020 0.154880 
#    z 0.160040 0.154880 4.381770 
# 
# 
# High freq. dielectric constant tensor:
#      x y z
#    x 1.840630 0.000620 -0.003120 
#    y 0.000620 1.816240 0.004610 
#    z -0.003120 0.004610 1.840670 
# 
# From -- ./inp_files/467110.got.cif
#   From: 2010.06.25/outbox.cif.g09.slc.cpg/sg2_234_cif.got.tgz:467110.got - 2010.06.27 13:26:56.
