data_PCOD8007614
_publ_section_title
;
Structure prediction by ZEFSAII (Michael W. Deem and Ramdas Pophale) SiO2 
 PCOD8007614
Probable space group: P -1
;
_chemical_formula_sum "Si O2"
_cell_formula_units_Z 16
_cell_length_a 15.076225
_cell_length_b 11.945463
_cell_length_c 10.327862
_cell_angle_alpha 128.902104
_cell_angle_beta 120.474243
_cell_angle_gamma 29.028192
_cell_volume 698.020417
_symmetry_space_group_name_H-M "P -1"
_symmetry_group_IT_number 2
_symmetry_cell_setting 'triclinic'
loop_
_space_group_symop_operation_xyz
x,y,z
-x,-y,-z
loop_
_atom_site_type_symbol
_atom_site_label
_atom_site_fract_x
_atom_site_fract_y
_atom_site_fract_z
Si Si1 0.564209 0.112592 0.730785
Si Si2 0.210006 0.884685 0.035180
Si Si3 0.689736 0.590281 0.873096
Si Si4 0.181862 0.609280 0.910264
Si Si5 0.538524 0.193451 0.485546
Si Si6 0.399730 0.105969 0.172539
Si Si7 0.822132 0.210357 0.338521
Si Si8 0.783370 0.172128 0.562338
O O1 0.347340 0.336196 0.761876
O O2 0.602013 0.042771 0.557267
O O3 0.679094 0.869998 0.733628
O O4 0.617050 0.214781 0.880418
O O5 0.228085 0.725753 0.024890
O O6 0.199409 0.856887 0.856016
O O7 0.018243 0.187875 0.153055
O O8 0.751292 0.635591 0.840841
O O9 0.671393 0.451832 0.699864
O O10 0.835280 0.419315 0.973237
O O11 0.492848 0.869988 0.987813
O O12 0.547891 0.060416 0.285573
O O13 0.328987 0.489214 0.560304
O O14 0.669528 0.173791 0.537443
O O15 0.803901 0.127355 0.390106
O O16 0.022383 0.052174 0.382351
#
# Coordination Sequence:
#
# PCOD8007614 Si02
#       8
#     2   2   2   2   2   2   2   2
#     4  11  24  39  64  90 129 173 217 246 316 385
#     4  11  22  37  64 100 123 164 206 270 323 367
#     4  10  20  41  66  88 127 170 209 263 312 375
#     4  10  21  37  62  95 129 151 213 273 310 364
#     4  12  24  42  67  95 129 170 209 267 320 373
#     4  10  24  40  62  93 132 174 211 254 315 382
#     4  11  24  38  67 102 128 156 208 273 328 367
#     4  11  24  42  68 100 127 158 216 271 320 370
#
# _framework density 22.921965
#
# number of rings (size 3 to 8) (size 9 to 14) (size 15 to 20)
#    0.000    1.250    3.750    1.875    5.250    1.000 
#    0.000    3.125    0.000    5.250    0.000    0.000 
#    0.000    0.000    0.000    0.000    0.000    0.000 
#
# Total GULP energy -198278.550399 kJ/mol
# GULP energy per Si atom -12392.409400 kJ/mol
# Density = 2.286979 g / cm^3
# Si number density = 22.921965 Si / 1000 Ang^3
#
#
#
# Elastic Constant Matrix: (Units=GPa)
#
#
# Indices 1 2 3 4 5 6 
#
# 1 104.0132 49.1790 25.9311 8.1557 -9.7338 26.7850
# 2 49.1790 83.3363 20.9750 -7.2994 -12.4002 16.7343
# 3 25.9311 20.9750 74.8866 -7.3606 -8.6668 -5.7345
# 4 8.1557 -7.2994 -7.3606 23.2318 10.0886 -8.3956
# 5 -9.7338 -12.4002 -8.6668 10.0886 21.7789 -9.7042
# 6 26.7850 16.7343 -5.7345 -8.3956 -9.7042 48.3847
#
#
#
# Elastic Compliance Matrix: (Units=1/GPa)
#
#
# Indices 1 2 3 4 5 6 
#
# 1 0.020145 -0.008896 -0.006545 -0.017989 0.004757 -0.011018
# 2 -0.008896 0.018531 -0.001029 0.007493 0.002809 0.000257
# 3 -0.006545 -0.001029 0.017802 0.009334 0.002948 0.008300
# 4 -0.017989 0.007493 0.009334 0.071758 -0.026329 0.015644
# 5 0.004757 0.002809 0.002948 -0.026329 0.065366 0.005286
# 6 -0.011018 0.000257 0.008300 0.015644 0.005286 0.031437
#
#
# Mechanical properties :
#
#
# Convention : Reuss Voigt Hill
#
# Bulk Modulus (GPa) = 42.48368 50.48960 46.48664
# Shear Modulus (GPa) = 18.80933 29.75583 24.28258
#
# Velocity S-wave (km/s) = 2.86769 3.60687 3.25831
# Velocity P-wave (km/s) = 5.43499 6.27858 5.87196
#
# Compressibility (1/GPa) = 0.02353845
#
# Stress axis : x y z
#
# Youngs Moduli (GPa) = 49.63949 53.96383 56.17267
#
# Poissons Ratio (x) = 0.48007 0.36767
# Poissons Ratio (y) = 0.44160 0.05778
# Poissons Ratio (z) = 0.32491 0.05551
#
# Static dielectric constant tensor:
#      x y z
#    x 4.189050 0.438110 -0.255940 
#    y 0.438110 4.403660 -0.057000 
#    z -0.255940 -0.057000 4.103080 
# 
# 
# High freq. dielectric constant tensor:
#      x y z
#    x 1.892900 0.037780 -0.017790 
#    y 0.037780 1.903260 -0.010280 
#    z -0.017790 -0.010280 1.894790 
# 
# From -- ./inp_files/451809.got.cif
#   From: 2010.06.25/outbox.cif.g09.slc.cpg/sg2_226_cif.got.tgz:451809.got - 2010.06.27 13:26:56.
