data_PCOD8007167
_publ_section_title
;
Structure prediction by ZEFSAII (Michael W. Deem and Ramdas Pophale) SiO2 
 PCOD8007167
Probable space group: P -1
;
_chemical_formula_sum "Si O2"
_cell_formula_units_Z 12
_cell_length_a 10.690697
_cell_length_b 16.848451
_cell_length_c 13.549938
_cell_angle_alpha 155.298557
_cell_angle_beta 30.225281
_cell_angle_gamma 144.723262
_cell_volume 507.682827
_symmetry_space_group_name_H-M "P -1"
_symmetry_group_IT_number 2
_symmetry_cell_setting 'triclinic'
loop_
_space_group_symop_operation_xyz
x,y,z
-x,-y,-z
loop_
_atom_site_type_symbol
_atom_site_label
_atom_site_fract_x
_atom_site_fract_y
_atom_site_fract_z
Si Si1 0.953256 0.587022 0.525049
Si Si2 0.877464 0.713501 0.073487
Si Si3 0.474714 0.216739 0.018212
Si Si4 0.264923 0.087781 0.220440
Si Si5 0.425666 0.885736 0.521554
Si Si6 0.976727 0.775854 0.289693
O O1 0.987295 0.439501 0.248804
O O2 0.137407 0.785958 0.603793
O O3 0.000000 0.500000 0.500000
O O4 0.664997 0.629509 0.771212
O O5 0.596379 0.716822 0.228512
O O6 0.870802 0.657368 0.131099
O O7 0.024675 0.925251 0.193069
O O8 0.762390 0.296046 0.938717
O O9 0.469791 0.023881 0.741364
O O10 0.314312 0.179576 0.184670
O O11 0.209914 0.254482 0.523288
O O12 0.500000 0.000000 0.000000
O O13 0.500000 0.000000 0.500000
O O14 0.000000 0.000000 0.500000
#
# Coordination Sequence:
#
# PCOD8007167 Si02
#       6
#     2   2   2   2   2   2
#     4  12  28  45  66 106 149 186 229 291 354 405
#     4  11  22  43  68 101 147 173 231 297 354 405
#     4  12  23  43  73  99 137 183 242 280 342 428
#     4  11  19  40  72 102 135 183 231 282 348 427
#     4  12  24  46  75  98 137 194 244 279 335 427
#     4  10  20  40  68 103 133 178 233 291 351 409
#
# _framework density 23.636804000000001
#
# number of rings (size 3 to 8) (size 9 to 14) (size 15 to 20)
#    0.000    0.667    6.667    4.000    0.000    0.667 
#    0.000    0.833    0.000    0.000    0.000    0.000 
#    0.000    0.000    0.000    0.000    0.000    0.000 
#
# Total GULP energy -148831.489183 kJ/mol
# GULP energy per Si atom -12402.624099 kJ/mol
# Density = 2.358301 g / cm^3
# Si number density = 23.636804 Si / 1000 Ang^3
#
#
#
# Elastic Constant Matrix: (Units=GPa)
#
#
# Indices 1 2 3 4 5 6 
#
# 1 145.9615 37.7379 61.2895 -15.8481 -9.8016 -15.5771
# 2 37.7379 68.0487 14.8962 -23.9568 3.1421 -24.1937
# 3 61.2895 14.8962 133.9231 -20.5931 -9.6046 -3.4454
# 4 -15.8481 -23.9568 -20.5931 33.6169 -3.6455 1.6177
# 5 -9.8016 3.1421 -9.6046 -3.6455 68.6755 -13.6352
# 6 -15.5771 -24.1937 -3.4454 1.6177 -13.6352 35.9374
#
#
#
# Elastic Compliance Matrix: (Units=1/GPa)
#
#
# Indices 1 2 3 4 5 6 
#
# 1 0.009824 -0.004462 -0.004017 -0.000939 0.001271 0.001393
# 2 -0.004462 0.030552 0.002544 0.020654 0.003224 0.019171
# 3 -0.004017 0.002544 0.010095 0.006187 0.001278 0.001146
# 4 -0.000939 0.020654 0.006187 0.047696 0.005072 0.013868
# 5 0.001271 0.003224 0.001278 0.005072 0.016830 0.009001
# 6 0.001393 0.019171 0.001146 0.013868 0.009001 0.044237
#
#
# Mechanical properties :
#
#
# Convention : Reuss Voigt Hill
#
# Bulk Modulus (GPa) = 25.90641 63.97562 44.94101
# Shear Modulus (GPa) = 27.17832 43.24660 35.21246
#
# Velocity S-wave (km/s) = 3.39459 4.28206 3.86389
# Velocity P-wave (km/s) = 5.13306 7.18143 6.24184
#
# Compressibility (1/GPa) = 0.03860049
#
# Stress axis : x y z
#
# Youngs Moduli (GPa) = 101.79514 32.73141 99.06191
#
# Poissons Ratio (x) = 0.14606 0.39791
# Poissons Ratio (y) = 0.45425 -0.25205
# Poissons Ratio (z) = 0.40888 -0.08328
#
# Static dielectric constant tensor:
#      x y z
#    x 4.661370 -0.206120 0.155960 
#    y -0.206120 3.752830 -0.344610 
#    z 0.155960 -0.344610 4.488940 
# 
# 
# High freq. dielectric constant tensor:
#      x y z
#    x 1.957990 -0.009100 -0.000910 
#    y -0.009100 1.911910 -0.023150 
#    z -0.000910 -0.023150 1.948940 
# 
# From -- ./inp_files/377516.got.cif
#   From: 2010.06.25/outbox.cif.g09.slc.cpg/sg2_189_cif.got.tgz:377516.got - 2010.06.27 13:26:56.
