data_PCOD8007749
_publ_section_title
;
Structure prediction by ZEFSAII (Michael W. Deem and Ramdas Pophale) SiO2 
 PCOD8007749
Probable space group: P -1
;
_chemical_formula_sum "Si O2"
_cell_formula_units_Z 16
_cell_length_a 9.393753
_cell_length_b 11.062040
_cell_length_c 12.055789
_cell_angle_alpha 90.693002
_cell_angle_beta 129.697105
_cell_angle_gamma 121.291479
_cell_volume 702.092435
_symmetry_space_group_name_H-M "P -1"
_symmetry_group_IT_number 2
_symmetry_cell_setting 'triclinic'
loop_
_space_group_symop_operation_xyz
x,y,z
-x,-y,-z
loop_
_atom_site_type_symbol
_atom_site_label
_atom_site_fract_x
_atom_site_fract_y
_atom_site_fract_z
Si Si1 0.981163 0.243684 0.831591
Si Si2 0.526887 0.229289 0.257597
Si Si3 0.718627 0.070357 0.021808
Si Si4 0.220926 0.693921 0.093533
Si Si5 0.257600 0.082890 0.568498
Si Si6 0.480646 0.530509 0.862397
Si Si7 0.831718 0.904217 0.718379
Si Si8 0.061467 0.739456 0.438226
O O1 0.759577 0.204205 0.791865
O O2 0.972280 0.305794 0.709317
O O3 0.962634 0.091753 0.806967
O O4 0.238525 0.385996 0.035390
O O5 0.546977 0.337495 0.171397
O O6 0.369592 0.211514 0.284960
O O7 0.811129 0.318804 0.439146
O O8 0.387587 0.049856 0.137665
O O9 0.823387 0.248860 0.039043
O O10 0.954734 0.102607 0.187839
O O11 0.500000 0.000000 0.000000
O O12 0.505805 0.765227 0.236293
O O13 0.000000 0.500000 0.000000
O O14 0.298117 0.156550 0.467334
O O15 0.249988 0.934337 0.554173
O O16 0.000000 0.000000 0.500000
O O17 0.234217 0.364594 0.673088
O O18 0.500000 0.500000 0.000000
#
# Coordination Sequence:
#
# PCOD8007749 Si02
#       8
#     2   2   2   2   2   2   2   2
#     4  10  20  41  67  99 130 170 234 276 338 405
#     4  12  21  41  67  96 133 173 234 280 335 410
#     4  12  25  42  65 101 138 182 226 285 351 410
#     4  12  26  44  68  99 138 183 227 288 345 413
#     4  11  24  44  68  99 138 180 223 280 353 410
#     4  10  22  37  62 100 134 170 218 289 341 397
#     4  11  22  42  74  96 127 179 232 279 333 417
#     4  10  22  38  67  98 131 172 223 283 338 407
#
# _framework density 22.789024000000001
#
# number of rings (size 3 to 8) (size 9 to 14) (size 15 to 20)
#    0.000    1.000    3.750    3.000    1.750    4.000 
#    0.000    1.875    0.000    0.000    0.000    0.000 
#    0.000    0.000    0.000    0.000    0.000    0.000 
#
# Total GULP energy -198222.865326 kJ/mol
# GULP energy per Si atom -12388.929083 kJ/mol
# Density = 2.273715 g / cm^3
# Si number density = 22.789024 Si / 1000 Ang^3
#
#
#
# Elastic Constant Matrix: (Units=GPa)
#
#
# Indices 1 2 3 4 5 6 
#
# 1 84.5440 23.4765 16.1610 -14.7705 11.0753 3.7352
# 2 23.4765 141.7050 58.8820 -18.4204 7.6054 9.3843
# 3 16.1610 58.8820 121.7491 -7.5256 30.5824 -5.7959
# 4 -14.7705 -18.4204 -7.5256 44.9866 2.2457 4.7887
# 5 11.0753 7.6054 30.5824 2.2457 35.2590 -4.7361
# 6 3.7352 9.3843 -5.7959 4.7887 -4.7361 17.2051
#
#
#
# Elastic Compliance Matrix: (Units=1/GPa)
#
#
# Indices 1 2 3 4 5 6 
#
# 1 0.013888 -0.001038 0.000014 0.004954 -0.005171 -0.005247
# 2 -0.001038 0.010417 -0.005412 0.003790 0.001466 -0.007931
# 3 0.000014 -0.005412 0.013561 0.000048 -0.009963 0.004761
# 4 0.004954 0.003790 0.000048 0.027006 -0.005778 -0.012234
# 5 -0.005171 0.001466 -0.009963 -0.005778 0.039965 0.009576
# 6 -0.005247 -0.007931 0.004761 -0.012234 0.009576 0.071232
#
#
# Mechanical properties :
#
#
# Convention : Reuss Voigt Hill
#
# Bulk Modulus (GPa) = 40.00797 60.55970 50.28383
# Shear Modulus (GPa) = 25.34551 36.12205 30.73378
#
# Velocity S-wave (km/s) = 3.33856 3.98560 3.67634
# Velocity P-wave (km/s) = 5.69695 6.91461 6.33510
#
# Compressibility (1/GPa) = 0.02499502
#
# Stress axis : x y z
#
# Youngs Moduli (GPa) = 72.00260 95.99935 73.73896
#
# Poissons Ratio (x) = 0.09961 -0.00100
# Poissons Ratio (y) = 0.07471 0.39905
# Poissons Ratio (z) = -0.00098 0.51952
#
# Static dielectric constant tensor:
#      x y z
#    x 4.342780 0.188250 0.567570 
#    y 0.188250 4.194970 -0.003920 
#    z 0.567570 -0.003920 4.517100 
# 
# 
# High freq. dielectric constant tensor:
#      x y z
#    x 1.886810 0.013200 0.028970 
#    y 0.013200 1.899440 -0.012830 
#    z 0.028970 -0.012830 1.906470 
# 
# From -- ./inp_files/392660.got.cif
#   From: 2010.06.25/outbox.cif.g09.slc.cpg/sg2_197_cif.got.tgz:392660.got - 2010.06.27 13:26:56.
