data_PCOD8007016
_publ_section_title
;
Structure prediction by ZEFSAII (Michael W. Deem and Ramdas Pophale) SiO2 
 PCOD8007016
Probable space group: P -1
;
_chemical_formula_sum "Si O2"
_cell_formula_units_Z 16
_cell_length_a 10.934595
_cell_length_b 16.602344
_cell_length_c 10.325998
_cell_angle_alpha 42.172548
_cell_angle_beta 140.282574
_cell_angle_gamma 139.129804
_cell_volume 724.581154
_symmetry_space_group_name_H-M "P -1"
_symmetry_group_IT_number 2
_symmetry_cell_setting 'triclinic'
loop_
_space_group_symop_operation_xyz
x,y,z
-x,-y,-z
loop_
_atom_site_type_symbol
_atom_site_label
_atom_site_fract_x
_atom_site_fract_y
_atom_site_fract_z
Si Si1 0.226264 0.351236 0.633300
Si Si2 0.062314 0.137066 0.960616
Si Si3 0.863144 0.782586 0.549007
Si Si4 0.766424 0.246051 0.350651
Si Si5 0.837849 0.350734 0.019759
Si Si6 0.791412 0.993616 0.562484
Si Si7 0.341079 0.805712 0.401483
Si Si8 0.579633 0.350099 0.560523
O O1 0.255017 0.292894 0.588923
O O2 0.406281 0.501835 0.619476
O O3 0.229021 0.258906 0.865503
O O4 0.001296 0.361515 0.436004
O O5 0.856407 0.158244 0.807406
O O6 0.178550 0.125528 0.199548
O O7 0.000000 0.000000 0.000000
O O8 0.670103 0.756273 0.521582
O O9 0.021332 0.727106 0.803683
O O10 0.013414 0.939707 0.459902
O O11 0.690738 0.286636 0.105927
O O12 0.618366 0.229105 0.374804
O O13 0.802711 0.111852 0.526809
O O14 0.680037 0.334360 0.795241
O O15 0.000000 0.500000 0.000000
O O16 0.556767 0.931359 0.381313
O O17 0.300007 0.681574 0.422423
#
# Coordination Sequence:
#
# PCOD8007016 Si02
#       8
#     2   2   2   2   2   2   2   2
#     4   9  19  38  63  96 120 167 217 261 311 386
#     4  11  20  40  69  94 122 172 222 262 317 381
#     4  10  22  40  64  92 124 175 222 260 310 383
#     4   9  19  38  65  94 120 167 219 261 310 381
#     4  10  20  40  66  93 120 176 219 254 314 393
#     4  10  21  42  64  89 129 168 227 262 303 385
#     4  11  25  39  63 101 132 168 206 273 332 372
#     4  12  24  41  63  98 140 163 208 270 332 378
#
# _framework density 22.081723
#
# number of rings (size 3 to 8) (size 9 to 14) (size 15 to 20)
#    0.000    2.000    6.250    0.750    0.000    6.500 
#    0.000    5.000    0.000    0.000    0.000    0.000 
#    0.000    0.000    0.000    0.000    0.000    0.000 
#
# Total GULP energy -198288.611868 kJ/mol
# GULP energy per Si atom -12393.038242 kJ/mol
# Density = 2.203146 g / cm^3
# Si number density = 22.081723 Si / 1000 Ang^3
#
#
#
# Elastic Constant Matrix: (Units=GPa)
#
#
# Indices 1 2 3 4 5 6 
#
# 1 102.2470 30.6532 28.8232 -11.3166 -4.4173 6.3877
# 2 30.6532 44.3481 19.6598 -3.9317 -10.3684 18.7049
# 3 28.8232 19.6598 110.9756 -21.6560 -22.0316 10.7741
# 4 -11.3166 -3.9317 -21.6560 25.3488 8.6043 -0.6575
# 5 -4.4173 -10.3684 -22.0316 8.6043 24.0941 0.5088
# 6 6.3877 18.7049 10.7741 -0.6575 0.5088 29.2657
#
#
#
# Elastic Compliance Matrix: (Units=1/GPa)
#
#
# Indices 1 2 3 4 5 6 
#
# 1 0.014003 -0.012233 -0.002467 0.004691 -0.006753 0.005894
# 2 -0.012233 0.047027 0.000718 -0.005481 0.021203 -0.028143
# 3 -0.002467 0.000718 0.013253 0.006951 0.009594 -0.004810
# 4 0.004691 -0.005481 0.006951 0.051237 -0.013468 0.001306
# 5 -0.006753 0.021203 0.009594 -0.013468 0.063332 -0.017013
# 6 0.005894 -0.028143 -0.004810 0.001306 -0.017013 0.052967
#
#
# Mechanical properties :
#
#
# Convention : Reuss Voigt Hill
#
# Bulk Modulus (GPa) = 21.58975 46.20479 33.89727
# Shear Modulus (GPa) = 17.53020 27.63736 22.58378
#
# Velocity S-wave (km/s) = 2.82064 3.54163 3.20149
# Velocity P-wave (km/s) = 4.51735 6.13955 5.38983
#
# Compressibility (1/GPa) = 0.04631828
#
# Stress axis : x y z
#
# Youngs Moduli (GPa) = 71.41581 21.26419 75.45732
#
# Poissons Ratio (x) = 0.26014 0.18615
# Poissons Ratio (y) = 0.87367 -0.05420
# Poissons Ratio (z) = 0.17618 -0.01527
#
# Static dielectric constant tensor:
#      x y z
#    x 3.992410 0.270990 -0.274610 
#    y 0.270990 3.808720 -0.176690 
#    z -0.274610 -0.176690 4.158770 
# 
# 
# High freq. dielectric constant tensor:
#      x y z
#    x 1.862020 0.019940 -0.006710 
#    y 0.019940 1.856450 -0.005360 
#    z -0.006710 -0.005360 1.858500 
# 
# From -- ./inp_files/436575.got.cif
#   From: 2010.06.25/outbox.cif.g09.slc.cpg/sg2_219_cif.got.tgz:436575.got - 2010.06.27 13:26:56.
