data_PCOD8007121
_publ_section_title
;
Structure prediction by ZEFSAII (Michael W. Deem and Ramdas Pophale) SiO2 
 PCOD8007121
Probable space group: P -1
;
_chemical_formula_sum "Si O2"
_cell_formula_units_Z 16
_cell_length_a 9.921495
_cell_length_b 11.513000
_cell_length_c 19.158060
_cell_angle_alpha 131.708759
_cell_angle_beta 32.668122
_cell_angle_gamma 109.558266
_cell_volume 731.063926
_symmetry_space_group_name_H-M "P -1"
_symmetry_group_IT_number 2
_symmetry_cell_setting 'triclinic'
loop_
_space_group_symop_operation_xyz
x,y,z
-x,-y,-z
loop_
_atom_site_type_symbol
_atom_site_label
_atom_site_fract_x
_atom_site_fract_y
_atom_site_fract_z
Si Si1 0.665371 0.624674 0.837231
Si Si2 0.231613 0.315126 0.865025
Si Si3 0.285683 0.914900 0.889899
Si Si4 0.769821 0.175500 0.474415
Si Si5 0.674698 0.063083 0.775016
Si Si6 0.584351 0.360083 0.843015
Si Si7 0.208007 0.506033 0.470210
Si Si8 0.904849 0.124738 0.905033
O O1 0.749811 0.415250 0.737217
O O2 0.972780 0.606039 0.676499
O O3 0.526893 0.763725 0.017152
O O4 0.417293 0.702858 0.914831
O O5 0.514072 0.191270 0.640622
O O6 0.305243 0.374829 0.930222
O O7 0.079296 0.201581 0.900016
O O8 0.000000 0.500000 0.000000
O O9 0.500203 0.688532 0.708449
O O10 0.468776 0.995283 0.810338
O O11 0.170894 0.980880 0.046299
O O12 0.000000 0.000000 0.000000
O O13 0.669703 0.369685 0.558686
O O14 0.048184 0.115034 0.379505
O O15 0.876248 0.014411 0.306072
O O16 0.781846 0.144790 0.699291
O O17 0.500000 0.500000 0.000000
O O18 0.000000 0.500000 0.500000
#
# Coordination Sequence:
#
# PCOD8007121 Si02
#       8
#     2   2   2   2   2   2   2   2
#     4  10  20  40  67  94 124 176 225 265 323 401
#     4  12  23  40  66  96 132 174 226 275 327 393
#     4  12  25  42  64  97 135 168 220 282 345 389
#     4  11  24  41  67  99 126 178 232 271 326 402
#     4  10  22  41  64  93 133 171 218 273 331 394
#     4  10  22  41  64  94 133 171 213 268 334 394
#     4  12  21  40  68  95 123 171 231 273 320 402
#     4  11  22  42  65  96 137 172 222 281 331 390
#
# _framework density 21.885912000000001
#
# number of rings (size 3 to 8) (size 9 to 14) (size 15 to 20)
#    0.000    1.000    3.750    3.375    0.000    2.500 
#    2.250    3.750    0.000    0.000    0.000    0.000 
#    0.000    0.000    0.000    0.000    0.000    0.000 
#
# Total GULP energy -198289.565786 kJ/mol
# GULP energy per Si atom -12393.097862 kJ/mol
# Density = 2.183610 g / cm^3
# Si number density = 21.885912 Si / 1000 Ang^3
#
#
#
# Elastic Constant Matrix: (Units=GPa)
#
#
# Indices 1 2 3 4 5 6 
#
# 1 108.2514 22.6259 35.7180 13.7800 -9.0545 -2.3629
# 2 22.6259 128.0221 23.6479 19.2434 -11.6027 -8.1190
# 3 35.7180 23.6479 102.2255 0.4138 -14.0678 -6.9905
# 4 13.7800 19.2434 0.4138 28.3972 -7.5234 -2.7204
# 5 -9.0545 -11.6027 -14.0678 -7.5234 21.1496 -1.4937
# 6 -2.3629 -8.1190 -6.9905 -2.7204 -1.4937 36.8849
#
#
#
# Elastic Compliance Matrix: (Units=1/GPa)
#
#
# Indices 1 2 3 4 5 6 
#
# 1 0.011248 -0.000546 -0.003793 -0.005035 0.000168 -0.000483
# 2 -0.000546 0.009267 -0.001558 -0.005324 0.002019 0.001399
# 3 -0.003793 -0.001558 0.012715 0.005061 0.007957 0.002519
# 4 -0.005035 -0.005324 0.005061 0.045409 0.014684 0.003409
# 5 0.000168 0.002019 0.007957 0.014684 0.059363 0.005450
# 6 -0.000483 0.001399 0.002519 0.003409 0.005450 0.028338
#
#
# Mechanical properties :
#
#
# Convention : Reuss Voigt Hill
#
# Bulk Modulus (GPa) = 46.65135 55.83142 51.24138
# Shear Modulus (GPa) = 26.98637 34.38680 30.68659
#
# Velocity S-wave (km/s) = 3.51529 3.96812 3.74855
# Velocity P-wave (km/s) = 6.15128 6.82350 6.49609
#
# Compressibility (1/GPa) = 0.02143561
#
# Stress axis : x y z
#
# Youngs Moduli (GPa) = 88.90570 107.90619 78.64795
#
# Poissons Ratio (x) = 0.05890 0.29834
# Poissons Ratio (y) = 0.04853 0.12254
# Poissons Ratio (z) = 0.33725 0.16812
#
# Static dielectric constant tensor:
#      x y z
#    x 3.170620 0.230040 -1.856350 
#    y 0.230040 4.752670 0.077270 
#    z -1.856350 0.077270 1.201690 
# 
# 
# High freq. dielectric constant tensor:
#      x y z
#    x 1.848200 -0.006290 0.005500 
#    y -0.006290 1.880740 -0.000230 
#    z 0.005500 -0.000230 1.855350 
# 
# From -- ./inp_files/278590.got.cif
#   From: 2010.06.25/outbox.cif.g09.slc.cpg/sg2_140_cif.got.tgz:278590.got - 2010.06.27 13:26:56.
