data_PCOD8007028
_publ_section_title
;
Structure prediction by ZEFSAII (Michael W. Deem and Ramdas Pophale) SiO2 
 PCOD8007028
Probable space group: P -1
;
_chemical_formula_sum "Si O2"
_cell_formula_units_Z 16
_cell_length_a 15.005668
_cell_length_b 8.681018
_cell_length_c 12.480740
_cell_angle_alpha 37.457929
_cell_angle_beta 131.208333
_cell_angle_gamma 131.019789
_cell_volume 711.573148
_symmetry_space_group_name_H-M "P -1"
_symmetry_group_IT_number 2
_symmetry_cell_setting 'triclinic'
loop_
_space_group_symop_operation_xyz
x,y,z
-x,-y,-z
loop_
_atom_site_type_symbol
_atom_site_label
_atom_site_fract_x
_atom_site_fract_y
_atom_site_fract_z
Si Si1 0.464059 0.310011 0.974205
Si Si2 0.866650 0.871846 0.909039
Si Si3 0.465674 0.555717 0.623951
Si Si4 0.864872 0.554884 0.764066
Si Si5 0.350470 0.995400 0.743218
Si Si6 0.866374 0.324839 0.123811
Si Si7 0.692500 0.092845 0.778572
Si Si8 0.269920 0.123199 0.404078
O O1 0.568627 0.202621 0.059485
O O2 0.357891 0.047657 0.071735
O O3 0.500000 0.500000 0.000000
O O4 0.419222 0.465662 0.757399
O O5 0.843866 0.992754 0.706237
O O6 0.745739 0.886751 0.869621
O O7 0.857101 0.567238 0.056264
O O8 0.000000 0.000000 0.000000
O O9 0.413026 0.803682 0.419218
O O10 0.615090 0.670819 0.677773
O O11 0.425316 0.307199 0.646887
O O12 0.810242 0.346487 0.743280
O O13 0.781292 0.746038 0.608190
O O14 0.999372 0.721537 0.736446
O O15 0.855258 0.385317 0.957852
O O16 0.236821 0.931664 0.772786
O O17 0.315308 0.924148 0.627428
#
# Coordination Sequence:
#
# PCOD8007028 Si02
#       8
#     2   2   2   2   2   2   2   2
#     4  12  26  41  66 100 138 180 224 274 339 405
#     4  11  24  45  67  95 135 184 224 271 341 400
#     4  12  25  45  69 103 140 177 221 282 343 399
#     4  10  20  40  66  94 127 179 224 277 330 395
#     4  12  23  43  67 101 139 173 225 285 338 398
#     4  10  22  41  66  95 132 175 233 272 333 400
#     4  12  23  43  70  99 137 175 229 271 340 405
#     4  11  23  42  68  98 135 177 220 280 339 398
#
# _framework density 22.485389999999999
#
# number of rings (size 3 to 8) (size 9 to 14) (size 15 to 20)
#    0.000    0.750    3.750    5.250    1.750    1.500 
#    0.000    0.625    0.000    0.000    0.000    0.000 
#    0.000    0.000    0.000    0.000    0.000    0.000 
#
# Total GULP energy -198227.635009 kJ/mol
# GULP energy per Si atom -12389.227188 kJ/mol
# Density = 2.243421 g / cm^3
# Si number density = 22.485390 Si / 1000 Ang^3
#
#
#
# Elastic Constant Matrix: (Units=GPa)
#
#
# Indices 1 2 3 4 5 6 
#
# 1 133.3060 27.2335 39.4875 -3.4166 7.8384 9.5810
# 2 27.2335 62.2975 9.5950 19.5215 11.3621 1.8126
# 3 39.4875 9.5950 76.1605 2.7753 -5.5347 1.5316
# 4 -3.4166 19.5215 2.7753 24.9615 -2.6017 -5.1376
# 5 7.8384 11.3621 -5.5347 -2.6017 38.3544 -1.8776
# 6 9.5810 1.8126 1.5316 -5.1376 -1.8776 34.7173
#
#
#
# Elastic Compliance Matrix: (Units=1/GPa)
#
#
# Indices 1 2 3 4 5 6 
#
# 1 0.010377 -0.005356 -0.004951 0.005740 -0.000936 -0.001567
# 2 -0.005356 0.027811 -0.000421 -0.024207 -0.009044 -0.004027
# 3 -0.004951 -0.000421 0.016043 -0.001654 0.003370 0.000618
# 4 0.005740 -0.024207 -0.001654 0.063045 0.010509 0.009651
# 5 -0.000936 -0.009044 0.003370 0.010509 0.030327 0.003777
# 6 -0.001567 -0.004027 0.000618 0.009651 0.003777 0.031052
#
#
# Mechanical properties :
#
#
# Convention : Reuss Voigt Hill
#
# Bulk Modulus (GPa) = 30.51155 47.15510 38.83333
# Shear Modulus (GPa) = 23.69271 32.63650 28.16461
#
# Velocity S-wave (km/s) = 3.24959 3.81393 3.54301
# Velocity P-wave (km/s) = 5.26106 6.35702 5.83483
#
# Compressibility (1/GPa) = 0.03277448
#
# Stress axis : x y z
#
# Youngs Moduli (GPa) = 96.36586 35.95759 62.33262
#
# Poissons Ratio (x) = 0.19259 0.30862
# Poissons Ratio (y) = 0.51614 0.02623
# Poissons Ratio (z) = 0.47712 0.01513
#
# Static dielectric constant tensor:
#      x y z
#    x 4.157410 0.031730 0.181080 
#    y 0.031730 3.943500 0.144630 
#    z 0.181080 0.144630 4.164210 
# 
# 
# High freq. dielectric constant tensor:
#      x y z
#    x 1.895830 -0.002790 0.007070 
#    y -0.002790 1.871060 0.014920 
#    z 0.007070 0.014920 1.888340 
# 
# From -- ./inp_files/306143.got.cif
#   From: 2010.06.25/outbox.cif.g09.slc.cpg/sg2_154_cif.got.tgz:306143.got - 2010.06.27 13:26:56.
