data_PCOD8007439
_publ_section_title
;
Structure prediction by ZEFSAII (Michael W. Deem and Ramdas Pophale) SiO2 
 PCOD8007439
Probable space group: P -1
;
_chemical_formula_sum "Si O2"
_cell_formula_units_Z 16
_cell_length_a 16.992394
_cell_length_b 8.068997
_cell_length_c 8.269086
_cell_angle_alpha 56.833299
_cell_angle_beta 83.150812
_cell_angle_gamma 119.179115
_cell_volume 703.653231
_symmetry_space_group_name_H-M "P -1"
_symmetry_group_IT_number 2
_symmetry_cell_setting 'triclinic'
loop_
_space_group_symop_operation_xyz
x,y,z
-x,-y,-z
loop_
_atom_site_type_symbol
_atom_site_label
_atom_site_fract_x
_atom_site_fract_y
_atom_site_fract_z
Si Si1 0.317879 0.054541 0.718324
Si Si2 0.134324 0.205622 0.160845
Si Si3 0.987358 0.610089 0.600929
Si Si4 0.299615 0.850475 0.342947
Si Si5 0.863019 0.377397 0.216645
Si Si6 0.238106 0.595950 0.185296
Si Si7 0.518924 0.808513 0.647590
Si Si8 0.305298 0.251820 0.934594
O O1 0.415720 0.215316 0.484370
O O2 0.327243 0.250580 0.739285
O O3 0.206056 0.881914 0.742209
O O4 0.324112 0.855523 0.917302
O O5 0.206663 0.342872 0.234148
O O6 0.035222 0.906166 0.392936
O O7 0.094791 0.358155 0.032122
O O8 0.205725 0.233692 0.985356
O O9 0.039867 0.587054 0.754493
O O10 0.000000 0.500000 0.500000
O O11 0.864786 0.432315 0.763919
O O12 0.214808 0.671251 0.598693
O O13 0.288217 0.648296 0.324688
O O14 0.418467 0.071777 0.262161
O O15 0.269556 0.996376 0.173068
O O16 0.407516 0.515055 0.856440
O O17 0.500000 0.000000 0.500000
#
# Coordination Sequence:
#
# PCOD8007439 Si02
#       8
#     2   2   2   2   2   2   2   2
#     4   9  21  39  63  90 129 164 208 261 312 373
#     4  11  24  41  64  96 130 166 215 259 310 374
#     4  12  22  42  66  92 130 170 210 260 318 370
#     4  10  20  41  63  91 125 167 208 260 319 373
#     4  10  21  42  63  93 130 166 210 264 309 372
#     4  10  21  41  63  90 129 166 211 266 309 373
#     4  11  22  39  63  94 127 162 214 260 315 384
#     4  11  20  41  64  92 126 172 207 260 318 374
#
# _framework density 22.738472000000002
#
# number of rings (size 3 to 8) (size 9 to 14) (size 15 to 20)
#    0.000    1.500    2.500    4.125    0.000    2.500 
#    4.500    6.875    0.000    0.000    0.000    0.000 
#    0.000    0.000    0.000    0.000    0.000    0.000 
#
# Total GULP energy -198352.012183 kJ/mol
# GULP energy per Si atom -12397.000761 kJ/mol
# Density = 2.268672 g / cm^3
# Si number density = 22.738472 Si / 1000 Ang^3
#
#
#
# Elastic Constant Matrix: (Units=GPa)
#
#
# Indices 1 2 3 4 5 6 
#
# 1 69.2955 13.5895 7.2676 2.5160 10.9671 5.6004
# 2 13.5895 135.0028 22.3206 15.2700 12.7291 5.7674
# 3 7.2676 22.3206 76.0135 -9.3140 12.9912 6.6108
# 4 2.5160 15.2700 -9.3140 41.1298 -0.1786 -0.8317
# 5 10.9671 12.7291 12.9912 -0.1786 22.9988 3.7962
# 6 5.6004 5.7674 6.6108 -0.8317 3.7962 34.5489
#
#
#
# Elastic Compliance Matrix: (Units=1/GPa)
#
#
# Indices 1 2 3 4 5 6 
#
# 1 0.015833 -0.000783 -0.000066 -0.000757 -0.006805 -0.001694
# 2 -0.000783 0.008600 -0.002338 -0.003700 -0.002992 -0.000622
# 3 -0.000066 -0.002338 0.015776 0.004379 -0.007269 -0.001714
# 4 -0.000757 -0.003700 0.004379 0.026736 0.000054 0.000540
# 5 -0.006805 -0.002992 -0.007269 0.000054 0.052954 -0.002824
# 6 -0.001694 -0.000622 -0.001714 0.000540 -0.002824 0.029974
#
#
# Mechanical properties :
#
#
# Convention : Reuss Voigt Hill
#
# Bulk Modulus (GPa) = 29.55640 40.74081 35.14861
# Shear Modulus (GPa) = 29.84605 35.54443 32.69524
#
# Velocity S-wave (km/s) = 3.62688 3.95800 3.79606
# Velocity P-wave (km/s) = 5.52862 6.23247 5.89107
#
# Compressibility (1/GPa) = 0.03383361
#
# Stress axis : x y z
#
# Youngs Moduli (GPa) = 63.15963 116.28141 63.38598
#
# Poissons Ratio (x) = 0.09108 0.00419
# Poissons Ratio (y) = 0.04947 0.14822
# Poissons Ratio (z) = 0.00417 0.27191
#
# Static dielectric constant tensor:
#      x y z
#    x 3.837030 0.155540 -0.120030 
#    y 0.155540 4.912870 0.238400 
#    z -0.120030 0.238400 4.077150 
# 
# 
# High freq. dielectric constant tensor:
#      x y z
#    x 1.867470 0.000890 -0.014000 
#    y 0.000890 1.919480 0.008040 
#    z -0.014000 0.008040 1.894420 
# 
# From -- ./inp_files/221255.got.cif
#   From: 2010.06.25/outbox.cif.g09.slc.cpg/sg2_111_cif.got.tgz:221255.got - 2010.06.27 13:26:56.
