data_PCOD8007299
_publ_section_title
;
Structure prediction by ZEFSAII (Michael W. Deem and Ramdas Pophale) SiO2 
 PCOD8007299
Probable space group: P -1
;
_chemical_formula_sum "Si O2"
_cell_formula_units_Z 12
_cell_length_a 8.671119
_cell_length_b 9.989116
_cell_length_c 13.917925
_cell_angle_alpha 30.989343
_cell_angle_beta 46.875930
_cell_angle_gamma 58.765375
_cell_volume 445.673196
_symmetry_space_group_name_H-M "P -1"
_symmetry_group_IT_number 2
_symmetry_cell_setting 'triclinic'
loop_
_space_group_symop_operation_xyz
x,y,z
-x,-y,-z
loop_
_atom_site_type_symbol
_atom_site_label
_atom_site_fract_x
_atom_site_fract_y
_atom_site_fract_z
Si Si1 0.821106 0.855698 0.399369
Si Si2 0.217279 0.619556 0.601023
Si Si3 0.204318 0.064397 0.992641
Si Si4 0.402152 0.569642 0.362522
Si Si5 0.801929 0.799166 0.661359
Si Si6 0.349544 0.826056 0.886943
O O1 0.697757 0.553701 0.618593
O O2 0.816054 0.920792 0.473204
O O3 0.713683 0.068119 0.254898
O O4 0.062726 0.864759 0.249150
O O5 0.217459 0.616729 0.486679
O O6 0.465067 0.654809 0.511481
O O7 0.056849 0.821743 0.581823
O O8 0.094744 0.325698 0.865568
O O9 0.434148 0.156176 0.891563
O O10 0.231505 0.949163 0.947111
O O11 0.615322 0.910224 0.733175
O O12 0.717671 0.487772 0.883582
#
# Coordination Sequence:
#
# PCOD8007299 Si02
#       6
#     2   2   2   2   2   2
#     4  12  21  41  70  94 126 169 211 269 318 367
#     4   9  17  40  60  91 123 167 206 260 305 380
#     4  10  20  40  71  87 124 174 212 253 325 368
#     4   9  19  37  68  94 124 164 217 262 316 369
#     4  11  25  36  66 100 127 164 222 255 316 394
#     4  11  21  42  60  95 133 172 201 264 327 377
#
# _framework density 26.925560999999998
#
# number of rings (size 3 to 8) (size 9 to 14) (size 15 to 20)
#    1.000    0.667    3.333    2.000    0.000    2.667 
#    0.000    8.333    0.000   18.000    0.000    0.000 
#    0.000    0.000    0.000    0.000    0.000    0.000 
#
# Total GULP energy -148694.018865 kJ/mol
# GULP energy per Si atom -12391.168239 kJ/mol
# Density = 2.686428 g / cm^3
# Si number density = 26.925561 Si / 1000 Ang^3
#
#
#
# Elastic Constant Matrix: (Units=GPa)
#
#
# Indices 1 2 3 4 5 6 
#
# 1 53.4681 20.4315 114.4785 -6.7417 4.7624 44.5972
# 2 20.4315 161.3837 30.5852 15.3413 18.3503 -4.4605
# 3 114.4785 30.5852 3.1158 46.7451 3.3825 -57.4013
# 4 -6.7417 15.3413 46.7451 23.6985 -5.4971 12.4955
# 5 4.7624 18.3503 3.3825 -5.4971 46.8814 -0.6438
# 6 44.5972 -4.4605 -57.4013 12.4955 -0.6438 5.9214
#
#
#
# Elastic Compliance Matrix: (Units=1/GPa)
#
#
# Indices 1 2 3 4 5 6 
#
# 1 0.006027 -0.000320 0.003498 -0.008152 -0.001622 0.005305
# 2 -0.000320 0.007133 -0.001365 -0.002971 -0.003003 0.000492
# 3 0.003498 -0.001365 0.002341 0.002178 0.000138 -0.009263
# 4 -0.008152 -0.002971 0.002178 0.033607 0.005912 0.009994
# 5 -0.001622 -0.003003 0.000138 0.005912 0.023373 0.001364
# 6 0.005305 0.000492 -0.009263 0.009994 0.001364 0.018558
#
#
# Mechanical properties :
#
#
# Convention : Reuss Voigt Hill
#
# Bulk Modulus (GPa) = 52.28226 60.99536 56.63881
# Shear Modulus (GPa) = 53.31136 18.79841 36.05489
#
# Velocity S-wave (km/s) = 4.45449 2.64514 3.66328
# Velocity P-wave (km/s) = 6.77615 5.65964 6.24290
#
# Compressibility (1/GPa) = 0.01912695
#
# Stress axis : x y z
#
# Youngs Moduli (GPa) = 165.92270 140.19026 427.17574
#
# Poissons Ratio (x) = 0.04486 -1.49436
# Poissons Ratio (y) = 0.05309 0.58323
# Poissons Ratio (z) = -0.58044 0.19140
#
# Static dielectric constant tensor:
#      x y z
#    x 4.871370 -0.442140 -0.698800 
#    y -0.442140 4.907340 -0.075850 
#    z -0.698800 -0.075850 5.155740 
# 
# 
# High freq. dielectric constant tensor:
#      x y z
#    x 2.080870 -0.024120 -0.036620 
#    y -0.024120 2.102650 -0.024750 
#    z -0.036620 -0.024750 2.105510 
# 
# From -- ./inp_files/499609.got.cif
#   From: 2010.06.25/outbox.cif.g09.slc.cpg/sg2_250_cif.got.tgz:499609.got - 2010.06.27 13:26:56.
