data_PCOD8007906
_publ_section_title
;
Structure prediction by ZEFSAII (Michael W. Deem and Ramdas Pophale) SiO2 
 PCOD8007906
Probable space group: P -1
;
_chemical_formula_sum "Si O2"
_cell_formula_units_Z 16
_cell_length_a 13.391062
_cell_length_b 12.847575
_cell_length_c 9.157551
_cell_angle_alpha 106.919113
_cell_angle_beta 31.361428
_cell_angle_gamma 113.582172
_cell_volume 747.224843
_symmetry_space_group_name_H-M "P -1"
_symmetry_group_IT_number 2
_symmetry_cell_setting 'triclinic'
loop_
_space_group_symop_operation_xyz
x,y,z
-x,-y,-z
loop_
_atom_site_type_symbol
_atom_site_label
_atom_site_fract_x
_atom_site_fract_y
_atom_site_fract_z
Si Si1 0.345156 0.227540 0.842309
Si Si2 0.696397 0.620038 0.461443
Si Si3 0.299379 0.983644 0.832247
Si Si4 0.570296 0.890700 0.826419
Si Si5 0.875191 0.852785 0.208166
Si Si6 0.337975 0.617674 0.690625
Si Si7 0.807861 0.218859 0.895709
Si Si8 0.250101 0.261632 0.277361
O O1 0.181318 0.191891 0.903460
O O2 0.558768 0.297309 0.535315
O O3 0.331652 0.111707 0.898912
O O4 0.302895 0.302540 0.060200
O O5 0.874575 0.738966 0.255126
O O6 0.501343 0.615432 0.608278
O O7 0.765918 0.509327 0.293679
O O8 0.654586 0.628921 0.690469
O O9 0.500000 0.000000 0.500000
O O10 0.280373 0.899570 0.955526
O O11 0.099982 0.940417 0.960955
O O12 0.718217 0.909834 0.505536
O O13 0.678520 0.846909 0.806500
O O14 0.367557 0.787318 0.004738
O O15 0.500000 0.000000 0.000000
O O16 0.167389 0.667164 0.990912
O O17 0.008986 0.221785 0.564765
#
# Coordination Sequence:
#
# PCOD8007906 Si02
#       8
#     2   2   2   2   2   2   2   2
#     4  11  23  38  61  95 131 169 202 261 328 372
#     4   9  19  42  69  89 122 168 217 269 302 383
#     4  12  22  38  63  94 130 163 215 267 308 387
#     4  11  22  40  65  89 128 173 211 260 311 377
#     4  10  21  44  63  95 129 170 216 259 318 378
#     4  10  20  41  71  92 118 172 220 260 317 373
#     4  12  22  41  64  94 126 168 221 253 316 387
#     4  11  24  41  60  97 131 165 213 262 319 384
#
# _framework density 21.412565000000001
#
# number of rings (size 3 to 8) (size 9 to 14) (size 15 to 20)
#    0.000    1.250    7.500    1.125    1.750    2.000 
#    2.250    0.000    0.000    6.750    0.000    0.000 
#    0.000    0.000    0.000    0.000    0.000    0.000 
#
# Total GULP energy -198234.884636 kJ/mol
# GULP energy per Si atom -12389.680290 kJ/mol
# Density = 2.136383 g / cm^3
# Si number density = 21.412565 Si / 1000 Ang^3
#
#
#
# Elastic Constant Matrix: (Units=GPa)
#
#
# Indices 1 2 3 4 5 6 
#
# 1 69.6538 11.2464 54.4775 21.6726 10.5558 11.1332
# 2 11.2464 132.9746 32.4019 19.5982 1.2313 2.7389
# 3 54.4775 32.4019 103.5418 16.3775 -4.3706 13.4911
# 4 21.6726 19.5982 16.3775 30.0876 5.8046 -0.3253
# 5 10.5558 1.2313 -4.3706 5.8046 40.4457 8.0649
# 6 11.1332 2.7389 13.4911 -0.3253 8.0649 27.6559
#
#
#
# Elastic Compliance Matrix: (Units=1/GPa)
#
#
# Indices 1 2 3 4 5 6 
#
# 1 0.032653 0.003534 -0.015535 -0.016018 -0.007212 -0.004002
# 2 0.003534 0.009063 -0.003660 -0.006346 -0.000596 -0.000436
# 3 -0.015535 -0.003660 0.019710 0.001421 0.007099 -0.005052
# 4 -0.016018 -0.006346 0.001421 0.049021 -0.004136 0.008166
# 5 -0.007212 -0.000596 0.007099 -0.004136 0.029830 -0.009248
# 6 -0.004002 -0.000436 -0.005052 0.008166 -0.009248 0.043070
#
#
# Mechanical properties :
#
#
# Convention : Reuss Voigt Hill
#
# Bulk Modulus (GPa) = 33.21907 55.82467 44.52187
# Shear Modulus (GPa) = 22.25145 33.50747 27.87946
#
# Velocity S-wave (km/s) = 3.22712 3.96011 3.61226
# Velocity P-wave (km/s) = 5.42524 6.85839 6.18348
#
# Compressibility (1/GPa) = 0.03010319
#
# Stress axis : x y z
#
# Youngs Moduli (GPa) = 30.62497 110.33837 50.73520
#
# Poissons Ratio (x) = -0.38992 0.78819
# Poissons Ratio (y) = -0.10822 0.18569
# Poissons Ratio (z) = 0.47577 0.40384
#
# Static dielectric constant tensor:
#      x y z
#    x 3.899540 0.166920 0.012060 
#    y 0.166920 3.750490 0.214290 
#    z 0.012060 0.214290 3.737220 
# 
# 
# High freq. dielectric constant tensor:
#      x y z
#    x 1.845300 0.012110 -0.002480 
#    y 0.012110 1.836640 0.016160 
#    z -0.002480 0.016160 1.823790 
# 
# From -- ./inp_files/313638.got.cif
#   From: 2010.06.25/outbox.cif.g09.slc.cpg/sg2_157_cif.got.tgz:313638.got - 2010.06.27 13:26:56.
