data_PCOD8007656
_publ_section_title
;
Structure prediction by ZEFSAII (Michael W. Deem and Ramdas Pophale) SiO2 
 PCOD8007656
Probable space group: P -1
;
_chemical_formula_sum "Si O2"
_cell_formula_units_Z 16
_cell_length_a 10.534683
_cell_length_b 11.136719
_cell_length_c 9.347307
_cell_angle_alpha 127.496377
_cell_angle_beta 84.177651
_cell_angle_gamma 68.171371
_cell_volume 723.285145
_symmetry_space_group_name_H-M "P -1"
_symmetry_group_IT_number 2
_symmetry_cell_setting 'triclinic'
loop_
_space_group_symop_operation_xyz
x,y,z
-x,-y,-z
loop_
_atom_site_type_symbol
_atom_site_label
_atom_site_fract_x
_atom_site_fract_y
_atom_site_fract_z
Si Si1 0.397454 0.664296 0.735792
Si Si2 0.284066 0.087220 0.481723
Si Si3 0.635503 0.473856 0.059727
Si Si4 0.657570 0.697040 0.800415
Si Si5 0.166693 0.722297 0.594844
Si Si6 0.828351 0.157296 0.624842
Si Si7 0.619412 0.806360 0.203649
Si Si8 0.108969 0.291727 0.383322
O O1 0.500000 0.500000 0.500000
O O2 0.372447 0.589795 0.829245
O O3 0.479027 0.775014 0.838221
O O4 0.232113 0.781654 0.761664
O O5 0.264573 0.157173 0.698987
O O6 0.160484 0.254477 0.517253
O O7 0.269266 0.916766 0.355719
O O8 0.458168 0.999082 0.344135
O O9 0.615882 0.666119 0.210782
O O10 0.500000 0.500000 0.000000
O O11 0.792306 0.324325 0.852084
O O12 0.751947 0.491951 0.587495
O O13 0.730650 0.797644 0.787339
O O14 0.681470 0.711546 0.975681
O O15 0.207400 0.787822 0.495936
O O16 0.985921 0.803160 0.701230
O O17 0.000000 0.000000 0.500000
O O18 0.000000 0.500000 0.500000
#
# Coordination Sequence:
#
# PCOD8007656 Si02
#       8
#     2   2   2   2   2   2   2   2
#     4  10  21  35  67 104 123 168 232 283 324 396
#     4  11  25  41  67 101 134 173 221 291 341 395
#     4  12  21  42  73  98 133 179 236 282 332 413
#     4  10  20  41  66  95 127 171 223 273 330 402
#     4  10  21  41  65  98 127 179 221 271 337 406
#     4  12  23  44  69  95 139 179 226 282 342 407
#     4  11  24  41  68 103 130 170 231 287 338 393
#     4  10  23  42  62  92 139 180 211 268 346 415
#
# _framework density 22.121290999999999
#
# number of rings (size 3 to 8) (size 9 to 14) (size 15 to 20)
#    0.000    1.250    5.000    0.750    5.250    1.500 
#    2.250    5.000    0.000    0.000    0.000    0.000 
#    0.000    0.000    0.000    0.000    0.000    0.000 
#
# Total GULP energy -198226.015105 kJ/mol
# GULP energy per Si atom -12389.125944 kJ/mol
# Density = 2.207094 g / cm^3
# Si number density = 22.121291 Si / 1000 Ang^3
#
#
#
# Elastic Constant Matrix: (Units=GPa)
#
#
# Indices 1 2 3 4 5 6 
#
# 1 128.6449 44.6257 39.6596 -24.7730 4.7685 -16.6870
# 2 44.6257 100.1137 36.8685 -26.2491 1.6193 -13.4626
# 3 39.6596 36.8685 88.2302 -22.9512 7.2424 -8.4488
# 4 -24.7730 -26.2491 -22.9512 47.0413 -1.7629 0.1869
# 5 4.7685 1.6193 7.2424 -1.7629 26.4807 -8.5501
# 6 -16.6870 -13.4626 -8.4488 0.1869 -8.5501 32.5516
#
#
#
# Elastic Compliance Matrix: (Units=1/GPa)
#
#
# Indices 1 2 3 4 5 6 
#
# 1 0.010449 -0.002451 -0.002599 0.002867 0.000381 0.003752
# 2 -0.002451 0.014157 -0.003260 0.005084 0.002194 0.004300
# 3 -0.002599 -0.003260 0.015233 0.004127 -0.003082 0.000440
# 4 0.002867 0.005084 0.004127 0.027653 0.001457 0.004867
# 5 0.000381 0.002194 -0.003082 0.001457 0.042172 0.011372
# 6 0.003752 0.004300 0.000440 0.004867 0.011372 0.037495
#
#
# Mechanical properties :
#
#
# Convention : Reuss Voigt Hill
#
# Bulk Modulus (GPa) = 43.06671 62.14406 52.60538
# Shear Modulus (GPa) = 29.15099 34.27038 31.71069
#
# Velocity S-wave (km/s) = 3.63406 3.94026 3.79026
# Velocity P-wave (km/s) = 6.09256 6.98958 6.55643
#
# Compressibility (1/GPa) = 0.02321979
#
# Stress axis : x y z
#
# Youngs Moduli (GPa) = 95.69972 70.63520 65.64529
#
# Poissons Ratio (x) = 0.17309 0.17063
# Poissons Ratio (y) = 0.23452 0.21402
# Poissons Ratio (z) = 0.24875 0.23029
#
# Static dielectric constant tensor:
#      x y z
#    x 4.955200 -0.124500 0.025810 
#    y -0.124500 4.210750 -0.236500 
#    z 0.025810 -0.236500 4.002580 
# 
# 
# High freq. dielectric constant tensor:
#      x y z
#    x 1.877760 -0.002660 0.001310 
#    y -0.002660 1.868950 -0.016470 
#    z 0.001310 -0.016470 1.850710 
# 
# From -- ./inp_files/260058.got.cif
#   From: 2010.06.25/outbox.cif.g09.slc.cpg/sg2_131_cif.got.tgz:260058.got - 2010.06.27 13:26:56.
