data_PCOD8007047
_publ_section_title
;
Structure prediction by ZEFSAII (Michael W. Deem and Ramdas Pophale) SiO2 
 PCOD8007047
Probable space group: P -1
;
_chemical_formula_sum "Si O2"
_cell_formula_units_Z 14
_cell_length_a 10.351541
_cell_length_b 12.483067
_cell_length_c 8.963822
_cell_angle_alpha 52.349981
_cell_angle_beta 44.966465
_cell_angle_gamma 59.611490
_cell_volume 642.455994
_symmetry_space_group_name_H-M "P -1"
_symmetry_group_IT_number 2
_symmetry_cell_setting 'triclinic'
loop_
_space_group_symop_operation_xyz
x,y,z
-x,-y,-z
loop_
_atom_site_type_symbol
_atom_site_label
_atom_site_fract_x
_atom_site_fract_y
_atom_site_fract_z
Si Si1 0.406996 0.869644 0.219960
Si Si2 0.469562 0.552588 0.815808
Si Si3 0.125917 0.742813 0.998204
Si Si4 0.098013 0.788501 0.318986
Si Si5 0.137824 0.476959 0.628041
Si Si6 0.637845 0.592216 0.238117
Si Si7 0.891831 0.034414 0.406347
O O1 0.266471 0.834776 0.236123
O O2 0.573215 0.748305 0.198133
O O3 0.312003 0.900159 0.433494
O O4 0.500000 0.000000 0.000000
O O5 0.666245 0.573980 0.567470
O O6 0.364810 0.440203 0.908240
O O7 0.500000 0.500000 0.000000
O O8 0.331265 0.692949 0.811736
O O9 0.142413 0.807516 0.092897
O O10 0.012326 0.615678 0.224254
O O11 0.031105 0.854943 0.861536
O O12 0.068244 0.634489 0.515307
O O13 0.910245 0.889745 0.426034
O O14 0.164561 0.454267 0.804816
O O15 0.500000 0.500000 0.500000
O O16 0.000000 0.000000 0.500000
#
# Coordination Sequence:
#
# PCOD8007047 Si02
#       7
#     2   2   2   2   2   2   2
#     4  11  23  44  69  95 132 181 225 278 333 398
#     4  11  22  41  68 102 138 169 222 282 335 395
#     4  12  25  45  71  99 139 177 222 281 340 395
#     4  11  23  46  64  98 141 170 225 279 330 403
#     4  11  24  42  70 101 134 179 222 275 342 397
#     4  10  20  40  66  95 134 166 223 283 323 392
#     4  10  25  44  65  94 134 179 224 272 326 405
#
# _framework density 21.791376
#
# number of rings (size 3 to 8) (size 9 to 14) (size 15 to 20)
#    0.000    1.143    4.286    2.571    6.000    1.714 
#    2.571    0.714    0.000    0.000    0.000    0.000 
#    0.000    0.000    0.000    0.000    0.000    0.000 
#
# Total GULP energy -173481.469426 kJ/mol
# GULP energy per Si atom -12391.533530 kJ/mol
# Density = 2.174178 g / cm^3
# Si number density = 21.791376 Si / 1000 Ang^3
#
#
#
# Elastic Constant Matrix: (Units=GPa)
#
#
# Indices 1 2 3 4 5 6 
#
# 1 81.1237 37.2884 41.1170 -4.2127 24.8186 1.3390
# 2 37.2884 162.9512 66.3646 3.7223 28.4819 1.7360
# 3 41.1170 66.3646 103.4481 -14.1747 16.0796 5.8990
# 4 -4.2127 3.7223 -14.1747 46.2782 -1.3574 3.6602
# 5 24.8186 28.4819 16.0796 -1.3574 30.7926 -11.4328
# 6 1.3390 1.7360 5.8990 3.6602 -11.4328 25.3939
#
#
#
# Elastic Compliance Matrix: (Units=1/GPa)
#
#
# Indices 1 2 3 4 5 6 
#
# 1 0.019933 0.000537 -0.005240 0.000263 -0.016547 -0.007358
# 2 0.000537 0.009608 -0.005395 -0.002402 -0.007528 -0.002475
# 3 -0.005240 -0.005395 0.016257 0.005248 -0.000586 -0.004152
# 4 0.000263 -0.002402 0.005248 0.023799 -0.001624 -0.005230
# 5 -0.016547 -0.007528 -0.000586 -0.001624 0.064432 0.030766
# 6 -0.007358 -0.002475 -0.004152 -0.005230 0.030766 0.055506
#
#
# Mechanical properties :
#
#
# Convention : Reuss Voigt Hill
#
# Bulk Modulus (GPa) = 39.05768 70.78477 54.92122
# Shear Modulus (GPa) = 22.90781 34.00980 28.45881
#
# Velocity S-wave (km/s) = 3.24579 3.95486 3.61774
# Velocity P-wave (km/s) = 5.65767 7.30807 6.53518
#
# Compressibility (1/GPa) = 0.02560316
#
# Stress axis : x y z
#
# Youngs Moduli (GPa) = 50.16777 104.07837 61.51046
#
# Poissons Ratio (x) = -0.05592 0.32230
# Poissons Ratio (y) = -0.02696 0.33187
# Poissons Ratio (z) = 0.26287 0.56154
#
# Static dielectric constant tensor:
#      x y z
#    x 2.985000 -2.547830 -0.409200 
#    y -2.547830 -0.373300 -1.131440 
#    z -0.409200 -1.131440 3.454470 
# 
# 
# High freq. dielectric constant tensor:
#      x y z
#    x 1.852810 -0.004810 0.026180 
#    y -0.004810 1.874260 0.008960 
#    z 0.026180 0.008960 1.842470 
# 
# From -- ./inp_files/153732.got.cif
#   From: 2010.06.25/outbox.cif.g09.slc.cpg/sg2_77_cif.got.tgz:153732.got - 2010.06.27 13:26:56.
