data_PCOD8007529
_publ_section_title
;
Structure prediction by ZEFSAII (Michael W. Deem and Ramdas Pophale) SiO2 
 PCOD8007529
Probable space group: P -1
;
_chemical_formula_sum "Si O2"
_cell_formula_units_Z 16
_cell_length_a 13.327914
_cell_length_b 12.220902
_cell_length_c 15.667407
_cell_angle_alpha 151.452183
_cell_angle_beta 41.474636
_cell_angle_gamma 123.613445
_cell_volume 762.326424
_symmetry_space_group_name_H-M "P -1"
_symmetry_group_IT_number 2
_symmetry_cell_setting 'triclinic'
loop_
_space_group_symop_operation_xyz
x,y,z
-x,-y,-z
loop_
_atom_site_type_symbol
_atom_site_label
_atom_site_fract_x
_atom_site_fract_y
_atom_site_fract_z
Si Si1 0.202053 0.668167 0.423199
Si Si2 0.536402 0.732645 0.260466
Si Si3 0.330775 0.175169 0.927088
Si Si4 0.203585 0.716570 0.156002
Si Si5 0.982573 0.907474 0.585709
Si Si6 0.296385 0.306121 0.347564
Si Si7 0.474442 0.945273 0.118717
Si Si8 0.159947 0.826474 0.741677
O O1 0.387603 0.636779 0.299654
O O2 0.193535 0.409578 0.216771
O O3 0.118293 0.739033 0.616410
O O4 0.111646 0.884079 0.562809
O O5 0.500000 0.000000 0.500000
O O6 0.572697 0.711946 0.122329
O O7 0.687667 0.565646 0.105875
O O8 0.439360 0.015294 0.823235
O O9 0.273517 0.991736 0.780129
O O10 0.075915 0.758821 0.342854
O O11 0.104244 0.810720 0.195306
O O12 0.323668 0.870531 0.194293
O O13 0.850709 0.798388 0.632088
O O14 0.412062 0.197123 0.279223
O O15 0.231989 0.595033 0.598406
O O16 0.397878 0.251431 0.157331
O O17 0.000000 0.000000 0.000000
#
# Coordination Sequence:
#
# PCOD8007529 Si02
#       8
#     2   2   2   2   2   2   2   2
#     4  12  23  44  67  96 132 172 220 265 322 391
#     4  12  23  40  67  98 131 164 216 275 317 381
#     4  12  23  40  68  95 124 175 214 262 325 382
#     4  10  20  41  64  98 127 166 220 266 321 389
#     4  10  22  37  69  94 127 175 213 263 330 385
#     4  10  22  42  63  97 131 167 218 268 319 389
#     4  10  21  40  70  92 124 175 217 263 325 385
#     4  12  27  40  61  96 135 165 218 271 318 385
#
# _framework density 20.988385000000001
#
# number of rings (size 3 to 8) (size 9 to 14) (size 15 to 20)
#    0.000    1.000    5.000    1.875    1.750    1.500 
#    0.000    1.875    0.000    0.000    0.000    0.000 
#    0.000    0.000    0.000    0.000    0.000    0.000 
#
# Total GULP energy -198339.064340 kJ/mol
# GULP energy per Si atom -12396.191521 kJ/mol
# Density = 2.094061 g / cm^3
# Si number density = 20.988385 Si / 1000 Ang^3
#
#
#
# Elastic Constant Matrix: (Units=GPa)
#
#
# Indices 1 2 3 4 5 6 
#
# 1 88.6172 26.2889 42.7349 13.5454 -13.3586 -32.2694
# 2 26.2889 90.5280 45.2151 2.3454 -4.4340 -16.3909
# 3 42.7349 45.2151 125.3856 18.4163 -13.7285 -20.8378
# 4 13.5454 2.3454 18.4163 43.3314 -3.8195 -10.9033
# 5 -13.3586 -4.4340 -13.7285 -3.8195 39.0292 4.4110
# 6 -32.2694 -16.3909 -20.8378 -10.9033 4.4110 37.1458
#
#
#
# Elastic Compliance Matrix: (Units=1/GPa)
#
#
# Indices 1 2 3 4 5 6 
#
# 1 0.018669 -0.001223 -0.003224 -0.000759 0.003548 0.013226
# 2 -0.001223 0.014200 -0.004544 0.002354 -0.000559 0.003412
# 3 -0.003224 -0.004544 0.011498 -0.003347 0.002050 0.000419
# 4 -0.000759 0.002354 -0.003347 0.026210 0.000705 0.006112
# 5 0.003548 -0.000559 0.002050 0.000705 0.027457 0.000932
# 6 0.013226 0.003412 0.000419 0.006112 0.000932 0.041834
#
#
# Mechanical properties :
#
#
# Convention : Reuss Voigt Hill
#
# Bulk Modulus (GPa) = 37.89889 59.22318 48.56104
# Shear Modulus (GPa) = 30.00361 36.58742 33.29551
#
# Velocity S-wave (km/s) = 3.78502 4.17972 3.98726
# Velocity P-wave (km/s) = 6.09903 7.18135 6.66220
#
# Compressibility (1/GPa) = 0.02638600
#
# Stress axis : x y z
#
# Youngs Moduli (GPa) = 53.56485 70.42084 86.96853
#
# Poissons Ratio (x) = 0.08613 0.28038
# Poissons Ratio (y) = 0.06551 0.39517
# Poissons Ratio (z) = 0.17269 0.31998
#
# Static dielectric constant tensor:
#      x y z
#    x 4.052260 -0.192070 -0.224450 
#    y -0.192070 3.872430 0.049830 
#    z -0.224450 0.049830 3.946620 
# 
# 
# High freq. dielectric constant tensor:
#      x y z
#    x 1.807290 -0.021600 -0.029870 
#    y -0.021600 1.835890 -0.009890 
#    z -0.029870 -0.009890 1.819270 
# 
# From -- ./inp_files/532773.got.cif
#   From: 2010.06.25/outbox.cif.g09.slc.cpg/sg2_267_cif.got.tgz:532773.got - 2010.06.27 13:26:56.
