data_PCOD8007100
_publ_section_title
;
Structure prediction by ZEFSAII (Michael W. Deem and Ramdas Pophale) SiO2 
 PCOD8007100
Probable space group: P -1
;
_chemical_formula_sum "Si O2"
_cell_formula_units_Z 16
_cell_length_a 11.165796
_cell_length_b 13.931323
_cell_length_c 13.089963
_cell_angle_alpha 48.175742
_cell_angle_beta 31.389421
_cell_angle_gamma 46.697108
_cell_volume 753.815505
_symmetry_space_group_name_H-M "P -1"
_symmetry_group_IT_number 2
_symmetry_cell_setting 'triclinic'
loop_
_space_group_symop_operation_xyz
x,y,z
-x,-y,-z
loop_
_atom_site_type_symbol
_atom_site_label
_atom_site_fract_x
_atom_site_fract_y
_atom_site_fract_z
Si Si1 0.086746 0.019832 0.037144
Si Si2 0.377308 0.140501 0.200787
Si Si3 0.085671 0.457309 0.831311
Si Si4 0.950191 0.726766 0.833302
Si Si5 0.636681 0.578989 0.958360
Si Si6 0.859498 0.414045 0.719947
Si Si7 0.236714 0.257166 0.694019
Si Si8 0.763430 0.085384 0.414456
O O1 0.141655 0.162285 0.905655
O O2 0.332625 0.909872 0.970914
O O3 0.878986 0.021797 0.268319
O O4 0.000000 0.000000 0.000000
O O5 0.276781 0.178171 0.132281
O O6 0.303934 0.282910 0.212974
O O7 0.253458 0.037097 0.414516
O O8 0.223153 0.393966 0.671011
O O9 0.132878 0.600154 0.726216
O O10 0.795014 0.502142 0.993248
O O11 0.156810 0.343545 0.947745
O O12 0.089626 0.828557 0.697199
O O13 0.711995 0.484155 0.874920
O O14 0.353649 0.612739 0.173859
O O15 0.000000 0.500000 0.500000
O O16 0.064274 0.280919 0.703019
O O17 0.501384 0.186270 0.509104
#
# Coordination Sequence:
#
# PCOD8007100 Si02
#       8
#     2   2   2   2   2   2   2   2
#     4  11  24  42  63  87 123 169 208 256 306 360
#     4  10  23  41  61  93 123 162 208 253 306 366
#     4   9  19  39  65  91 122 164 199 254 321 366
#     4  10  20  40  67  91 125 162 205 257 310 370
#     4   9  20  38  58  87 126 155 199 256 306 362
#     4  10  21  34  61  90 118 159 200 254 308 363
#     4  10  22  39  59  94 125 157 209 251 312 372
#     4  11  24  40  65  90 125 169 208 254 301 371
#
# _framework density 21.225352999999998
#
# number of rings (size 3 to 8) (size 9 to 14) (size 15 to 20)
#    0.000    2.000    1.250    1.125    1.750    7.000 
#    2.250    0.000    0.000    0.000    0.000    0.000 
#    0.000    0.000    0.000    0.000    0.000    0.000 
#
# Total GULP energy -198225.239401 kJ/mol
# GULP energy per Si atom -12389.077463 kJ/mol
# Density = 2.117704 g / cm^3
# Si number density = 21.225353 Si / 1000 Ang^3
#
#
#
# Elastic Constant Matrix: (Units=GPa)
#
#
# Indices 1 2 3 4 5 6 
#
# 1 117.0745 56.4376 46.4366 7.3343 -5.9106 -25.4301
# 2 56.4376 106.6311 40.7490 1.2189 -1.5578 -21.7769
# 3 46.4366 40.7490 95.1393 4.8503 -1.9880 -14.8440
# 4 7.3343 1.2189 4.8503 28.0227 3.9466 -4.3103
# 5 -5.9106 -1.5578 -1.9880 3.9466 27.5874 -1.8928
# 6 -25.4301 -21.7769 -14.8440 -4.3103 -1.8928 44.5795
#
#
#
# Elastic Compliance Matrix: (Units=1/GPa)
#
#
# Indices 1 2 3 4 5 6 
#
# 1 0.013529 -0.004854 -0.003711 -0.002493 0.002988 0.003996
# 2 -0.004854 0.013742 -0.003142 0.001760 -0.000533 0.003045
# 3 -0.003711 -0.003142 0.013869 -0.001196 0.000257 0.000861
# 4 -0.002493 0.001760 -0.001196 0.037651 -0.005740 0.002436
# 5 0.002988 -0.000533 0.000257 -0.005740 0.037875 0.002583
# 6 0.003996 0.003045 0.000861 0.002436 0.002583 0.026831
#
#
# Mechanical properties :
#
#
# Convention : Reuss Voigt Hill
#
# Bulk Modulus (GPa) = 56.41868 67.34346 61.88107
# Shear Modulus (GPa) = 28.93174 31.71937 30.32556
#
# Velocity S-wave (km/s) = 3.69599 3.86995 3.78397
# Velocity P-wave (km/s) = 6.69718 7.19482 6.95046
#
# Compressibility (1/GPa) = 0.01772463
#
# Stress axis : x y z
#
# Youngs Moduli (GPa) = 73.91788 72.76917 72.10350
#
# Poissons Ratio (x) = 0.35321 0.26759
# Poissons Ratio (y) = 0.35879 0.22658
# Poissons Ratio (z) = 0.27432 0.22867
#
# Static dielectric constant tensor:
#      x y z
#    x 4.134290 -0.183090 -0.283770 
#    y -0.183090 3.952710 -0.104670 
#    z -0.283770 -0.104670 3.641440 
# 
# 
# High freq. dielectric constant tensor:
#      x y z
#    x 1.839740 -0.009140 -0.013310 
#    y -0.009140 1.848640 -0.011240 
#    z -0.013310 -0.011240 1.804060 
# 
# From -- ./inp_files/521421.got.cif
#   From: 2010.06.25/outbox.cif.g09.slc.cpg/sg2_261_cif.got.tgz:521421.got - 2010.06.27 13:26:56.
