data_PCOD8007528
_publ_section_title
;
Structure prediction by ZEFSAII (Michael W. Deem and Ramdas Pophale) SiO2 
 PCOD8007528
Probable space group: P -1
;
_chemical_formula_sum "Si O2"
_cell_formula_units_Z 16
_cell_length_a 13.524763
_cell_length_b 8.981817
_cell_length_c 7.964303
_cell_angle_alpha 127.333621
_cell_angle_beta 102.412534
_cell_angle_gamma 92.883072
_cell_volume 730.665222
_symmetry_space_group_name_H-M "P -1"
_symmetry_group_IT_number 2
_symmetry_cell_setting 'triclinic'
loop_
_space_group_symop_operation_xyz
x,y,z
-x,-y,-z
loop_
_atom_site_type_symbol
_atom_site_label
_atom_site_fract_x
_atom_site_fract_y
_atom_site_fract_z
Si Si1 0.894427 0.415063 0.716063
Si Si2 0.777861 0.304477 0.937013
Si Si3 0.564538 0.212798 0.620787
Si Si4 0.722110 0.963890 0.906598
Si Si5 0.420796 0.408510 0.546932
Si Si6 0.317218 0.729869 0.646679
Si Si7 0.090460 0.184792 0.135807
Si Si8 0.924624 0.589853 0.413153
O O1 0.856446 0.351496 0.843377
O O2 0.802823 0.350888 0.502642
O O3 0.936559 0.648400 0.877415
O O4 0.993524 0.322771 0.647371
O O5 0.658867 0.304549 0.844050
O O6 0.776658 0.093016 0.859102
O O7 0.820896 0.449309 0.204306
O O8 0.486117 0.359104 0.697762
O O9 0.611475 0.205938 0.446185
O O10 0.500000 0.000000 0.500000
O O11 0.633899 0.797159 0.686806
O O12 0.811108 0.871196 0.956447
O O13 0.672431 0.082793 0.105522
O O14 0.500000 0.500000 0.500000
O O15 0.348761 0.560039 0.653619
O O16 0.117784 0.256589 0.387466
O O17 0.000000 0.000000 0.000000
O O18 0.000000 0.500000 0.500000
#
# Coordination Sequence:
#
# PCOD8007528 Si02
#       8
#     2   2   2   2   2   2   2   2
#     4  10  20  41  64  97 135 164 212 272 325 381
#     4  11  23  39  67  94 133 169 210 274 331 373
#     4  10  21  43  65  97 132 167 214 274 319 379
#     4  12  22  40  67  95 128 173 222 261 316 392
#     4  10  22  41  67  90 128 169 223 261 317 382
#     4  10  22  41  70  94 129 174 218 262 323 386
#     4  11  22  39  65  96 129 170 221 261 316 396
#     4  10  21  40  66  95 126 171 214 260 324 391
#
# _framework density 21.897853000000001
#
# number of rings (size 3 to 8) (size 9 to 14) (size 15 to 20)
#    0.000    1.500    2.500    4.125    0.000    2.000 
#    0.000    6.875    2.750    0.000    0.000    0.000 
#    0.000    0.000    0.000    0.000    0.000    0.000 
#
# Total GULP energy -198237.824544 kJ/mol
# GULP energy per Si atom -12389.864034 kJ/mol
# Density = 2.184801 g / cm^3
# Si number density = 21.897853 Si / 1000 Ang^3
#
#
#
# Elastic Constant Matrix: (Units=GPa)
#
#
# Indices 1 2 3 4 5 6 
#
# 1 97.7546 28.4810 56.6377 6.3679 5.0742 -5.4674
# 2 28.4810 97.6615 39.6639 5.9864 -0.5137 14.9549
# 3 56.6377 39.6639 135.5625 5.2423 4.0355 -0.3150
# 4 6.3679 5.9864 5.2423 29.3729 -2.9393 10.9898
# 5 5.0742 -0.5137 4.0355 -2.9393 40.5039 7.5686
# 6 -5.4674 14.9549 -0.3150 10.9898 7.5686 39.6676
#
#
#
# Elastic Compliance Matrix: (Units=1/GPa)
#
#
# Indices 1 2 3 4 5 6 
#
# 1 0.014557 -0.002651 -0.005084 -0.003611 -0.002441 0.004431
# 2 -0.002651 0.013013 -0.002803 0.000820 0.001937 -0.005890
# 3 -0.005084 -0.002803 0.010359 -0.000492 -0.000595 0.000688
# 4 -0.003611 0.000820 -0.000492 0.040229 0.005875 -0.013077
# 5 -0.002441 0.001937 -0.000595 0.005875 0.026971 -0.007845
# 6 0.004431 -0.005890 0.000688 -0.013077 -0.007845 0.033166
#
#
# Mechanical properties :
#
#
# Convention : Reuss Voigt Hill
#
# Bulk Modulus (GPa) = 59.33264 64.50488 61.91876
# Shear Modulus (GPa) = 30.30517 35.65528 32.98022
#
# Velocity S-wave (km/s) = 3.72416 4.03954 3.88505
# Velocity P-wave (km/s) = 6.75622 7.16089 6.96149
#
# Compressibility (1/GPa) = 0.01685413
#
# Stress axis : x y z
#
# Youngs Moduli (GPa) = 68.69427 76.84775 96.53289
#
# Poissons Ratio (x) = 0.20370 0.49076
# Poissons Ratio (y) = 0.18209 0.27058
# Poissons Ratio (z) = 0.34923 0.21540
#
# Static dielectric constant tensor:
#      x y z
#    x 4.510270 -0.243650 -0.169770 
#    y -0.243650 4.158740 -0.206140 
#    z -0.169770 -0.206140 3.421160 
# 
# 
# High freq. dielectric constant tensor:
#      x y z
#    x 1.880420 0.011940 0.016650 
#    y 0.011940 1.854500 0.004550 
#    z 0.016650 0.004550 1.849600 
# 
# From -- ./inp_files/296846.got.cif
#   From: 2010.06.25/outbox.cif.g09.slc.cpg/sg2_149_cif.got.tgz:296846.got - 2010.06.27 13:26:56.
