data_PCOD8007165
_publ_section_title
;
Structure prediction by ZEFSAII (Michael W. Deem and Ramdas Pophale) SiO2 
 PCOD8007165
Probable space group: P -1
;
_chemical_formula_sum "Si O2"
_cell_formula_units_Z 16
_cell_length_a 11.601638
_cell_length_b 9.016768
_cell_length_c 10.960544
_cell_angle_alpha 120.455710
_cell_angle_beta 130.044327
_cell_angle_gamma 54.485604
_cell_volume 697.971434
_symmetry_space_group_name_H-M "P -1"
_symmetry_group_IT_number 2
_symmetry_cell_setting 'triclinic'
loop_
_space_group_symop_operation_xyz
x,y,z
-x,-y,-z
loop_
_atom_site_type_symbol
_atom_site_label
_atom_site_fract_x
_atom_site_fract_y
_atom_site_fract_z
Si Si1 0.538498 0.283001 0.928087
Si Si2 0.634514 0.240650 0.569344
Si Si3 0.718701 0.503582 0.562081
Si Si4 0.930191 0.657321 0.920814
Si Si5 0.709034 0.891112 0.316700
Si Si6 0.048469 0.835710 0.562906
Si Si7 0.158769 0.837186 0.090784
Si Si8 0.751260 0.991069 0.112283
O O1 0.382484 0.242519 0.759350
O O2 0.694106 0.196193 0.913289
O O3 0.500000 0.500000 0.000000
O O4 0.584571 0.166081 0.037677
O O5 0.688474 0.398311 0.615233
O O6 0.452157 0.346581 0.544800
O O7 0.769415 0.130438 0.716323
O O8 0.621807 0.098873 0.398549
O O9 0.836340 0.607152 0.725265
O O10 0.803841 0.353402 0.453345
O O11 0.000000 0.500000 0.000000
O O12 0.095731 0.669712 0.986190
O O13 0.802639 0.839656 0.976968
O O14 0.887581 0.793718 0.460272
O O15 0.724544 0.905672 0.186794
O O16 0.107938 0.923259 0.753912
O O17 0.000000 0.000000 0.500000
O O18 0.000000 0.000000 0.000000
#
# Coordination Sequence:
#
# PCOD8007165 Si02
#       8
#     2   2   2   2   2   2   2   2
#     4  12  30  46  66 105 151 191 232 292 368 436
#     4  11  24  44  72 107 143 184 242 309 363 421
#     4  11  23  40  71 113 140 176 249 310 352 414
#     4  12  23  43  78 110 138 191 252 299 351 431
#     4  11  24  46  75 101 138 187 245 297 358 425
#     4  10  20  40  68 102 136 177 230 298 354 411
#     4  12  28  50  70  99 152 195 238 292 368 449
#     4  11  23  46  75 104 140 189 240 298 359 420
#
# _framework density 22.923576000000001
#
# number of rings (size 3 to 8) (size 9 to 14) (size 15 to 20)
#    0.000    0.750    5.000    3.375    5.250    0.500 
#    0.000    0.625    0.000    0.000    0.000    0.000 
#    0.000    0.000    0.000    0.000    0.000    0.000 
#
# Total GULP energy -198298.992878 kJ/mol
# GULP energy per Si atom -12393.687055 kJ/mol
# Density = 2.287140 g / cm^3
# Si number density = 22.923576 Si / 1000 Ang^3
#
#
#
# Elastic Constant Matrix: (Units=GPa)
#
#
# Indices 1 2 3 4 5 6 
#
# 1 111.4359 28.8574 25.8752 8.9182 38.0217 -0.9941
# 2 28.8574 102.6083 31.5904 3.0517 12.2755 -11.0516
# 3 25.8752 31.5904 99.9440 10.1417 31.2949 7.7779
# 4 8.9182 3.0517 10.1417 43.3644 0.2511 3.7430
# 5 38.0217 12.2755 31.2949 0.2511 44.0885 2.4629
# 6 -0.9941 -11.0516 7.7779 3.7430 2.4629 36.8885
#
#
#
# Elastic Compliance Matrix: (Units=1/GPa)
#
#
# Indices 1 2 3 4 5 6 
#
# 1 0.013697 -0.002699 0.001333 -0.002902 -0.012012 0.000376
# 2 -0.002699 0.011974 -0.003923 0.000257 0.001541 0.004213
# 3 0.001333 -0.003923 0.014686 -0.003094 -0.010284 -0.003235
# 4 -0.002902 0.000257 -0.003094 0.024521 0.004607 -0.002144
# 5 -0.012012 0.001541 -0.010284 0.004607 0.039931 -0.000827
# 6 0.000376 0.004213 -0.003235 -0.002144 -0.000827 0.029336
#
#
# Mechanical properties :
#
#
# Convention : Reuss Voigt Hill
#
# Bulk Modulus (GPa) = 33.57838 54.07047 43.82442
# Shear Modulus (GPa) = 32.33136 40.04594 36.18865
#
# Velocity S-wave (km/s) = 3.75960 4.18417 3.97755
# Velocity P-wave (km/s) = 5.79016 6.85430 6.34458
#
# Compressibility (1/GPa) = 0.02978107
#
# Stress axis : x y z
#
# Youngs Moduli (GPa) = 73.00883 83.51291 68.09150
#
# Poissons Ratio (x) = 0.22538 -0.09078
# Poissons Ratio (y) = 0.19704 0.26709
# Poissons Ratio (z) = -0.09734 0.32759
#
# Static dielectric constant tensor:
#      x y z
#    x 3.709720 0.155860 0.224110 
#    y 0.155860 3.902960 -0.094450 
#    z 0.224110 -0.094450 4.353760 
# 
# 
# High freq. dielectric constant tensor:
#      x y z
#    x 1.900570 -0.009880 0.022670 
#    y -0.009880 1.901760 -0.000870 
#    z 0.022670 -0.000870 1.913290 
# 
# From -- ./inp_files/419805.got.cif
#   From: 2010.06.25/outbox.cif.g09.slc.cpg/sg2_210_cif.got.tgz:419805.got - 2010.06.27 13:26:56.
