data_PCOD8007199
_publ_section_title
;
Structure prediction by ZEFSAII (Michael W. Deem and Ramdas Pophale) SiO2 
 PCOD8007199
Probable space group: P -1
;
_chemical_formula_sum "Si O2"
_cell_formula_units_Z 16
_cell_length_a 18.043510
_cell_length_b 12.100673
_cell_length_c 9.289977
_cell_angle_alpha 108.247620
_cell_angle_beta 61.172385
_cell_angle_gamma 151.258674
_cell_volume 825.027375
_symmetry_space_group_name_H-M "P -1"
_symmetry_group_IT_number 2
_symmetry_cell_setting 'triclinic'
loop_
_space_group_symop_operation_xyz
x,y,z
-x,-y,-z
loop_
_atom_site_type_symbol
_atom_site_label
_atom_site_fract_x
_atom_site_fract_y
_atom_site_fract_z
Si Si1 0.626111 0.844604 0.217835
Si Si2 0.198026 0.801077 0.564249
Si Si3 0.616922 0.540666 0.472128
Si Si4 0.905901 0.567558 0.569589
Si Si5 0.176499 0.052531 0.387362
Si Si6 0.386500 0.632960 0.106636
Si Si7 0.701771 0.726050 0.933614
Si Si8 0.539173 0.793982 0.738479
O O1 0.466216 0.610671 0.367388
O O2 0.548800 0.811774 0.134500
O O3 0.740595 0.075933 0.290073
O O4 0.745324 0.875059 0.076298
O O5 0.143439 0.601617 0.553315
O O6 0.035951 0.684972 0.621350
O O7 0.346349 0.983763 0.377243
O O8 0.500000 0.500000 0.500000
O O9 0.801389 0.816389 0.461082
O O10 0.622005 0.447837 0.306130
O O11 0.734801 0.412224 0.738038
O O12 0.994673 0.770424 0.467277
O O13 0.176807 0.105364 0.248917
O O14 0.340663 0.165048 0.296688
O O15 0.275827 0.381001 0.081766
O O16 0.459955 0.765310 0.937988
O O17 0.500000 0.500000 0.000000
#
# Coordination Sequence:
#
# PCOD8007199 Si02
#       8
#     2   2   2   2   2   2   2   2
#     4  10  18  34  61  82 104 143 188 227 257 322
#     4   9  21  42  58  72 107 154 192 213 266 334
#     4   9  15  27  51  82 104 139 184 212 253 324
#     4  10  23  37  55  78 114 149 179 222 279 323
#     4  10  16  32  53  77 111 147 174 209 277 334
#     4  11  20  33  57  90 111 132 182 236 276 306
#     4  10  16  30  54  85 112 133 175 226 272 323
#     4   9  17  31  58  80 102 143 187 226 259 319
#
# _framework density 19.393297
#
# number of rings (size 3 to 8) (size 9 to 14) (size 15 to 20)
#    0.000    2.250    5.000    1.500    0.000    1.500 
#    0.000    3.125    2.750    0.000    0.000    0.000 
#    0.000    0.000    0.000    0.000    0.000    0.000 
#
# Total GULP energy -198296.721463 kJ/mol
# GULP energy per Si atom -12393.545091 kJ/mol
# Density = 1.934916 g / cm^3
# Si number density = 19.393297 Si / 1000 Ang^3
#
#
#
# Elastic Constant Matrix: (Units=GPa)
#
#
# Indices 1 2 3 4 5 6 
#
# 1 28.5860 19.7713 19.9151 7.7215 -0.8341 -2.4973
# 2 19.7713 115.1277 35.0049 26.6084 7.8059 -7.2758
# 3 19.9151 35.0049 79.9529 23.8465 13.4707 11.0984
# 4 7.7215 26.6084 23.8465 25.2598 -0.6250 1.2567
# 5 -0.8341 7.8059 13.4707 -0.6250 28.5998 -2.2828
# 6 -2.4973 -7.2758 11.0984 1.2567 -2.2828 11.1712
#
#
#
# Elastic Compliance Matrix: (Units=1/GPa)
#
#
# Indices 1 2 3 4 5 6 
#
# 1 0.053254 -0.002996 -0.020436 0.004907 0.014715 0.032712
# 2 -0.002996 0.013671 -0.003550 -0.010799 -0.001369 0.012696
# 3 -0.020436 -0.003550 0.034849 -0.021258 -0.019953 -0.043189
# 4 0.004907 -0.010799 -0.021258 0.069391 0.015461 0.010536
# 5 0.014715 -0.001369 -0.019953 0.015461 0.047921 0.030274
# 6 0.032712 0.012696 -0.043189 0.010536 0.030274 0.153006
#
#
# Mechanical properties :
#
#
# Convention : Reuss Voigt Hill
#
# Bulk Modulus (GPa) = 20.91657 41.44989 31.18323
# Shear Modulus (GPa) = 11.31240 22.93786 17.12513
#
# Velocity S-wave (km/s) = 2.41781 3.44288 2.97483
# Velocity P-wave (km/s) = 4.31315 6.10117 5.28335
#
# Compressibility (1/GPa) = 0.04780898
#
# Stress axis : x y z
#
# Youngs Moduli (GPa) = 18.77809 73.14759 28.69510
#
# Poissons Ratio (x) = 0.21916 0.58643
# Poissons Ratio (y) = 0.05626 0.10186
# Poissons Ratio (z) = 0.38376 0.25966
#
# Static dielectric constant tensor:
#      x y z
#    x 3.231000 -0.162520 0.105950 
#    y -0.162520 3.640780 0.293360 
#    z 0.105950 0.293360 3.630460 
# 
# 
# High freq. dielectric constant tensor:
#      x y z
#    x 1.720270 -0.015950 0.013270 
#    y -0.015950 1.745450 0.014440 
#    z 0.013270 0.014440 1.749450 
# 
# From -- ./inp_files/176649.got.cif
#   From: 2010.06.25/outbox.cif.g09.slc.cpg/sg2_89_cif.got.tgz:176649.got - 2010.06.27 13:26:56.
