data_PCOD8007605
_publ_section_title
;
Structure prediction by ZEFSAII (Michael W. Deem and Ramdas Pophale) SiO2 
 PCOD8007605
Probable space group: P -1
;
_chemical_formula_sum "Si O2"
_cell_formula_units_Z 16
_cell_length_a 14.821667
_cell_length_b 11.759741
_cell_length_c 9.705616
_cell_angle_alpha 84.931352
_cell_angle_beta 108.547657
_cell_angle_gamma 150.431905
_cell_volume 724.461882
_symmetry_space_group_name_H-M "P -1"
_symmetry_group_IT_number 2
_symmetry_cell_setting 'triclinic'
loop_
_space_group_symop_operation_xyz
x,y,z
-x,-y,-z
loop_
_atom_site_type_symbol
_atom_site_label
_atom_site_fract_x
_atom_site_fract_y
_atom_site_fract_z
Si Si1 0.868065 0.366131 0.085370
Si Si2 0.584990 0.262088 0.565307
Si Si3 0.338863 0.096325 0.950500
Si Si4 0.163282 0.677838 0.435497
Si Si5 0.984652 0.083818 0.875414
Si Si6 0.292363 0.580655 0.083819
Si Si7 0.463478 0.316921 0.284001
Si Si8 0.292025 0.281307 0.828877
O O1 0.026257 0.580140 0.254861
O O2 0.778202 0.147311 0.105513
O O3 0.688394 0.268571 0.980279
O O4 0.000000 0.500000 0.000000
O O5 0.735767 0.336443 0.549339
O O6 0.690463 0.408753 0.744608
O O7 0.565918 0.350168 0.448065
O O8 0.355404 0.968628 0.524460
O O9 0.537975 0.313926 0.922765
O O10 0.198566 0.052688 0.827438
O O11 0.409730 0.185577 0.134262
O O12 0.000000 0.500000 0.500000
O O13 0.121001 0.192925 0.798133
O O14 0.065761 0.287036 0.964957
O O15 0.745833 0.849143 0.739079
O O16 0.000000 0.000000 0.000000
O O17 0.630459 0.596199 0.298188
O O18 0.500000 0.500000 0.000000
#
# Coordination Sequence:
#
# PCOD8007605 Si02
#       8
#     2   2   2   2   2   2   2   2
#     4  12  24  41  66 102 127 173 222 272 324 395
#     4  11  26  43  62  95 141 175 212 275 334 393
#     4  11  22  40  69  97 129 166 226 274 320 391
#     4  11  25  44  64  92 138 180 219 265 336 395
#     4  12  21  40  72  97 127 174 225 272 323 387
#     4  12  24  41  66 100 134 170 221 272 326 389
#     4  11  23  41  68  95 130 176 220 269 331 391
#     4  10  20  41  66 101 125 169 223 276 322 383
#
# _framework density 22.085357999999999
#
# number of rings (size 3 to 8) (size 9 to 14) (size 15 to 20)
#    0.000    0.750    6.250    3.375    3.500    1.000 
#    0.000    2.500    0.000    2.250    0.000    0.000 
#    0.000    0.000    0.000    0.000    0.000    0.000 
#
# Total GULP energy -198352.055512 kJ/mol
# GULP energy per Si atom -12397.003469 kJ/mol
# Density = 2.203509 g / cm^3
# Si number density = 22.085358 Si / 1000 Ang^3
#
#
#
# Elastic Constant Matrix: (Units=GPa)
#
#
# Indices 1 2 3 4 5 6 
#
# 1 127.0611 48.8605 55.5337 -16.6198 11.3445 0.0364
# 2 48.8605 112.9858 39.8146 -23.1817 2.4732 -1.0546
# 3 55.5337 39.8146 100.7259 -19.8766 19.3927 1.3507
# 4 -16.6198 -23.1817 -19.8766 27.7783 -6.6197 -1.9494
# 5 11.3445 2.4732 19.3927 -6.6197 33.8331 -10.2686
# 6 0.0364 -1.0546 1.3507 -1.9494 -10.2686 48.7827
#
#
#
# Elastic Compliance Matrix: (Units=1/GPa)
#
#
# Indices 1 2 3 4 5 6 
#
# 1 0.011263 -0.003061 -0.004735 0.000615 -0.000741 -0.000075
# 2 -0.003061 0.012574 -0.002415 0.007852 0.003447 0.001380
# 3 -0.004735 -0.002415 0.015764 0.004667 -0.006889 -0.001749
# 4 0.000615 0.007852 0.004667 0.048172 0.007015 0.003442
# 5 -0.000741 0.003447 -0.006889 0.007015 0.037432 0.008425
# 6 -0.000075 0.001380 -0.001749 0.003442 0.008425 0.022488
#
#
# Mechanical properties :
#
#
# Convention : Reuss Voigt Hill
#
# Bulk Modulus (GPa) = 52.14025 69.91004 61.02515
# Shear Modulus (GPa) = 28.65188 35.18308 31.91748
#
# Velocity S-wave (km/s) = 3.60575 3.99563 3.80569
# Velocity P-wave (km/s) = 6.40273 7.28079 6.85584
#
# Compressibility (1/GPa) = 0.01917904
#
# Stress axis : x y z
#
# Youngs Moduli (GPa) = 88.78413 79.53027 63.43578
#
# Poissons Ratio (x) = 0.24341 0.30037
# Poissons Ratio (y) = 0.27173 0.15322
# Poissons Ratio (z) = 0.42039 0.19210
#
# Static dielectric constant tensor:
#      x y z
#    x 4.336090 0.407640 -0.023910 
#    y 0.407640 3.966990 -0.064130 
#    z -0.023910 -0.064130 3.620490 
# 
# 
# High freq. dielectric constant tensor:
#      x y z
#    x 1.884250 0.004250 0.004480 
#    y 0.004250 1.881370 -0.015620 
#    z 0.004480 -0.015620 1.839020 
# 
# From -- ./inp_files/307594.got.cif
#   From: 2010.06.25/outbox.cif.g09.slc.cpg/sg2_154_cif.got.tgz:307594.got - 2010.06.27 13:26:56.
