data_PCOD8007538
_publ_section_title
;
Structure prediction by ZEFSAII (Michael W. Deem and Ramdas Pophale) SiO2 
 PCOD8007538
Probable space group: P -1
;
_chemical_formula_sum "Si O2"
_cell_formula_units_Z 16
_cell_length_a 26.626047
_cell_length_b 9.825470
_cell_length_c 9.025364
_cell_angle_alpha 45.344007
_cell_angle_beta 44.671749
_cell_angle_gamma 27.929848
_cell_volume 757.347195
_symmetry_space_group_name_H-M "P -1"
_symmetry_group_IT_number 2
_symmetry_cell_setting 'triclinic'
loop_
_space_group_symop_operation_xyz
x,y,z
-x,-y,-z
loop_
_atom_site_type_symbol
_atom_site_label
_atom_site_fract_x
_atom_site_fract_y
_atom_site_fract_z
Si Si1 0.982896 0.234462 0.283610
Si Si2 0.606868 0.298302 0.590334
Si Si3 0.892419 0.970667 0.276989
Si Si4 0.807971 0.839028 0.340242
Si Si5 0.758248 0.030596 0.737869
Si Si6 0.878630 0.418108 0.036896
Si Si7 0.438045 0.328516 0.862158
Si Si8 0.234130 0.841871 0.063074
O O1 0.914055 0.486449 0.363812
O O2 0.918442 0.353110 0.173050
O O3 0.000000 0.000000 0.500000
O O4 0.103499 0.075399 0.128573
O O5 0.647057 0.279779 0.682591
O O6 0.504520 0.364350 0.776399
O O7 0.579998 0.548403 0.361113
O O8 0.709600 0.963213 0.558174
O O9 0.867224 0.883751 0.535191
O O10 0.844018 0.972822 0.228751
O O11 0.835310 0.294412 0.182889
O O12 0.023960 0.729648 0.170196
O O13 0.750098 0.989405 0.185948
O O14 0.737409 0.208070 0.786663
O O15 0.778781 0.771196 0.946742
O O16 0.322057 0.520549 0.044310
O O17 0.500000 0.000000 0.000000
#
# Coordination Sequence:
#
# PCOD8007538 Si02
#       8
#     2   2   2   2   2   2   2   2
#     4  12  24  37  62 100 134 174 220 259 319 393
#     4   9  23  42  67  97 117 168 219 262 325 387
#     4  10  22  38  56  90 130 179 216 251 308 384
#     4  10  20  41  65  85 136 170 212 264 314 386
#     4  11  22  39  63  94 133 160 213 270 328 377
#     4  11  22  38  60  91 136 178 214 258 317 385
#     4  10  23  46  69  89 122 166 221 273 317 383
#     4  11  22  40  65  91 127 174 212 266 325 374
#
# _framework density 21.126373999999998
#
# number of rings (size 3 to 8) (size 9 to 14) (size 15 to 20)
#    0.000    1.500    2.500    2.250    1.750    8.500 
#    0.000    0.625    0.000    0.000    0.000    0.000 
#    0.000    0.000    0.000    0.000    0.000    0.000 
#
# Total GULP energy -198213.096405 kJ/mol
# GULP energy per Si atom -12388.318525 kJ/mol
# Density = 2.107829 g / cm^3
# Si number density = 21.126374 Si / 1000 Ang^3
#
#
#
# Elastic Constant Matrix: (Units=GPa)
#
#
# Indices 1 2 3 4 5 6 
#
# 1 100.9901 20.2282 32.1114 -16.2490 23.2523 2.1914
# 2 20.2282 113.4403 26.7051 -18.1726 5.3522 3.0717
# 3 32.1114 26.7051 76.5200 -20.4791 20.1500 7.7815
# 4 -16.2490 -18.1726 -20.4791 37.9887 -1.3961 -2.2065
# 5 23.2523 5.3522 20.1500 -1.3961 34.6710 -0.7983
# 6 2.1914 3.0717 7.7815 -2.2065 -0.7983 29.6205
#
#
#
# Elastic Compliance Matrix: (Units=1/GPa)
#
#
# Indices 1 2 3 4 5 6 
#
# 1 0.013039 -0.000857 -0.002296 0.003656 -0.007135 -0.000193
# 2 -0.000857 0.010019 -0.002442 0.003126 0.000571 -0.000086
# 3 -0.002296 -0.002442 0.019980 0.008012 -0.009476 -0.004484
# 4 0.003656 0.003126 0.008012 0.033450 -0.006253 -0.000376
# 5 -0.007135 0.000571 -0.009476 -0.006253 0.038877 0.003540
# 6 -0.000193 -0.000086 -0.004484 -0.000376 0.003540 0.035029
#
#
# Mechanical properties :
#
#
# Convention : Reuss Voigt Hill
#
# Bulk Modulus (GPa) = 31.39909 49.89332 40.64621
# Shear Modulus (GPa) = 29.03619 34.58307 31.80963
#
# Velocity S-wave (km/s) = 3.71132 4.05033 3.88452
# Velocity P-wave (km/s) = 5.76714 6.74844 6.27700
#
# Compressibility (1/GPa) = 0.03184806
#
# Stress axis : x y z
#
# Youngs Moduli (GPa) = 76.69372 99.81004 50.05101
#
# Poissons Ratio (x) = 0.08554 0.11489
# Poissons Ratio (y) = 0.06573 0.12223
# Poissons Ratio (z) = 0.17605 0.24375
#
# Static dielectric constant tensor:
#      x y z
#    x 3.890060 0.088040 0.176280 
#    y 0.088040 3.868180 0.160100 
#    z 0.176280 0.160100 4.000920 
# 
# 
# High freq. dielectric constant tensor:
#      x y z
#    x 1.817350 -0.001990 0.013370 
#    y -0.001990 1.816660 0.004040 
#    z 0.013370 0.004040 1.832140 
# 
# From -- ./inp_files/356353.got.cif
#   From: 2010.06.25/outbox.cif.g09.slc.cpg/sg2_179_cif.got.tgz:356353.got - 2010.06.27 13:26:56.
