data_PCOD8007770
_publ_section_title
;
Structure prediction by ZEFSAII (Michael W. Deem and Ramdas Pophale) SiO2 
 PCOD8007770
Probable space group: P -1
;
_chemical_formula_sum "Si O2"
_cell_formula_units_Z 16
_cell_length_a 9.525056
_cell_length_b 8.848014
_cell_length_c 17.458645
_cell_angle_alpha 72.718905
_cell_angle_beta 49.906931
_cell_angle_gamma 46.561309
_cell_volume 788.670162
_symmetry_space_group_name_H-M "P -1"
_symmetry_group_IT_number 2
_symmetry_cell_setting 'triclinic'
loop_
_space_group_symop_operation_xyz
x,y,z
-x,-y,-z
loop_
_atom_site_type_symbol
_atom_site_label
_atom_site_fract_x
_atom_site_fract_y
_atom_site_fract_z
Si Si1 0.961401 0.522640 0.635871
Si Si2 0.011495 0.022740 0.082141
Si Si3 0.682944 0.439650 0.233809
Si Si4 0.628162 0.179267 0.820436
Si Si5 0.406003 0.300359 0.398888
Si Si6 0.540274 0.657431 0.987070
Si Si7 0.875394 0.712909 0.791891
Si Si8 0.066758 0.130413 0.728103
O O1 0.221182 0.392508 0.520924
O O2 0.953474 0.363209 0.708934
O O3 0.729423 0.669006 0.637232
O O4 0.935191 0.673633 0.686187
O O5 0.825564 0.269182 0.138925
O O6 0.954599 0.893552 0.169367
O O7 0.000000 0.000000 0.000000
O O8 0.296029 0.906061 0.015727
O O9 0.505479 0.684877 0.230370
O O10 0.501038 0.423941 0.342631
O O11 0.872830 0.400347 0.233712
O O12 0.905462 0.091310 0.746347
O O13 0.664123 0.969819 0.839119
O O14 0.435366 0.347335 0.929127
O O15 0.641745 0.048288 0.370436
O O16 0.774541 0.601359 0.872141
O O17 0.500000 0.500000 0.000000
#
# Coordination Sequence:
#
# PCOD8007770 Si02
#       8
#     2   2   2   2   2   2   2   2
#     4  11  24  40  69  96 125 167 221 267 321 383
#     4  10  21  37  64  96 126 172 211 254 313 384
#     4  11  23  42  64  91 131 170 208 265 324 372
#     4  11  22  42  63  91 133 171 203 264 317 379
#     4  10  22  43  68  94 124 169 218 270 318 382
#     4  11  23  41  64  93 131 169 210 259 312 379
#     4  12  25  42  62  97 129 165 211 266 323 377
#     4  10  20  41  68  92 128 170 213 265 320 375
#
# _framework density 20.287316000000001
#
# number of rings (size 3 to 8) (size 9 to 14) (size 15 to 20)
#    0.000    1.250    5.000    3.000    3.500    2.000 
#    2.250    0.625    0.000    0.000    0.000    0.000 
#    0.000    0.000    0.000    0.000    0.000    0.000 
#
# Total GULP energy -198364.007775 kJ/mol
# GULP energy per Si atom -12397.750486 kJ/mol
# Density = 2.024114 g / cm^3
# Si number density = 20.287316 Si / 1000 Ang^3
#
#
#
# Elastic Constant Matrix: (Units=GPa)
#
#
# Indices 1 2 3 4 5 6 
#
# 1 103.3797 35.5911 65.2720 0.5665 7.1293 7.3783
# 2 35.5911 82.1049 18.1828 -6.2350 8.2764 -0.8593
# 3 65.2720 18.1828 102.5666 6.2328 4.4091 2.3546
# 4 0.5665 -6.2350 6.2328 27.3222 -1.0693 -2.3640
# 5 7.1293 8.2764 4.4091 -1.0693 32.4008 3.0701
# 6 7.3783 -0.8593 2.3546 -2.3640 3.0701 32.5147
#
#
#
# Elastic Compliance Matrix: (Units=1/GPa)
#
#
# Indices 1 2 3 4 5 6 
#
# 1 0.018785 -0.005652 -0.010863 0.000461 -0.000864 -0.003510
# 2 -0.005652 0.015018 0.000797 0.003438 -0.002790 0.002135
# 3 -0.010863 0.000797 0.016712 -0.003325 -0.000298 0.001062
# 4 0.000461 0.003438 -0.003325 0.038409 0.000458 0.002976
# 5 -0.000864 -0.002790 -0.000298 0.000458 0.032092 -0.002853
# 6 -0.003510 0.002135 0.001062 0.002976 -0.002853 0.032017
#
#
# Mechanical properties :
#
#
# Convention : Reuss Voigt Hill
#
# Bulk Modulus (GPa) = 52.41596 58.46032 55.43814
# Shear Modulus (GPa) = 26.20134 29.71456 27.95795
#
# Velocity S-wave (km/s) = 3.59766 3.83127 3.71630
# Velocity P-wave (km/s) = 6.56890 6.96063 6.76760
#
# Compressibility (1/GPa) = 0.01907816
#
# Stress axis : x y z
#
# Youngs Moduli (GPa) = 53.23354 66.58734 59.83702
#
# Poissons Ratio (x) = 0.37635 0.65001
# Poissons Ratio (y) = 0.30088 -0.04766
# Poissons Ratio (z) = 0.57827 -0.05304
#
# Static dielectric constant tensor:
#      x y z
#    x 3.665240 -0.178440 -0.001100 
#    y -0.178440 3.740610 0.012310 
#    z -0.001100 0.012310 3.794400 
# 
# 
# High freq. dielectric constant tensor:
#      x y z
#    x 1.785210 -0.014150 -0.002830 
#    y -0.014150 1.795610 0.000300 
#    z -0.002830 0.000300 1.792660 
# 
# From -- ./inp_files/495204.got.cif
#   From: 2010.06.25/outbox.cif.g09.slc.cpg/sg2_248_cif.got.tgz:495204.got - 2010.06.27 13:26:56.
