data_PCOD8007922
_publ_section_title
;
Structure prediction by ZEFSAII (Michael W. Deem and Ramdas Pophale) SiO2 
 PCOD8007922
Probable space group: P -1
;
_chemical_formula_sum "Si O2"
_cell_formula_units_Z 16
_cell_length_a 10.223107
_cell_length_b 7.885508
_cell_length_c 11.664171
_cell_angle_alpha 50.232014
_cell_angle_beta 98.456291
_cell_angle_gamma 99.466013
_cell_volume 711.824769
_symmetry_space_group_name_H-M "P -1"
_symmetry_group_IT_number 2
_symmetry_cell_setting 'triclinic'
loop_
_space_group_symop_operation_xyz
x,y,z
-x,-y,-z
loop_
_atom_site_type_symbol
_atom_site_label
_atom_site_fract_x
_atom_site_fract_y
_atom_site_fract_z
Si Si1 0.041102 0.358635 0.677177
Si Si2 0.375716 0.450135 0.427715
Si Si3 0.220795 0.057818 0.700222
Si Si4 0.228095 0.816045 0.173677
Si Si5 0.598393 0.160325 0.017313
Si Si6 0.489530 0.228800 0.335285
Si Si7 0.222159 0.625119 0.771124
Si Si8 0.360452 0.277964 0.060640
O O1 0.117477 0.152473 0.733051
O O2 0.128298 0.513084 0.709599
O O3 0.000000 0.500000 0.500000
O O4 0.925863 0.242552 0.793127
O O5 0.500000 0.500000 0.500000
O O6 0.271787 0.245066 0.536198
O O7 0.302787 0.671482 0.335433
O O8 0.426049 0.412702 0.322918
O O9 0.351560 0.987026 0.810237
O O10 0.154769 0.838996 0.719452
O O11 0.273327 0.073500 0.079255
O O12 0.274113 0.740514 0.084054
O O13 0.504053 0.339047 0.984816
O O14 0.500000 0.000000 0.000000
O O15 0.640559 0.308733 0.300278
O O16 0.392610 0.203342 0.224467
O O17 0.500000 0.000000 0.500000
O O18 0.261999 0.472789 0.950422
#
# Coordination Sequence:
#
# PCOD8007922 Si02
#       8
#     2   2   2   2   2   2   2   2
#     4  12  28  51  73 101 148 204 254 304 358 435
#     4  12  23  41  69 110 139 184 242 300 372 437
#     4  12  25  46  72 101 149 192 245 303 361 434
#     4  11  25  45  73 100 142 193 247 295 364 436
#     4  10  20  41  72 104 142 182 230 297 372 439
#     4  12  23  41  74 110 148 182 239 306 377 440
#     4  12  27  47  73 108 151 193 246 304 373 439
#     4  11  24  46  74 113 149 185 230 315 383 437
#
# _framework density 22.477443000000001
#
# number of rings (size 3 to 8) (size 9 to 14) (size 15 to 20)
#    0.000    0.500    3.750    5.625    3.500    2.500 
#    2.250    1.250    0.000    0.000    0.000    0.000 
#    0.000    0.000    0.000    0.000    0.000    0.000 
#
# Total GULP energy -198312.571284 kJ/mol
# GULP energy per Si atom -12394.535705 kJ/mol
# Density = 2.242628 g / cm^3
# Si number density = 22.477443 Si / 1000 Ang^3
#
#
#
# Elastic Constant Matrix: (Units=GPa)
#
#
# Indices 1 2 3 4 5 6 
#
# 1 96.9724 55.7083 22.3886 1.9284 -11.6908 -3.9826
# 2 55.7083 113.2225 26.3447 3.2871 -4.3387 -12.3953
# 3 22.3886 26.3447 90.7058 1.5341 -5.8954 10.4092
# 4 1.9284 3.2871 1.5341 45.2343 -3.4101 5.5324
# 5 -11.6908 -4.3387 -5.8954 -3.4101 38.2152 2.6656
# 6 -3.9826 -12.3953 10.4092 5.5324 2.6656 38.7127
#
#
#
# Elastic Compliance Matrix: (Units=1/GPa)
#
#
# Indices 1 2 3 4 5 6 
#
# 1 0.015084 -0.007037 -0.001374 0.000268 0.003671 -0.000623
# 2 -0.007037 0.013421 -0.002764 -0.001256 -0.001488 0.004598
# 3 -0.001374 -0.002764 0.012796 0.000516 0.001611 -0.004652
# 4 0.000268 -0.001256 0.000516 0.022827 0.002330 -0.003936
# 5 0.003671 -0.001488 0.001611 0.002330 0.027772 -0.002777
# 6 -0.000623 0.004598 -0.004652 -0.003936 -0.002777 0.029244
#
#
# Mechanical properties :
#
#
# Convention : Reuss Voigt Hill
#
# Bulk Modulus (GPa) = 52.76846 56.64265 54.70555
# Shear Modulus (GPa) = 33.37564 37.52972 35.45268
#
# Velocity S-wave (km/s) = 3.85756 4.09058 3.97578
# Velocity P-wave (km/s) = 6.58545 6.89674 6.74289
#
# Compressibility (1/GPa) = 0.01895072
#
# Stress axis : x y z
#
# Youngs Moduli (GPa) = 66.29657 74.51170 78.14779
#
# Poissons Ratio (x) = 0.52436 0.10734
# Poissons Ratio (y) = 0.46655 0.21601
# Poissons Ratio (z) = 0.09106 0.20596
#
# Static dielectric constant tensor:
#      x y z
#    x 4.249820 -0.505240 -0.025160 
#    y -0.505240 4.631230 -0.030680 
#    z -0.025160 -0.030680 4.128150 
# 
# 
# High freq. dielectric constant tensor:
#      x y z
#    x 1.874360 -0.013950 0.002460 
#    y -0.013950 1.897120 -0.004890 
#    z 0.002460 -0.004890 1.903190 
# 
# From -- ./inp_files/381082.got.cif
#   From: 2010.06.25/outbox.cif.g09.slc.cpg/sg2_191_cif.got.tgz:381082.got - 2010.06.27 13:26:56.
