data_PCOD8007842
_publ_section_title
;
Structure prediction by ZEFSAII (Michael W. Deem and Ramdas Pophale) SiO2 
 PCOD8007842
Probable space group: P -1
;
_chemical_formula_sum "Si O2"
_cell_formula_units_Z 16
_cell_length_a 24.189417
_cell_length_b 9.480975
_cell_length_c 9.597533
_cell_angle_alpha 133.803931
_cell_angle_beta 43.002769
_cell_angle_gamma 152.110836
_cell_volume 694.936272
_symmetry_space_group_name_H-M "P -1"
_symmetry_group_IT_number 2
_symmetry_cell_setting 'triclinic'
loop_
_space_group_symop_operation_xyz
x,y,z
-x,-y,-z
loop_
_atom_site_type_symbol
_atom_site_label
_atom_site_fract_x
_atom_site_fract_y
_atom_site_fract_z
Si Si1 0.886163 0.059930 0.704125
Si Si2 0.517434 0.547933 0.164651
Si Si3 0.137377 0.717884 0.691654
Si Si4 0.241451 0.802489 0.838523
Si Si5 0.399108 0.640810 0.929304
Si Si6 0.884707 0.894173 0.885888
Si Si7 0.856408 0.780084 0.303242
Si Si8 0.682808 0.729070 0.431545
O O1 0.016709 0.387731 0.622133
O O2 0.913915 0.964797 0.715945
O O3 0.815780 0.810772 0.542564
O O4 0.798156 0.076410 0.922785
O O5 0.580598 0.467067 0.052309
O O6 0.387870 0.349452 0.349683
O O7 0.609059 0.902067 0.263320
O O8 0.500000 0.500000 0.000000
O O9 0.173372 0.654455 0.714908
O O10 0.254145 0.955270 0.530418
O O11 0.101574 0.866363 0.911727
O O12 0.210256 0.553613 0.814431
O O13 0.412461 0.544291 0.693348
O O14 0.255292 0.455969 0.075083
O O15 0.500000 0.000000 0.000000
O O16 0.990760 0.954125 0.804071
O O17 0.801091 0.802018 0.291986
#
# Coordination Sequence:
#
# PCOD8007842 Si02
#       8
#     2   2   2   2   2   2   2   2
#     4  11  20  41  68 106 136 184 244 284 358 425
#     4  12  26  49  73  98 145 198 242 293 353 436
#     4  10  20  41  69  94 140 189 226 296 367 411
#     4  11  22  43  70  96 141 190 238 296 345 429
#     4  11  26  47  74 106 143 191 237 297 365 425
#     4  10  20  42  68 100 142 186 233 294 355 426
#     4  12  25  39  70 109 139 184 244 292 356 428
#     4  11  27  46  66 110 147 185 237 298 370 421
#
# _framework density 23.023693999999999
#
# number of rings (size 3 to 8) (size 9 to 14) (size 15 to 20)
#    0.000    1.000    6.250    2.250    1.750    5.000 
#    0.000    0.000    0.000    0.000    0.000    0.000 
#    0.000    0.000    0.000    0.000    0.000    0.000 
#
# Total GULP energy -198386.715562 kJ/mol
# GULP energy per Si atom -12399.169723 kJ/mol
# Density = 2.297129 g / cm^3
# Si number density = 23.023694 Si / 1000 Ang^3
#
#
#
# Elastic Constant Matrix: (Units=GPa)
#
#
# Indices 1 2 3 4 5 6 
#
# 1 88.0543 9.7355 16.3764 0.4119 8.8487 3.2631
# 2 9.7355 126.6828 26.4098 -5.6127 -2.8797 4.1361
# 3 16.3764 26.4098 73.1550 -11.8919 15.6547 4.4197
# 4 0.4119 -5.6127 -11.8919 36.6597 2.8496 -0.7342
# 5 8.8487 -2.8797 15.6547 2.8496 30.5669 -5.9111
# 6 3.2631 4.1361 4.4197 -0.7342 -5.9111 21.9083
#
#
#
# Elastic Compliance Matrix: (Units=1/GPa)
#
#
# Indices 1 2 3 4 5 6 
#
# 1 0.012146 -0.000574 -0.001847 -0.000635 -0.002982 -0.002154
# 2 -0.000574 0.008764 -0.003652 -0.000060 0.002855 -0.000064
# 3 -0.001847 -0.003652 0.019237 0.006471 -0.011381 -0.005770
# 4 -0.000635 -0.000060 0.006471 0.029825 -0.006283 -0.001895
# 5 -0.002982 0.002855 -0.011381 -0.006283 0.042884 0.013561
# 6 -0.002154 -0.000064 -0.005770 -0.001895 0.013561 0.050737
#
#
# Mechanical properties :
#
#
# Convention : Reuss Voigt Hill
#
# Bulk Modulus (GPa) = 35.71277 43.65952 39.68615
# Shear Modulus (GPa) = 27.01631 33.51834 30.26733
#
# Velocity S-wave (km/s) = 3.42923 3.81966 3.62970
# Velocity P-wave (km/s) = 5.58789 6.20138 5.90261
#
# Compressibility (1/GPa) = 0.02800118
#
# Stress axis : x y z
#
# Youngs Moduli (GPa) = 82.33178 114.10887 51.98187
#
# Poissons Ratio (x) = 0.06550 0.09600
# Poissons Ratio (y) = 0.04726 0.18985
# Poissons Ratio (z) = 0.15205 0.41674
#
# Static dielectric constant tensor:
#      x y z
#    x 4.148720 0.069310 0.070400 
#    y 0.069310 4.291010 -0.193370 
#    z 0.070400 -0.193370 3.955780 
# 
# 
# High freq. dielectric constant tensor:
#      x y z
#    x 1.903690 0.006280 0.006090 
#    y 0.006280 1.915890 -0.006810 
#    z 0.006090 -0.006810 1.896910 
# 
# From -- ./inp_files/352414.got.cif
#   From: 2010.06.25/outbox.cif.g09.slc.cpg/sg2_177_cif.got.tgz:352414.got - 2010.06.27 13:26:56.
