data_PCOD8007557
_publ_section_title
;
Structure prediction by ZEFSAII (Michael W. Deem and Ramdas Pophale) SiO2 
 PCOD8007557
Probable space group: P -1
;
_chemical_formula_sum "Si O2"
_cell_formula_units_Z 14
_cell_length_a 12.868161
_cell_length_b 15.324170
_cell_length_c 9.538180
_cell_angle_alpha 104.225738
_cell_angle_beta 86.911861
_cell_angle_gamma 27.649145
_cell_volume 674.502429
_symmetry_space_group_name_H-M "P -1"
_symmetry_group_IT_number 2
_symmetry_cell_setting 'triclinic'
loop_
_space_group_symop_operation_xyz
x,y,z
-x,-y,-z
loop_
_atom_site_type_symbol
_atom_site_label
_atom_site_fract_x
_atom_site_fract_y
_atom_site_fract_z
Si Si1 0.273606 0.850395 0.220564
Si Si2 0.230200 0.369397 0.612835
Si Si3 0.806137 0.083048 0.346825
Si Si4 0.722837 0.474607 0.255504
Si Si5 0.190738 0.442330 0.318194
Si Si6 0.255491 0.931250 0.962424
Si Si7 0.829796 0.906076 0.478769
O O1 0.204771 0.005778 0.344394
O O2 0.017809 0.991536 0.337008
O O3 0.557441 0.586392 0.168124
O O4 0.334416 0.800195 0.030486
O O5 0.147664 0.528674 0.758639
O O6 0.234644 0.381874 0.451627
O O7 0.005181 0.473733 0.710829
O O8 0.536546 0.091966 0.535299
O O9 0.494605 0.358542 0.532935
O O10 0.793428 0.085205 0.181449
O O11 0.909118 0.907315 0.342447
O O12 0.972323 0.204733 0.145346
O O13 0.064318 0.643650 0.388192
O O14 0.495558 0.196152 0.125762
#
# Coordination Sequence:
#
# PCOD8007557 Si02
#       7
#     2   2   2   2   2   2   2
#     4  10  23  41  63  89 122 163 204 250 302 350
#     4   9  20  41  63  89 121 161 201 246 304 361
#     4  10  22  45  61  87 126 164 201 249 300 357
#     4  10  22  43  61  89 126 157 203 252 295 364
#     4  11  21  37  65  92 121 159 201 249 306 359
#     4  12  24  38  62  95 123 158 204 251 299 360
#     4  10  20  41  65  89 121 162 204 245 301 363
#
# _framework density 20.756039999999999
#
# number of rings (size 3 to 8) (size 9 to 14) (size 15 to 20)
#    0.000    2.000    2.857    3.429    2.000    1.714 
#    5.143    2.857    0.000    0.000    0.000    0.000 
#    0.000    0.000    0.000    0.000    0.000    0.000 
#
# Total GULP energy -173573.489708 kJ/mol
# GULP energy per Si atom -12398.106408 kJ/mol
# Density = 2.070880 g / cm^3
# Si number density = 20.756040 Si / 1000 Ang^3
#
#
#
# Elastic Constant Matrix: (Units=GPa)
#
#
# Indices 1 2 3 4 5 6 
#
# 1 108.1141 36.1176 26.6434 9.8206 -17.2896 -31.6095
# 2 36.1176 66.2375 35.3706 -0.6180 -1.1412 -16.3480
# 3 26.6434 35.3706 74.7571 -8.4013 -7.9226 -2.1121
# 4 9.8206 -0.6180 -8.4013 41.1327 -3.0375 -3.2260
# 5 -17.2896 -1.1412 -7.9226 -3.0375 22.0589 2.6049
# 6 -31.6095 -16.3480 -2.1121 -3.2260 2.6049 26.4138
#
#
#
# Elastic Compliance Matrix: (Units=1/GPa)
#
#
# Indices 1 2 3 4 5 6 
#
# 1 0.018710 -0.003493 -0.003718 -0.003048 0.010542 0.018519
# 2 -0.003493 0.025842 -0.011480 -0.000737 -0.006983 0.011495
# 3 -0.003718 -0.011480 0.020997 0.004660 0.005842 -0.009882
# 4 -0.003048 -0.000737 0.004660 0.026132 0.002943 -0.000829
# 5 0.010542 -0.006983 0.005842 0.002943 0.055305 0.003666
# 6 0.018519 0.011495 -0.009882 -0.000829 0.003666 0.065882
#
#
# Mechanical properties :
#
#
# Convention : Reuss Voigt Hill
#
# Bulk Modulus (GPa) = 35.50191 49.48577 42.49384
# Shear Modulus (GPa) = 19.25755 27.98621 23.62188
#
# Velocity S-wave (km/s) = 3.04929 3.67596 3.37719
# Velocity P-wave (km/s) = 5.43499 6.47382 5.97701
#
# Compressibility (1/GPa) = 0.02816750
#
# Stress axis : x y z
#
# Youngs Moduli (GPa) = 53.44827 38.69680 47.62597
#
# Poissons Ratio (x) = 0.13516 0.17705
# Poissons Ratio (y) = 0.18669 0.54675
# Poissons Ratio (z) = 0.19870 0.44424
#
# Static dielectric constant tensor:
#      x y z
#    x 3.869420 -0.312520 -0.120130 
#    y -0.312520 3.895260 -0.076380 
#    z -0.120130 -0.076380 3.493840 
# 
# 
# High freq. dielectric constant tensor:
#      x y z
#    x 1.809830 -0.019160 -0.006790 
#    y -0.019160 1.827650 -0.009600 
#    z -0.006790 -0.009600 1.793010 
# 
# From -- ./inp_files/317734.got.cif
#   From: 2010.06.25/outbox.cif.g09.slc.cpg/sg2_159_cif.got.tgz:317734.got - 2010.06.27 13:26:56.
