data_PCOD8007639
_publ_section_title
;
Structure prediction by ZEFSAII (Michael W. Deem and Ramdas Pophale) SiO2 
 PCOD8007639
Probable space group: P -1
;
_chemical_formula_sum "Si O2"
_cell_formula_units_Z 14
_cell_length_a 7.721312
_cell_length_b 10.792431
_cell_length_c 13.956719
_cell_angle_alpha 133.003224
_cell_angle_beta 59.957415
_cell_angle_gamma 126.179881
_cell_volume 677.002807
_symmetry_space_group_name_H-M "P -1"
_symmetry_group_IT_number 2
_symmetry_cell_setting 'triclinic'
loop_
_space_group_symop_operation_xyz
x,y,z
-x,-y,-z
loop_
_atom_site_type_symbol
_atom_site_label
_atom_site_fract_x
_atom_site_fract_y
_atom_site_fract_z
Si Si1 0.517794 0.581366 0.381168
Si Si2 0.231635 0.241584 0.984018
Si Si3 0.681393 0.203317 0.557104
Si Si4 0.350003 0.156606 0.221614
Si Si5 0.545319 0.604902 0.178141
Si Si6 0.765276 0.069664 0.058247
Si Si7 0.101699 0.144936 0.462364
O O1 0.353291 0.688959 0.471573
O O2 0.375204 0.367953 0.328900
O O3 0.643105 0.599186 0.253539
O O4 0.698667 0.673664 0.460066
O O5 0.257530 0.269375 0.877313
O O6 0.243588 0.048537 0.907077
O O7 0.432850 0.398704 0.062129
O O8 0.998641 0.241373 0.079158
O O9 0.636208 0.305983 0.717335
O O10 0.921080 0.206608 0.498378
O O11 0.500000 0.000000 0.500000
O O12 0.196254 0.059536 0.304365
O O13 0.586414 0.152773 0.163001
O O14 0.247487 0.054517 0.097835
O O15 0.000000 0.000000 0.500000
#
# Coordination Sequence:
#
# PCOD8007639 Si02
#       7
#     2   2   2   2   2   2   2
#     4  10  23  44  62  96 132 161 211 265 315 385
#     4  10  20  41  66  93 121 176 209 264 317 375
#     4  10  22  41  65  93 126 165 208 260 320 371
#     4  11  25  43  60  94 133 162 217 265 314 383
#     4   9  21  40  65  94 130 156 222 262 309 384
#     4  10  23  41  65  90 127 171 210 263 321 373
#     4  12  25  42  68  96 125 174 211 262 322 377
#
# _framework density 20.679382
#
# number of rings (size 3 to 8) (size 9 to 14) (size 15 to 20)
#    0.857    0.857    2.857    0.429    8.000    0.571 
#    2.571    0.714    0.000    0.000    0.000    0.000 
#    0.000    0.000    0.000    0.000    0.000    0.000 
#
# Total GULP energy -173490.364779 kJ/mol
# GULP energy per Si atom -12392.168913 kJ/mol
# Density = 2.063231 g / cm^3
# Si number density = 20.679382 Si / 1000 Ang^3
#
#
#
# Elastic Constant Matrix: (Units=GPa)
#
#
# Indices 1 2 3 4 5 6 
#
# 1 119.1218 32.1818 21.5772 -5.3743 -14.0027 3.6594
# 2 32.1818 93.5240 28.9897 -13.7230 -5.1672 -8.0387
# 3 21.5772 28.9897 73.7022 -17.1063 -3.6968 -5.9662
# 4 -5.3743 -13.7230 -17.1063 35.8798 -3.4138 2.2513
# 5 -14.0027 -5.1672 -3.6968 -3.4138 29.6724 0.5289
# 6 3.6594 -8.0387 -5.9662 2.2513 0.5289 21.9821
#
#
#
# Elastic Compliance Matrix: (Units=1/GPa)
#
#
# Indices 1 2 3 4 5 6 
#
# 1 0.010118 -0.002959 -0.001841 0.000109 0.004103 -0.003376
# 2 -0.002959 0.013611 -0.003422 0.002943 0.000811 0.004220
# 3 -0.001841 -0.003422 0.017303 0.006607 0.001397 0.003041
# 4 0.000109 0.002943 0.006607 0.032693 0.005159 -0.000621
# 5 0.004103 0.000811 0.001397 0.005159 0.036572 -0.001416
# 6 -0.003376 0.004220 0.003041 -0.000621 -0.001416 0.048520
#
#
# Mechanical properties :
#
#
# Convention : Reuss Voigt Hill
#
# Bulk Modulus (GPa) = 40.66859 50.20505 45.43682
# Shear Modulus (GPa) = 27.25459 31.08014 29.16737
#
# Velocity S-wave (km/s) = 3.63431 3.88100 3.75968
# Velocity P-wave (km/s) = 6.10900 6.66434 6.39270
#
# Compressibility (1/GPa) = 0.02458900
#
# Stress axis : x y z
#
# Youngs Moduli (GPa) = 98.82939 73.47169 57.79440
#
# Poissons Ratio (x) = 0.21738 0.10639
# Poissons Ratio (y) = 0.29241 0.19777
# Poissons Ratio (z) = 0.18192 0.25141
#
# Static dielectric constant tensor:
#      x y z
#    x 3.740190 -0.053070 0.081980 
#    y -0.053070 3.729390 -0.144220 
#    z 0.081980 -0.144220 3.793780 
# 
# 
# High freq. dielectric constant tensor:
#      x y z
#    x 1.800520 -0.002090 0.010180 
#    y -0.002090 1.813700 -0.003540 
#    z 0.010180 -0.003540 1.801430 
# 
# From -- ./inp_files/400408.got.cif
#   From: 2010.06.25/outbox.cif.g09.slc.cpg/sg2_201_cif.got.tgz:400408.got - 2010.06.27 13:26:56.
