data_PCOD8007357
_publ_section_title
;
Structure prediction by ZEFSAII (Michael W. Deem and Ramdas Pophale) SiO2 
 PCOD8007357
Probable space group: P -1
;
_chemical_formula_sum "Si O2"
_cell_formula_units_Z 14
_cell_length_a 17.288741
_cell_length_b 18.200896
_cell_length_c 20.324762
_cell_angle_alpha 160.117304
_cell_angle_beta 19.242318
_cell_angle_gamma 149.196000
_cell_volume 692.550022
_symmetry_space_group_name_H-M "P -1"
_symmetry_group_IT_number 2
_symmetry_cell_setting 'triclinic'
loop_
_space_group_symop_operation_xyz
x,y,z
-x,-y,-z
loop_
_atom_site_type_symbol
_atom_site_label
_atom_site_fract_x
_atom_site_fract_y
_atom_site_fract_z
Si Si1 0.668841 0.229635 0.689059
Si Si2 0.191125 0.308335 0.722476
Si Si3 0.502817 0.868283 0.454471
Si Si4 0.376203 0.710500 0.732286
Si Si5 0.974485 0.925793 0.610825
Si Si6 0.920414 0.557705 0.931472
Si Si7 0.214384 0.615283 0.408767
O O1 0.825174 0.256219 0.520778
O O2 0.873269 0.146810 0.507572
O O3 0.504839 0.050463 0.662543
O O4 0.481245 0.451331 0.050175
O O5 0.450145 0.247774 0.428932
O O6 0.221814 0.390139 0.840976
O O7 0.098622 0.085207 0.603287
O O8 0.000000 0.500000 0.000000
O O9 0.258741 0.775351 0.568430
O O10 0.500000 0.000000 0.500000
O O11 0.741867 0.662298 0.102524
O O12 0.500000 0.500000 0.500000
O O13 0.141579 0.671995 0.851522
O O14 0.294812 0.930925 0.029883
O O15 0.968207 0.708858 0.390720
O O16 0.000000 0.500000 0.500000
#
# Coordination Sequence:
#
# PCOD8007357 Si02
#       7
#     2   2   2   2   2   2   2
#     4  10  20  41  61  88 131 169 203 270 317 377
#     4  11  23  45  65  91 133 169 213 273 327 382
#     4  10  20  41  66  88 131 174 203 260 324 376
#     4  11  23  45  66  92 128 170 218 268 328 387
#     4  11  23  41  68  94 132 169 214 269 325 378
#     4  11  23  43  67  98 129 169 219 264 324 383
#     4  10  22  38  64  92 126 164 220 259 316 382
#
# _framework density 20.215147000000002
#
# number of rings (size 3 to 8) (size 9 to 14) (size 15 to 20)
#    0.000    1.429    7.143    0.000    0.000    4.000 
#    2.571    0.000    0.000    0.000    0.000    0.000 
#    0.000    0.000    0.000    0.000    0.000    0.000 
#
# Total GULP energy -173471.028287 kJ/mol
# GULP energy per Si atom -12390.787735 kJ/mol
# Density = 2.016914 g / cm^3
# Si number density = 20.215147 Si / 1000 Ang^3
#
#
#
# Elastic Constant Matrix: (Units=GPa)
#
#
# Indices 1 2 3 4 5 6 
#
# 1 56.9499 28.8728 24.8134 -5.1667 -2.5961 -4.2864
# 2 28.8728 122.3756 38.7837 -13.1319 15.1953 -2.8183
# 3 24.8134 38.7837 88.6398 3.2777 9.1813 -19.4515
# 4 -5.1667 -13.1319 3.2777 43.9190 -1.2431 3.3018
# 5 -2.5961 15.1953 9.1813 -1.2431 42.9716 6.8117
# 6 -4.2864 -2.8183 -19.4515 3.3018 6.8117 30.2405
#
#
#
# Elastic Compliance Matrix: (Units=1/GPa)
#
#
# Indices 1 2 3 4 5 6 
#
# 1 0.022118 -0.003831 -0.005450 0.002126 0.004220 -0.001910
# 2 -0.003831 0.010983 -0.003931 0.003175 -0.002908 -0.001740
# 3 -0.005450 -0.003931 0.017761 -0.004163 -0.004726 0.011805
# 4 0.002126 0.003175 -0.004163 0.024703 0.001418 -0.005097
# 5 0.004220 -0.002908 -0.004726 0.001418 0.027024 -0.008955
# 6 -0.001910 -0.001740 0.011805 -0.005097 -0.008955 0.042802
#
#
# Mechanical properties :
#
#
# Convention : Reuss Voigt Hill
#
# Bulk Modulus (GPa) = 40.92092 50.32278 45.62185
# Shear Modulus (GPa) = 27.78368 35.12589 31.45478
#
# Velocity S-wave (km/s) = 3.71131 4.17298 3.94890
# Velocity P-wave (km/s) = 6.21705 6.94017 6.58854
#
# Compressibility (1/GPa) = 0.02443738
#
# Stress axis : x y z
#
# Youngs Moduli (GPa) = 45.21264 91.05022 56.30203
#
# Poissons Ratio (x) = 0.34880 0.30687
# Poissons Ratio (y) = 0.17320 0.22133
# Poissons Ratio (z) = 0.24643 0.35793
#
# Static dielectric constant tensor:
#      x y z
#    x 3.872840 0.194150 0.139470 
#    y 0.194150 3.734800 0.363640 
#    z 0.139470 0.363640 4.080720 
# 
# 
# High freq. dielectric constant tensor:
#      x y z
#    x 1.793260 0.006100 -0.010010 
#    y 0.006100 1.783920 0.025290 
#    z -0.010010 0.025290 1.792300 
# 
# From -- ./inp_files/505066.got.cif
#   From: 2010.06.25/outbox.cif.g09.slc.cpg/sg2_253_cif.got.tgz:505066.got - 2010.06.27 13:26:56.
