data_PCOD8007275
_publ_section_title
;
Structure prediction by ZEFSAII (Michael W. Deem and Ramdas Pophale) SiO2 
 PCOD8007275
Probable space group: P -1
;
_chemical_formula_sum "Si O2"
_cell_formula_units_Z 14
_cell_length_a 14.228033
_cell_length_b 13.538603
_cell_length_c 8.250425
_cell_angle_alpha 72.246263
_cell_angle_beta 127.309501
_cell_angle_gamma 147.374341
_cell_volume 598.113314
_symmetry_space_group_name_H-M "P -1"
_symmetry_group_IT_number 2
_symmetry_cell_setting 'triclinic'
loop_
_space_group_symop_operation_xyz
x,y,z
-x,-y,-z
loop_
_atom_site_type_symbol
_atom_site_label
_atom_site_fract_x
_atom_site_fract_y
_atom_site_fract_z
Si Si1 0.120019 0.528722 0.254032
Si Si2 0.299274 0.797705 0.776711
Si Si3 0.985578 0.867958 0.017668
Si Si4 0.477003 0.439213 0.827491
Si Si5 0.387558 0.052660 0.533922
Si Si6 0.407742 0.152090 0.846807
Si Si7 0.074845 0.260985 0.322647
O O1 0.383929 0.778502 0.432734
O O2 0.152106 0.435647 0.272994
O O3 0.963817 0.413447 0.313578
O O4 0.000000 0.500000 0.000000
O O5 0.294388 0.865463 0.576440
O O6 0.403486 0.760529 0.877128
O O7 0.500000 0.000000 0.000000
O O8 0.728045 0.628180 0.908359
O O9 0.029766 0.880202 0.869633
O O10 0.000000 0.000000 0.000000
O O11 0.175417 0.951828 0.279724
O O12 0.380685 0.249573 0.823208
O O13 0.299859 0.375146 0.574191
O O14 0.500000 0.500000 0.000000
O O15 0.483571 0.191321 0.720113
O O16 0.144518 0.900493 0.701025
#
# Coordination Sequence:
#
# PCOD8007275 Si02
#       7
#     2   2   2   2   2   2   2
#     4  12  21  40  75 101 136 182 224 276 344 399
#     4  10  20  40  70 103 136 176 227 276 336 407
#     4  12  26  45  64  99 140 176 234 282 333 408
#     4  12  26  44  69  97 131 181 229 281 345 401
#     4  11  22  43  70 103 139 179 225 279 337 405
#     4  11  21  43  71  98 136 176 224 279 342 399
#     4  12  24  43  69 100 135 179 226 280 343 404
#
# _framework density 23.406935000000001
#
# number of rings (size 3 to 8) (size 9 to 14) (size 15 to 20)
#    0.000    0.571    5.714    5.143    0.000    0.000 
#    0.000    5.000    0.000    0.000    0.000    0.000 
#    0.000    0.000    0.000    0.000    0.000    0.000 
#
# Total GULP energy -173618.430499 kJ/mol
# GULP energy per Si atom -12401.316464 kJ/mol
# Density = 2.335366 g / cm^3
# Si number density = 23.406935 Si / 1000 Ang^3
#
#
#
# Elastic Constant Matrix: (Units=GPa)
#
#
# Indices 1 2 3 4 5 6 
#
# 1 68.7729 33.0778 50.2800 -8.3115 23.0971 -9.1947
# 2 33.0778 159.5758 70.4995 2.6869 32.1324 10.4781
# 3 50.2800 70.4995 172.0770 -21.0798 50.0679 -12.8807
# 4 -8.3115 2.6869 -21.0798 37.4252 1.3802 24.2213
# 5 23.0971 32.1324 50.0679 1.3802 46.2048 0.5918
# 6 -9.1947 10.4781 -12.8807 24.2213 0.5918 39.7630
#
#
#
# Elastic Compliance Matrix: (Units=1/GPa)
#
#
# Indices 1 2 3 4 5 6 
#
# 1 0.020196 -0.001971 -0.003188 0.000473 -0.005335 0.003948
# 2 -0.001971 0.008446 -0.002567 -0.000265 -0.002056 -0.003321
# 3 -0.003188 -0.002567 0.011109 0.006083 -0.008841 -0.000036
# 4 0.000473 -0.000265 0.006083 0.048021 -0.007732 -0.026987
# 5 -0.005335 -0.002056 -0.008841 -0.007732 0.035542 0.000625
# 6 0.003948 -0.003321 -0.000036 -0.026987 0.000625 0.043355
#
#
# Mechanical properties :
#
#
# Convention : Reuss Voigt Hill
#
# Bulk Modulus (GPa) = 41.15324 78.68225 59.91774
# Shear Modulus (GPa) = 26.28513 41.11648 33.70081
#
# Velocity S-wave (km/s) = 3.35470 4.19572 3.79856
# Velocity P-wave (km/s) = 5.71184 7.56042 6.70019
#
# Compressibility (1/GPa) = 0.02429942
#
# Stress axis : x y z
#
# Youngs Moduli (GPa) = 49.51464 118.40154 90.01424
#
# Poissons Ratio (x) = 0.23335 0.28696
# Poissons Ratio (y) = 0.09758 0.23108
# Poissons Ratio (z) = 0.15785 0.30396
#
# Static dielectric constant tensor:
#      x y z
#    x 4.323820 0.012670 0.366970 
#    y 0.012670 4.708160 -0.100500 
#    z 0.366970 -0.100500 4.205380 
# 
# 
# High freq. dielectric constant tensor:
#      x y z
#    x 1.926110 0.001210 0.027570 
#    y 0.001210 1.946130 -0.002510 
#    z 0.027570 -0.002510 1.926850 
# 
# From -- ./inp_files/314712.got.cif
#   From: 2010.06.25/outbox.cif.g09.slc.cpg/sg2_158_cif.got.tgz:314712.got - 2010.06.27 13:26:56.
