data_PCOD8007752
_publ_section_title
;
Structure prediction by ZEFSAII (Michael W. Deem and Ramdas Pophale) SiO2 
 PCOD8007752
Probable space group: P -1
;
_chemical_formula_sum "Si O2"
_cell_formula_units_Z 14
_cell_length_a 8.808503
_cell_length_b 24.577499
_cell_length_c 9.363445
_cell_angle_alpha 28.152876
_cell_angle_beta 133.280101
_cell_angle_gamma 139.417577
_cell_volume 621.362553
_symmetry_space_group_name_H-M "P -1"
_symmetry_group_IT_number 2
_symmetry_cell_setting 'triclinic'
loop_
_space_group_symop_operation_xyz
x,y,z
-x,-y,-z
loop_
_atom_site_type_symbol
_atom_site_label
_atom_site_fract_x
_atom_site_fract_y
_atom_site_fract_z
Si Si1 0.709314 0.702615 0.420416
Si Si2 0.945671 0.678627 0.355775
Si Si3 0.518936 0.131392 0.766671
Si Si4 0.877604 0.855772 0.691380
Si Si5 0.806873 0.436800 0.641472
Si Si6 0.920954 0.208741 0.301688
Si Si7 0.731217 0.950708 0.907477
O O1 0.868563 0.669863 0.490514
O O2 0.445643 0.588126 0.527048
O O3 0.837287 0.730755 0.592086
O O4 0.677649 0.827819 0.055345
O O5 0.861051 0.533282 0.585452
O O6 0.222252 0.755374 0.338711
O O7 0.822276 0.751873 0.021460
O O8 0.363349 0.175477 0.468123
O O9 0.437688 0.106139 0.935522
O O10 0.500000 0.000000 0.000000
O O11 0.041043 0.830644 0.741454
O O12 0.000000 0.000000 0.500000
O O13 0.000000 0.500000 0.500000
O O14 0.810480 0.307222 0.999102
O O15 0.715124 0.074671 0.543239
O O16 0.000000 0.000000 0.000000
#
# Coordination Sequence:
#
# PCOD8007752 Si02
#       7
#     2   2   2   2   2   2   2
#     4  11  25  47  73  99 146 182 232 299 346 414
#     4  12  27  46  70 107 143 183 239 287 346 419
#     4  12  23  42  72 105 144 180 226 292 356 415
#     4  12  24  42  71 107 138 180 230 289 354 406
#     4  12  27  47  72 104 138 187 244 285 342 426
#     4  11  25  45  72 101 140 189 230 283 366 409
#     4  10  20  41  68 100 134 178 227 283 348 409
#
# _framework density 22.531127999999999
#
# number of rings (size 3 to 8) (size 9 to 14) (size 15 to 20)
#    0.000    0.571    5.714    3.857    0.000    5.143 
#    0.000    0.000    0.000    0.000    0.000    0.000 
#    0.000    0.000    0.000    0.000    0.000    0.000 
#
# Total GULP energy -173560.829646 kJ/mol
# GULP energy per Si atom -12397.202118 kJ/mol
# Density = 2.247985 g / cm^3
# Si number density = 22.531128 Si / 1000 Ang^3
#
#
#
# Elastic Constant Matrix: (Units=GPa)
#
#
# Indices 1 2 3 4 5 6 
#
# 1 136.1302 50.4362 18.2235 -14.8762 -2.6056 -5.9741
# 2 50.4362 115.3199 10.4326 -16.1362 4.5953 2.9241
# 3 18.2235 10.4326 77.3663 -0.3948 20.3194 -3.4961
# 4 -14.8762 -16.1362 -0.3948 31.3174 -6.9030 7.2593
# 5 -2.6056 4.5953 20.3194 -6.9030 36.4612 -11.1081
# 6 -5.9741 2.9241 -3.4961 7.2593 -11.1081 55.2920
#
#
#
# Elastic Compliance Matrix: (Units=1/GPa)
#
#
# Indices 1 2 3 4 5 6 
#
# 1 0.009524 -0.003677 -0.002616 0.003071 0.003603 0.001379
# 2 -0.003677 0.010971 -0.000351 0.004043 -0.001226 -0.001777
# 3 -0.002616 -0.000351 0.016166 -0.003235 -0.010017 -0.000830
# 4 0.003071 0.004043 -0.003235 0.037931 0.007617 -0.003536
# 5 0.003603 -0.001226 -0.010017 0.007617 0.036753 0.006204
# 6 0.001379 -0.001777 -0.000830 -0.003536 0.006204 0.019987
#
#
# Mechanical properties :
#
#
# Convention : Reuss Voigt Hill
#
# Bulk Modulus (GPa) = 42.78541 54.11123 48.44832
# Shear Modulus (GPa) = 32.80605 41.26238 37.03421
#
# Velocity S-wave (km/s) = 3.81994 4.28407 4.05864
# Velocity P-wave (km/s) = 6.20376 6.96702 6.59644
#
# Compressibility (1/GPa) = 0.02337245
#
# Stress axis : x y z
#
# Youngs Moduli (GPa) = 105.00206 91.14668 61.85882
#
# Poissons Ratio (x) = 0.33519 0.16181
# Poissons Ratio (y) = 0.38614 0.02171
# Poissons Ratio (z) = 0.27466 0.03199
#
# Static dielectric constant tensor:
#      x y z
#    x 4.129000 -0.138550 -0.013500 
#    y -0.138550 4.255850 -0.243900 
#    z -0.013500 -0.243900 4.592540 
# 
# 
# High freq. dielectric constant tensor:
#      x y z
#    x 1.897840 -0.002840 0.013650 
#    y -0.002840 1.902730 -0.008120 
#    z 0.013650 -0.008120 1.881570 
# 
# From -- ./inp_files/225898.got.cif
#   From: 2010.06.25/outbox.cif.g09.slc.cpg/sg2_113_cif.got.tgz:225898.got - 2010.06.27 13:26:56.
