data_PCOD8007294
_publ_section_title
;
Structure prediction by ZEFSAII (Michael W. Deem and Ramdas Pophale) SiO2 
 PCOD8007294
Probable space group: P -1
;
_chemical_formula_sum "Si O2"
_cell_formula_units_Z 16
_cell_length_a 8.731889
_cell_length_b 25.884575
_cell_length_c 20.598601
_cell_angle_alpha 20.749316
_cell_angle_beta 150.388854
_cell_angle_gamma 138.077417
_cell_volume 749.096094
_symmetry_space_group_name_H-M "P -1"
_symmetry_group_IT_number 2
_symmetry_cell_setting 'triclinic'
loop_
_space_group_symop_operation_xyz
x,y,z
-x,-y,-z
loop_
_atom_site_type_symbol
_atom_site_label
_atom_site_fract_x
_atom_site_fract_y
_atom_site_fract_z
Si Si1 0.897393 0.900203 0.259027
Si Si2 0.719178 0.381621 0.775905
Si Si3 0.333572 0.838418 0.883908
Si Si4 0.267383 0.849267 0.701709
Si Si5 0.793873 0.924721 0.747342
Si Si6 0.726292 0.053548 0.782351
Si Si7 0.074533 0.345798 0.250227
Si Si8 0.097266 0.563615 0.774055
O O1 0.083317 0.921479 0.239107
O O2 0.954428 0.718258 0.495542
O O3 0.079581 0.942575 0.337232
O O4 0.500000 0.000000 0.000000
O O5 0.500000 0.500000 0.500000
O O6 0.983488 0.438456 0.842158
O O7 0.531945 0.325019 0.831686
O O8 0.889482 0.218434 0.993803
O O9 0.214252 0.805963 0.806941
O O10 0.620527 0.906978 0.902326
O O11 0.999447 0.979142 0.624166
O O12 0.638969 0.849730 0.834484
O O13 0.227303 0.714799 0.799412
O O14 0.500000 0.000000 0.500000
O O15 0.418734 0.211160 0.508048
O O16 0.000000 0.000000 0.000000
O O17 0.081950 0.391592 0.274385
O O18 0.000000 0.500000 0.000000
O O19 0.500000 0.500000 0.000000
#
# Coordination Sequence:
#
# PCOD8007294 Si02
#       8
#     2   2   2   2   2   2   2   2
#     4  12  26  45  71 102 139 178 233 288 350 419
#     4  12  27  44  67 100 149 187 224 289 355 411
#     4  10  22  42  68  99 138 172 232 284 342 410
#     4  10  20  40  71 100 125 176 234 289 330 402
#     4  12  23  42  72 101 129 182 239 279 339 414
#     4  11  25  42  70  99 133 185 228 282 345 415
#     4  11  23  42  69 101 140 174 227 288 351 405
#     4  12  26  44  69 104 141 185 233 286 349 414
#
# _framework density 21.359075000000001
#
# number of rings (size 3 to 8) (size 9 to 14) (size 15 to 20)
#    0.000    0.750    2.500    5.250    5.250    0.000 
#    0.000    0.625    0.000    0.000    0.000    0.000 
#    0.000    0.000    0.000    0.000    0.000    0.000 
#
# Total GULP energy -198303.521970 kJ/mol
# GULP energy per Si atom -12393.970123 kJ/mol
# Density = 2.131046 g / cm^3
# Si number density = 21.359075 Si / 1000 Ang^3
#
#
#
# Elastic Constant Matrix: (Units=GPa)
#
#
# Indices 1 2 3 4 5 6 
#
# 1 110.9795 34.1350 43.3593 0.4692 -11.9465 9.7146
# 2 34.1350 90.4912 20.3623 2.9221 -9.5602 -3.4197
# 3 43.3593 20.3623 119.9434 2.0951 -24.4551 4.7349
# 4 0.4692 2.9221 2.0951 35.3888 4.4807 -2.2992
# 5 -11.9465 -9.5602 -24.4551 4.4807 42.9183 -0.4118
# 6 9.7146 -3.4197 4.7349 -2.2992 -0.4118 39.2037
#
#
#
# Elastic Compliance Matrix: (Units=1/GPa)
#
#
# Indices 1 2 3 4 5 6 
#
# 1 0.011796 -0.003741 -0.003426 0.000114 0.000459 -0.002824
# 2 -0.003741 0.012874 -0.000563 -0.001052 0.001635 0.002073
# 3 -0.003426 -0.000563 0.010770 -0.001235 0.005182 -0.000519
# 4 0.000114 -0.001052 -0.001235 0.029022 -0.003920 0.001690
# 5 0.000459 0.001635 0.005182 -0.003920 0.027149 -0.000542
# 6 -0.002824 0.002073 -0.000519 0.001690 -0.000542 0.026545
#
#
# Mechanical properties :
#
#
# Convention : Reuss Voigt Hill
#
# Bulk Modulus (GPa) = 50.05139 57.45860 53.75500
# Shear Modulus (GPa) = 35.64427 38.40599 37.02513
#
# Velocity S-wave (km/s) = 4.08954 4.24501 4.16800
# Velocity P-wave (km/s) = 6.76634 7.14048 6.95593
#
# Compressibility (1/GPa) = 0.01997946
#
# Stress axis : x y z
#
# Youngs Moduli (GPa) = 84.77526 77.67785 92.85078
#
# Poissons Ratio (x) = 0.29056 0.31811
# Poissons Ratio (y) = 0.31711 0.05231
# Poissons Ratio (z) = 0.29045 0.04376
#
# Static dielectric constant tensor:
#      x y z
#    x 4.005700 0.048360 0.101890 
#    y 0.048360 4.067940 0.006660 
#    z 0.101890 0.006660 3.538210 
# 
# 
# High freq. dielectric constant tensor:
#      x y z
#    x 1.856730 -0.001100 -0.012570 
#    y -0.001100 1.852320 -0.006240 
#    z -0.012570 -0.006240 1.827160 
# 
# From -- ./inp_files/592082.got.cif
#   From: 2010.06.25/outbox.cif.g09.slc.cpg/sg2_297_cif.got.tgz:592082.got - 2010.06.27 13:26:56.
