data_PCOD8007962
_publ_section_title
;
Structure prediction by ZEFSAII (Michael W. Deem and Ramdas Pophale) SiO2 
 PCOD8007962
Probable space group: P -1
;
_chemical_formula_sum "Si O2"
_cell_formula_units_Z 16
_cell_length_a 6.549185
_cell_length_b 25.216928
_cell_length_c 15.075471
_cell_angle_alpha 154.052284
_cell_angle_beta 123.475100
_cell_angle_gamma 73.698101
_cell_volume 733.778817
_symmetry_space_group_name_H-M "P -1"
_symmetry_group_IT_number 2
_symmetry_cell_setting 'triclinic'
loop_
_space_group_symop_operation_xyz
x,y,z
-x,-y,-z
loop_
_atom_site_type_symbol
_atom_site_label
_atom_site_fract_x
_atom_site_fract_y
_atom_site_fract_z
Si Si1 0.601266 0.175502 0.543409
Si Si2 0.802666 0.295370 0.375546
Si Si3 0.801392 0.567747 0.840683
Si Si4 0.244848 0.980264 0.782307
Si Si5 0.676390 0.921618 0.485075
Si Si6 0.119558 0.416358 0.451347
Si Si7 0.950643 0.870197 0.729178
Si Si8 0.922830 0.239619 0.971535
O O1 0.575183 0.076909 0.305795
O O2 0.462043 0.073411 0.445653
O O3 0.387608 0.225142 0.537208
O O4 0.946106 0.317909 0.855869
O O5 0.841405 0.434639 0.643519
O O6 0.898374 0.335183 0.357495
O O7 0.009810 0.248723 0.395104
O O8 0.446934 0.159715 0.090081
O O9 0.469822 0.513317 0.712535
O O10 0.840858 0.647268 0.875529
O O11 0.932633 0.897782 0.528574
O O12 0.196633 0.945983 0.823243
O O13 0.396119 0.779385 0.148894
O O14 0.824941 0.070912 0.685613
O O15 0.000000 0.500000 0.500000
O O16 0.071166 0.294965 0.186521
O O17 0.000000 0.000000 0.000000
#
# Coordination Sequence:
#
# PCOD8007962 Si02
#       8
#     2   2   2   2   2   2   2   2
#     4  10  23  44  67 100 131 170 218 277 326 392
#     4  12  26  43  69  98 131 177 221 270 332 387
#     4  11  26  43  64  97 139 175 221 266 330 391
#     4  11  23  41  72  96 128 172 217 272 335 385
#     4   9  21  38  65  94 133 167 223 271 321 381
#     4  12  26  40  64  95 137 179 219 260 319 393
#     4  11  25  45  72 101 128 162 225 281 327 393
#     4  10  20  42  60  94 133 175 217 273 315 383
#
# _framework density 21.804936999999999
#
# number of rings (size 3 to 8) (size 9 to 14) (size 15 to 20)
#    0.000    1.250    2.500    2.250    7.000    1.500 
#    0.000    3.750    0.000    0.000    0.000    0.000 
#    0.000    0.000    0.000    0.000    0.000    0.000 
#
# Total GULP energy -198324.685582 kJ/mol
# GULP energy per Si atom -12395.292849 kJ/mol
# Density = 2.175531 g / cm^3
# Si number density = 21.804937 Si / 1000 Ang^3
#
#
#
# Elastic Constant Matrix: (Units=GPa)
#
#
# Indices 1 2 3 4 5 6 
#
# 1 86.5573 38.6163 22.6036 6.9050 0.7189 1.8325
# 2 38.6163 118.0836 26.3103 7.7496 7.2291 -2.5891
# 3 22.6036 26.3103 75.9569 -1.8891 6.0044 4.7091
# 4 6.9050 7.7496 -1.8891 37.3959 -7.9139 6.7724
# 5 0.7189 7.2291 6.0044 -7.9139 33.2072 -3.1694
# 6 1.8325 -2.5891 4.7091 6.7724 -3.1694 35.7943
#
#
#
# Elastic Compliance Matrix: (Units=1/GPa)
#
#
# Indices 1 2 3 4 5 6 
#
# 1 0.014214 -0.003917 -0.002953 -0.001787 0.000631 -0.000228
# 2 -0.003917 0.010628 -0.002497 -0.002349 -0.002189 0.001548
# 3 -0.002953 -0.002497 0.015269 0.001887 -0.001949 -0.002568
# 4 -0.001787 -0.002349 0.001887 0.030085 0.006862 -0.005411
# 5 0.000631 -0.002189 -0.001949 0.006862 0.032724 0.001665
# 6 -0.000228 0.001548 -0.002568 -0.005411 0.001665 0.029570
#
#
# Mechanical properties :
#
#
# Convention : Reuss Voigt Hill
#
# Bulk Modulus (GPa) = 46.77949 50.62869 48.70409
# Shear Modulus (GPa) = 31.57561 34.15064 32.86313
#
# Velocity S-wave (km/s) = 3.80951 3.96180 3.88640
# Velocity P-wave (km/s) = 6.39140 6.64809 6.52101
#
# Compressibility (1/GPa) = 0.02137689
#
# Stress axis : x y z
#
# Youngs Moduli (GPa) = 70.35432 94.09144 65.49047
#
# Poissons Ratio (x) = 0.36852 0.19341
# Poissons Ratio (y) = 0.27555 0.16354
# Poissons Ratio (z) = 0.20778 0.23497
#
# Static dielectric constant tensor:
#      x y z
#    x 3.844660 0.033630 0.147950 
#    y 0.033630 3.189730 0.241130 
#    z 0.147950 0.241130 3.821920 
# 
# 
# High freq. dielectric constant tensor:
#      x y z
#    x 1.852690 -0.005780 0.018840 
#    y -0.005780 1.863470 -0.013110 
#    z 0.018840 -0.013110 1.857800 
# 
# From -- ./inp_files/98393.got.cif
#   From: 2010.06.25/outbox.cif.g09.slc.cpg/sg2_50_cif.got.tgz:98393.got - 2010.06.27 13:26:56.
