data_PCOD8007365
_publ_section_title
;
Structure prediction by ZEFSAII (Michael W. Deem and Ramdas Pophale) SiO2 
 PCOD8007365
Probable space group: P -1
;
_chemical_formula_sum "Si O2"
_cell_formula_units_Z 12
_cell_length_a 9.955099
_cell_length_b 13.764121
_cell_length_c 7.949625
_cell_angle_alpha 31.369681
_cell_angle_beta 100.193278
_cell_angle_gamma 96.351633
_cell_volume 556.341081
_symmetry_space_group_name_H-M "P -1"
_symmetry_group_IT_number 2
_symmetry_cell_setting 'triclinic'
loop_
_space_group_symop_operation_xyz
x,y,z
-x,-y,-z
loop_
_atom_site_type_symbol
_atom_site_label
_atom_site_fract_x
_atom_site_fract_y
_atom_site_fract_z
Si Si1 0.124564 0.855775 0.787338
Si Si2 0.142069 0.447492 0.441568
Si Si3 0.386083 0.801485 0.433354
Si Si4 0.418854 0.824183 0.771181
Si Si5 0.427330 0.237696 0.779740
Si Si6 0.125607 0.699878 0.358940
O O1 0.264680 0.907251 0.656589
O O2 0.100229 0.641429 0.044818
O O3 0.137881 0.864630 0.980366
O O4 0.000000 0.000000 0.500000
O O5 0.289836 0.368018 0.530439
O O6 0.152150 0.496351 0.572159
O O7 0.028610 0.299007 0.601039
O O8 0.428141 0.715780 0.753636
O O9 0.484311 0.720659 0.426389
O O10 0.233859 0.734853 0.474953
O O11 0.387652 0.025713 0.101099
O O12 0.500000 0.000000 0.500000
O O13 0.486094 0.704573 0.120449
#
# Coordination Sequence:
#
# PCOD8007365 Si02
#       6
#     2   2   2   2   2   2
#     4  10  21  40  64  88 122 165 207 249 310 365
#     4   9  21  39  67  87 125 170 197 256 318 356
#     4  10  21  37  64  93 123 163 209 248 303 376
#     4  10  22  37  62  95 120 162 204 253 307 365
#     4  10  20  41  61  90 130 162 201 253 313 365
#     4   9  20  40  63  91 119 169 205 249 312 364
#
# _framework density 21.569502
#
# number of rings (size 3 to 8) (size 9 to 14) (size 15 to 20)
#    1.000    1.333    1.667    0.000    4.667    3.333 
#    0.000    4.167    0.000    0.000    0.000    0.000 
#    0.000    0.000    0.000    0.000    0.000    0.000 
#
# Total GULP energy -148664.708079 kJ/mol
# GULP energy per Si atom -12388.725673 kJ/mol
# Density = 2.152041 g / cm^3
# Si number density = 21.569502 Si / 1000 Ang^3
#
#
#
# Elastic Constant Matrix: (Units=GPa)
#
#
# Indices 1 2 3 4 5 6 
#
# 1 180.8036 62.7347 63.3049 26.6141 10.8258 6.2189
# 2 62.7347 118.0108 41.7337 40.2118 2.9809 6.2222
# 3 63.3049 41.7337 80.3770 16.5385 11.0098 -18.5777
# 4 26.6141 40.2118 16.5385 22.6608 -2.1551 -0.3708
# 5 10.8258 2.9809 11.0098 -2.1551 31.9998 -4.2698
# 6 6.2189 6.2222 -18.5777 -0.3708 -4.2698 31.0832
#
#
#
# Elastic Compliance Matrix: (Units=1/GPa)
#
#
# Indices 1 2 3 4 5 6 
#
# 1 0.009329 0.000144 -0.007461 -0.006056 -0.001903 -0.006688
# 2 0.000144 0.025240 -0.006596 -0.040711 -0.004218 -0.010089
# 3 -0.007461 -0.006596 0.026052 0.001430 -0.003334 0.017943
# 4 -0.006056 -0.040711 0.001430 0.124145 0.015556 0.013834
# 5 -0.001903 -0.004218 -0.003334 0.015556 0.035046 0.004232
# 6 -0.006688 -0.010089 0.017943 0.013834 0.004232 0.047000
#
#
# Mechanical properties :
#
#
# Convention : Reuss Voigt Hill
#
# Bulk Modulus (GPa) = 30.49263 79.41533 54.95398
# Shear Modulus (GPa) = 16.36279 31.24330 23.80304
#
# Velocity S-wave (km/s) = 2.75727 3.81004 3.32558
# Velocity P-wave (km/s) = 4.92994 7.50023 6.34657
#
# Compressibility (1/GPa) = 0.03279480
#
# Stress axis : x y z
#
# Youngs Moduli (GPa) = 107.19507 39.61887 38.38460
#
# Poissons Ratio (x) = -0.00570 0.28639
# Poissons Ratio (y) = -0.01541 0.25319
# Poissons Ratio (z) = 0.79978 0.26133
#
# Static dielectric constant tensor:
#      x y z
#    x 3.943940 -0.005940 -0.188450 
#    y -0.005940 4.053720 0.394420 
#    z -0.188450 0.394420 3.652070 
# 
# 
# High freq. dielectric constant tensor:
#      x y z
#    x 1.866040 0.008140 -0.010280 
#    y 0.008140 1.829230 0.007240 
#    z -0.010280 0.007240 1.815360 
# 
# From -- ./inp_files/204965.got.cif
#   From: 2010.06.25/outbox.cif.g09.slc.cpg/sg2_103_cif.got.tgz:204965.got - 2010.06.27 13:26:56.
