data_PCOD8007490
_publ_section_title
;
Structure prediction by ZEFSAII (Michael W. Deem and Ramdas Pophale) SiO2 
 PCOD8007490
Probable space group: P -1
;
_chemical_formula_sum "Si O2"
_cell_formula_units_Z 12
_cell_length_a 9.916735
_cell_length_b 12.008134
_cell_length_c 8.641172
_cell_angle_alpha 98.143726
_cell_angle_beta 127.301713
_cell_angle_gamma 49.348005
_cell_volume 563.729817
_symmetry_space_group_name_H-M "P -1"
_symmetry_group_IT_number 2
_symmetry_cell_setting 'triclinic'
loop_
_space_group_symop_operation_xyz
x,y,z
-x,-y,-z
loop_
_atom_site_type_symbol
_atom_site_label
_atom_site_fract_x
_atom_site_fract_y
_atom_site_fract_z
Si Si1 0.194843 0.963479 0.511940
Si Si2 0.552185 0.650477 0.111016
Si Si3 0.173128 0.688250 0.672758
Si Si4 0.837871 0.380752 0.690283
Si Si5 0.382415 0.171931 0.007648
Si Si6 0.391799 0.712544 0.349415
O O1 0.456926 0.851833 0.749954
O O2 0.226516 0.879712 0.359375
O O3 0.000000 0.000000 0.500000
O O4 0.088038 0.136932 0.422386
O O5 0.785751 0.457340 0.262233
O O6 0.405211 0.741011 0.185365
O O7 0.383570 0.673089 0.869744
O O8 0.639062 0.730853 0.130718
O O9 0.173922 0.687755 0.487534
O O10 0.663177 0.572963 0.586152
O O11 0.734600 0.350411 0.748341
O O12 0.110881 0.285076 0.905819
O O13 0.500000 0.000000 0.000000
#
# Coordination Sequence:
#
# PCOD8007490 Si02
#       6
#     2   2   2   2   2   2
#     4  12  21  41  66  89 127 171 211 250 317 380
#     4  10  23  40  68  93 124 163 217 255 308 370
#     4  10  20  41  64  91 121 174 202 250 308 386
#     4  10  21  41  65  92 130 165 208 250 321 375
#     4  12  23  41  67  94 123 172 207 255 318 377
#     4  10  22  40  65  95 123 166 211 264 300 369
#
# _framework density 21.286792999999999
#
# number of rings (size 3 to 8) (size 9 to 14) (size 15 to 20)
#    0.000    1.333    5.000    0.000    0.000    4.000 
#    0.000    2.500    0.000    0.000    0.000    0.000 
#    0.000    0.000    0.000    0.000    0.000    0.000 
#
# Total GULP energy -148786.757271 kJ/mol
# GULP energy per Si atom -12398.896439 kJ/mol
# Density = 2.123834 g / cm^3
# Si number density = 21.286793 Si / 1000 Ang^3
#
#
#
# Elastic Constant Matrix: (Units=GPa)
#
#
# Indices 1 2 3 4 5 6 
#
# 1 90.5149 35.2870 39.0671 -16.4444 7.1691 8.5242
# 2 35.2870 137.3472 22.1505 -15.3554 -9.8461 -3.4059
# 3 39.0671 22.1505 95.0141 -11.8769 16.4232 -5.4725
# 4 -16.4444 -15.3554 -11.8769 37.8561 -3.3322 -2.6077
# 5 7.1691 -9.8461 16.4232 -3.3322 32.0789 -9.4870
# 6 8.5242 -3.4059 -5.4725 -2.6077 -9.4870 31.4535
#
#
#
# Elastic Compliance Matrix: (Units=1/GPa)
#
#
# Indices 1 2 3 4 5 6 
#
# 1 0.016056 -0.003338 -0.005179 0.003245 -0.003519 -0.006406
# 2 -0.003338 0.009095 -0.001161 0.002599 0.005451 0.003547
# 3 -0.005179 -0.001161 0.014205 0.001383 -0.005693 0.002147
# 4 0.003245 0.002599 0.001383 0.029828 0.003391 0.003139
# 5 -0.003519 0.005451 -0.005693 0.003391 0.040784 0.013136
# 6 -0.006406 0.003547 0.002147 0.003139 0.013136 0.038509
#
#
# Mechanical properties :
#
#
# Convention : Reuss Voigt Hill
#
# Bulk Modulus (GPa) = 49.99752 57.32060 53.65906
# Shear Modulus (GPa) = 28.65334 35.36912 32.01123
#
# Velocity S-wave (km/s) = 3.67285 4.08064 3.88210
# Velocity P-wave (km/s) = 6.44399 7.01344 6.73474
#
# Compressibility (1/GPa) = 0.02000099
#
# Stress axis : x y z
#
# Youngs Moduli (GPa) = 62.28205 109.95097 70.39674
#
# Poissons Ratio (x) = 0.36705 0.36456
# Poissons Ratio (y) = 0.20792 0.08171
# Poissons Ratio (z) = 0.32254 0.12762
#
# Static dielectric constant tensor:
#      x y z
#    x 3.620040 0.063730 -0.050040 
#    y 0.063730 4.118430 -0.327240 
#    z -0.050040 -0.327240 3.924650 
# 
# 
# High freq. dielectric constant tensor:
#      x y z
#    x 1.806640 0.003340 -0.004220 
#    y 0.003340 1.849070 -0.014870 
#    z -0.004220 -0.014870 1.832610 
# 
# From -- ./inp_files/145260.got.cif
#   From: 2010.06.25/outbox.cif.g09.slc.cpg/sg2_73_cif.got.tgz:145260.got - 2010.06.27 13:26:56.
