data_PCOD8007486
_publ_section_title
;
Structure prediction by ZEFSAII (Michael W. Deem and Ramdas Pophale) SiO2 
 PCOD8007486
Probable space group: P -1
;
_chemical_formula_sum "Si O2"
_cell_formula_units_Z 16
_cell_length_a 15.739231
_cell_length_b 8.398056
_cell_length_c 12.147100
_cell_angle_alpha 105.788955
_cell_angle_beta 45.780908
_cell_angle_gamma 70.592843
_cell_volume 723.543429
_symmetry_space_group_name_H-M "P -1"
_symmetry_group_IT_number 2
_symmetry_cell_setting 'triclinic'
loop_
_space_group_symop_operation_xyz
x,y,z
-x,-y,-z
loop_
_atom_site_type_symbol
_atom_site_label
_atom_site_fract_x
_atom_site_fract_y
_atom_site_fract_z
Si Si1 0.251203 0.908742 0.951981
Si Si2 0.926995 0.759968 0.613446
Si Si3 0.644903 0.551883 0.588678
Si Si4 0.708302 0.452487 0.748537
Si Si5 0.659454 0.122011 0.729419
Si Si6 0.851684 0.787424 0.107510
Si Si7 0.030168 0.026967 0.856948
Si Si8 0.771254 0.733365 0.381427
O O1 0.456197 0.659095 0.755160
O O2 0.146507 0.129197 0.177066
O O3 0.148146 0.840228 0.026109
O O4 0.258300 0.995186 0.843687
O O5 0.093036 0.704495 0.418917
O O6 0.000000 0.500000 0.500000
O O7 0.764525 0.950439 0.710329
O O8 0.651582 0.613136 0.719235
O O9 0.795113 0.252364 0.396623
O O10 0.671276 0.673896 0.502806
O O11 0.715423 0.250164 0.677146
O O12 0.557924 0.656029 0.014243
O O13 0.708056 0.957699 0.550829
O O14 0.726401 0.804141 0.303374
O O15 0.941334 0.807162 0.128509
O O16 0.011608 0.521280 0.850133
O O17 0.000000 0.000000 0.000000
#
# Coordination Sequence:
#
# PCOD8007486 Si02
#       8
#     2   2   2   2   2   2   2   2
#     4  11  23  39  68  96 128 169 221 258 330 390
#     4  12  24  41  71 101 132 172 215 272 327 397
#     4  12  22  40  68  95 128 172 218 270 323 394
#     4  11  24  44  68  95 136 173 218 266 333 386
#     4  11  25  44  67 100 131 174 218 273 324 394
#     4  10  22  44  65  93 132 173 215 273 328 386
#     4  10  20  41  64  90 125 170 213 268 319 379
#     4  11  23  41  68  93 132 173 217 272 331 376
#
# _framework density 22.113392999999999
#
# number of rings (size 3 to 8) (size 9 to 14) (size 15 to 20)
#    0.000    1.000    5.000    2.625    1.750    3.500 
#    0.000    0.000    2.750    0.000    0.000    0.000 
#    0.000    0.000    0.000    0.000    0.000    0.000 
#
# Total GULP energy -198311.281553 kJ/mol
# GULP energy per Si atom -12394.455097 kJ/mol
# Density = 2.206306 g / cm^3
# Si number density = 22.113393 Si / 1000 Ang^3
#
#
#
# Elastic Constant Matrix: (Units=GPa)
#
#
# Indices 1 2 3 4 5 6 
#
# 1 64.5619 2.0799 47.7357 5.0003 -1.1069 0.5610
# 2 2.0799 67.0856 24.8208 -7.8633 2.8858 1.6511
# 3 47.7357 24.8208 115.6617 -2.9380 0.5203 16.0299
# 4 5.0003 -7.8633 -2.9380 27.2260 -4.8627 2.4806
# 5 -1.1069 2.8858 0.5203 -4.8627 39.3025 0.9588
# 6 0.5610 1.6511 16.0299 2.4806 0.9588 32.2442
#
#
#
# Elastic Compliance Matrix: (Units=1/GPa)
#
#
# Indices 1 2 3 4 5 6 
#
# 1 0.024296 0.002743 -0.011529 -0.005455 -0.000176 0.005593
# 2 0.002743 0.017050 -0.004866 0.003660 -0.000688 0.001237
# 3 -0.011529 -0.004866 0.015572 0.003151 0.000401 -0.007546
# 4 -0.005455 0.003660 0.003151 0.040407 0.004655 -0.004906
# 5 -0.000176 -0.000688 0.000401 0.004655 0.026091 -0.001295
# 6 0.005593 0.001237 -0.007546 -0.004906 -0.001295 0.035020
#
#
# Mechanical properties :
#
#
# Convention : Reuss Voigt Hill
#
# Bulk Modulus (GPa) = 33.76856 44.06465 38.91661
# Shear Modulus (GPa) = 25.56074 31.26604 28.41339
#
# Velocity S-wave (km/s) = 3.40353 3.76426 3.58843
# Velocity P-wave (km/s) = 5.54519 6.23400 5.89966
#
# Compressibility (1/GPa) = 0.02961334
#
# Stress axis : x y z
#
# Youngs Moduli (GPa) = 41.15956 58.65151 64.21594
#
# Poissons Ratio (x) = -0.16087 0.74033
# Poissons Ratio (y) = -0.11289 0.31249
# Poissons Ratio (z) = 0.47452 0.28541
#
# Static dielectric constant tensor:
#      x y z
#    x 3.659040 -0.063820 0.107520 
#    y -0.063820 4.097700 -0.117570 
#    z 0.107520 -0.117570 4.066200 
# 
# 
# High freq. dielectric constant tensor:
#      x y z
#    x 1.854000 0.002390 0.011710 
#    y 0.002390 1.871770 -0.012930 
#    z 0.011710 -0.012930 1.885520 
# 
# From -- ./inp_files/447783.got.cif
#   From: 2010.06.25/outbox.cif.g09.slc.cpg/sg2_224_cif.got.tgz:447783.got - 2010.06.27 13:26:56.
