data_PCOD8007677
_publ_section_title
;
Structure prediction by ZEFSAII (Michael W. Deem and Ramdas Pophale) SiO2 
 PCOD8007677
Probable space group: P -1
;
_chemical_formula_sum "Si O2"
_cell_formula_units_Z 14
_cell_length_a 11.404337
_cell_length_b 8.848994
_cell_length_c 10.252609
_cell_angle_alpha 69.667129
_cell_angle_beta 65.483173
_cell_angle_gamma 115.303719
_cell_volume 655.299831
_symmetry_space_group_name_H-M "P -1"
_symmetry_group_IT_number 2
_symmetry_cell_setting 'triclinic'
loop_
_space_group_symop_operation_xyz
x,y,z
-x,-y,-z
loop_
_atom_site_type_symbol
_atom_site_label
_atom_site_fract_x
_atom_site_fract_y
_atom_site_fract_z
Si Si1 0.556759 0.708828 0.840269
Si Si2 0.016231 0.480475 0.320466
Si Si3 0.880795 0.145023 0.689808
Si Si4 0.640942 0.868190 0.481368
Si Si5 0.985907 0.028127 0.150590
Si Si6 0.301156 0.720870 0.608416
Si Si7 0.802907 0.494610 0.014199
O O1 0.627442 0.734910 0.651688
O O2 0.697189 0.919057 0.800034
O O3 0.500000 0.500000 0.000000
O O4 0.383890 0.670249 0.919556
O O5 0.151015 0.718426 0.251746
O O6 0.063118 0.472272 0.155764
O O7 0.996578 0.298683 0.466536
O O8 0.829921 0.417475 0.410841
O O9 0.992427 0.112808 0.731075
O O10 0.462656 0.729918 0.519415
O O11 0.798524 0.951248 0.289974
O O12 0.648969 0.049843 0.490874
O O13 0.140398 0.276691 0.044876
O O14 0.000000 0.000000 0.000000
O O15 0.199660 0.612926 0.823096
#
# Coordination Sequence:
#
# PCOD8007677 Si02
#       7
#     2   2   2   2   2   2   2
#     4  11  22  42  66  98 134 169 221 269 334 394
#     4  11  23  43  68  97 132 176 221 272 329 396
#     4  11  25  42  64  97 136 169 221 278 328 389
#     4  10  23  40  69  96 131 178 217 271 328 391
#     4  12  25  43  66 101 133 174 224 275 331 392
#     4  10  20  41  66  98 127 172 223 267 325 396
#     4  11  23  38  70  96 128 181 220 268 332 392
#
# _framework density 21.364265
#
# number of rings (size 3 to 8) (size 9 to 14) (size 15 to 20)
#    0.000    1.143    4.286    1.286    4.000    1.714 
#    0.000    9.286    0.000    0.000    0.000    0.000 
#    0.000    0.000    0.000    0.000    0.000    0.000 
#
# Total GULP energy -173532.775770 kJ/mol
# GULP energy per Si atom -12395.198269 kJ/mol
# Density = 2.131564 g / cm^3
# Si number density = 21.364265 Si / 1000 Ang^3
#
#
#
# Elastic Constant Matrix: (Units=GPa)
#
#
# Indices 1 2 3 4 5 6 
#
# 1 119.6276 40.2959 60.6490 5.3554 7.5939 16.2111
# 2 40.2959 103.5366 40.9775 -12.2958 -13.8355 12.9906
# 3 60.6490 40.9775 117.2456 -3.1860 6.0378 -0.3922
# 4 5.3554 -12.2958 -3.1860 31.8778 -5.6820 4.0423
# 5 7.5939 -13.8355 6.0378 -5.6820 32.9444 -3.3076
# 6 16.2111 12.9906 -0.3922 4.0423 -3.3076 26.3153
#
#
#
# Elastic Compliance Matrix: (Units=1/GPa)
#
#
# Indices 1 2 3 4 5 6 
#
# 1 0.013951 -0.003381 -0.005917 -0.004241 -0.004984 -0.006989
# 2 -0.003381 0.015420 -0.003886 0.008435 0.008843 -0.005771
# 3 -0.005917 -0.003886 0.013070 -0.000284 -0.002157 0.005531
# 4 -0.004241 0.008435 -0.000284 0.037950 0.010509 -0.006064
# 5 -0.004984 0.008843 -0.002157 0.010509 0.037604 0.001785
# 6 -0.006989 -0.005771 0.005531 -0.006064 0.001785 0.046393
#
#
# Mechanical properties :
#
#
# Convention : Reuss Voigt Hill
#
# Bulk Modulus (GPa) = 62.21482 69.36162 65.78822
# Shear Modulus (GPa) = 25.49554 31.45999 28.47777
#
# Velocity S-wave (km/s) = 3.45827 3.84155 3.65494
# Velocity P-wave (km/s) = 6.71791 7.22588 6.97652
#
# Compressibility (1/GPa) = 0.01607334
#
# Stress axis : x y z
#
# Youngs Moduli (GPa) = 71.67790 64.85233 76.51190
#
# Poissons Ratio (x) = 0.21926 0.45273
# Poissons Ratio (y) = 0.24233 0.29731
# Poissons Ratio (z) = 0.42413 0.25200
#
# Static dielectric constant tensor:
#      x y z
#    x 4.033570 0.316830 0.183570 
#    y 0.316830 3.789790 -0.250190 
#    z 0.183570 -0.250190 3.994720 
# 
# 
# High freq. dielectric constant tensor:
#      x y z
#    x 1.847330 0.021580 0.019730 
#    y 0.021580 1.822290 -0.018990 
#    z 0.019730 -0.018990 1.845960 
# 
# From -- ./inp_files/242969.got.cif
#   From: 2010.06.25/outbox.cif.g09.slc.cpg/sg2_122_cif.got.tgz:242969.got - 2010.06.27 13:26:56.
