data_PCOD8007548
_publ_section_title
;
Structure prediction by ZEFSAII (Michael W. Deem and Ramdas Pophale) SiO2 
 PCOD8007548
Probable space group: P -1
;
_chemical_formula_sum "Si O2"
_cell_formula_units_Z 14
_cell_length_a 11.076099
_cell_length_b 19.339391
_cell_length_c 16.177802
_cell_angle_alpha 29.662414
_cell_angle_beta 29.056301
_cell_angle_gamma 22.928745
_cell_volume 617.183256
_symmetry_space_group_name_H-M "P -1"
_symmetry_group_IT_number 2
_symmetry_cell_setting 'triclinic'
loop_
_space_group_symop_operation_xyz
x,y,z
-x,-y,-z
loop_
_atom_site_type_symbol
_atom_site_label
_atom_site_fract_x
_atom_site_fract_y
_atom_site_fract_z
Si Si1 0.128135 0.407781 0.430428
Si Si2 0.191734 0.417171 0.720978
Si Si3 0.180542 0.726003 0.868320
Si Si4 0.033900 0.304132 0.126753
Si Si5 0.723764 0.116876 0.826689
Si Si6 0.809104 0.682652 0.810782
Si Si7 0.723272 0.945845 0.343592
O O1 0.424243 0.395827 0.230758
O O2 0.251708 0.201719 0.574385
O O3 0.000000 0.500000 0.500000
O O4 0.819735 0.537249 0.415619
O O5 0.572660 0.244198 0.701354
O O6 0.052621 0.597307 0.673773
O O7 0.934687 0.386091 0.923396
O O8 0.110719 0.769705 0.765174
O O9 0.978204 0.903807 0.864706
O O10 0.040509 0.271657 0.254863
O O11 0.418384 0.174149 0.002981
O O12 0.804157 0.528788 0.012861
O O13 0.912242 0.148883 0.743125
O O14 0.440742 0.872381 0.805088
O O15 0.500000 0.000000 0.500000
#
# Coordination Sequence:
#
# PCOD8007548 Si02
#       7
#     2   2   2   2   2   2   2
#     4  12  27  42  60  95 128 167 212 255 320 378
#     4  10  21  41  66  90 122 170 212 259 313 369
#     4  10  20  41  65  87 129 161 212 262 313 367
#     4   9  20  38  66 100 117 157 217 263 312 353
#     4  10  21  38  66  92 120 164 212 256 312 375
#     4   9  19  39  64  89 127 160 206 257 309 373
#     4  12  23  41  60  88 128 170 205 243 320 379
#
# _framework density 22.683700999999999
#
# number of rings (size 3 to 8) (size 9 to 14) (size 15 to 20)
#    0.000    2.000    2.857    2.143    0.000    9.143 
#    2.571    1.429    0.000    0.000    0.000    0.000 
#    0.000    0.000    0.000    0.000    0.000    0.000 
#
# Total GULP energy -173473.640249 kJ/mol
# GULP energy per Si atom -12390.974303 kJ/mol
# Density = 2.263207 g / cm^3
# Si number density = 22.683701 Si / 1000 Ang^3
#
#
#
# Elastic Constant Matrix: (Units=GPa)
#
#
# Indices 1 2 3 4 5 6 
#
# 1 165.7849 49.9318 25.6267 -5.2252 21.9549 7.0760
# 2 49.9318 107.2228 24.9791 -2.9297 12.6972 0.9114
# 3 25.6267 24.9791 29.8562 -4.7273 3.3205 -3.2392
# 4 -5.2252 -2.9297 -4.7273 14.9318 -4.4458 0.5566
# 5 21.9549 12.6972 3.3205 -4.4458 37.2541 -2.0113
# 6 7.0760 0.9114 -3.2392 0.5566 -2.0113 54.7520
#
#
#
# Elastic Compliance Matrix: (Units=1/GPa)
#
#
# Indices 1 2 3 4 5 6 
#
# 1 0.007957 -0.002148 -0.004812 -0.000188 -0.003627 -0.001409
# 2 -0.002148 0.012623 -0.008778 -0.001777 -0.002494 -0.000525
# 3 -0.004812 -0.008778 0.046933 0.012304 0.003304 0.003541
# 4 -0.000188 -0.001777 0.012304 0.072923 0.008341 0.000347
# 5 -0.003627 -0.002494 0.003304 0.008341 0.030625 0.001746
# 6 -0.001409 -0.000525 0.003541 0.000347 0.001746 0.018725
#
#
# Mechanical properties :
#
#
# Convention : Reuss Voigt Hill
#
# Bulk Modulus (GPa) = 27.74922 55.99325 41.87123
# Shear Modulus (GPa) = 21.43390 34.87601 28.15495
#
# Velocity S-wave (km/s) = 3.07726 3.92534 3.52689
# Velocity P-wave (km/s) = 4.98856 6.72922 5.92318
#
# Compressibility (1/GPa) = 0.03603705
#
# Stress axis : x y z
#
# Youngs Moduli (GPa) = 125.67177 79.22029 21.30687
#
# Poissons Ratio (x) = 0.17018 0.10253
# Poissons Ratio (y) = 0.26997 0.18703
# Poissons Ratio (z) = 0.60472 0.69541
#
# Static dielectric constant tensor:
#      x y z
#    x 5.044340 0.190370 -0.455540 
#    y 0.190370 4.501340 -0.716330 
#    z -0.455540 -0.716330 4.596120 
# 
# 
# High freq. dielectric constant tensor:
#      x y z
#    x 1.927200 0.001080 -0.000960 
#    y 0.001080 1.893150 -0.004580 
#    z -0.000960 -0.004580 1.842600 
# 
# From -- ./inp_files/224248.got.cif
#   From: 2010.06.25/outbox.cif.g09.slc.cpg/sg2_113_cif.got.tgz:224248.got - 2010.06.27 13:26:56.
