data_PCOD8007330
_publ_section_title
;
Structure prediction by ZEFSAII (Michael W. Deem and Ramdas Pophale) SiO2 
 PCOD8007330
Probable space group: P -1
;
_chemical_formula_sum "Si O2"
_cell_formula_units_Z 16
_cell_length_a 19.738779
_cell_length_b 20.176541
_cell_length_c 6.666925
_cell_angle_alpha 100.234874
_cell_angle_beta 67.897100
_cell_angle_gamma 158.987467
_cell_volume 752.146311
_symmetry_space_group_name_H-M "P -1"
_symmetry_group_IT_number 2
_symmetry_cell_setting 'triclinic'
loop_
_space_group_symop_operation_xyz
x,y,z
-x,-y,-z
loop_
_atom_site_type_symbol
_atom_site_label
_atom_site_fract_x
_atom_site_fract_y
_atom_site_fract_z
Si Si1 0.621958 0.651898 0.113049
Si Si2 0.265079 0.718191 0.269483
Si Si3 0.236783 0.402204 0.614730
Si Si4 0.385045 0.171351 0.477928
Si Si5 0.559794 0.893158 0.305598
Si Si6 0.160613 0.875310 0.265824
Si Si7 0.575975 0.996261 0.719694
Si Si8 0.029141 0.930250 0.011159
O O1 0.403299 0.491941 0.385036
O O2 0.778319 0.743128 0.135226
O O3 0.500000 0.500000 0.000000
O O4 0.798662 0.866079 0.953790
O O5 0.335488 0.715051 0.321877
O O6 0.414403 0.915195 0.264743
O O7 0.000000 0.500000 0.500000
O O8 0.332968 0.762739 0.983771
O O9 0.392990 0.586049 0.686994
O O10 0.023849 0.179580 0.848551
O O11 0.110461 0.336660 0.545423
O O12 0.468468 0.200514 0.592227
O O13 0.326687 0.076179 0.297898
O O14 0.159641 0.018774 0.711834
O O15 0.589445 0.980185 0.473450
O O16 0.780611 0.081898 0.011643
O O17 0.200929 0.839620 0.315795
#
# Coordination Sequence:
#
# PCOD8007330 Si02
#       8
#     2   2   2   2   2   2   2   2
#     4  10  22  38  61  90 119 157 200 245 299 358
#     4  10  21  37  61  90 114 157 200 240 302 357
#     4  11  22  38  62  88 119 166 197 244 306 351
#     4  10  22  40  58  88 123 157 204 251 293 361
#     4  10  20  41  59  83 124 157 196 251 297 347
#     4  10  21  40  60  86 123 161 201 249 301 350
#     4   9  21  40  58  85 124 153 195 253 292 351
#     4  10  21  40  59  87 125 152 199 253 294 353
#
# _framework density 21.272458
#
# number of rings (size 3 to 8) (size 9 to 14) (size 15 to 20)
#    0.000    2.000    1.250    1.500    1.750    2.000 
#    9.000    0.000    0.000    0.000    0.000    0.000 
#    0.000    0.000    0.000    0.000    0.000    0.000 
#
# Total GULP energy -198267.100906 kJ/mol
# GULP energy per Si atom -12391.693807 kJ/mol
# Density = 2.122404 g / cm^3
# Si number density = 21.272458 Si / 1000 Ang^3
#
#
#
# Elastic Constant Matrix: (Units=GPa)
#
#
# Indices 1 2 3 4 5 6 
#
# 1 83.5509 14.5919 27.8378 -8.2919 -19.6946 16.1128
# 2 14.5919 94.7495 44.2046 3.3870 -6.8657 -0.4972
# 3 27.8378 44.2046 98.1669 8.9697 -5.9783 5.0212
# 4 -8.2919 3.3870 8.9697 34.7528 -2.1856 -9.9511
# 5 -19.6946 -6.8657 -5.9783 -2.1856 29.5478 -3.2263
# 6 16.1128 -0.4972 5.0212 -9.9511 -3.2263 33.7205
#
#
#
# Elastic Compliance Matrix: (Units=1/GPa)
#
#
# Indices 1 2 3 4 5 6 
#
# 1 0.017366 -0.000055 -0.004395 0.004407 0.010415 -0.005348
# 2 -0.000055 0.013546 -0.006112 0.000830 0.002108 0.001583
# 3 -0.004395 -0.006112 0.014602 -0.004855 -0.001949 -0.001784
# 4 0.004407 0.000830 -0.004855 0.033990 0.005667 0.009202
# 5 0.010415 0.002108 -0.001949 0.005667 0.041407 0.000979
# 6 -0.005348 0.001583 -0.001784 0.009202 0.000979 0.035309
#
#
# Mechanical properties :
#
#
# Convention : Reuss Voigt Hill
#
# Bulk Modulus (GPa) = 41.00187 49.97064 45.48626
# Shear Modulus (GPa) = 26.95798 32.25976 29.60887
#
# Velocity S-wave (km/s) = 3.56374 3.89846 3.73485
# Velocity P-wave (km/s) = 6.02081 6.61859 6.32676
#
# Compressibility (1/GPa) = 0.02438913
#
# Stress axis : x y z
#
# Youngs Moduli (GPa) = 57.58239 73.82394 68.48589
#
# Poissons Ratio (x) = 0.00406 0.30098
# Poissons Ratio (y) = 0.00317 0.41862
# Poissons Ratio (z) = 0.25306 0.45125
#
# Static dielectric constant tensor:
#      x y z
#    x 4.288440 -0.039720 -0.169200 
#    y -0.039720 3.642230 -0.026670 
#    z -0.169200 -0.026670 3.786630 
# 
# 
# High freq. dielectric constant tensor:
#      x y z
#    x 1.861060 -0.000180 -0.021800 
#    y -0.000180 1.809680 -0.000830 
#    z -0.021800 -0.000830 1.823640 
# 
# From -- ./inp_files/13289.got.cif
#   From: 2010.06.25/outbox.cif.g09.slc.cpg/sg2_7_cif.got.tgz:13289.got - 2010.06.27 13:26:56.
