data_PCOD8007690
_publ_section_title
;
Structure prediction by ZEFSAII (Michael W. Deem and Ramdas Pophale) SiO2 
 PCOD8007690
Probable space group: P -1
;
_chemical_formula_sum "Si O2"
_cell_formula_units_Z 16
_cell_length_a 12.250968
_cell_length_b 18.214496
_cell_length_c 8.817529
_cell_angle_alpha 108.782091
_cell_angle_beta 144.075535
_cell_angle_gamma 46.323838
_cell_volume 692.242287
_symmetry_space_group_name_H-M "P -1"
_symmetry_group_IT_number 2
_symmetry_cell_setting 'triclinic'
loop_
_space_group_symop_operation_xyz
x,y,z
-x,-y,-z
loop_
_atom_site_type_symbol
_atom_site_label
_atom_site_fract_x
_atom_site_fract_y
_atom_site_fract_z
Si Si1 0.992195 0.809803 0.458884
Si Si2 0.599101 0.644861 0.902178
Si Si3 0.768310 0.426513 0.868423
Si Si4 0.423330 0.917895 0.802358
Si Si5 0.997429 0.756314 0.748043
Si Si6 0.628271 0.728539 0.699418
Si Si7 0.488166 0.195625 0.879260
Si Si8 0.852466 0.126257 0.974419
O O1 0.245849 0.753773 0.592747
O O2 0.120441 0.720694 0.689366
O O3 0.797808 0.942945 0.395649
O O4 0.767318 0.830111 0.124954
O O5 0.740555 0.514721 0.993800
O O6 0.689931 0.641375 0.833098
O O7 0.704258 0.674021 0.166767
O O8 0.500000 0.500000 0.500000
O O9 0.773154 0.356305 0.951998
O O10 0.067169 0.330624 0.045697
O O11 0.398857 0.863150 0.605807
O O12 0.350340 0.907640 0.879663
O O13 0.703598 0.797926 0.442233
O O14 0.938607 0.865156 0.805338
O O15 0.451615 0.754157 0.373624
O O16 0.751991 0.149964 0.052470
O O17 0.000000 0.000000 0.000000
#
# Coordination Sequence:
#
# PCOD8007690 Si02
#       8
#     2   2   2   2   2   2   2   2
#     4  10  20  41  67 104 133 176 238 282 352 416
#     4  11  24  42  73  97 141 189 239 294 341 413
#     4  12  26  47  70 101 142 190 242 296 352 408
#     4   9  21  39  70  97 140 181 225 289 348 430
#     4  11  24  46  67 101 140 181 237 288 348 417
#     4  11  24  44  66 102 141 183 234 290 355 419
#     4  10  23  45  66 105 142 181 236 285 347 425
#     4  12  25  43  71 106 146 185 225 289 364 427
#
# _framework density 23.113294
#
# number of rings (size 3 to 8) (size 9 to 14) (size 15 to 20)
#    0.000    1.250    2.500    2.625    1.750    2.500 
#    4.500    0.000    0.000    0.000    0.000    0.000 
#    0.000    0.000    0.000    0.000    0.000    0.000 
#
# Total GULP energy -198332.030242 kJ/mol
# GULP energy per Si atom -12395.751890 kJ/mol
# Density = 2.306069 g / cm^3
# Si number density = 23.113294 Si / 1000 Ang^3
#
#
#
# Elastic Constant Matrix: (Units=GPa)
#
#
# Indices 1 2 3 4 5 6 
#
# 1 111.3446 42.5908 57.2448 -2.8743 1.5977 11.6383
# 2 42.5908 129.4863 18.9963 4.8043 -7.8628 20.2257
# 3 57.2448 18.9963 104.6184 11.5607 -14.7662 7.2987
# 4 -2.8743 4.8043 11.5607 27.4805 5.1986 6.8568
# 5 1.5977 -7.8628 -14.7662 5.1986 28.0433 1.1722
# 6 11.6383 20.2257 7.2987 6.8568 1.1722 37.2430
#
#
#
# Elastic Compliance Matrix: (Units=1/GPa)
#
#
# Indices 1 2 3 4 5 6 
#
# 1 0.016731 -0.004544 -0.010536 0.009283 -0.009408 -0.002109
# 2 -0.004544 0.009952 0.001960 -0.002955 0.004795 -0.003976
# 3 -0.010536 0.001960 0.018015 -0.011542 0.012757 0.000421
# 4 0.009283 -0.002955 -0.011542 0.047568 -0.015948 -0.007290
# 5 -0.009408 0.004795 0.012757 -0.015948 0.047243 -0.000715
# 6 -0.002109 -0.003976 0.000421 -0.007290 -0.000715 0.030951
#
#
# Mechanical properties :
#
#
# Convention : Reuss Voigt Hill
#
# Bulk Modulus (GPa) = 54.18037 64.79035 59.48536
# Shear Modulus (GPa) = 24.64841 33.66118 29.15480
#
# Velocity S-wave (km/s) = 3.26915 3.82036 3.55545
# Velocity P-wave (km/s) = 6.14344 6.89585 6.53049
#
# Compressibility (1/GPa) = 0.01845687
#
# Stress axis : x y z
#
# Youngs Moduli (GPa) = 59.76836 100.48609 55.51058
#
# Poissons Ratio (x) = 0.45659 0.58488
# Poissons Ratio (y) = 0.27158 -0.10880
# Poissons Ratio (z) = 0.62974 -0.19695
#
# Static dielectric constant tensor:
#      x y z
#    x 4.170870 0.246420 -0.114180 
#    y 0.246420 4.198490 0.307280 
#    z -0.114180 0.307280 4.068990 
# 
# 
# High freq. dielectric constant tensor:
#      x y z
#    x 1.917760 0.016430 -0.009020 
#    y 0.016430 1.909560 0.024220 
#    z -0.009020 0.024220 1.909150 
# 
# From -- ./inp_files/279575.got.cif
#   From: 2010.06.25/outbox.cif.g09.slc.cpg/sg2_140_cif.got.tgz:279575.got - 2010.06.27 13:26:56.
