data_PCOD8007149
_publ_section_title
;
Structure prediction by ZEFSAII (Michael W. Deem and Ramdas Pophale) SiO2 
 PCOD8007149
Probable space group: P -1
;
_chemical_formula_sum "Si O2"
_cell_formula_units_Z 12
_cell_length_a 7.147958
_cell_length_b 13.284049
_cell_length_c 10.269095
_cell_angle_alpha 148.182014
_cell_angle_beta 116.173419
_cell_angle_gamma 76.414835
_cell_volume 440.743549
_symmetry_space_group_name_H-M "P -1"
_symmetry_group_IT_number 2
_symmetry_cell_setting 'triclinic'
loop_
_space_group_symop_operation_xyz
x,y,z
-x,-y,-z
loop_
_atom_site_type_symbol
_atom_site_label
_atom_site_fract_x
_atom_site_fract_y
_atom_site_fract_z
Si Si1 0.759153 0.243505 0.258315
Si Si2 0.684650 0.620925 0.591962
Si Si3 0.394398 0.893931 0.662999
Si Si4 0.226069 0.292683 0.559448
Si Si5 0.169791 0.629632 0.092879
Si Si6 0.980177 0.925065 0.201231
O O1 0.808842 0.452911 0.427187
O O2 0.622075 0.228861 0.338601
O O3 0.989118 0.218363 0.336516
O O4 0.620180 0.072211 0.929428
O O5 0.500000 0.500000 0.500000
O O6 0.610453 0.673390 0.480033
O O7 0.844245 0.822885 0.920839
O O8 0.383553 0.760397 0.380907
O O9 0.183776 0.974509 0.664501
O O10 0.263223 0.494099 0.875273
O O11 0.208639 0.097399 0.427956
O O12 0.039131 0.756768 0.117185
O O13 0.000000 0.500000 0.000000
#
# Coordination Sequence:
#
# PCOD8007149 Si02
#       6
#     2   2   2   2   2   2
#     4  10  20  40  67  98 134 173 229 273 330 402
#     4  12  23  42  69 102 136 176 234 287 330 393
#     4  10  21  38  66 104 135 179 220 276 342 400
#     4  11  25  42  70 104 133 183 228 274 342 401
#     4  12  22  41  70 101 141 184 221 276 343 409
#     4  11  22  40  69 101 139 178 225 278 338 405
#
# _framework density 27.226717000000001
#
# number of rings (size 3 to 8) (size 9 to 14) (size 15 to 20)
#    0.000    1.000    6.667    1.500    0.000    0.000 
#    0.000    0.833    0.000    5.000    0.000    0.000 
#    0.000    0.000    0.000    0.000    0.000    0.000 
#
# Total GULP energy -148757.727445 kJ/mol
# GULP energy per Si atom -12396.477287 kJ/mol
# Density = 2.716475 g / cm^3
# Si number density = 27.226717 Si / 1000 Ang^3
#
#
#
# Elastic Constant Matrix: (Units=GPa)
#
#
# Indices 1 2 3 4 5 6 
#
# 1 70.6108 37.4940 44.8405 -10.4288 -2.9723 22.6362
# 2 37.4940 138.5870 43.3085 13.3813 -26.1569 -0.8279
# 3 44.8405 43.3085 197.8722 -15.9562 -23.9732 10.6783
# 4 -10.4288 13.3813 -15.9562 50.9805 1.4167 -2.7706
# 5 -2.9723 -26.1569 -23.9732 1.4167 34.2831 -9.1317
# 6 22.6362 -0.8279 10.6783 -2.7706 -9.1317 37.8901
#
#
#
# Elastic Compliance Matrix: (Units=1/GPa)
#
#
# Indices 1 2 3 4 5 6 
#
# 1 0.028318 -0.009457 -0.004424 0.006244 -0.013058 -0.018568
# 2 -0.009457 0.012419 -0.000097 -0.005083 0.010988 0.008225
# 3 -0.004424 -0.000097 0.006630 0.001174 0.004657 0.001981
# 4 0.006244 -0.005083 0.001174 0.022522 -0.004402 -0.003586
# 5 -0.013058 0.010988 0.004657 -0.004402 0.044416 0.017111
# 6 -0.018568 0.008225 0.001981 -0.003586 0.017111 0.040968
#
#
# Mechanical properties :
#
#
# Convention : Reuss Voigt Hill
#
# Bulk Modulus (GPa) = 51.52166 73.15064 62.33615
# Shear Modulus (GPa) = 26.35748 43.39255 34.87502
#
# Velocity S-wave (km/s) = 3.11476 3.99651 3.58287
# Velocity P-wave (km/s) = 5.64800 6.94418 6.32936
#
# Compressibility (1/GPa) = 0.01940931
#
# Stress axis : x y z
#
# Youngs Moduli (GPa) = 35.31284 80.52490 150.83911
#
# Poissons Ratio (x) = 0.76155 0.66728
# Poissons Ratio (y) = 0.33396 0.01470
# Poissons Ratio (z) = 0.15622 0.00785
#
# Static dielectric constant tensor:
#      x y z
#    x 5.655550 -0.318650 -0.321460 
#    y -0.318650 9.942540 2.109270 
#    z -0.321460 2.109270 6.008740 
# 
# 
# High freq. dielectric constant tensor:
#      x y z
#    x 2.117110 -0.016500 -0.009560 
#    y -0.016500 2.111770 0.014610 
#    z -0.009560 0.014610 2.104470 
# 
# From -- ./inp_files/157845.got.cif
#   From: 2010.06.25/outbox.cif.g09.slc.cpg/sg2_79_cif.got.tgz:157845.got - 2010.06.27 13:26:56.
