data_PCOD8007617
_publ_section_title
;
Structure prediction by ZEFSAII (Michael W. Deem and Ramdas Pophale) SiO2 
 PCOD8007617
Probable space group: P -1
;
_chemical_formula_sum "Si O2"
_cell_formula_units_Z 16
_cell_length_a 15.842920
_cell_length_b 12.076639
_cell_length_c 8.972874
_cell_angle_alpha 71.395344
_cell_angle_beta 49.849361
_cell_angle_gamma 111.750219
_cell_volume 753.572591
_symmetry_space_group_name_H-M "P -1"
_symmetry_group_IT_number 2
_symmetry_cell_setting 'triclinic'
loop_
_space_group_symop_operation_xyz
x,y,z
-x,-y,-z
loop_
_atom_site_type_symbol
_atom_site_label
_atom_site_fract_x
_atom_site_fract_y
_atom_site_fract_z
Si Si1 0.962536 0.582340 0.206654
Si Si2 0.293282 0.847235 0.261648
Si Si3 0.000962 0.004797 0.819011
Si Si4 0.801962 0.306414 0.870922
Si Si5 0.834370 0.097982 0.380226
Si Si6 0.480436 0.724060 0.785084
Si Si7 0.724170 0.583191 0.613103
Si Si8 0.606443 0.647856 0.449522
O O1 0.837831 0.362482 0.428529
O O2 0.842058 0.572004 0.438021
O O3 0.157774 0.724816 0.006569
O O4 0.020575 0.684010 0.938294
O O5 0.289178 0.851384 0.084557
O O6 0.233247 0.919112 0.372487
O O7 0.500000 0.000000 0.000000
O O8 0.063586 0.937868 0.700418
O O9 0.792935 0.854069 0.074188
O O10 0.143686 0.225272 0.516463
O O11 0.000000 0.000000 0.000000
O O12 0.000000 0.500000 0.500000
O O13 0.681599 0.319810 0.033169
O O14 0.668304 0.946277 0.517355
O O15 0.499651 0.667702 0.633954
O O16 0.440622 0.599211 0.017610
O O17 0.645263 0.583574 0.559544
O O18 0.500000 0.500000 0.500000
#
# Coordination Sequence:
#
# PCOD8007617 Si02
#       8
#     2   2   2   2   2   2   2   2
#     4  11  22  42  67  93 129 179 209 263 332 379
#     4  11  22  41  62  96 129 166 220 271 308 379
#     4  10  20  41  66  89 128 171 206 262 319 392
#     4  10  22  42  64  91 133 167 211 269 316 381
#     4  12  22  40  69  93 129 174 221 259 323 388
#     4  12  22  42  70  93 127 178 215 262 323 388
#     4  11  20  43  72  89 127 177 215 251 335 389
#     4  11  24  41  65 100 130 158 218 278 313 379
#
# _framework density 21.232195000000001
#
# number of rings (size 3 to 8) (size 9 to 14) (size 15 to 20)
#    0.000    1.000    8.750    0.750    0.000    2.500 
#    2.250    4.375    0.000    0.000    0.000    0.000 
#    0.000    0.000    0.000    0.000    0.000    0.000 
#
# Total GULP energy -198322.325484 kJ/mol
# GULP energy per Si atom -12395.145343 kJ/mol
# Density = 2.118387 g / cm^3
# Si number density = 21.232195 Si / 1000 Ang^3
#
#
#
# Elastic Constant Matrix: (Units=GPa)
#
#
# Indices 1 2 3 4 5 6 
#
# 1 41.6655 40.4229 23.4736 10.5004 -20.8311 2.3347
# 2 40.4229 162.0002 47.3490 26.5962 -19.8093 2.2659
# 3 23.4736 47.3490 97.6377 3.4265 -17.3506 -0.7149
# 4 10.5004 26.5962 3.4265 45.7696 -10.4402 -13.6494
# 5 -20.8311 -19.8093 -17.3506 -10.4402 33.9867 -2.9778
# 6 2.3347 2.2659 -0.7149 -13.6494 -2.9778 34.5542
#
#
#
# Elastic Compliance Matrix: (Units=1/GPa)
#
#
# Indices 1 2 3 4 5 6 
#
# 1 0.043268 -0.007122 -0.003332 -0.001338 0.020142 -0.001318
# 2 -0.007122 0.009402 -0.003072 -0.004755 -0.002112 -0.002259
# 3 -0.003332 -0.003072 0.013160 0.003179 0.004064 0.002305
# 4 -0.001338 -0.004755 0.003179 0.030608 0.008599 0.013300
# 5 0.020142 -0.002112 0.004064 0.008599 0.045797 0.006205
# 6 -0.001318 -0.002259 0.002305 0.013300 0.006205 0.035013
#
#
# Mechanical properties :
#
#
# Convention : Reuss Voigt Hill
#
# Bulk Modulus (GPa) = 25.78762 58.19938 41.99350
# Shear Modulus (GPa) = 23.01739 35.53262 29.27501
#
# Velocity S-wave (km/s) = 3.29611 4.09531 3.71725
# Velocity P-wave (km/s) = 5.16311 7.05922 6.18426
#
# Compressibility (1/GPa) = 0.03877830
#
# Stress axis : x y z
#
# Youngs Moduli (GPa) = 23.11167 106.36330 75.98554
#
# Poissons Ratio (x) = 0.75747 0.25320
# Poissons Ratio (y) = 0.16459 0.23344
# Poissons Ratio (z) = 0.07701 0.32677
#
# Static dielectric constant tensor:
#      x y z
#    x -29.042340 -32.724960 -9.131480 
#    y -32.724960 -28.261030 -8.996390 
#    z -9.131480 -8.996390 1.838870 
# 
# 
# High freq. dielectric constant tensor:
#      x y z
#    x 1.801990 -0.012120 -0.019350 
#    y -0.012120 1.841580 0.003150 
#    z -0.019350 0.003150 1.846410 
# 
# From -- ./inp_files/187449.got.cif
#   From: 2010.06.25/outbox.cif.g09.slc.cpg/sg2_94_cif.got.tgz:187449.got - 2010.06.27 13:26:56.
