data_PCOD8007608
_publ_section_title
;
Structure prediction by ZEFSAII (Michael W. Deem and Ramdas Pophale) SiO2 
 PCOD8007608
Probable space group: P -1
;
_chemical_formula_sum "Si O2"
_cell_formula_units_Z 16
_cell_length_a 9.501906
_cell_length_b 16.713278
_cell_length_c 9.405397
_cell_angle_alpha 96.388233
_cell_angle_beta 108.003634
_cell_angle_gamma 35.311749
_cell_volume 793.646875
_symmetry_space_group_name_H-M "P -1"
_symmetry_group_IT_number 2
_symmetry_cell_setting 'triclinic'
loop_
_space_group_symop_operation_xyz
x,y,z
-x,-y,-z
loop_
_atom_site_type_symbol
_atom_site_label
_atom_site_fract_x
_atom_site_fract_y
_atom_site_fract_z
Si Si1 0.859510 0.503969 0.346309
Si Si2 0.962208 0.034638 0.224950
Si Si3 0.776946 0.959129 0.272130
Si Si4 0.642918 0.218381 0.905663
Si Si5 0.552903 0.493238 0.354007
Si Si6 0.927126 0.251367 0.920715
Si Si7 0.198421 0.221090 0.244475
Si Si8 0.033878 0.173811 0.401430
O O1 0.667992 0.637266 0.201481
O O2 0.675006 0.527329 0.383736
O O3 0.000000 0.500000 0.500000
O O4 0.082626 0.355627 0.299597
O O5 0.033030 0.081299 0.344206
O O6 0.927765 0.976484 0.311922
O O7 0.695327 0.163098 0.071675
O O8 0.219132 0.905779 0.182906
O O9 0.891472 0.853626 0.415026
O O10 0.825094 0.888467 0.126398
O O11 0.474274 0.114833 0.235857
O O12 0.786639 0.239370 0.947727
O O13 0.500000 0.500000 0.500000
O O14 0.278569 0.607649 0.210919
O O15 0.746645 0.340218 0.317549
O O16 0.006775 0.275778 0.073726
O O17 0.234704 0.136346 0.360972
#
# Coordination Sequence:
#
# PCOD8007608 Si02
#       8
#     2   2   2   2   2   2   2   2
#     4  10  24  41  62  88 125 161 197 248 309 362
#     4  10  21  38  63  89 117 161 205 247 295 354
#     4  11  23  39  59  93 126 159 200 250 302 353
#     4   9  20  40  63  88 119 158 204 247 298 358
#     4  10  21  40  64  92 116 156 204 249 301 351
#     4  10  20  41  66  87 122 158 205 250 295 362
#     4  11  24  40  62  91 124 163 197 247 309 360
#     4  11  22  38  64  90 122 158 204 249 301 361
#
# _framework density 20.160098000000001
#
# number of rings (size 3 to 8) (size 9 to 14) (size 15 to 20)
#    0.000    1.750    2.500    1.125    3.500    2.500 
#    2.250    0.625    0.000    0.000    0.000    0.000 
#    0.000    0.000    0.000    0.000    0.000    0.000 
#
# Total GULP energy -198408.908694 kJ/mol
# GULP energy per Si atom -12400.556793 kJ/mol
# Density = 2.011421 g / cm^3
# Si number density = 20.160098 Si / 1000 Ang^3
#
#
#
# Elastic Constant Matrix: (Units=GPa)
#
#
# Indices 1 2 3 4 5 6 
#
# 1 42.8543 18.9692 24.7742 7.0108 -3.1301 -3.6756
# 2 18.9692 101.0851 36.7109 2.2140 12.9764 -2.0237
# 3 24.7742 36.7109 98.0848 1.8724 3.4532 4.3574
# 4 7.0108 2.2140 1.8724 39.6835 7.9218 2.5728
# 5 -3.1301 12.9764 3.4532 7.9218 34.5437 2.0762
# 6 -3.6756 -2.0237 4.3574 2.5728 2.0762 30.9512
#
#
#
# Elastic Compliance Matrix: (Units=1/GPa)
#
#
# Indices 1 2 3 4 5 6 
#
# 1 0.030765 -0.003938 -0.006587 -0.006417 0.006130 0.004446
# 2 -0.003938 0.012588 -0.003609 0.001099 -0.005043 0.001111
# 3 -0.006587 -0.003609 0.013343 0.001054 -0.000640 -0.002941
# 4 -0.006417 0.001099 0.001054 0.027857 -0.007328 -0.002663
# 5 0.006130 -0.005043 -0.000640 -0.007328 0.033211 -0.001130
# 6 0.004446 0.001111 -0.002941 -0.002663 -0.001130 0.033621
#
#
# Mechanical properties :
#
#
# Convention : Reuss Voigt Hill
#
# Bulk Modulus (GPa) = 35.17904 44.77032 39.97468
# Shear Modulus (GPa) = 26.43663 31.80701 29.12182
#
# Velocity S-wave (km/s) = 3.62516 3.97636 3.80482
# Velocity P-wave (km/s) = 5.91694 6.58313 6.25890
#
# Compressibility (1/GPa) = 0.02842602
#
# Stress axis : x y z
#
# Youngs Moduli (GPa) = 32.50436 79.43986 74.94484
#
# Poissons Ratio (x) = 0.31285 0.49370
# Poissons Ratio (y) = 0.12801 0.27051
# Poissons Ratio (z) = 0.21412 0.28674
#
# Static dielectric constant tensor:
#      x y z
#    x 3.519130 -0.058550 -0.191810 
#    y -0.058550 3.994220 -0.110950 
#    z -0.191810 -0.110950 3.694910 
# 
# 
# High freq. dielectric constant tensor:
#      x y z
#    x 1.766900 0.003560 -0.011890 
#    y 0.003560 1.798430 -0.001940 
#    z -0.011890 -0.001940 1.792270 
# 
# From -- ./inp_files/207887.got.cif
#   From: 2010.06.25/outbox.cif.g09.slc.cpg/sg2_104_cif.got.tgz:207887.got - 2010.06.27 13:26:56.
