data_PCOD8007830
_publ_section_title
;
Structure prediction by ZEFSAII (Michael W. Deem and Ramdas Pophale) SiO2 
 PCOD8007830
Probable space group: P -1
;
_chemical_formula_sum "Si O2"
_cell_formula_units_Z 16
_cell_length_a 18.127227
_cell_length_b 8.541081
_cell_length_c 14.761686
_cell_angle_alpha 151.989620
_cell_angle_beta 41.250038
_cell_angle_gamma 139.076585
_cell_volume 675.876806
_symmetry_space_group_name_H-M "P -1"
_symmetry_group_IT_number 2
_symmetry_cell_setting 'triclinic'
loop_
_space_group_symop_operation_xyz
x,y,z
-x,-y,-z
loop_
_atom_site_type_symbol
_atom_site_label
_atom_site_fract_x
_atom_site_fract_y
_atom_site_fract_z
Si Si1 0.202694 0.369801 0.833335
Si Si2 0.176718 0.594233 0.394346
Si Si3 0.985161 0.312930 0.116313
Si Si4 0.564787 0.625867 0.596844
Si Si5 0.198652 0.506197 0.713327
Si Si6 0.981533 0.236610 0.515247
Si Si7 0.397895 0.582007 0.079695
Si Si8 0.415958 0.602792 0.877426
O O1 0.232217 0.612886 0.840748
O O2 0.287626 0.561149 0.933216
O O3 0.215619 0.990211 0.600033
O O4 0.072201 0.358100 0.974822
O O5 0.088997 0.547681 0.366561
O O6 0.285866 0.475571 0.194673
O O7 0.112959 0.332827 0.400355
O O8 0.012930 0.655190 0.329424
O O9 0.850448 0.213874 0.151813
O O10 0.000000 0.000000 0.000000
O O11 0.500000 0.500000 0.500000
O O12 0.686493 0.547126 0.464807
O O13 0.481674 0.424500 0.652464
O O14 0.586906 0.037037 0.780238
O O15 0.084107 0.169494 0.641925
O O16 0.500000 0.500000 0.000000
O O17 0.395293 0.397252 0.888700
O O18 0.500000 0.000000 0.000000
#
# Coordination Sequence:
#
# PCOD8007830 Si02
#       8
#     2   2   2   2   2   2   2   2
#     4  11  21  44  68  92 138 177 227 282 333 405
#     4  10  20  41  69  90 135 183 215 279 344 391
#     4  12  25  42  65 107 137 168 229 282 342 403
#     4  11  21  47  68  93 135 178 228 272 339 406
#     4  11  24  44  71  94 136 187 218 276 342 413
#     4  10  21  42  66  96 135 178 221 271 339 409
#     4  11  23  43  66  99 132 171 225 283 334 392
#     4  10  23  41  68  97 131 179 227 282 331 399
#
# _framework density 23.672953
#
# number of rings (size 3 to 8) (size 9 to 14) (size 15 to 20)
#    0.000    1.250    5.000    1.500    1.750    1.000 
#    9.000    1.250    0.000    0.000    0.000    0.000 
#    0.000    0.000    0.000    0.000    0.000    0.000 
#
# Total GULP energy -198227.861313 kJ/mol
# GULP energy per Si atom -12389.241332 kJ/mol
# Density = 2.361907 g / cm^3
# Si number density = 23.672953 Si / 1000 Ang^3
#
#
#
# Elastic Constant Matrix: (Units=GPa)
#
#
# Indices 1 2 3 4 5 6 
#
# 1 165.2183 23.0880 56.9721 -23.5493 -12.2647 7.1591
# 2 23.0880 71.4456 44.9043 -32.8370 -8.7966 11.0915
# 3 56.9721 44.9043 91.6158 -49.1658 -6.8515 -2.3275
# 4 -23.5493 -32.8370 -49.1658 50.3213 3.7676 2.6435
# 5 -12.2647 -8.7966 -6.8515 3.7676 51.6696 -6.6984
# 6 7.1591 11.0915 -2.3275 2.6435 -6.6984 30.8038
#
#
#
# Elastic Compliance Matrix: (Units=1/GPa)
#
#
# Indices 1 2 3 4 5 6 
#
# 1 0.008072 0.001186 -0.006548 -0.001800 0.001068 -0.002411
# 2 0.001186 0.024672 -0.008020 0.009251 0.001415 -0.010251
# 3 -0.006548 -0.008020 0.030396 0.021125 0.000211 0.004939
# 4 -0.001800 0.009251 0.021125 0.045991 -0.000089 -0.005283
# 5 0.001068 0.001415 0.000211 -0.000089 0.020361 0.003694
# 6 -0.002411 -0.010251 0.004939 -0.005283 0.003694 0.038345
#
#
# Mechanical properties :
#
#
# Convention : Reuss Voigt Hill
#
# Bulk Modulus (GPa) = 27.49100 64.24537 45.86819
# Shear Modulus (GPa) = 24.18653 40.11329 32.14991
#
# Velocity S-wave (km/s) = 3.19986 4.12087 3.68922
# Velocity P-wave (km/s) = 5.02894 7.05973 6.12903
#
# Compressibility (1/GPa) = 0.03637554
#
# Stress axis : x y z
#
# Youngs Moduli (GPa) = 123.88330 40.53253 32.89905
#
# Poissons Ratio (x) = -0.04805 0.21542
# Poissons Ratio (y) = -0.14687 0.26384
# Poissons Ratio (z) = 0.81119 0.32505
#
# Static dielectric constant tensor:
#      x y z
#    x 4.638130 -0.009150 0.165980 
#    y -0.009150 4.038680 0.032950 
#    z 0.165980 0.032950 3.891640 
# 
# 
# High freq. dielectric constant tensor:
#      x y z
#    x 1.944910 0.001440 0.015810 
#    y 0.001440 1.931670 -0.027030 
#    z 0.015810 -0.027030 1.933580 
# 
# From -- ./inp_files/537703.got.cif
#   From: 2010.06.25/outbox.cif.g09.slc.cpg/sg2_269_cif.got.tgz:537703.got - 2010.06.27 13:26:56.
