data_PCOD8007788
_publ_section_title
;
Structure prediction by ZEFSAII (Michael W. Deem and Ramdas Pophale) SiO2 
 PCOD8007788
Probable space group: P -1
;
_chemical_formula_sum "Si O2"
_cell_formula_units_Z 14
_cell_length_a 9.773349
_cell_length_b 11.163934
_cell_length_c 12.488262
_cell_angle_alpha 45.758488
_cell_angle_beta 38.383774
_cell_angle_gamma 56.337771
_cell_volume 606.039651
_symmetry_space_group_name_H-M "P -1"
_symmetry_group_IT_number 2
_symmetry_cell_setting 'triclinic'
loop_
_space_group_symop_operation_xyz
x,y,z
-x,-y,-z
loop_
_atom_site_type_symbol
_atom_site_label
_atom_site_fract_x
_atom_site_fract_y
_atom_site_fract_z
Si Si1 0.923496 0.670802 0.224066
Si Si2 0.971414 0.960872 0.724518
Si Si3 0.397231 0.542922 0.304361
Si Si4 0.143383 0.613986 0.917915
Si Si5 0.309298 0.021442 0.313691
Si Si6 0.764576 0.175980 0.906304
Si Si7 0.512563 0.694659 0.339952
O O1 0.802480 0.546636 0.456666
O O2 0.744629 0.764523 0.197192
O O3 0.050110 0.813505 0.122202
O O4 0.086159 0.571946 0.103597
O O5 0.088144 0.806356 0.807932
O O6 0.793201 0.903782 0.780144
O O7 0.157411 0.066147 0.480892
O O8 0.857208 0.080994 0.805538
O O9 0.594264 0.411918 0.240520
O O10 0.300145 0.631453 0.203468
O O11 0.497859 0.694201 0.220569
O O12 0.000000 0.500000 0.000000
O O13 0.321217 0.816626 0.427092
O O14 0.550901 0.091275 0.139802
O O15 0.500000 0.500000 0.500000
#
# Coordination Sequence:
#
# PCOD8007788 Si02
#       7
#     2   2   2   2   2   2   2
#     4  11  26  43  69 102 141 178 227 284 343 397
#     4  11  25  43  70 103 135 181 229 281 342 400
#     4  11  24  45  71  98 138 181 231 279 334 407
#     4  12  25  42  71 102 130 180 237 278 334 405
#     4  11  24  42  69 101 138 176 229 282 334 407
#     4  12  26  45  68 103 143 180 222 281 350 407
#     4  10  20  41  68  96 128 176 224 275 330 397
#
# _framework density 23.100798999999999
#
# number of rings (size 3 to 8) (size 9 to 14) (size 15 to 20)
#    0.000    0.857    2.857    4.286    2.000    5.143 
#    0.000    2.143    0.000    0.000    0.000    0.000 
#    0.000    0.000    0.000    0.000    0.000    0.000 
#
# Total GULP energy -173554.285368 kJ/mol
# GULP energy per Si atom -12396.734669 kJ/mol
# Density = 2.304822 g / cm^3
# Si number density = 23.100799 Si / 1000 Ang^3
#
#
#
# Elastic Constant Matrix: (Units=GPa)
#
#
# Indices 1 2 3 4 5 6 
#
# 1 101.6086 22.8100 44.5373 6.9423 -24.3895 8.1190
# 2 22.8100 71.8412 41.8575 3.8370 -2.7930 -19.9022
# 3 44.5373 41.8575 147.0505 22.3146 -12.4702 12.2543
# 4 6.9423 3.8370 22.3146 30.9216 -1.9389 6.0261
# 5 -24.3895 -2.7930 -12.4702 -1.9389 29.7803 2.2618
# 6 8.1190 -19.9022 12.2543 6.0261 2.2618 29.2375
#
#
#
# Elastic Compliance Matrix: (Units=1/GPa)
#
#
# Indices 1 2 3 4 5 6 
#
# 1 0.015404 -0.006314 -0.001173 0.000731 0.012278 -0.009184
# 2 -0.006314 0.027545 -0.008510 -0.001232 -0.008126 0.024952
# 3 -0.001173 -0.008510 0.011394 -0.004835 0.003420 -0.009511
# 4 0.000731 -0.001232 -0.004835 0.037230 0.001398 -0.006796
# 5 0.012278 -0.008126 0.003420 0.001398 0.045472 -0.014180
# 6 -0.009184 0.024952 -0.009511 -0.006796 -0.014180 0.060222
#
#
# Mechanical properties :
#
#
# Convention : Reuss Voigt Hill
#
# Bulk Modulus (GPa) = 44.74156 59.87886 52.31021
# Shear Modulus (GPa) = 21.12282 32.07426 26.59854
#
# Velocity S-wave (km/s) = 3.02715 3.73023 3.39693
# Velocity P-wave (km/s) = 5.62389 6.67306 6.17082
#
# Compressibility (1/GPa) = 0.02235059
#
# Stress axis : x y z
#
# Youngs Moduli (GPa) = 64.91835 36.30435 87.76330
#
# Poissons Ratio (x) = 0.22921 0.10292
# Poissons Ratio (y) = 0.40987 0.74686
# Poissons Ratio (z) = 0.07613 0.30895
#
# Static dielectric constant tensor:
#      x y z
#    x 4.555230 -0.138810 0.060690 
#    y -0.138810 4.125170 0.221830 
#    z 0.060690 0.221830 4.174700 
# 
# 
# High freq. dielectric constant tensor:
#      x y z
#    x 1.909330 -0.017240 0.005230 
#    y -0.017240 1.905570 0.013740 
#    z 0.005230 0.013740 1.919610 
# 
# From -- ./inp_files/391914.got.cif
#   From: 2010.06.25/outbox.cif.g09.slc.cpg/sg2_196_cif.got.tgz:391914.got - 2010.06.27 13:26:56.
