data_PCOD8007982
_publ_section_title
;
Structure prediction by ZEFSAII (Michael W. Deem and Ramdas Pophale) SiO2 
 PCOD8007982
Probable space group: P -1
;
_chemical_formula_sum "Si O2"
_cell_formula_units_Z 16
_cell_length_a 12.952813
_cell_length_b 9.471172
_cell_length_c 8.363877
_cell_angle_alpha 48.378113
_cell_angle_beta 93.352352
_cell_angle_gamma 105.352255
_cell_volume 729.788961
_symmetry_space_group_name_H-M "P -1"
_symmetry_group_IT_number 2
_symmetry_cell_setting 'triclinic'
loop_
_space_group_symop_operation_xyz
x,y,z
-x,-y,-z
loop_
_atom_site_type_symbol
_atom_site_label
_atom_site_fract_x
_atom_site_fract_y
_atom_site_fract_z
Si Si1 0.249964 0.050860 0.147169
Si Si2 0.643063 0.192798 0.253503
Si Si3 0.393845 0.440983 0.430643
Si Si4 0.421856 0.222821 0.277022
Si Si5 0.059999 0.459201 0.379608
Si Si6 0.192975 0.303068 0.704102
Si Si7 0.285124 0.770896 0.110058
Si Si8 0.833298 0.336297 0.379383
O O1 0.339188 0.224587 0.122263
O O2 0.311197 0.948671 0.104881
O O3 0.180591 0.882716 0.386193
O O4 0.169709 0.149729 0.966384
O O5 0.546897 0.298399 0.167950
O O6 0.755508 0.339873 0.220986
O O7 0.605390 0.004809 0.505496
O O8 0.671214 0.128907 0.130415
O O9 0.500000 0.500000 0.500000
O O10 0.407858 0.356155 0.322494
O O11 0.302747 0.286378 0.645281
O O12 0.358218 0.634459 0.260576
O O13 0.103568 0.271478 0.575722
O O14 0.156784 0.647050 0.183769
O O15 0.000000 0.500000 0.500000
O O16 0.960476 0.408010 0.280861
O O17 0.200268 0.526786 0.593115
#
# Coordination Sequence:
#
# PCOD8007982 Si02
#       8
#     2   2   2   2   2   2   2   2
#     4  11  22  39  65  92 126 166 207 250 316 367
#     4  10  23  39  62  87 130 161 212 252 314 365
#     4  11  23  39  61  88 130 165 208 257 307 363
#     4  10  24  40  60  91 129 166 203 257 305 375
#     4   9  18  40  64  90 125 160 206 266 308 366
#     4  10  21  37  64  91 124 162 213 252 307 374
#     4  11  23  39  63  93 123 164 212 257 307 375
#     4  10  20  42  62  92 128 163 203 268 311 359
#
# _framework density 21.924147999999999
#
# number of rings (size 3 to 8) (size 9 to 14) (size 15 to 20)
#    0.000    1.750    3.750    1.500    7.000    2.000 
#    0.000    0.000    0.000    6.750    0.000    0.000 
#    0.000    0.000    0.000    0.000    0.000    0.000 
#
# Total GULP energy -198221.124494 kJ/mol
# GULP energy per Si atom -12388.820281 kJ/mol
# Density = 2.187425 g / cm^3
# Si number density = 21.924148 Si / 1000 Ang^3
#
#
#
# Elastic Constant Matrix: (Units=GPa)
#
#
# Indices 1 2 3 4 5 6 
#
# 1 148.3698 53.2453 16.3405 7.2860 -0.5271 12.3181
# 2 53.2453 112.7278 8.6342 15.5881 4.5577 5.4998
# 3 16.3405 8.6342 48.1516 3.5370 -2.3694 -0.2777
# 4 7.2860 15.5881 3.5370 27.3650 -8.1437 1.7431
# 5 -0.5271 4.5577 -2.3694 -8.1437 26.8837 3.4920
# 6 12.3181 5.4998 -0.2777 1.7431 3.4920 28.7438
#
#
#
# Elastic Compliance Matrix: (Units=1/GPa)
#
#
# Indices 1 2 3 4 5 6 
#
# 1 0.008617 -0.003908 -0.002238 0.000807 0.001291 -0.003172
# 2 -0.003908 0.011873 -0.000501 -0.006955 -0.004285 0.000340
# 3 -0.002238 -0.000501 0.021808 -0.001623 0.001315 0.001204
# 4 0.000807 -0.006955 -0.001623 0.045265 0.015235 -0.003627
# 5 0.001291 -0.004285 0.001315 0.015235 0.043449 -0.005923
# 6 -0.003172 0.000340 0.001204 -0.003627 -0.005923 0.037036
#
#
# Mechanical properties :
#
#
# Convention : Reuss Voigt Hill
#
# Bulk Modulus (GPa) = 34.47598 51.74324 43.10961
# Shear Modulus (GPa) = 26.17677 32.00044 29.08860
#
# Velocity S-wave (km/s) = 3.45914 3.82461 3.64646
# Velocity P-wave (km/s) = 5.63147 6.56931 6.11838
#
# Compressibility (1/GPa) = 0.02900570
#
# Stress axis : x y z
#
# Youngs Moduli (GPa) = 116.04872 84.22138 45.85518
#
# Poissons Ratio (x) = 0.32912 0.10261
# Poissons Ratio (y) = 0.45349 0.02297
# Poissons Ratio (z) = 0.25967 0.04219
#
# Static dielectric constant tensor:
#      x y z
#    x 5.125050 0.575950 0.227830 
#    y 0.575950 4.031410 0.216260 
#    z 0.227830 0.216260 3.972840 
# 
# 
# High freq. dielectric constant tensor:
#      x y z
#    x 1.870240 0.004270 0.012120 
#    y 0.004270 1.838850 0.008500 
#    z 0.012120 0.008500 1.858290 
# 
# From -- ./inp_files/242131.got.cif
#   From: 2010.06.25/outbox.cif.g09.slc.cpg/sg2_122_cif.got.tgz:242131.got - 2010.06.27 13:26:56.
