data_PCOD8007887
_publ_section_title
;
Structure prediction by ZEFSAII (Michael W. Deem and Ramdas Pophale) SiO2 
 PCOD8007887
Probable space group: P -1
;
_chemical_formula_sum "Si O2"
_cell_formula_units_Z 16
_cell_length_a 18.719562
_cell_length_b 12.194014
_cell_length_c 8.591200
_cell_angle_alpha 64.151393
_cell_angle_beta 106.702713
_cell_angle_gamma 154.935560
_cell_volume 717.311870
_symmetry_space_group_name_H-M "P -1"
_symmetry_group_IT_number 2
_symmetry_cell_setting 'triclinic'
loop_
_space_group_symop_operation_xyz
x,y,z
-x,-y,-z
loop_
_atom_site_type_symbol
_atom_site_label
_atom_site_fract_x
_atom_site_fract_y
_atom_site_fract_z
Si Si1 0.680564 0.057816 0.777967
Si Si2 0.109361 0.058493 0.953673
Si Si3 0.996501 0.120752 0.338859
Si Si4 0.367728 0.009390 0.561922
Si Si5 0.430025 0.500930 0.065143
Si Si6 0.620970 0.221535 0.796547
Si Si7 0.215648 0.034391 0.461084
Si Si8 0.011863 0.657735 0.270911
O O1 0.584605 0.906507 0.643048
O O2 0.678655 0.193627 0.744774
O O3 0.878974 0.298734 0.746088
O O4 0.579029 0.823573 0.987680
O O5 0.112353 0.072131 0.763088
O O6 0.051125 0.834686 0.087441
O O7 0.292982 0.364800 0.953361
O O8 0.000000 0.000000 0.000000
O O9 0.197487 0.456481 0.220804
O O10 0.886063 0.058082 0.401308
O O11 0.000000 0.000000 0.500000
O O12 0.332613 0.093074 0.557235
O O13 0.193426 0.669411 0.673120
O O14 0.522260 0.174421 0.655302
O O15 0.345001 0.324623 0.280480
O O16 0.500000 0.500000 0.000000
O O17 0.500000 0.000000 0.000000
O O18 0.067140 0.765088 0.416861
#
# Coordination Sequence:
#
# PCOD8007887 Si02
#       8
#     2   2   2   2   2   2   2   2
#     4  11  23  42  73  97 140 174 229 278 340 410
#     4  11  25  42  69  95 133 180 228 276 340 414
#     4  12  27  46  67  98 141 184 226 281 343 405
#     4  11  22  42  70 101 132 176 230 275 337 409
#     4  11  21  44  72 104 130 177 228 285 335 406
#     4  12  29  45  65 103 142 180 224 288 344 394
#     4  10  22  42  69 101 137 172 227 281 345 399
#     4  10  20  41  70  98 129 181 222 274 342 412
#
# _framework density 22.305499999999999
#
# number of rings (size 3 to 8) (size 9 to 14) (size 15 to 20)
#    0.000    1.000    3.750    5.625    7.000    1.000 
#    0.000    3.750    0.000    0.000    0.000    0.000 
#    0.000    0.000    0.000    0.000    0.000    0.000 
#
# Total GULP energy -198335.775284 kJ/mol
# GULP energy per Si atom -12395.985955 kJ/mol
# Density = 2.225473 g / cm^3
# Si number density = 22.305500 Si / 1000 Ang^3
#
#
#
# Elastic Constant Matrix: (Units=GPa)
#
#
# Indices 1 2 3 4 5 6 
#
# 1 153.6052 3.2217 33.2747 20.1318 -2.2117 0.7193
# 2 3.2217 11.4805 -1.2471 -11.1755 -6.3175 -3.5794
# 3 33.2747 -1.2471 91.8919 -1.9532 -0.8661 -0.1459
# 4 20.1318 -11.1755 -1.9532 36.7411 4.2207 2.2915
# 5 -2.2117 -6.3175 -0.8661 4.2207 41.4284 -2.4562
# 6 0.7193 -3.5794 -0.1459 2.2915 -2.4562 24.1548
#
#
#
# Elastic Compliance Matrix: (Units=1/GPa)
#
#
# Indices 1 2 3 4 5 6 
#
# 1 0.008575 -0.011532 -0.003445 -0.008241 -0.000608 -0.001265
# 2 -0.011532 0.158616 0.007640 0.051392 0.019743 0.021027
# 3 -0.003445 0.007640 0.012343 0.004715 0.000815 0.000945
# 4 -0.008241 0.051392 0.004715 0.047047 0.002923 0.003723
# 5 -0.000608 0.019743 0.000815 0.002923 0.027158 0.005433
# 6 -0.001265 0.021027 0.000945 0.003723 0.005433 0.044758
#
#
# Mechanical properties :
#
#
# Convention : Reuss Voigt Hill
#
# Bulk Modulus (GPa) = 6.06567 36.38623 21.22595
# Shear Modulus (GPa) = 13.58240 35.24674 24.41457
#
# Velocity S-wave (km/s) = 2.47032 3.97946 3.31199
# Velocity P-wave (km/s) = 3.29574 6.12070 4.91553
#
# Compressibility (1/GPa) = 0.16486235
#
# Stress axis : x y z
#
# Youngs Moduli (GPa) = 116.61179 6.30453 81.01910
#
# Poissons Ratio (x) = 0.07270 0.27908
# Poissons Ratio (y) = 1.34471 -0.61900
# Poissons Ratio (z) = 0.40168 -0.04817
#
# Static dielectric constant tensor:
#      x y z
#    x 4.222100 0.251530 0.139250 
#    y 0.251530 3.587610 0.041340 
#    z 0.139250 0.041340 4.195700 
# 
# 
# High freq. dielectric constant tensor:
#      x y z
#    x 1.895430 0.008200 0.010960 
#    y 0.008200 1.870000 -0.015490 
#    z 0.010960 -0.015490 1.883370 
# 
# From -- ./inp_files/331751.got.cif
#   From: 2010.06.25/outbox.cif.g09.slc.cpg/sg2_166_cif.got.tgz:331751.got - 2010.06.27 13:26:56.
