data_PCOD8007345
_publ_section_title
;
Structure prediction by ZEFSAII (Michael W. Deem and Ramdas Pophale) SiO2 
 PCOD8007345
Probable space group: P -1
;
_chemical_formula_sum "Si O2"
_cell_formula_units_Z 16
_cell_length_a 14.167910
_cell_length_b 8.651921
_cell_length_c 6.936567
_cell_angle_alpha 92.374086
_cell_angle_beta 108.881257
_cell_angle_gamma 104.816162
_cell_volume 770.579746
_symmetry_space_group_name_H-M "P -1"
_symmetry_group_IT_number 2
_symmetry_cell_setting 'triclinic'
loop_
_space_group_symop_operation_xyz
x,y,z
-x,-y,-z
loop_
_atom_site_type_symbol
_atom_site_label
_atom_site_fract_x
_atom_site_fract_y
_atom_site_fract_z
Si Si1 0.556980 0.863971 0.519395
Si Si2 0.155563 0.134923 0.628651
Si Si3 0.783028 0.027271 0.690763
Si Si4 0.390011 0.283435 0.813752
Si Si5 0.444244 0.635235 0.741790
Si Si6 0.072057 0.403314 0.450167
Si Si7 0.238412 0.714004 0.613787
Si Si8 0.107613 0.837474 0.840548
O O1 0.569768 0.836346 0.300488
O O2 0.487799 0.699867 0.564243
O O3 0.500000 0.000000 0.500000
O O4 0.672121 0.920041 0.695093
O O5 0.271613 0.201898 0.795208
O O6 0.098152 0.275072 0.608869
O O7 0.161335 0.080708 0.406210
O O8 0.092727 0.987940 0.714259
O O9 0.758840 0.161369 0.546499
O O10 0.856698 0.109296 0.918362
O O11 0.396957 0.443243 0.701087
O O12 0.459195 0.313839 0.049010
O O13 0.354434 0.715390 0.748938
O O14 0.178453 0.538060 0.473170
O O15 0.000000 0.500000 0.500000
O O16 0.005258 0.297509 0.225563
O O17 0.187557 0.759695 0.777211
#
# Coordination Sequence:
#
# PCOD8007345 Si02
#       8
#     2   2   2   2   2   2   2   2
#     4  11  22  36  56  85 119 151 191 235 277 334
#     4  10  20  41  61  84 121 148 186 244 288 337
#     4  10  22  39  57  88 117 155 191 232 288 338
#     4  10  23  37  59  86 116 157 192 229 286 345
#     4  11  21  38  59  84 117 158 193 230 282 344
#     4  10  21  40  64  86 113 151 191 242 295 335
#     4  10  21  38  60  83 121 150 189 245 282 331
#     4  10  22  38  61  87 112 151 198 234 287 346
#
# _framework density 20.763586
#
# number of rings (size 3 to 8) (size 9 to 14) (size 15 to 20)
#    0.000    1.750    2.500    1.500    1.750    1.500 
#    0.000    2.500    0.000    0.000    0.000    0.000 
#    0.000    0.000    0.000    0.000    0.000    0.000 
#
# Total GULP energy -198354.973289 kJ/mol
# GULP energy per Si atom -12397.185831 kJ/mol
# Density = 2.071633 g / cm^3
# Si number density = 20.763586 Si / 1000 Ang^3
#
#
#
# Elastic Constant Matrix: (Units=GPa)
#
#
# Indices 1 2 3 4 5 6 
#
# 1 64.1675 27.7362 18.6426 -0.9068 6.7347 -12.0893
# 2 27.7362 102.1073 13.2142 0.9809 0.8402 -6.9775
# 3 18.6426 13.2142 68.5957 12.5443 3.2338 -6.7748
# 4 -0.9068 0.9809 12.5443 30.2884 5.1813 7.6436
# 5 6.7347 0.8402 3.2338 5.1813 13.1536 -2.3921
# 6 -12.0893 -6.9775 -6.7748 7.6436 -2.3921 42.8589
#
#
#
# Elastic Compliance Matrix: (Units=1/GPa)
#
#
# Indices 1 2 3 4 5 6 
#
# 1 0.020659 -0.004758 -0.004573 0.003585 -0.009992 0.003133
# 2 -0.004758 0.011218 -0.000781 -0.000735 0.002314 0.000621
# 3 -0.004573 -0.000781 0.017743 -0.008556 0.001949 0.003022
# 4 0.003585 -0.000735 -0.008556 0.042004 -0.017858 -0.008949
# 5 -0.009992 0.002314 0.001949 -0.017858 0.088639 0.005999
# 6 0.003133 0.000621 0.003022 -0.008949 0.005999 0.026726
#
#
# Mechanical properties :
#
#
# Convention : Reuss Voigt Hill
#
# Bulk Modulus (GPa) = 34.02009 39.33962 36.67986
# Shear Modulus (GPa) = 21.09604 28.94537 25.02070
#
# Velocity S-wave (km/s) = 3.19095 3.73774 3.47512
# Velocity P-wave (km/s) = 5.47689 6.13312 5.81427
#
# Compressibility (1/GPa) = 0.02939439
#
# Stress axis : x y z
#
# Youngs Moduli (GPa) = 48.40469 89.14522 56.36077
#
# Poissons Ratio (x) = 0.42416 0.25775
# Poissons Ratio (y) = 0.23032 0.04403
# Poissons Ratio (z) = 0.22137 0.06964
#
# Static dielectric constant tensor:
#      x y z
#    x 3.897220 0.208450 0.206560 
#    y 0.208450 4.251860 0.158580 
#    z 0.206560 0.158580 3.407940 
# 
# 
# High freq. dielectric constant tensor:
#      x y z
#    x 1.819680 0.004960 0.020670 
#    y 0.004960 1.833530 0.006520 
#    z 0.020670 0.006520 1.782380 
# 
# From -- ./inp_files/37399.got.cif
#   From: 2010.06.25/outbox.cif.g09.slc.cpg/sg2_19_cif.got.tgz:37399.got - 2010.06.27 13:26:56.
