data_PCOD8007054
_publ_section_title
;
Structure prediction by ZEFSAII (Michael W. Deem and Ramdas Pophale) SiO2 
 PCOD8007054
Probable space group: P -1
;
_chemical_formula_sum "Si O2"
_cell_formula_units_Z 16
_cell_length_a 12.711404
_cell_length_b 8.864821
_cell_length_c 10.580878
_cell_angle_alpha 63.974339
_cell_angle_beta 127.566202
_cell_angle_gamma 124.885851
_cell_volume 767.764055
_symmetry_space_group_name_H-M "P -1"
_symmetry_group_IT_number 2
_symmetry_cell_setting 'triclinic'
loop_
_space_group_symop_operation_xyz
x,y,z
-x,-y,-z
loop_
_atom_site_type_symbol
_atom_site_label
_atom_site_fract_x
_atom_site_fract_y
_atom_site_fract_z
Si Si1 0.393214 0.585452 0.037281
Si Si2 0.151505 0.679855 0.700410
Si Si3 0.514463 0.333897 0.642039
Si Si4 0.897386 0.320831 0.612111
Si Si5 0.343576 0.199660 0.028224
Si Si6 0.626202 0.091341 0.660214
Si Si7 0.927990 0.885442 0.288677
Si Si8 0.190553 0.083618 0.561304
O O1 0.406587 0.599531 0.191803
O O2 0.348850 0.372884 0.048149
O O3 0.268294 0.647026 0.882864
O O4 0.545999 0.725581 0.035946
O O5 0.189421 0.671883 0.581664
O O6 0.985662 0.523632 0.664608
O O7 0.154648 0.877714 0.663325
O O8 0.500000 0.500000 0.500000
O O9 0.610953 0.260076 0.657038
O O10 0.353159 0.170935 0.596544
O O11 0.785713 0.175930 0.681072
O O12 0.027618 0.264966 0.687116
O O13 0.388722 0.068396 0.194689
O O14 0.178746 0.076228 0.901078
O O15 0.500000 0.000000 0.500000
O O16 0.836142 0.804588 0.381997
O O17 0.077823 0.066420 0.369556
#
# Coordination Sequence:
#
# PCOD8007054 Si02
#       8
#     2   2   2   2   2   2   2   2
#     4  11  23  41  67  98 131 168 223 269 323 382
#     4  10  21  40  68  94 128 171 219 270 316 385
#     4  12  27  45  67  97 133 171 215 273 332 388
#     4  10  22  42  65  96 132 174 219 259 322 390
#     4  11  23  41  69  98 130 174 217 270 319 390
#     4  12  26  45  65  97 133 177 216 267 332 386
#     4  10  20  40  66  97 126 171 218 263 320 374
#     4  10  22  40  67  98 129 168 219 269 322 383
#
# _framework density 20.839735000000001
#
# number of rings (size 3 to 8) (size 9 to 14) (size 15 to 20)
#    0.000    1.250    2.500    3.750    1.750    6.500 
#    2.250    0.625    0.000    0.000    0.000    0.000 
#    0.000    0.000    0.000    0.000    0.000    0.000 
#
# Total GULP energy -198374.711152 kJ/mol
# GULP energy per Si atom -12398.419447 kJ/mol
# Density = 2.079230 g / cm^3
# Si number density = 20.839735 Si / 1000 Ang^3
#
#
#
# Elastic Constant Matrix: (Units=GPa)
#
#
# Indices 1 2 3 4 5 6 
#
# 1 96.3355 46.4094 40.0802 3.0540 0.3891 -10.8683
# 2 46.4094 90.3367 46.3959 -5.1558 2.9067 -4.7609
# 3 40.0802 46.3959 169.0338 9.5705 17.3815 -13.2101
# 4 3.0540 -5.1558 9.5705 31.3184 -1.4097 6.0755
# 5 0.3891 2.9067 17.3815 -1.4097 32.9101 3.5819
# 6 -10.8683 -4.7609 -13.2101 6.0755 3.5819 25.4115
#
#
#
# Elastic Compliance Matrix: (Units=1/GPa)
#
#
# Indices 1 2 3 4 5 6 
#
# 1 0.014902 -0.007048 -0.001028 -0.003310 0.000274 0.005271
# 2 -0.007048 0.016598 -0.003526 0.005148 0.001039 -0.003115
# 3 -0.001028 -0.003526 0.008226 -0.004144 -0.004724 0.004833
# 4 -0.003310 0.005148 -0.004144 0.036923 0.004671 -0.012091
# 5 0.000274 0.001039 -0.004724 0.004671 0.033860 -0.008034
# 6 0.005271 -0.003115 0.004833 -0.012091 -0.008034 0.047558
#
#
# Mechanical properties :
#
#
# Convention : Reuss Voigt Hill
#
# Bulk Modulus (GPa) = 60.52749 69.05302 64.79026
# Shear Modulus (GPa) = 26.76987 32.78269 29.77628
#
# Velocity S-wave (km/s) = 3.58796 3.97052 3.78408
# Velocity P-wave (km/s) = 6.80235 7.36391 7.08869
#
# Compressibility (1/GPa) = 0.01652142
#
# Stress axis : x y z
#
# Youngs Moduli (GPa) = 67.10664 60.24946 121.57025
#
# Poissons Ratio (x) = 0.42461 0.12495
# Poissons Ratio (y) = 0.47294 0.42871
# Poissons Ratio (z) = 0.06897 0.21247
#
# Static dielectric constant tensor:
#      x y z
#    x 3.905750 0.063090 0.093070 
#    y 0.063090 3.845420 0.142640 
#    z 0.093070 0.142640 3.821650 
# 
# 
# High freq. dielectric constant tensor:
#      x y z
#    x 1.816560 -0.006930 0.013420 
#    y -0.006930 1.814420 0.016030 
#    z 0.013420 0.016030 1.818500 
# 
# From -- ./inp_files/243194.got.cif
#   From: 2010.06.25/outbox.cif.g09.slc.cpg/sg2_122_cif.got.tgz:243194.got - 2010.06.27 13:26:56.
