data_PCOD8007139
_publ_section_title
;
Structure prediction by ZEFSAII (Michael W. Deem and Ramdas Pophale) SiO2 
 PCOD8007139
Probable space group: P -1
;
_chemical_formula_sum "Si O2"
_cell_formula_units_Z 16
_cell_length_a 7.755106
_cell_length_b 8.928179
_cell_length_c 15.991854
_cell_angle_alpha 63.620454
_cell_angle_beta 46.168409
_cell_angle_gamma 50.615351
_cell_volume 617.335596
_symmetry_space_group_name_H-M "P -1"
_symmetry_group_IT_number 2
_symmetry_cell_setting 'triclinic'
loop_
_space_group_symop_operation_xyz
x,y,z
-x,-y,-z
loop_
_atom_site_type_symbol
_atom_site_label
_atom_site_fract_x
_atom_site_fract_y
_atom_site_fract_z
Si Si1 0.413273 0.784180 0.656481
Si Si2 0.188302 0.548669 0.596278
Si Si3 0.897635 0.219330 0.954741
Si Si4 0.406298 0.394349 0.958069
Si Si5 0.192732 0.639978 0.391831
Si Si6 0.881869 0.784407 0.798756
Si Si7 0.432704 0.215914 0.815858
Si Si8 0.305033 0.170995 0.603868
O O1 0.657269 0.570416 0.652625
O O2 0.456469 0.827376 0.534115
O O3 0.122959 0.793262 0.766093
O O4 0.410646 0.961861 0.665418
O O5 0.500000 0.500000 0.500000
O O6 0.062969 0.624839 0.526755
O O7 0.196804 0.345806 0.662961
O O8 0.994236 0.708290 0.687408
O O9 0.693111 0.376490 0.054354
O O10 0.160639 0.248800 0.851955
O O11 0.726681 0.266945 0.913116
O O12 0.000000 0.000000 0.000000
O O13 0.199930 0.356926 0.093333
O O14 0.373403 0.345604 0.886706
O O15 0.411876 0.712484 0.317324
O O16 0.950959 0.796344 0.376880
O O17 0.610804 0.992689 0.835589
#
# Coordination Sequence:
#
# PCOD8007139 Si02
#       8
#     2   2   2   2   2   2   2   2
#     4  10  20  40  67  96 135 180 237 288 341 433
#     4  11  23  43  69 101 146 184 232 299 352 425
#     4  11  25  49  76 114 145 188 251 304 369 439
#     4  11  27  51  77 104 154 191 241 312 364 436
#     4  11  23  45  69  99 140 187 241 288 362 430
#     4  12  23  45  72 104 141 195 236 292 372 425
#     4  12  26  50  75 109 147 195 249 299 369 441
#     4  10  21  41  67 100 136 182 243 282 354 431
#
# _framework density 25.917829999999999
#
# number of rings (size 3 to 8) (size 9 to 14) (size 15 to 20)
#    0.000    1.000    5.000    3.000    0.000    2.500 
#    0.000    3.750    0.000    0.000    0.000    0.000 
#    0.000    0.000    0.000    0.000    0.000    0.000 
#
# Total GULP energy -198329.003313 kJ/mol
# GULP energy per Si atom -12395.562707 kJ/mol
# Density = 2.585884 g / cm^3
# Si number density = 25.917830 Si / 1000 Ang^3
#
#
#
# Elastic Constant Matrix: (Units=GPa)
#
#
# Indices 1 2 3 4 5 6 
#
# 1 99.1586 10.7510 39.9192 -5.0411 -35.2417 4.7330
# 2 10.7510 155.0456 24.8748 -15.0921 5.0538 10.0744
# 3 39.9192 24.8748 71.0763 1.5052 -16.3799 4.0433
# 4 -5.0411 -15.0921 1.5052 32.8154 5.7107 -5.1896
# 5 -35.2417 5.0538 -16.3799 5.7107 35.1325 2.6762
# 6 4.7330 10.0744 4.0433 -5.1896 2.6762 39.8144
#
#
#
# Elastic Compliance Matrix: (Units=1/GPa)
#
#
# Indices 1 2 3 4 5 6 
#
# 1 0.018456 -0.000655 -0.006321 -0.000339 0.015906 -0.002500
# 2 -0.000655 0.007583 -0.003221 0.004092 -0.003860 -0.000721
# 3 -0.006321 -0.003221 0.019876 -0.004297 0.004186 -0.001293
# 4 -0.000339 0.004092 -0.004297 0.034779 -0.008934 0.004575
# 5 0.015906 -0.003860 0.004186 -0.008934 0.048819 -0.005785
# 6 -0.002500 -0.000721 -0.001293 0.004575 -0.005785 0.026713
#
#
# Mechanical properties :
#
#
# Convention : Reuss Voigt Hill
#
# Bulk Modulus (GPa) = 39.18430 52.93007 46.05718
# Shear Modulus (GPa) = 27.00853 38.20149 32.60501
#
# Velocity S-wave (km/s) = 3.23163 3.84337 3.55070
# Velocity P-wave (km/s) = 5.39222 6.33734 5.88379
#
# Compressibility (1/GPa) = 0.02552043
#
# Stress axis : x y z
#
# Youngs Moduli (GPa) = 54.18369 131.87562 50.31068
#
# Poissons Ratio (x) = 0.08633 0.31804
# Poissons Ratio (y) = 0.03547 0.16206
# Poissons Ratio (z) = 0.34252 0.42481
#
# Static dielectric constant tensor:
#      x y z
#    x 4.841060 0.286420 -0.185000 
#    y 0.286420 5.167070 -0.013120 
#    z -0.185000 -0.013120 4.833510 
# 
# 
# High freq. dielectric constant tensor:
#      x y z
#    x 2.029960 0.005880 -0.031670 
#    y 0.005880 2.062380 -0.003930 
#    z -0.031670 -0.003930 2.017640 
# 
# From -- ./inp_files/556962.got.cif
#   From: 2010.06.25/outbox.cif.g09.slc.cpg/sg2_279_cif.got.tgz:556962.got - 2010.06.27 13:26:56.
