data_PCOD8007092
_publ_section_title
;
Structure prediction by ZEFSAII (Michael W. Deem and Ramdas Pophale) SiO2 
 PCOD8007092
Probable space group: P -1
;
_chemical_formula_sum "Si O2"
_cell_formula_units_Z 16
_cell_length_a 7.597695
_cell_length_b 29.081277
_cell_length_c 8.838302
_cell_angle_alpha 44.938260
_cell_angle_beta 35.082205
_cell_angle_gamma 47.033440
_cell_volume 767.209771
_symmetry_space_group_name_H-M "P -1"
_symmetry_group_IT_number 2
_symmetry_cell_setting 'triclinic'
loop_
_space_group_symop_operation_xyz
x,y,z
-x,-y,-z
loop_
_atom_site_type_symbol
_atom_site_label
_atom_site_fract_x
_atom_site_fract_y
_atom_site_fract_z
Si Si1 0.987145 0.843495 0.708478
Si Si2 0.827312 0.731775 0.876406
Si Si3 0.759258 0.923099 0.147232
Si Si4 0.561516 0.503423 0.621884
Si Si5 0.705567 0.547700 0.809078
Si Si6 0.394292 0.927901 0.083525
Si Si7 0.543919 0.355652 0.482302
Si Si8 0.645669 0.160953 0.227922
O O1 0.192066 0.824199 0.763628
O O2 0.947172 0.776924 0.810603
O O3 0.644233 0.891946 0.867132
O O4 0.145998 0.883454 0.383785
O O5 0.553294 0.770322 0.865944
O O6 0.116022 0.696395 0.647312
O O7 0.704185 0.676876 0.183494
O O8 0.582087 0.888366 0.474434
O O9 0.778345 0.996261 0.024916
O O10 0.568297 0.933221 0.103793
O O11 0.103850 0.875108 0.989516
O O12 0.500000 0.500000 0.500000
O O13 0.425464 0.579445 0.596562
O O14 0.937108 0.479465 0.435875
O O15 0.367422 0.454310 0.955179
O O16 0.581059 0.622143 0.651991
O O17 0.500000 0.500000 0.000000
#
# Coordination Sequence:
#
# PCOD8007092 Si02
#       8
#     2   2   2   2   2   2   2   2
#     4  10  21  38  57  81 116 158 199 251 299 360
#     4  12  24  41  59  85 123 169 204 240 294 358
#     4   9  17  33  59  85 110 152 193 258 319 353
#     4  11  22  41  68 100 127 151 196 263 313 348
#     4  10  20  40  67  89 124 161 193 242 309 360
#     4   9  17  33  59  85 111 146 203 253 311 366
#     4  11  23  42  63  87 122 162 204 236 296 370
#     4  10  21  38  57  80 120 154 200 251 302 354
#
# _framework density 20.854790999999999
#
# number of rings (size 3 to 8) (size 9 to 14) (size 15 to 20)
#    0.000    1.750    0.000    6.375    0.000    3.000 
#    6.750    3.750    0.000    0.000    0.000    0.000 
#    0.000    0.000    0.000    0.000    0.000    0.000 
#
# Total GULP energy -198370.206528 kJ/mol
# GULP energy per Si atom -12398.137908 kJ/mol
# Density = 2.080732 g / cm^3
# Si number density = 20.854791 Si / 1000 Ang^3
#
#
#
# Elastic Constant Matrix: (Units=GPa)
#
#
# Indices 1 2 3 4 5 6 
#
# 1 66.3647 34.1271 16.9239 -0.7172 6.4805 5.6409
# 2 34.1271 107.6407 23.1046 14.9839 -5.8681 1.0560
# 3 16.9239 23.1046 72.5265 10.6691 -7.6259 9.8007
# 4 -0.7172 14.9839 10.6691 44.1312 -6.7152 -1.9258
# 5 6.4805 -5.8681 -7.6259 -6.7152 26.3470 2.0383
# 6 5.6409 1.0560 9.8007 -1.9258 2.0383 20.0685
#
#
#
# Elastic Compliance Matrix: (Units=1/GPa)
#
#
# Indices 1 2 3 4 5 6 
#
# 1 0.020031 -0.006268 -0.003295 0.002136 -0.006514 -0.002825
# 2 -0.006268 0.012278 -0.001858 -0.003337 0.002778 0.001421
# 3 -0.003295 -0.001858 0.017279 -0.003164 0.005230 -0.008249
# 4 0.002136 -0.003337 -0.003164 0.025343 0.004032 0.003143
# 5 -0.006514 0.002778 0.005230 0.004032 0.043093 -0.004859
# 6 -0.002825 0.001421 -0.008249 0.003143 -0.004859 0.055372
#
#
# Mechanical properties :
#
#
# Convention : Reuss Voigt Hill
#
# Bulk Modulus (GPa) = 37.38782 43.87145 40.62963
# Shear Modulus (GPa) = 24.37199 29.60110 26.98655
#
# Velocity S-wave (km/s) = 3.42226 3.77157 3.60115
# Velocity P-wave (km/s) = 5.79504 6.32840 6.06758
#
# Compressibility (1/GPa) = 0.02674668
#
# Stress axis : x y z
#
# Youngs Moduli (GPa) = 49.92237 81.44450 57.87446
#
# Poissons Ratio (x) = 0.51052 0.19068
# Poissons Ratio (y) = 0.31293 0.10752
# Poissons Ratio (z) = 0.16448 0.15130
#
# Static dielectric constant tensor:
#      x y z
#    x 2.253950 -0.678630 -0.977140 
#    y -0.678630 3.526330 -0.640930 
#    z -0.977140 -0.640930 2.565190 
# 
# 
# High freq. dielectric constant tensor:
#      x y z
#    x 1.801490 -0.011560 0.002250 
#    y -0.011560 1.813720 0.007450 
#    z 0.002250 0.007450 1.841260 
# 
# From -- ./inp_files/227979.got.cif
#   From: 2010.06.25/outbox.cif.g09.slc.cpg/sg2_114_cif.got.tgz:227979.got - 2010.06.27 13:26:56.
