data_PCOD8007976
_publ_section_title
;
Structure prediction by ZEFSAII (Michael W. Deem and Ramdas Pophale) SiO2 
 PCOD8007976
Probable space group: P -1
;
_chemical_formula_sum "Si O2"
_cell_formula_units_Z 14
_cell_length_a 12.346685
_cell_length_b 18.982215
_cell_length_c 17.690160
_cell_angle_alpha 28.555079
_cell_angle_beta 151.395705
_cell_angle_gamma 160.172742
_cell_volume 637.164585
_symmetry_space_group_name_H-M "P -1"
_symmetry_group_IT_number 2
_symmetry_cell_setting 'triclinic'
loop_
_space_group_symop_operation_xyz
x,y,z
-x,-y,-z
loop_
_atom_site_type_symbol
_atom_site_label
_atom_site_fract_x
_atom_site_fract_y
_atom_site_fract_z
Si Si1 0.575025 0.762891 0.334066
Si Si2 0.477284 0.884831 0.853812
Si Si3 0.779892 0.253797 0.577533
Si Si4 0.620889 0.637229 0.182896
Si Si5 0.699401 0.516824 0.710559
Si Si6 0.312751 0.921996 0.040403
Si Si7 0.231226 0.202170 0.263768
O O1 0.548144 0.601556 0.516120
O O2 0.483630 0.694982 0.253130
O O3 0.305744 0.744425 0.225805
O O4 0.950798 0.014489 0.329937
O O5 0.094770 0.701332 0.764323
O O6 0.667641 0.114575 0.716189
O O7 0.496120 0.902377 0.940315
O O8 0.646944 0.813285 0.996684
O O9 0.457994 0.166012 0.417894
O O10 0.000000 0.500000 0.500000
O O11 0.008985 0.248435 0.675296
O O12 0.380310 0.546778 0.191672
O O13 0.450772 0.441150 0.206023
O O14 0.947298 0.821214 0.899659
O O15 0.500000 0.000000 0.000000
#
# Coordination Sequence:
#
# PCOD8007976 Si02
#       7
#     2   2   2   2   2   2   2
#     4  10  21  37  61  97 131 159 205 264 319 367
#     4  12  23  42  68  94 127 170 210 259 319 372
#     4  10  24  43  65  90 128 171 216 255 308 383
#     4  11  23  39  66  94 128 164 214 257 314 375
#     4  11  22  37  66  98 126 161 212 263 319 372
#     4  10  21  36  63  94 128 156 206 259 315 366
#     4  10  20  42  62  89 132 166 204 258 311 373
#
# _framework density 21.972345000000001
#
# number of rings (size 3 to 8) (size 9 to 14) (size 15 to 20)
#    0.000    1.429    1.429    5.143    4.000    1.143 
#    0.000    5.714    3.143    0.000    0.000    0.000 
#    0.000    0.000    0.000    0.000    0.000    0.000 
#
# Total GULP energy -173478.388530 kJ/mol
# GULP energy per Si atom -12391.313466 kJ/mol
# Density = 2.192234 g / cm^3
# Si number density = 21.972345 Si / 1000 Ang^3
#
#
#
# Elastic Constant Matrix: (Units=GPa)
#
#
# Indices 1 2 3 4 5 6 
#
# 1 47.3683 32.3375 33.0620 -1.6925 15.3147 -0.8747
# 2 32.3375 88.1727 62.1233 8.4849 12.6799 0.6325
# 3 33.0620 62.1233 142.9380 15.5939 36.2895 2.4845
# 4 -1.6925 8.4849 15.5939 36.2220 3.2973 1.5151
# 5 15.3147 12.6799 36.2895 3.2973 31.8991 1.7763
# 6 -0.8747 0.6325 2.4845 1.5151 1.7763 33.4281
#
#
#
# Elastic Compliance Matrix: (Units=1/GPa)
#
#
# Indices 1 2 3 4 5 6 
#
# 1 0.032526 -0.010257 -0.000807 0.005232 -0.011242 0.001465
# 2 -0.010257 0.019717 -0.007389 -0.002429 0.005760 -0.000288
# 3 -0.000807 -0.007389 0.013796 -0.003145 -0.012038 -0.000125
# 4 0.005232 -0.002429 -0.003145 0.029904 -0.001010 -0.000885
# 5 -0.011242 0.005760 -0.012038 -0.001010 0.048368 -0.002033
# 6 0.001465 -0.000288 -0.000125 -0.000885 -0.002033 0.030116
#
#
# Mechanical properties :
#
#
# Convention : Reuss Voigt Hill
#
# Bulk Modulus (GPa) = 34.32818 59.28048 46.80433
# Shear Modulus (GPa) = 22.61984 30.37361 26.49672
#
# Velocity S-wave (km/s) = 3.21201 3.72204 3.47639
# Velocity P-wave (km/s) = 5.42340 6.74608 6.12058
#
# Compressibility (1/GPa) = 0.02913059
#
# Stress axis : x y z
#
# Youngs Moduli (GPa) = 30.74467 50.71804 72.48671
#
# Poissons Ratio (x) = 0.52023 0.05853
# Poissons Ratio (y) = 0.31536 0.53562
# Poissons Ratio (z) = 0.02482 0.37476
#
# Static dielectric constant tensor:
#      x y z
#    x 3.612410 0.049760 0.473550 
#    y 0.049760 3.956290 0.172220 
#    z 0.473550 0.172220 4.974720 
# 
# 
# High freq. dielectric constant tensor:
#      x y z
#    x 1.819570 -0.003370 0.023490 
#    y -0.003370 1.856320 -0.003360 
#    z 0.023490 -0.003360 1.907210 
# 
# From -- ./inp_files/380140.got.cif
#   From: 2010.06.25/outbox.cif.g09.slc.cpg/sg2_191_cif.got.tgz:380140.got - 2010.06.27 13:26:56.
