data_PCOD8007848
_publ_section_title
;
Structure prediction by ZEFSAII (Michael W. Deem and Ramdas Pophale) SiO2 
 PCOD8007848
Probable space group: P -1
;
_chemical_formula_sum "Si O2"
_cell_formula_units_Z 14
_cell_length_a 13.378971
_cell_length_b 7.360609
_cell_length_c 8.884397
_cell_angle_alpha 61.822604
_cell_angle_beta 98.946843
_cell_angle_gamma 61.500150
_cell_volume 590.211777
_symmetry_space_group_name_H-M "P -1"
_symmetry_group_IT_number 2
_symmetry_cell_setting 'triclinic'
loop_
_space_group_symop_operation_xyz
x,y,z
-x,-y,-z
loop_
_atom_site_type_symbol
_atom_site_label
_atom_site_fract_x
_atom_site_fract_y
_atom_site_fract_z
Si Si1 0.094897 0.255674 0.725773
Si Si2 0.673427 0.254668 0.638266
Si Si3 0.477139 0.180910 0.562028
Si Si4 0.379386 0.949490 0.824266
Si Si5 0.098847 0.827504 0.728270
Si Si6 0.369172 0.562415 0.776127
Si Si7 0.966110 0.844485 0.958167
O O1 0.033765 0.344383 0.846841
O O2 0.000000 0.500000 0.500000
O O3 0.243370 0.149015 0.805822
O O4 0.100619 0.017961 0.763503
O O5 0.611354 0.105607 0.689711
O O6 0.609060 0.509167 0.636492
O O7 0.641103 0.404576 0.415263
O O8 0.823752 0.049213 0.778080
O O9 0.500000 0.000000 0.500000
O O10 0.405900 0.140622 0.689462
O O11 0.366329 0.796550 0.750473
O O12 0.498147 0.731417 0.044996
O O13 0.244165 0.593370 0.795090
O O14 0.000000 0.000000 0.500000
O O15 0.055485 0.699710 0.885155
O O16 0.000000 0.000000 0.000000
#
# Coordination Sequence:
#
# PCOD8007848 Si02
#       7
#     2   2   2   2   2   2   2
#     4  10  24  43  66  97 136 182 236 293 351 421
#     4  11  24  43  71 101 141 185 242 291 353 435
#     4  11  25  42  68 100 141 185 233 293 359 417
#     4  10  23  42  68  98 144 185 230 297 357 415
#     4  10  20  41  69  96 136 181 227 287 355 419
#     4  10  21  42  69 103 138 186 233 286 357 431
#     4  10  23  43  70  98 134 190 235 288 360 416
#
# _framework density 23.720298
#
# number of rings (size 3 to 8) (size 9 to 14) (size 15 to 20)
#    0.000    1.714    2.857    0.000    8.000    2.857 
#    2.571    0.714    0.000    0.000    0.000    0.000 
#    0.000    0.000    0.000    0.000    0.000    0.000 
#
# Total GULP energy -173468.486492 kJ/mol
# GULP energy per Si atom -12390.606178 kJ/mol
# Density = 2.366631 g / cm^3
# Si number density = 23.720298 Si / 1000 Ang^3
#
#
#
# Elastic Constant Matrix: (Units=GPa)
#
#
# Indices 1 2 3 4 5 6 
#
# 1 179.5242 47.8892 69.5942 1.1839 -1.0520 -27.1852
# 2 47.8892 65.9548 19.8569 1.4656 -7.1623 0.3203
# 3 69.5942 19.8569 139.3032 -1.3691 -3.4428 -24.2380
# 4 1.1839 1.4656 -1.3691 32.3843 -12.5699 1.4560
# 5 -1.0520 -7.1623 -3.4428 -12.5699 47.7683 0.8951
# 6 -27.1852 0.3203 -24.2380 1.4560 0.8951 45.0137
#
#
#
# Elastic Compliance Matrix: (Units=1/GPa)
#
#
# Indices 1 2 3 4 5 6 
#
# 1 0.008793 -0.005616 -0.002967 -0.000809 -0.001146 0.003802
# 2 -0.005616 0.019760 -0.000616 0.000641 0.003037 -0.003945
# 3 -0.002967 -0.000616 0.009327 0.000627 0.000620 0.003202
# 4 -0.000809 0.000641 0.000627 0.034560 0.009245 -0.001457
# 5 -0.001146 0.003037 0.000620 0.009245 0.023864 -0.001154
# 6 0.003802 -0.003945 0.003202 -0.001457 -0.001154 0.026334
#
#
# Mechanical properties :
#
#
# Convention : Reuss Voigt Hill
#
# Bulk Modulus (GPa) = 51.33008 73.27366 62.30187
# Shear Modulus (GPa) = 33.89136 41.52939 37.71038
#
# Velocity S-wave (km/s) = 3.78404 4.18879 3.99155
# Velocity P-wave (km/s) = 6.38581 7.37241 6.89677
#
# Compressibility (1/GPa) = 0.01948176
#
# Stress axis : x y z
#
# Youngs Moduli (GPa) = 113.72767 50.60741 107.21137
#
# Poissons Ratio (x) = 0.28422 0.31811
# Poissons Ratio (y) = 0.63871 0.06604
# Poissons Ratio (z) = 0.33744 0.03117
#
# Static dielectric constant tensor:
#      x y z
#    x 5.066770 -0.240600 -0.255170 
#    y -0.240600 4.191870 0.433770 
#    z -0.255170 0.433770 3.944170 
# 
# 
# High freq. dielectric constant tensor:
#      x y z
#    x 1.966980 -0.006790 -0.001430 
#    y -0.006790 1.931010 0.017860 
#    z -0.001430 0.017860 1.932740 
# 
# From -- ./inp_files/289751.got.cif
#   From: 2010.06.25/outbox.cif.g09.slc.cpg/sg2_145_cif.got.tgz:289751.got - 2010.06.27 13:26:56.
