data_PCOD8007186
_publ_section_title
;
Structure prediction by ZEFSAII (Michael W. Deem and Ramdas Pophale) SiO2 
 PCOD8007186
Probable space group: P -1
;
_chemical_formula_sum "Si O2"
_cell_formula_units_Z 16
_cell_length_a 9.436755
_cell_length_b 26.075626
_cell_length_c 9.989501
_cell_angle_alpha 154.097184
_cell_angle_beta 135.397123
_cell_angle_gamma 46.561017
_cell_volume 745.071815
_symmetry_space_group_name_H-M "P -1"
_symmetry_group_IT_number 2
_symmetry_cell_setting 'triclinic'
loop_
_space_group_symop_operation_xyz
x,y,z
-x,-y,-z
loop_
_atom_site_type_symbol
_atom_site_label
_atom_site_fract_x
_atom_site_fract_y
_atom_site_fract_z
Si Si1 0.501082 0.652660 0.631845
Si Si2 0.117824 0.449352 0.828476
Si Si3 0.852700 0.083336 0.195325
Si Si4 0.193051 0.716094 0.802823
Si Si5 0.400866 0.601134 0.921750
Si Si6 0.214993 0.652717 0.204806
Si Si7 0.933963 0.011053 0.631982
Si Si8 0.559521 0.901925 0.199148
O O1 0.311538 0.655815 0.612574
O O2 0.650636 0.528465 0.466428
O O3 0.425501 0.639504 0.398323
O O4 0.604395 0.771098 0.991109
O O5 0.016896 0.337413 0.445266
O O6 0.356637 0.403196 0.906341
O O7 0.087460 0.551455 0.932720
O O8 0.000000 0.500000 0.000000
O O9 0.911590 0.216176 0.543661
O O10 0.617762 0.088502 0.008263
O O11 0.879439 0.032685 0.244783
O O12 0.000000 0.000000 0.000000
O O13 0.329308 0.695625 0.979795
O O14 0.153904 0.855289 0.073029
O O15 0.271729 0.640568 0.059207
O O16 0.767126 0.923730 0.323194
O O17 0.000000 0.000000 0.500000
O O18 0.500000 0.000000 0.500000
#
# Coordination Sequence:
#
# PCOD8007186 Si02
#       8
#     2   2   2   2   2   2   2   2
#     4  10  20  40  68  91 127 167 222 260 315 402
#     4  11  23  40  68  97 129 170 213 264 330 381
#     4  11  23  43  73  96 126 179 228 266 320 398
#     4  12  24  42  63  98 132 166 225 264 313 400
#     4  11  24  42  66  97 133 171 207 275 333 375
#     4  10  22  43  66  97 134 164 217 271 328 389
#     4  12  27  44  64 100 137 168 222 283 323 384
#     4  11  22  44  69  97 125 175 225 269 330 385
#
# _framework density 21.474440999999999
#
# number of rings (size 3 to 8) (size 9 to 14) (size 15 to 20)
#    0.000    1.000    5.000    3.375    0.000    6.000 
#    0.000    0.000    0.000    0.000    0.000    0.000 
#    0.000    0.000    0.000    0.000    0.000    0.000 
#
# Total GULP energy -198385.614479 kJ/mol
# GULP energy per Si atom -12399.100905 kJ/mol
# Density = 2.142556 g / cm^3
# Si number density = 21.474441 Si / 1000 Ang^3
#
#
#
# Elastic Constant Matrix: (Units=GPa)
#
#
# Indices 1 2 3 4 5 6 
#
# 1 105.3000 24.6397 41.3477 -6.4893 10.5975 6.4738
# 2 24.6397 111.1743 32.4923 -4.5290 11.9029 14.9311
# 3 41.3477 32.4923 106.8045 11.0268 20.1577 2.6684
# 4 -6.4893 -4.5290 11.0268 38.2473 8.5495 -2.6706
# 5 10.5975 11.9029 20.1577 8.5495 37.9525 3.2794
# 6 6.4738 14.9311 2.6684 -2.6706 3.2794 28.3147
#
#
#
# Elastic Compliance Matrix: (Units=1/GPa)
#
#
# Indices 1 2 3 4 5 6 
#
# 1 0.011850 -0.000882 -0.004379 0.003375 -0.001349 -0.001357
# 2 -0.000882 0.010915 -0.002731 0.001978 -0.001748 -0.004908
# 3 -0.004379 -0.002731 0.013022 -0.003813 -0.004093 0.001328
# 4 0.003375 0.001978 -0.003813 0.029626 -0.006391 0.002079
# 5 -0.001349 -0.001748 -0.004093 -0.006391 0.031111 -0.002590
# 6 -0.001357 -0.004908 0.001328 0.002079 -0.002590 0.038587
#
#
# Mechanical properties :
#
#
# Convention : Reuss Voigt Hill
#
# Bulk Modulus (GPa) = 50.49745 57.80425 54.15085
# Shear Modulus (GPa) = 31.70663 35.88950 33.79806
#
# Velocity S-wave (km/s) = 3.84667 4.09255 3.97151
# Velocity P-wave (km/s) = 6.57992 7.02197 6.80454
#
# Compressibility (1/GPa) = 0.01980298
#
# Stress axis : x y z
#
# Youngs Moduli (GPa) = 84.38938 91.61322 76.79386
#
# Poissons Ratio (x) = 0.08083 0.33628
# Poissons Ratio (y) = 0.07445 0.20971
# Poissons Ratio (z) = 0.36954 0.25018
#
# Static dielectric constant tensor:
#      x y z
#    x 3.452980 0.166760 -0.200440 
#    y 0.166760 4.189180 0.407350 
#    z -0.200440 0.407350 4.371360 
# 
# 
# High freq. dielectric constant tensor:
#      x y z
#    x 1.833120 0.013740 -0.003880 
#    y 0.013740 1.846620 0.011420 
#    z -0.003880 0.011420 1.854930 
# 
# From -- ./inp_files/226833.got.cif
#   From: 2010.06.25/outbox.cif.g09.slc.cpg/sg2_114_cif.got.tgz:226833.got - 2010.06.27 13:26:56.
