data_PCOD8007324
_publ_section_title
;
Structure prediction by ZEFSAII (Michael W. Deem and Ramdas Pophale) SiO2 
 PCOD8007324
Probable space group: P -1
;
_chemical_formula_sum "Si O2"
_cell_formula_units_Z 14
_cell_length_a 9.988502
_cell_length_b 12.129056
_cell_length_c 12.306305
_cell_angle_alpha 143.990366
_cell_angle_beta 134.117019
_cell_angle_gamma 43.108042
_cell_volume 577.964526
_symmetry_space_group_name_H-M "P -1"
_symmetry_group_IT_number 2
_symmetry_cell_setting 'triclinic'
loop_
_space_group_symop_operation_xyz
x,y,z
-x,-y,-z
loop_
_atom_site_type_symbol
_atom_site_label
_atom_site_fract_x
_atom_site_fract_y
_atom_site_fract_z
Si Si1 0.086290 0.203897 0.146172
Si Si2 0.250061 0.642713 0.756148
Si Si3 0.510097 0.875885 0.161262
Si Si4 0.041033 0.283519 0.797428
Si Si5 0.067577 0.634041 0.431316
Si Si6 0.097820 0.926389 0.262315
Si Si7 0.524009 0.676589 0.223037
O O1 0.007542 0.440240 0.252337
O O2 0.959081 0.197147 0.177458
O O3 0.329613 0.101411 0.223947
O O4 0.040466 0.079056 0.922569
O O5 0.248704 0.605094 0.595953
O O6 0.294508 0.425328 0.668684
O O7 0.432834 0.712367 0.935769
O O8 0.721289 0.843668 0.198365
O O9 0.556090 0.835408 0.284189
O O10 0.988820 0.132378 0.724528
O O11 0.894077 0.336268 0.650167
O O12 0.000000 0.500000 0.000000
O O13 0.897239 0.850101 0.546517
O O14 0.325913 0.774087 0.260498
O O15 0.500000 0.500000 0.000000
#
# Coordination Sequence:
#
# PCOD8007324 Si02
#       7
#     2   2   2   2   2   2   2
#     4  12  23  45  74 106 145 183 231 300 356 413
#     4  11  22  43  73 111 142 178 238 295 352 414
#     4  11  23  43  76 103 140 193 231 282 365 420
#     4  12  26  49  73 103 143 192 238 289 358 427
#     4  12  27  45  71 107 142 188 240 294 348 423
#     4  12  24  48  74 101 149 187 233 295 353 417
#     4  10  20  40  76 104 137 191 230 279 360 418
#
# _framework density 24.222940000000001
#
# number of rings (size 3 to 8) (size 9 to 14) (size 15 to 20)
#    0.000    0.571    5.714    4.714    0.000    1.714 
#    0.000    7.857    0.000    0.000    0.000    0.000 
#    0.000    0.000    0.000    0.000    0.000    0.000 
#
# Total GULP energy -173463.551917 kJ/mol
# GULP energy per Si atom -12390.253708 kJ/mol
# Density = 2.416781 g / cm^3
# Si number density = 24.222940 Si / 1000 Ang^3
#
#
#
# Elastic Constant Matrix: (Units=GPa)
#
#
# Indices 1 2 3 4 5 6 
#
# 1 139.7125 57.0110 25.3174 -1.3714 -23.2818 -2.8022
# 2 57.0110 158.8865 48.1331 -3.6361 -27.6566 9.3416
# 3 25.3174 48.1331 112.1739 -3.7206 -20.0025 18.7471
# 4 -1.3714 -3.6361 -3.7206 49.8286 10.6536 -8.6522
# 5 -23.2818 -27.6566 -20.0025 10.6536 28.0264 -1.2529
# 6 -2.8022 9.3416 18.7471 -8.6522 -1.2529 42.5271
#
#
#
# Elastic Compliance Matrix: (Units=1/GPa)
#
#
# Indices 1 2 3 4 5 6 
#
# 1 0.009078 -0.002307 -0.000326 -0.000890 0.005425 0.001228
# 2 -0.002307 0.008770 -0.002082 -0.000977 0.005570 -0.001195
# 3 -0.000326 -0.002082 0.011797 -0.001506 0.006449 -0.004881
# 4 -0.000890 -0.000977 -0.001506 0.023194 -0.011363 0.005204
# 5 0.005425 0.005570 0.006449 -0.011363 0.054408 -0.004418
# 6 0.001228 -0.001195 -0.004881 0.005204 -0.004418 0.026938
#
#
# Mechanical properties :
#
#
# Convention : Reuss Voigt Hill
#
# Bulk Modulus (GPa) = 49.46759 74.63287 62.05023
# Shear Modulus (GPa) = 33.25513 42.76384 38.00949
#
# Velocity S-wave (km/s) = 3.70926 4.20626 3.96555
# Velocity P-wave (km/s) = 6.22984 7.38023 6.82930
#
# Compressibility (1/GPa) = 0.02021526
#
# Stress axis : x y z
#
# Youngs Moduli (GPa) = 110.15819 114.03056 84.76416
#
# Poissons Ratio (x) = 0.26303 0.02767
# Poissons Ratio (y) = 0.25410 0.17646
# Poissons Ratio (z) = 0.03596 0.23739
#
# Static dielectric constant tensor:
#      x y z
#    x 3.990170 0.266930 -0.265500 
#    y 0.266930 5.116850 -0.110920 
#    z -0.265500 -0.110920 4.410850 
# 
# 
# High freq. dielectric constant tensor:
#      x y z
#    x 1.932440 0.015960 -0.009900 
#    y 0.015960 1.987920 0.005190 
#    z -0.009900 0.005190 1.970310 
# 
# From -- ./inp_files/393317.got.cif
#   From: 2010.06.25/outbox.cif.g09.slc.cpg/sg2_197_cif.got.tgz:393317.got - 2010.06.27 13:26:56.
