data_PCOD8007435
_publ_section_title
;
Structure prediction by ZEFSAII (Michael W. Deem and Ramdas Pophale) SiO2 
 PCOD8007435
Probable space group: P -1
;
_chemical_formula_sum "Si O2"
_cell_formula_units_Z 16
_cell_length_a 10.639723
_cell_length_b 11.174967
_cell_length_c 20.151045
_cell_angle_alpha 47.525715
_cell_angle_beta 34.187033
_cell_angle_gamma 33.622517
_cell_volume 744.743445
_symmetry_space_group_name_H-M "P -1"
_symmetry_group_IT_number 2
_symmetry_cell_setting 'triclinic'
loop_
_space_group_symop_operation_xyz
x,y,z
-x,-y,-z
loop_
_atom_site_type_symbol
_atom_site_label
_atom_site_fract_x
_atom_site_fract_y
_atom_site_fract_z
Si Si1 0.365677 0.625992 0.345710
Si Si2 0.727345 0.278302 0.217773
Si Si3 0.229482 0.550309 0.229399
Si Si4 0.228744 0.021065 0.590052
Si Si5 0.451323 0.864151 0.832380
Si Si6 0.878684 0.057292 0.926032
Si Si7 0.625738 0.669993 0.450713
Si Si8 0.324691 0.887190 0.374071
O O1 0.665598 0.447632 0.237104
O O2 0.310976 0.531595 0.466713
O O3 0.385816 0.793398 0.307549
O O4 0.084082 0.740014 0.376522
O O5 0.425608 0.404033 0.261238
O O6 0.814842 0.073768 0.293464
O O7 0.008295 0.150574 0.091482
O O8 0.336140 0.391364 0.179555
O O9 0.267828 0.723330 0.132900
O O10 0.890991 0.668647 0.351182
O O11 0.317752 0.886188 0.534316
O O12 0.500000 0.000000 0.500000
O O13 0.634962 0.938669 0.708973
O O14 0.365984 0.899267 0.934077
O O15 0.154889 0.003321 0.865253
O O16 0.570555 0.683563 0.390857
O O17 0.000000 0.000000 0.500000
#
# Coordination Sequence:
#
# PCOD8007435 Si02
#       8
#     2   2   2   2   2   2   2   2
#     4  11  23  38  57  89 125 170 204 241 302 367
#     4  10  22  36  61  88 121 163 204 254 302 355
#     4  11  20  37  66  92 124 154 202 258 315 355
#     4  11  21  35  57  87 125 159 204 253 302 359
#     4  10  23  38  63  95 119 163 201 252 311 361
#     4  10  20  41  63  90 126 151 208 262 302 354
#     4  11  22  36  59  91 122 164 202 246 306 364
#     4  12  23  42  62  88 132 164 200 248 303 374
#
# _framework density 21.483908
#
# number of rings (size 3 to 8) (size 9 to 14) (size 15 to 20)
#    0.000    1.250    2.500    4.500    1.750    2.000 
#    0.000    0.625    0.000    3.000    0.000    0.000 
#    0.000    0.000    0.000    0.000    0.000    0.000 
#
# Total GULP energy -198298.536708 kJ/mol
# GULP energy per Si atom -12393.658544 kJ/mol
# Density = 2.143501 g / cm^3
# Si number density = 21.483908 Si / 1000 Ang^3
#
#
#
# Elastic Constant Matrix: (Units=GPa)
#
#
# Indices 1 2 3 4 5 6 
#
# 1 75.2088 35.0072 22.2463 -0.2989 17.1161 3.4624
# 2 35.0072 115.8338 37.0248 6.5993 16.2013 4.5867
# 3 22.2463 37.0248 90.0173 10.5619 13.5353 5.5145
# 4 -0.2989 6.5993 10.5619 28.2363 9.1854 13.3291
# 5 17.1161 16.2013 13.5353 9.1854 29.5055 4.4798
# 6 3.4624 4.5867 5.5145 13.3291 4.4798 39.6146
#
#
#
# Elastic Compliance Matrix: (Units=1/GPa)
#
#
# Indices 1 2 3 4 5 6 
#
# 1 0.017729 -0.003717 -0.002077 0.005470 -0.008738 -0.001682
# 2 -0.003717 0.011150 -0.003246 -0.000682 -0.002261 -0.000029
# 3 -0.002077 -0.003246 0.013714 -0.003767 -0.002155 0.000160
# 4 0.005470 -0.000682 -0.003767 0.048473 -0.013943 -0.014608
# 5 -0.008738 -0.002261 -0.002155 -0.013943 0.045397 0.000883
# 6 -0.001682 -0.000029 0.000160 -0.014608 0.000883 0.030187
#
#
# Mechanical properties :
#
#
# Convention : Reuss Voigt Hill
#
# Bulk Modulus (GPa) = 40.79609 52.17963 46.48786
# Shear Modulus (GPa) = 25.92015 31.92339 28.92177
#
# Velocity S-wave (km/s) = 3.47723 3.85895 3.67305
# Velocity P-wave (km/s) = 5.92890 6.64799 6.29872
#
# Compressibility (1/GPa) = 0.02451215
#
# Stress axis : x y z
#
# Youngs Moduli (GPa) = 56.40600 89.68597 72.91971
#
# Poissons Ratio (x) = 0.33334 0.15149
# Poissons Ratio (y) = 0.20965 0.23668
# Poissons Ratio (z) = 0.11718 0.29111
#
# Static dielectric constant tensor:
#      x y z
#    x 3.879160 0.136370 0.436760 
#    y 0.136370 4.100820 0.188850 
#    z 0.436760 0.188850 3.628470 
# 
# 
# High freq. dielectric constant tensor:
#      x y z
#    x 1.832490 0.001300 0.036060 
#    y 0.001300 1.859850 0.010700 
#    z 0.036060 0.010700 1.817400 
# 
# From -- ./inp_files/69851.got.cif
#   From: 2010.06.25/outbox.cif.g09.slc.cpg/sg2_35_cif.got.tgz:69851.got - 2010.06.27 13:26:56.
