data_PCOD8007733
_publ_section_title
;
Structure prediction by ZEFSAII (Michael W. Deem and Ramdas Pophale) SiO2 
 PCOD8007733
Probable space group: P -1
;
_chemical_formula_sum "Si O2"
_cell_formula_units_Z 16
_cell_length_a 9.533904
_cell_length_b 14.550292
_cell_length_c 11.410237
_cell_angle_alpha 29.821479
_cell_angle_beta 116.774767
_cell_angle_gamma 103.035278
_cell_volume 652.240983
_symmetry_space_group_name_H-M "P -1"
_symmetry_group_IT_number 2
_symmetry_cell_setting 'triclinic'
loop_
_space_group_symop_operation_xyz
x,y,z
-x,-y,-z
loop_
_atom_site_type_symbol
_atom_site_label
_atom_site_fract_x
_atom_site_fract_y
_atom_site_fract_z
Si Si1 0.106192 0.772229 0.816708
Si Si2 0.046073 0.151150 0.771889
Si Si3 0.621038 0.034644 0.602473
Si Si4 0.209322 0.676142 0.703894
Si Si5 0.103974 0.344953 0.960292
Si Si6 0.640871 0.284580 0.814297
Si Si7 0.612021 0.860438 0.030070
Si Si8 0.155094 0.572608 0.419061
O O1 0.191200 0.667878 0.844495
O O2 0.971186 0.681766 0.912664
O O3 0.260670 0.733986 0.006198
O O4 0.000000 0.000000 0.500000
O O5 0.964481 0.173169 0.588095
O O6 0.964493 0.356226 0.591400
O O7 0.247206 0.088728 0.899970
O O8 0.000000 0.000000 0.000000
O O9 0.806111 0.865314 0.838916
O O10 0.500000 0.000000 0.500000
O O11 0.638563 0.250338 0.356808
O O12 0.552095 0.013973 0.728466
O O13 0.236360 0.456303 0.907387
O O14 0.942609 0.472442 0.679976
O O15 0.500000 0.500000 0.500000
O O16 0.547158 0.125115 0.962557
O O17 0.771735 0.256312 0.785724
O O18 0.693723 0.634054 0.260708
#
# Coordination Sequence:
#
# PCOD8007733 Si02
#       8
#     2   2   2   2   2   2   2   2
#     4  11  23  43  71  98 136 181 229 280 346 412
#     4  12  22  37  66  98 132 170 228 273 332 401
#     4  12  25  41  63  94 138 177 223 282 344 392
#     4  12  24  41  68 101 131 174 231 285 333 416
#     4  11  22  42  69  97 129 178 228 275 332 408
#     4   9  22  41  69  95 131 178 227 275 346 407
#     4  11  20  39  65  95 127 168 217 276 334 397
#     4  10  20  41  67  96 126 174 222 271 330 402
#
# _framework density 24.530808
#
# number of rings (size 3 to 8) (size 9 to 14) (size 15 to 20)
#    0.000    1.000    5.000    2.250    1.750    0.500 
#    0.000    3.125    0.000    0.000    0.000    0.000 
#    0.000    0.000    0.000    0.000    0.000    0.000 
#
# Total GULP energy -198322.582138 kJ/mol
# GULP energy per Si atom -12395.161384 kJ/mol
# Density = 2.447497 g / cm^3
# Si number density = 24.530808 Si / 1000 Ang^3
#
#
#
# Elastic Constant Matrix: (Units=GPa)
#
#
# Indices 1 2 3 4 5 6 
#
# 1 146.9612 28.9829 29.1795 3.6242 -47.4689 30.2911
# 2 28.9829 80.4888 24.0320 3.3888 -10.4403 36.2815
# 3 29.1795 24.0320 92.7779 14.2789 -24.5463 12.2304
# 4 3.6242 3.3888 14.2789 47.4372 10.1047 -4.1040
# 5 -47.4689 -10.4403 -24.5463 10.1047 50.3186 -6.8935
# 6 30.2911 36.2815 12.2304 -4.1040 -6.8935 48.5915
#
#
#
# Elastic Compliance Matrix: (Units=1/GPa)
#
#
# Indices 1 2 3 4 5 6 
#
# 1 0.011719 0.000011 0.000784 -0.004102 0.011409 -0.006239
# 2 0.000011 0.019842 -0.002585 -0.002155 0.001359 -0.014161
# 3 0.000784 -0.002585 0.014561 -0.006168 0.008330 -0.001562
# 4 -0.004102 -0.002155 -0.006168 0.026457 -0.011778 0.006282
# 5 0.011409 0.001359 0.008330 -0.011778 0.036520 -0.006037
# 6 -0.006239 -0.014161 -0.001562 0.006282 -0.006037 0.035109
#
#
# Mechanical properties :
#
#
# Convention : Reuss Voigt Hill
#
# Bulk Modulus (GPa) = 23.50700 53.84630 38.67665
# Shear Modulus (GPa) = 30.87008 45.13836 38.00422
#
# Velocity S-wave (km/s) = 3.55127 4.29426 3.94031
# Velocity P-wave (km/s) = 5.13992 6.82537 6.04171
#
# Compressibility (1/GPa) = 0.04254051
#
# Stress axis : x y z
#
# Youngs Moduli (GPa) = 85.33223 50.39770 68.67764
#
# Poissons Ratio (x) = -0.00055 -0.05382
# Poissons Ratio (y) = -0.00094 0.17755
# Poissons Ratio (z) = -0.06687 0.13029
#
# Static dielectric constant tensor:
#      x y z
#    x 4.789720 0.166360 -0.384390 
#    y 0.166360 4.231540 0.003830 
#    z -0.384390 0.003830 4.720070 
# 
# 
# High freq. dielectric constant tensor:
#      x y z
#    x 1.978810 0.023600 -0.034240 
#    y 0.023600 1.961760 0.000950 
#    z -0.034240 0.000950 1.987810 
# 
# From -- ./inp_files/432354.got.cif
#   From: 2010.06.25/outbox.cif.g09.slc.cpg/sg2_217_cif.got.tgz:432354.got - 2010.06.27 13:26:56.
