data_PCOD8007723
_publ_section_title
;
Structure prediction by ZEFSAII (Michael W. Deem and Ramdas Pophale) SiO2 
 PCOD8007723
Probable space group: P -1
;
_chemical_formula_sum "Si O2"
_cell_formula_units_Z 12
_cell_length_a 13.833147
_cell_length_b 13.865387
_cell_length_c 9.769738
_cell_angle_alpha 148.660721
_cell_angle_beta 48.933829
_cell_angle_gamma 145.864043
_cell_volume 538.814606
_symmetry_space_group_name_H-M "P -1"
_symmetry_group_IT_number 2
_symmetry_cell_setting 'triclinic'
loop_
_space_group_symop_operation_xyz
x,y,z
-x,-y,-z
loop_
_atom_site_type_symbol
_atom_site_label
_atom_site_fract_x
_atom_site_fract_y
_atom_site_fract_z
Si Si1 0.046140 0.837196 0.219813
Si Si2 0.689731 0.964186 0.034468
Si Si3 0.339635 0.555517 0.960492
Si Si4 0.379280 0.720684 0.418087
Si Si5 0.715816 0.916832 0.470231
Si Si6 0.194021 0.159133 0.977661
O O1 0.149852 0.848644 0.265724
O O2 0.000000 0.000000 0.500000
O O3 0.856726 0.558788 0.028041
O O4 0.180230 0.959719 0.116418
O O5 0.478165 0.738012 0.929076
O O6 0.734947 0.215370 0.350323
O O7 0.706393 0.830803 0.976676
O O8 0.413020 0.748022 0.255617
O O9 0.341843 0.337707 0.721429
O O10 0.552551 0.889101 0.555698
O O11 0.275158 0.432913 0.194573
O O12 0.810931 0.981653 0.317121
O O13 0.000000 0.000000 0.000000
#
# Coordination Sequence:
#
# PCOD8007723 Si02
#       6
#     2   2   2   2   2   2
#     4  10  24  41  64  96 133 167 212 266 317 381
#     4  12  23  41  72  93 124 177 213 254 329 376
#     4  10  20  41  67  94 126 172 210 261 321 372
#     4  11  22  41  67  96 130 159 219 271 304 380
#     4  10  20  42  62  92 136 161 210 272 310 374
#     4  11  22  40  68  97 122 169 218 261 316 375
#
# _framework density 22.271108999999999
#
# number of rings (size 3 to 8) (size 9 to 14) (size 15 to 20)
#    0.000    1.333    3.333    4.500    0.000    6.000 
#    3.000    0.833    0.000    0.000    0.000    0.000 
#    0.000    0.000    0.000    0.000    0.000    0.000 
#
# Total GULP energy -148681.968709 kJ/mol
# GULP energy per Si atom -12390.164059 kJ/mol
# Density = 2.222042 g / cm^3
# Si number density = 22.271109 Si / 1000 Ang^3
#
#
#
# Elastic Constant Matrix: (Units=GPa)
#
#
# Indices 1 2 3 4 5 6 
#
# 1 0.6364 40.5453 -2.7975 7.4510 30.1392 44.5391
# 2 40.5453 144.4280 41.7334 -36.3542 15.9295 33.5317
# 3 -2.7975 41.7334 72.1418 -21.0119 7.5022 18.4670
# 4 7.4510 -36.3542 -21.0119 32.8504 7.2707 4.6523
# 5 30.1392 15.9295 7.5022 7.2707 37.7533 0.0342
# 6 44.5391 33.5317 18.4670 4.6523 0.0342 22.8476
#
#
#
# Elastic Compliance Matrix: (Units=1/GPa)
#
#
# Indices 1 2 3 4 5 6 
#
# 1 0.000747 -0.012398 -0.009391 -0.026678 0.011611 0.029743
# 2 -0.012398 0.025642 0.002723 0.038197 -0.008798 -0.023431
# 3 -0.009391 0.002723 0.017971 0.017290 -0.000550 -0.003737
# 4 -0.026678 0.038197 0.017290 0.099056 -0.017297 -0.038171
# 5 0.011611 -0.008798 -0.000550 -0.017297 0.024376 -0.005793
# 6 0.029743 -0.023431 -0.003737 -0.038171 -0.005793 0.030976
#
#
# Mechanical properties :
#
#
# Convention : Reuss Voigt Hill
#
# Bulk Modulus (GPa) = 160.47949 41.79650 101.13799
# Shear Modulus (GPa) = 20.92265 27.87194 24.39729
#
# Velocity S-wave (km/s) = 3.06837 3.54147 3.31338
# Velocity P-wave (km/s) = 9.20689 5.96075 7.75556
#
# Compressibility (1/GPa) = 0.00623133
#
# Stress axis : x y z
#
# Youngs Moduli (GPa) = 1338.07172 38.99824 55.64396
#
# Poissons Ratio (x) = 0.48349 0.52253
# Poissons Ratio (y) = 16.58898 -0.15155
# Poissons Ratio (z) = 12.56531 -0.10621
#
# Static dielectric constant tensor:
#      x y z
#    x 4.410530 0.367980 0.247030 
#    y 0.367980 3.979810 -0.032130 
#    z 0.247030 -0.032130 4.026410 
# 
# 
# High freq. dielectric constant tensor:
#      x y z
#    x 1.878180 0.016570 -0.002660 
#    y 0.016570 1.882410 -0.003230 
#    z -0.002660 -0.003230 1.864590 
# 
# From -- ./inp_files/151500.got.cif
#   From: 2010.06.25/outbox.cif.g09.slc.cpg/sg2_76_cif.got.tgz:151500.got - 2010.06.27 13:26:56.
