data_PCOD8007573
_publ_section_title
;
Structure prediction by ZEFSAII (Michael W. Deem and Ramdas Pophale) SiO2 
 PCOD8007573
Probable space group: P -1
;
_chemical_formula_sum "Si O2"
_cell_formula_units_Z 14
_cell_length_a 10.372670
_cell_length_b 12.748649
_cell_length_c 9.015523
_cell_angle_alpha 143.387379
_cell_angle_beta 68.656680
_cell_angle_gamma 109.073882
_cell_volume 660.970508
_symmetry_space_group_name_H-M "P -1"
_symmetry_group_IT_number 2
_symmetry_cell_setting 'triclinic'
loop_
_space_group_symop_operation_xyz
x,y,z
-x,-y,-z
loop_
_atom_site_type_symbol
_atom_site_label
_atom_site_fract_x
_atom_site_fract_y
_atom_site_fract_z
Si Si1 0.233955 0.601999 0.047162
Si Si2 0.588291 0.635799 0.474548
Si Si3 0.811623 0.701314 0.041129
Si Si4 0.307357 0.483442 0.406977
Si Si5 0.876614 0.289562 0.084555
Si Si6 0.362088 0.988115 0.144071
Si Si7 0.354665 0.959664 0.441200
O O1 0.278219 0.776490 0.325729
O O2 0.363068 0.533939 0.824253
O O3 0.178647 0.448628 0.007525
O O4 0.124241 0.656362 0.028665
O O5 0.423653 0.645675 0.516405
O O6 0.614441 0.633246 0.637895
O O7 0.674713 0.810767 0.581029
O O8 0.742323 0.876790 0.322586
O O9 0.724854 0.625653 0.851504
O O10 0.968705 0.757618 0.991670
O O11 0.166365 0.548825 0.610956
O O12 0.773346 0.122647 0.986638
O O13 0.391641 0.906037 0.197463
O O14 0.500000 0.000000 0.000000
O O15 0.500000 0.000000 0.500000
#
# Coordination Sequence:
#
# PCOD8007573 Si02
#       7
#     2   2   2   2   2   2   2
#     4  10  23  42  65  93 125 170 212 260 316 381
#     4  10  20  41  65  92 121 171 214 262 314 367
#     4  12  24  43  65  92 135 172 201 268 327 366
#     4  10  22  38  65  91 126 166 218 258 311 380
#     4  10  23  43  63  94 129 168 217 257 312 391
#     4  11  22  40  68  90 125 168 213 265 312 375
#     4  11  26  41  63 101 129 159 220 266 310 383
#
# _framework density 21.180975
#
# number of rings (size 3 to 8) (size 9 to 14) (size 15 to 20)
#    0.000    1.429    2.857    1.714    6.000    3.429 
#    5.143    0.714    0.000    0.000    0.000    0.000 
#    0.000    0.000    0.000    0.000    0.000    0.000 
#
# Total GULP energy -173474.929426 kJ/mol
# GULP energy per Si atom -12391.066388 kJ/mol
# Density = 2.113277 g / cm^3
# Si number density = 21.180975 Si / 1000 Ang^3
#
#
#
# Elastic Constant Matrix: (Units=GPa)
#
#
# Indices 1 2 3 4 5 6 
#
# 1 119.7415 37.1851 37.0057 -1.2007 -5.9418 12.7135
# 2 37.1851 73.7388 42.1545 13.9508 5.5400 17.4890
# 3 37.0057 42.1545 105.5988 13.2685 0.5454 4.2109
# 4 -1.2007 13.9508 13.2685 40.6132 -0.7135 1.4684
# 5 -5.9418 5.5400 0.5454 -0.7135 29.2440 -0.8538
# 6 12.7135 17.4890 4.2109 1.4684 -0.8538 22.9720
#
#
#
# Elastic Compliance Matrix: (Units=1/GPa)
#
#
# Indices 1 2 3 4 5 6 
#
# 1 0.010843 -0.004317 -0.002339 0.002706 0.003062 -0.002345
# 2 -0.004317 0.024953 -0.007065 -0.005949 -0.006060 -0.015158
# 3 -0.002339 -0.007065 0.013194 -0.002100 0.000695 0.004415
# 4 0.002706 -0.005949 -0.002100 0.027412 0.002436 0.001755
# 5 0.003062 -0.006060 0.000695 0.002436 0.036128 0.003979
# 6 -0.002345 -0.015158 0.004415 0.001755 0.003979 0.055596
#
#
# Mechanical properties :
#
#
# Convention : Reuss Voigt Hill
#
# Bulk Modulus (GPa) = 46.40662 59.08554 52.74608
# Shear Modulus (GPa) = 24.66105 30.74809 27.70457
#
# Velocity S-wave (km/s) = 3.41589 3.81423 3.62054
# Velocity P-wave (km/s) = 6.12494 6.88142 6.51417
#
# Compressibility (1/GPa) = 0.02154865
#
# Stress axis : x y z
#
# Youngs Moduli (GPa) = 92.22842 40.07523 75.79158
#
# Poissons Ratio (x) = 0.17299 0.17726
# Poissons Ratio (y) = 0.39811 0.53548
# Poissons Ratio (z) = 0.21571 0.28314
#
# Static dielectric constant tensor:
#      x y z
#    x 3.621220 0.063890 0.043840 
#    y 0.063890 3.980690 0.241000 
#    z 0.043840 0.241000 4.060790 
# 
# 
# High freq. dielectric constant tensor:
#      x y z
#    x 1.816900 0.007760 0.003040 
#    y 0.007760 1.824200 0.007060 
#    z 0.003040 0.007060 1.841810 
# 
# From -- ./inp_files/178908.got.cif
#   From: 2010.06.25/outbox.cif.g09.slc.cpg/sg2_90_cif.got.tgz:178908.got - 2010.06.27 13:26:56.
