data_PCOD8007309
_publ_section_title
;
Structure prediction by ZEFSAII (Michael W. Deem and Ramdas Pophale) SiO2 
 PCOD8007309
Probable space group: P -1
;
_chemical_formula_sum "Si O2"
_cell_formula_units_Z 14
_cell_length_a 11.068724
_cell_length_b 9.451853
_cell_length_c 14.248654
_cell_angle_alpha 127.843084
_cell_angle_beta 149.395542
_cell_angle_gamma 57.357434
_cell_volume 599.079033
_symmetry_space_group_name_H-M "P -1"
_symmetry_group_IT_number 2
_symmetry_cell_setting 'triclinic'
loop_
_space_group_symop_operation_xyz
x,y,z
-x,-y,-z
loop_
_atom_site_type_symbol
_atom_site_label
_atom_site_fract_x
_atom_site_fract_y
_atom_site_fract_z
Si Si1 0.322742 0.359285 0.869018
Si Si2 0.351766 0.342958 0.288543
Si Si3 0.101890 0.477105 0.455700
Si Si4 0.130720 0.800888 0.073147
Si Si5 0.244125 0.074309 0.394205
Si Si6 0.520025 0.959485 0.275558
Si Si7 0.616585 0.548844 0.846773
O O1 0.406406 0.162361 0.812745
O O2 0.063221 0.425290 0.691170
O O3 0.500000 0.500000 0.000000
O O4 0.315816 0.344625 0.971084
O O5 0.500000 0.500000 0.500000
O O6 0.256056 0.390243 0.138844
O O7 0.104362 0.301699 0.160719
O O8 0.518463 0.165545 0.327265
O O9 0.156745 0.270198 0.381289
O O10 0.341545 0.584623 0.655573
O O11 0.000000 0.500000 0.500000
O O12 0.255819 0.910703 0.117448
O O13 0.334632 0.660816 0.187060
O O14 0.062170 0.935196 0.168876
O O15 0.263433 0.070162 0.517838
O O16 0.500000 0.000000 0.500000
#
# Coordination Sequence:
#
# PCOD8007309 Si02
#       7
#     2   2   2   2   2   2   2
#     4  12  24  43  75 108 149 192 255 305 363 446
#     4  12  30  46  71 108 156 196 239 314 394 430
#     4  12  22  43  74 110 145 194 243 310 366 437
#     4  11  23  45  76 105 144 193 253 308 362 447
#     4  10  20  40  72 110 141 176 257 309 352 433
#     4  11  23  46  73 112 140 197 255 302 362 454
#     4  12  26  46  70 111 150 194 244 309 378 441
#
# _framework density 23.369202000000001
#
# number of rings (size 3 to 8) (size 9 to 14) (size 15 to 20)
#    0.000    0.571    7.143    1.714    6.000    0.571 
#    0.000    0.714    0.000    0.000    0.000    0.000 
#    0.000    0.000    0.000    0.000    0.000    0.000 
#
# Total GULP energy -173550.167385 kJ/mol
# GULP energy per Si atom -12396.440528 kJ/mol
# Density = 2.331601 g / cm^3
# Si number density = 23.369202 Si / 1000 Ang^3
#
#
#
# Elastic Constant Matrix: (Units=GPa)
#
#
# Indices 1 2 3 4 5 6 
#
# 1 92.4432 47.0926 45.6106 10.7183 -35.4488 -5.1280
# 2 47.0926 137.6998 60.1973 16.4277 -16.0692 -12.8766
# 3 45.6106 60.1973 151.1068 -0.4314 -14.1259 -9.0760
# 4 10.7183 16.4277 -0.4314 38.2635 -5.3142 -7.7131
# 5 -35.4488 -16.0692 -14.1259 -5.3142 45.7159 -2.0135
# 6 -5.1280 -12.8766 -9.0760 -7.7131 -2.0135 41.2048
#
#
#
# Elastic Compliance Matrix: (Units=1/GPa)
#
#
# Indices 1 2 3 4 5 6 
#
# 1 0.019219 -0.003368 -0.003244 -0.002065 0.012514 0.000850
# 2 -0.003368 0.010218 -0.002996 -0.003210 -0.000253 0.001501
# 3 -0.003244 -0.002996 0.008811 0.002430 -0.000518 0.001030
# 4 -0.002065 -0.003210 0.002430 0.029323 0.001644 0.004845
# 5 0.012514 -0.000253 -0.000518 0.001644 0.031661 0.003219
# 6 0.000850 0.001501 0.001030 0.004845 0.003219 0.026135
#
#
# Mechanical properties :
#
#
# Convention : Reuss Voigt Hill
#
# Bulk Modulus (GPa) = 52.54938 76.33898 64.44418
# Shear Modulus (GPa) = 33.12808 40.26014 36.69411
#
# Velocity S-wave (km/s) = 3.76918 4.15515 3.96686
# Velocity P-wave (km/s) = 6.44032 7.46711 6.97264
#
# Compressibility (1/GPa) = 0.01902972
#
# Stress axis : x y z
#
# Youngs Moduli (GPa) = 52.03094 97.86830 113.49209
#
# Poissons Ratio (x) = 0.32967 0.36821
# Poissons Ratio (y) = 0.17527 0.34008
# Poissons Ratio (z) = 0.16881 0.29326
#
# Static dielectric constant tensor:
#      x y z
#    x 3.979000 -0.318290 -0.361870 
#    y -0.318290 4.147870 -0.056010 
#    z -0.361870 -0.056010 4.606580 
# 
# 
# High freq. dielectric constant tensor:
#      x y z
#    x 1.906330 -0.014880 -0.020850 
#    y -0.014880 1.932420 -0.011100 
#    z -0.020850 -0.011100 1.931460 
# 
# From -- ./inp_files/516325.got.cif
#   From: 2010.06.25/outbox.cif.g09.slc.cpg/sg2_259_cif.got.tgz:516325.got - 2010.06.27 13:26:56.
