data_PCOD8007206
_publ_section_title
;
Structure prediction by ZEFSAII (Michael W. Deem and Ramdas Pophale) SiO2 
 PCOD8007206
Probable space group: P -1
;
_chemical_formula_sum "Si O2"
_cell_formula_units_Z 12
_cell_length_a 5.194345
_cell_length_b 15.127390
_cell_length_c 9.907201
_cell_angle_alpha 122.431247
_cell_angle_beta 46.338914
_cell_angle_gamma 122.402487
_cell_volume 457.524023
_symmetry_space_group_name_H-M "P -1"
_symmetry_group_IT_number 2
_symmetry_cell_setting 'triclinic'
loop_
_space_group_symop_operation_xyz
x,y,z
-x,-y,-z
loop_
_atom_site_type_symbol
_atom_site_label
_atom_site_fract_x
_atom_site_fract_y
_atom_site_fract_z
Si Si1 0.880501 0.325802 0.994258
Si Si2 0.025491 0.032993 0.862813
Si Si3 0.562407 0.242407 0.764059
Si Si4 0.502034 0.486262 0.328935
Si Si5 0.468474 0.168550 0.212046
Si Si6 0.245335 0.680815 0.524472
O O1 0.867165 0.451216 0.120795
O O2 0.506723 0.263293 0.164194
O O3 0.836004 0.291448 0.826659
O O4 0.237214 0.302702 0.915964
O O5 0.416562 0.112509 0.737671
O O6 0.932368 0.921147 0.716034
O O7 0.739760 0.103098 0.998565
O O8 0.000000 0.000000 0.000000
O O9 0.810144 0.267242 0.558260
O O10 0.500000 0.500000 0.500000
O O11 0.519519 0.601442 0.344023
O O12 0.132003 0.395354 0.339446
O O13 0.572647 0.217257 0.362317
#
# Coordination Sequence:
#
# PCOD8007206 Si02
#       6
#     2   2   2   2   2   2
#     4  11  23  44  69  97 137 184 222 272 334 411
#     4  10  20  40  68  96 128 185 221 263 339 414
#     4  11  26  43  68 105 141 170 226 287 335 388
#     4  11  24  44  70  94 131 187 228 265 345 411
#     4  10  21  40  68  94 132 179 225 267 332 412
#     4  11  26  43  66 103 136 173 227 290 331 393
#
# _framework density 26.22813
#
# number of rings (size 3 to 8) (size 9 to 14) (size 15 to 20)
#    0.000    1.333    3.333    2.000    4.667    2.000 
#    0.000    0.833    0.000    0.000    0.000    0.000 
#    0.000    0.000    0.000    0.000    0.000    0.000 
#
# Total GULP energy -148759.447278 kJ/mol
# GULP energy per Si atom -12396.620607 kJ/mol
# Density = 2.616843 g / cm^3
# Si number density = 26.228130 Si / 1000 Ang^3
#
#
#
# Elastic Constant Matrix: (Units=GPa)
#
#
# Indices 1 2 3 4 5 6 
#
# 1 71.5452 14.7130 1.9024 6.2646 20.5768 1.5477
# 2 14.7130 102.8852 32.2051 -12.2577 11.8089 6.3596
# 3 1.9024 32.2051 75.3109 -1.8100 37.3093 10.6597
# 4 6.2646 -12.2577 -1.8100 48.6667 -7.9116 12.7963
# 5 20.5768 11.8089 37.3093 -7.9116 47.7536 -0.4769
# 6 1.5477 6.3596 10.6597 12.7963 -0.4769 41.5421
#
#
#
# Elastic Compliance Matrix: (Units=1/GPa)
#
#
# Indices 1 2 3 4 5 6 
#
# 1 0.019543 -0.004459 0.008939 -0.005573 -0.015233 -0.000797
# 2 -0.004459 0.012817 -0.007922 0.004741 0.005715 -0.001158
# 3 0.008939 -0.007922 0.030164 -0.004808 -0.026313 -0.005682
# 4 -0.005573 0.004741 -0.004808 0.025630 0.009161 -0.007074
# 5 -0.015233 0.005715 -0.026313 0.009161 0.048209 0.004176
# 6 -0.000797 -0.001158 -0.005682 -0.007074 0.004176 0.027964
#
#
# Mechanical properties :
#
#
# Convention : Reuss Voigt Hill
#
# Bulk Modulus (GPa) = 17.97264 38.59804 28.28534
# Shear Modulus (GPa) = 26.34943 40.98720 33.66832
#
# Velocity S-wave (km/s) = 3.17302 3.95741 3.58672
# Velocity P-wave (km/s) = 4.50460 5.96906 5.28777
#
# Compressibility (1/GPa) = 0.05564014
#
# Stress axis : x y z
#
# Youngs Moduli (GPa) = 51.16970 78.01905 33.15209
#
# Poissons Ratio (x) = 0.34788 -0.29633
# Poissons Ratio (y) = 0.22816 0.26262
# Poissons Ratio (z) = -0.45738 0.61804
#
# Static dielectric constant tensor:
#      x y z
#    x 4.671340 -0.215320 -0.131770 
#    y -0.215320 6.068960 0.278960 
#    z -0.131770 0.278960 4.418050 
# 
# 
# High freq. dielectric constant tensor:
#      x y z
#    x 2.048250 -0.008050 0.002000 
#    y -0.008050 2.075510 0.005480 
#    z 0.002000 0.005480 2.032690 
# 
# From -- ./inp_files/19093.got.cif
#   From: 2010.06.25/outbox.cif.g09.slc.cpg/sg2_10_cif.got.tgz:19093.got - 2010.06.27 13:26:56.
