data_PCOD8007491
_publ_section_title
;
Structure prediction by ZEFSAII (Michael W. Deem and Ramdas Pophale) SiO2 
 PCOD8007491
Probable space group: P -1
;
_chemical_formula_sum "Si O2"
_cell_formula_units_Z 12
_cell_length_a 7.176769
_cell_length_b 8.090327
_cell_length_c 11.647625
_cell_angle_alpha 74.084688
_cell_angle_beta 116.934811
_cell_angle_gamma 96.563771
_cell_volume 579.776933
_symmetry_space_group_name_H-M "P -1"
_symmetry_group_IT_number 2
_symmetry_cell_setting 'triclinic'
loop_
_space_group_symop_operation_xyz
x,y,z
-x,-y,-z
loop_
_atom_site_type_symbol
_atom_site_label
_atom_site_fract_x
_atom_site_fract_y
_atom_site_fract_z
Si Si1 0.250800 0.013351 0.439795
Si Si2 0.078672 0.251397 0.534964
Si Si3 0.425786 0.675342 0.889549
Si Si4 0.150794 0.218887 0.947765
Si Si5 0.952675 0.122831 0.138453
Si Si6 0.833048 0.522042 0.290041
O O1 0.214383 0.113587 0.529946
O O2 0.149541 0.111760 0.283118
O O3 0.500000 0.000000 0.500000
O O4 0.134534 0.830502 0.456981
O O5 0.221300 0.324558 0.665057
O O6 0.032762 0.415138 0.410115
O O7 0.230109 0.769526 0.874746
O O8 0.355429 0.615777 0.752847
O O9 0.500000 0.500000 0.000000
O O10 0.618980 0.804099 0.926227
O O11 0.115877 0.397749 0.836159
O O12 0.117381 0.068739 0.875260
O O13 0.996495 0.218370 0.012696
#
# Coordination Sequence:
#
# PCOD8007491 Si02
#       6
#     2   2   2   2   2   2
#     4  11  24  42  67  92 119 171 210 250 312 363
#     4  10  22  43  65  86 131 159 211 260 299 368
#     4  10  22  40  64  93 122 166 203 248 323 364
#     4  10  23  40  65  93 125 162 210 253 314 364
#     4  11  22  43  63  92 128 159 210 265 296 370
#     4  10  20  41  64  91 123 167 196 261 313 358
#
# _framework density 20.697617000000001
#
# number of rings (size 3 to 8) (size 9 to 14) (size 15 to 20)
#    0.000    1.667    3.333    0.500    2.333    2.667 
#   12.000    5.000    0.000    0.000    0.000    0.000 
#    0.000    0.000    0.000    0.000    0.000    0.000 
#
# Total GULP energy -148672.917259 kJ/mol
# GULP energy per Si atom -12389.409772 kJ/mol
# Density = 2.065051 g / cm^3
# Si number density = 20.697617 Si / 1000 Ang^3
#
#
#
# Elastic Constant Matrix: (Units=GPa)
#
#
# Indices 1 2 3 4 5 6 
#
# 1 98.2815 47.4145 40.3607 12.7530 16.5312 -0.2663
# 2 47.4145 65.6501 25.7367 25.1860 -6.8961 -4.9407
# 3 40.3607 25.7367 88.7079 9.2795 -6.5689 4.6712
# 4 12.7530 25.1860 9.2795 53.3738 2.6170 -1.5547
# 5 16.5312 -6.8961 -6.5689 2.6170 27.2791 0.7798
# 6 -0.2663 -4.9407 4.6712 -1.5547 0.7798 21.3872
#
#
#
# Elastic Compliance Matrix: (Units=1/GPa)
#
#
# Indices 1 2 3 4 5 6 
#
# 1 0.027486 -0.021574 -0.008665 0.006293 -0.024761 -0.001389
# 2 -0.021574 0.038798 0.001542 -0.014433 0.024454 0.006416
# 3 -0.008665 0.001542 0.015898 -0.002009 0.009768 -0.003726
# 4 0.006293 -0.014433 -0.002009 0.024879 -0.010315 -0.000633
# 5 -0.024761 0.024454 0.009768 -0.010315 0.061181 0.000227
# 6 -0.001389 0.006416 -0.003726 -0.000633 0.000227 0.048981
#
#
# Mechanical properties :
#
#
# Convention : Reuss Voigt Hill
#
# Bulk Modulus (GPa) = 40.34235 53.29592 46.81913
# Shear Modulus (GPa) = 17.67542 29.68321 23.67931
#
# Velocity S-wave (km/s) = 2.92547 3.79111 3.38606
# Velocity P-wave (km/s) = 5.56280 6.70589 6.16092
#
# Compressibility (1/GPa) = 0.02478785
#
# Stress axis : x y z
#
# Youngs Moduli (GPa) = 36.38247 25.77467 62.90201
#
# Poissons Ratio (x) = 0.55606 0.54506
# Poissons Ratio (y) = 0.78491 -0.09701
# Poissons Ratio (z) = 0.31526 -0.03975
#
# Static dielectric constant tensor:
#      x y z
#    x 3.489030 0.274230 0.075730 
#    y 0.274230 4.363520 0.504730 
#    z 0.075730 0.504730 4.307140 
# 
# 
# High freq. dielectric constant tensor:
#      x y z
#    x 1.768750 0.000890 -0.004940 
#    y 0.000890 1.830470 0.014800 
#    z -0.004940 0.014800 1.829400 
# 
# From -- ./inp_files/19758.got.cif
#   From: 2010.06.25/outbox.cif.g09.slc.cpg/sg2_10_cif.got.tgz:19758.got - 2010.06.27 13:26:56.
