data_PCOD8007289
_publ_section_title
;
Structure prediction by ZEFSAII (Michael W. Deem and Ramdas Pophale) SiO2 
 PCOD8007289
Probable space group: P -1
;
_chemical_formula_sum "Si O2"
_cell_formula_units_Z 14
_cell_length_a 14.156381
_cell_length_b 8.584354
_cell_length_c 7.865318
_cell_angle_alpha 53.345662
_cell_angle_beta 51.474485
_cell_angle_gamma 86.987557
_cell_volume 516.470245
_symmetry_space_group_name_H-M "P -1"
_symmetry_group_IT_number 2
_symmetry_cell_setting 'triclinic'
loop_
_space_group_symop_operation_xyz
x,y,z
-x,-y,-z
loop_
_atom_site_type_symbol
_atom_site_label
_atom_site_fract_x
_atom_site_fract_y
_atom_site_fract_z
Si Si1 0.361706 0.776725 0.182219
Si Si2 0.577774 0.364683 0.462186
Si Si3 0.835711 0.055086 0.211894
Si Si4 0.160716 0.908041 0.442894
Si Si5 0.881034 0.645846 0.437480
Si Si6 0.139359 0.349063 0.170743
Si Si7 0.476183 0.264891 0.265966
O O1 0.454230 0.808504 0.231356
O O2 0.288080 0.928189 0.171635
O O3 0.232717 0.517369 0.467673
O O4 0.466659 0.848359 0.857846
O O5 0.500000 0.500000 0.500000
O O6 0.550369 0.291143 0.344967
O O7 0.746810 0.497706 0.196501
O O8 0.816459 0.145344 0.355697
O O9 0.890529 0.884012 0.284887
O O10 0.683436 0.916661 0.387613
O O11 0.955208 0.278454 0.832755
O O12 0.013386 0.703508 0.677165
O O13 0.158498 0.134596 0.289000
O O14 0.831496 0.533547 0.752362
O O15 0.500000 0.500000 0.000000
#
# Coordination Sequence:
#
# PCOD8007289 Si02
#       7
#     2   2   2   2   2   2   2
#     4  12  25  44  74 105 140 179 235 295 338 405
#     4  12  24  41  75 103 135 191 234 272 351 426
#     4  10  21  40  65  96 141 180 226 279 348 405
#     4  10  24  43  70 101 139 179 234 294 343 404
#     4  10  20  40  70  98 132 184 229 287 334 407
#     4  10  22  46  71  99 139 188 232 281 356 414
#     4  12  22  45  68 100 143 187 226 282 348 420
#
# _framework density 27.107075999999999
#
# number of rings (size 3 to 8) (size 9 to 14) (size 15 to 20)
#    0.000    1.143    4.286    1.714    0.000    8.000 
#    2.571    0.714    0.000    0.000    0.000    0.000 
#    0.000    0.000    0.000    0.000    0.000    0.000 
#
# Total GULP energy -173465.867982 kJ/mol
# GULP energy per Si atom -12390.419142 kJ/mol
# Density = 2.704538 g / cm^3
# Si number density = 27.107076 Si / 1000 Ang^3
#
#
#
# Elastic Constant Matrix: (Units=GPa)
#
#
# Indices 1 2 3 4 5 6 
#
# 1 122.1139 39.0457 34.4950 12.8003 -7.0939 20.2493
# 2 39.0457 75.5320 14.1008 30.5019 2.2097 5.7094
# 3 34.4950 14.1008 147.9299 24.6504 -17.4099 1.0040
# 4 12.8003 30.5019 24.6504 41.3236 -1.5486 -0.1461
# 5 -7.0939 2.2097 -17.4099 -1.5486 42.3638 9.6142
# 6 20.2493 5.7094 1.0040 -0.1461 9.6142 45.2015
#
#
#
# Elastic Compliance Matrix: (Units=1/GPa)
#
#
# Indices 1 2 3 4 5 6 
#
# 1 0.011483 -0.006206 -0.002150 0.002385 0.002550 -0.004847
# 2 -0.006206 0.022559 0.001673 -0.015807 -0.002176 0.000305
# 3 -0.002150 0.001673 0.008337 -0.005437 0.002790 -0.000044
# 4 0.002385 -0.015807 -0.005437 0.038381 0.000133 0.001145
# 5 0.002550 -0.002176 0.002790 0.000133 0.026802 -0.006630
# 6 -0.004847 0.000305 -0.000044 0.001145 -0.006630 0.025671
#
#
# Mechanical properties :
#
#
# Convention : Reuss Voigt Hill
#
# Bulk Modulus (GPa) = 34.46907 57.87320 46.17114
# Shear Modulus (GPa) = 31.99605 42.97339 37.48472
#
# Velocity S-wave (km/s) = 3.43936 3.98593 3.72269
# Velocity P-wave (km/s) = 5.34002 6.52531 5.96219
#
# Compressibility (1/GPa) = 0.02901152
#
# Stress axis : x y z
#
# Youngs Moduli (GPa) = 87.08743 44.32770 119.95244
#
# Poissons Ratio (x) = 0.27509 0.25796
# Poissons Ratio (y) = 0.54044 -0.20065
# Poissons Ratio (z) = 0.18728 -0.07415
#
# Static dielectric constant tensor:
#      x y z
#    x 4.805990 0.295960 -0.116260 
#    y 0.295960 5.011610 0.299020 
#    z -0.116260 0.299020 5.422560 
# 
# 
# High freq. dielectric constant tensor:
#      x y z
#    x 2.083730 0.008020 -0.018860 
#    y 0.008020 2.098500 0.013990 
#    z -0.018860 0.013990 2.109360 
# 
# From -- ./inp_files/297564.got.cif
#   From: 2010.06.25/outbox.cif.g09.slc.cpg/sg2_149_cif.got.tgz:297564.got - 2010.06.27 13:26:56.
