data_PCOD8007686
_publ_section_title
;
Structure prediction by ZEFSAII (Michael W. Deem and Ramdas Pophale) SiO2 
 PCOD8007686
Probable space group: P -1
;
_chemical_formula_sum "Si O2"
_cell_formula_units_Z 12
_cell_length_a 12.650228
_cell_length_b 7.524719
_cell_length_c 6.592329
_cell_angle_alpha 118.780227
_cell_angle_beta 112.555221
_cell_angle_gamma 96.948407
_cell_volume 470.329953
_symmetry_space_group_name_H-M "P -1"
_symmetry_group_IT_number 2
_symmetry_cell_setting 'triclinic'
loop_
_space_group_symop_operation_xyz
x,y,z
-x,-y,-z
loop_
_atom_site_type_symbol
_atom_site_label
_atom_site_fract_x
_atom_site_fract_y
_atom_site_fract_z
Si Si1 0.464755 0.638150 0.725478
Si Si2 0.081997 0.339177 0.175512
Si Si3 0.813545 0.278337 0.867877
Si Si4 0.248949 0.434881 0.727886
Si Si5 0.327577 0.956908 0.703271
Si Si6 0.129088 0.065690 0.743833
O O1 0.500000 0.500000 0.500000
O O2 0.376546 0.465230 0.725439
O O3 0.384355 0.771035 0.654107
O O4 0.581240 0.806238 0.022847
O O5 0.141094 0.544732 0.184052
O O6 0.132577 0.377214 0.460424
O O7 0.116622 0.141571 0.002081
O O8 0.934266 0.254755 0.037885
O O9 0.718216 0.052254 0.571748
O O10 0.738535 0.342269 0.023704
O O11 0.227725 0.253768 0.782893
O O12 0.197630 0.891435 0.703639
O O13 0.000000 0.000000 0.500000
#
# Coordination Sequence:
#
# PCOD8007686 Si02
#       6
#     2   2   2   2   2   2
#     4  11  26  50  76  97 143 195 240 301 345 419
#     4  10  20  41  67 100 151 183 227 287 355 422
#     4  10  21  39  69 104 139 185 231 294 346 419
#     4  11  24  42  71 103 139 196 235 286 361 420
#     4  11  24  47  70 105 142 185 241 294 349 416
#     4  11  24  44  69 107 148 182 231 299 355 424
#
# _framework density 25.514004
#
# number of rings (size 3 to 8) (size 9 to 14) (size 15 to 20)
#    0.000    1.333    3.333    1.500    2.333    3.333 
#    9.000    0.000    0.000    0.000    0.000    0.000 
#    0.000    0.000    0.000    0.000    0.000    0.000 
#
# Total GULP energy -148689.084185 kJ/mol
# GULP energy per Si atom -12390.757015 kJ/mol
# Density = 2.545593 g / cm^3
# Si number density = 25.514004 Si / 1000 Ang^3
#
#
#
# Elastic Constant Matrix: (Units=GPa)
#
#
# Indices 1 2 3 4 5 6 
#
# 1 190.5257 23.3966 70.0466 16.3800 -14.0465 -17.6519
# 2 23.3966 35.5051 6.4069 5.4559 -7.0726 -3.9651
# 3 70.0466 6.4069 186.5220 28.8771 -7.8715 -13.6743
# 4 16.3800 5.4559 28.8771 33.6623 -6.8559 -4.8034
# 5 -14.0465 -7.0726 -7.8715 -6.8559 65.3749 -1.3498
# 6 -17.6519 -3.9651 -13.6743 -4.8034 -1.3498 36.9299
#
#
#
# Elastic Compliance Matrix: (Units=1/GPa)
#
#
# Indices 1 2 3 4 5 6 
#
# 1 0.006774 -0.003626 -0.002177 -0.000389 0.000802 0.002021
# 2 -0.003626 0.031577 0.001047 -0.003518 0.002429 0.001676
# 3 -0.002177 0.001047 0.006985 -0.004960 -0.000013 0.001012
# 4 -0.000389 -0.003518 -0.004960 0.035608 0.002721 0.002331
# 5 0.000802 0.002429 -0.000013 0.002721 0.016048 0.001580
# 6 0.002021 0.001676 0.001012 0.002331 0.001580 0.028960
#
#
# Mechanical properties :
#
#
# Convention : Reuss Voigt Hill
#
# Bulk Modulus (GPa) = 27.91442 68.02809 47.97125
# Shear Modulus (GPa) = 33.92017 48.04025 40.98021
#
# Velocity S-wave (km/s) = 3.65015 4.34394 4.01207
# Velocity P-wave (km/s) = 5.35998 7.20283 6.34863
#
# Compressibility (1/GPa) = 0.03582378
#
# Stress axis : x y z
#
# Youngs Moduli (GPa) = 147.61995 31.66873 143.17337
#
# Poissons Ratio (x) = 0.11482 0.31171
# Poissons Ratio (y) = 0.53523 -0.14990
# Poissons Ratio (z) = 0.32139 -0.03316
#
# Static dielectric constant tensor:
#      x y z
#    x 5.058600 -0.202960 -0.023810 
#    y -0.202960 4.321120 0.238870 
#    z -0.023810 0.238870 5.013020 
# 
# 
# High freq. dielectric constant tensor:
#      x y z
#    x 2.037540 -0.020240 -0.001130 
#    y -0.020240 1.992110 0.006510 
#    z -0.001130 0.006510 2.040890 
# 
# From -- ./inp_files/61301.got.cif
#   From: 2010.06.25/outbox.cif.g09.slc.cpg/sg2_31_cif.got.tgz:61301.got - 2010.06.27 13:26:56.
