data_PCOD8007541
_publ_section_title
;
Structure prediction by ZEFSAII (Michael W. Deem and Ramdas Pophale) SiO2 
 PCOD8007541
Probable space group: P -1
;
_chemical_formula_sum "Si O2"
_cell_formula_units_Z 16
_cell_length_a 7.853204
_cell_length_b 19.020585
_cell_length_c 24.354248
_cell_angle_alpha 20.761083
_cell_angle_beta 34.477831
_cell_angle_gamma 43.387473
_cell_volume 712.138273
_symmetry_space_group_name_H-M "P -1"
_symmetry_group_IT_number 2
_symmetry_cell_setting 'triclinic'
loop_
_space_group_symop_operation_xyz
x,y,z
-x,-y,-z
loop_
_atom_site_type_symbol
_atom_site_label
_atom_site_fract_x
_atom_site_fract_y
_atom_site_fract_z
Si Si1 0.805543 0.819934 0.628096
Si Si2 0.133754 0.407391 0.448553
Si Si3 0.718611 0.425473 0.454154
Si Si4 0.797511 0.430780 0.052330
Si Si5 0.335692 0.149671 0.237367
Si Si6 0.888153 0.764870 0.301925
Si Si7 0.831461 0.521288 0.183468
Si Si8 0.978975 0.210101 0.966230
O O1 0.506861 0.740080 0.727553
O O2 0.673080 0.912989 0.649946
O O3 0.993417 0.644027 0.717740
O O4 0.030134 0.000102 0.402553
O O5 0.048549 0.269356 0.625753
O O6 0.487574 0.418388 0.331737
O O7 0.932201 0.311127 0.518719
O O8 0.064467 0.630208 0.316040
O O9 0.500000 0.500000 0.500000
O O10 0.485913 0.287449 0.572899
O O11 0.956616 0.615491 0.224351
O O12 0.673000 0.618151 0.926072
O O13 0.000000 0.500000 0.000000
O O14 0.995994 0.363773 0.999482
O O15 0.627316 0.133401 0.135830
O O16 0.050157 0.002098 0.074663
O O17 0.815765 0.696483 0.104284
#
# Coordination Sequence:
#
# PCOD8007541 Si02
#       8
#     2   2   2   2   2   2   2   2
#     4  10  20  41  65  86 126 164 213 263 325 378
#     4  10  22  43  66  95 135 169 222 273 332 387
#     4  10  24  45  65  93 136 172 217 280 331 381
#     4  11  23  40  62  92 135 163 210 272 326 382
#     4  10  21  37  65  91 115 169 214 259 318 390
#     4  10  23  44  66  97 131 175 217 277 330 391
#     4  11  21  40  66  91 124 176 215 269 322 395
#     4  12  22  40  72  95 129 176 228 263 333 396
#
# _framework density 22.467547
#
# number of rings (size 3 to 8) (size 9 to 14) (size 15 to 20)
#    0.000    1.500    3.750    1.500    1.750    3.000 
#    2.250    0.000    0.000    0.000    0.000    0.000 
#    0.000    0.000    0.000    0.000    0.000    0.000 
#
# Total GULP energy -198224.975467 kJ/mol
# GULP energy per Si atom -12389.060967 kJ/mol
# Density = 2.241641 g / cm^3
# Si number density = 22.467547 Si / 1000 Ang^3
#
#
#
# Elastic Constant Matrix: (Units=GPa)
#
#
# Indices 1 2 3 4 5 6 
#
# 1 113.6714 10.5367 22.0369 3.5774 -13.5835 -0.0169
# 2 10.5367 51.5471 7.5042 9.1313 -4.9516 0.4733
# 3 22.0369 7.5042 90.7625 11.9715 -19.1526 5.9144
# 4 3.5774 9.1313 11.9715 38.6131 0.3211 -8.3755
# 5 -13.5835 -4.9516 -19.1526 0.3211 31.1675 8.4143
# 6 -0.0169 0.4733 5.9144 -8.3755 8.4143 22.4926
#
#
#
# Elastic Compliance Matrix: (Units=1/GPa)
#
#
# Indices 1 2 3 4 5 6 
#
# 1 0.009610 -0.001358 -0.001387 -0.000388 0.003399 -0.001015
# 2 -0.001358 0.021132 0.000614 -0.006081 0.004428 -0.004528
# 3 -0.001387 0.000614 0.015626 -0.007456 0.012275 -0.011491
# 4 -0.000388 -0.006081 -0.007456 0.033871 -0.011162 0.018876
# 5 0.003399 0.004428 0.012275 -0.011162 0.048882 -0.025761
# 6 -0.001015 -0.004528 -0.011491 0.018876 -0.025761 0.064241
#
#
# Mechanical properties :
#
#
# Convention : Reuss Voigt Hill
#
# Bulk Modulus (GPa) = 23.74900 37.34851 30.54876
# Shear Modulus (GPa) = 23.62296 32.84818 28.23557
#
# Velocity S-wave (km/s) = 3.24609 3.82780 3.54888
# Velocity P-wave (km/s) = 4.96415 6.01626 5.51535
#
# Compressibility (1/GPa) = 0.04210703
#
# Stress axis : x y z
#
# Youngs Moduli (GPa) = 104.05658 47.32156 63.99564
#
# Poissons Ratio (x) = 0.06426 0.08873
# Poissons Ratio (y) = 0.14131 -0.03929
# Poissons Ratio (z) = 0.14428 -0.02905
#
# Static dielectric constant tensor:
#      x y z
#    x 1.103940 -0.243340 -1.259440 
#    y -0.243340 4.003750 0.102000 
#    z -1.259440 0.102000 4.025880 
# 
# 
# High freq. dielectric constant tensor:
#      x y z
#    x 1.872530 0.009710 -0.019510 
#    y 0.009710 1.873700 0.015770 
#    z -0.019510 0.015770 1.885190 
# 
# From -- ./inp_files/617502.got.cif
#   From: 2010.06.25/outbox.cif.g09.slc.cpg/sg2_309_cif.got.tgz:617502.got - 2010.06.27 13:26:56.
