data_PCOD8007112
_publ_section_title
;
Structure prediction by ZEFSAII (Michael W. Deem and Ramdas Pophale) SiO2 
 PCOD8007112
Probable space group: P -1
;
_chemical_formula_sum "Si O2"
_cell_formula_units_Z 16
_cell_length_a 13.868521
_cell_length_b 8.313100
_cell_length_c 11.786191
_cell_angle_alpha 89.136553
_cell_angle_beta 98.189680
_cell_angle_gamma 33.483813
_cell_volume 719.379900
_symmetry_space_group_name_H-M "P -1"
_symmetry_group_IT_number 2
_symmetry_cell_setting 'triclinic'
loop_
_space_group_symop_operation_xyz
x,y,z
-x,-y,-z
loop_
_atom_site_type_symbol
_atom_site_label
_atom_site_fract_x
_atom_site_fract_y
_atom_site_fract_z
Si Si1 0.791312 0.620946 0.509413
Si Si2 0.835023 0.956755 0.758760
Si Si3 0.563800 0.888153 0.672434
Si Si4 0.747332 0.789448 0.896265
Si Si5 0.513844 0.295362 0.033423
Si Si6 0.491416 0.641045 0.717471
Si Si7 0.170644 0.067593 0.509964
Si Si8 0.116612 0.702663 0.960335
O O1 0.740106 0.700877 0.632498
O O2 0.821259 0.755332 0.460946
O O3 0.979332 0.261572 0.522572
O O4 0.621952 0.775790 0.412751
O O5 0.848133 0.764869 0.823502
O O6 0.811817 0.986999 0.619709
O O7 0.015942 0.805241 0.822960
O O8 0.654630 0.291591 0.775274
O O9 0.583460 0.924990 0.802878
O O10 0.565452 0.692904 0.662147
O O11 0.887916 0.456199 0.965088
O O12 0.666951 0.995972 0.987489
O O13 0.582225 0.189933 0.176128
O O14 0.500000 0.500000 0.000000
O O15 0.321409 0.475943 0.976760
O O16 0.338170 0.761215 0.615181
O O17 0.000000 0.000000 0.000000
#
# Coordination Sequence:
#
# PCOD8007112 Si02
#       8
#     2   2   2   2   2   2   2   2
#     4   9  20  39  62  98 129 175 225 282 335 400
#     4  12  24  44  66 101 138 177 230 280 339 405
#     4  10  20  40  67  92 135 174 226 278 342 399
#     4  12  24  42  71 102 134 187 224 278 347 409
#     4  12  25  46  68  98 139 182 228 281 340 404
#     4  11  23  45  64  94 142 183 221 284 338 397
#     4  10  22  40  68  97 130 176 229 279 336 403
#     4  12  25  46  68 102 137 178 229 284 342 408
#
# _framework density 22.241378000000001
#
# number of rings (size 3 to 8) (size 9 to 14) (size 15 to 20)
#    0.000    1.000    5.000    1.125    1.750    2.000 
#    6.750    0.625    0.000    0.000    0.000    0.000 
#    0.000    0.000    0.000    0.000    0.000    0.000 
#
# Total GULP energy -198363.118437 kJ/mol
# GULP energy per Si atom -12397.694902 kJ/mol
# Density = 2.219076 g / cm^3
# Si number density = 22.241378 Si / 1000 Ang^3
#
#
#
# Elastic Constant Matrix: (Units=GPa)
#
#
# Indices 1 2 3 4 5 6 
#
# 1 73.8622 38.6163 37.7001 -9.3351 2.5237 -3.8606
# 2 38.6163 99.1045 50.6116 1.5976 0.8867 -2.2648
# 3 37.7001 50.6116 167.4169 0.2963 26.0516 -11.5570
# 4 -9.3351 1.5976 0.2963 34.9351 0.3615 -2.5866
# 5 2.5237 0.8867 26.0516 0.3615 35.6663 -1.4673
# 6 -3.8606 -2.2648 -11.5570 -2.5866 -1.4673 34.8734
#
#
#
# Elastic Compliance Matrix: (Units=1/GPa)
#
#
# Indices 1 2 3 4 5 6 
#
# 1 0.018680 -0.006137 -0.002356 0.005384 0.000551 0.001311
# 2 -0.006137 0.014192 -0.003362 -0.002356 0.002522 -0.000940
# 3 -0.002356 -0.003362 0.008588 -0.000332 -0.005933 0.002093
# 4 0.005384 -0.002356 -0.000332 0.030367 -0.000282 0.002573
# 5 0.000551 0.002522 -0.005933 -0.000282 0.032256 -0.000405
# 6 0.001311 -0.000940 0.002093 0.002573 -0.000405 0.029627
#
#
# Mechanical properties :
#
#
# Convention : Reuss Voigt Hill
#
# Bulk Modulus (GPa) = 56.33506 66.02662 61.18084
# Shear Modulus (GPa) = 30.61156 35.32535 32.96845
#
# Velocity S-wave (km/s) = 3.71392 3.98964 3.85425
# Velocity P-wave (km/s) = 6.61626 7.13959 6.88290
#
# Compressibility (1/GPa) = 0.01775093
#
# Stress axis : x y z
#
# Youngs Moduli (GPa) = 53.53323 70.45985 116.43863
#
# Poissons Ratio (x) = 0.43244 0.27431
# Poissons Ratio (y) = 0.32855 0.39143
# Poissons Ratio (z) = 0.12612 0.23686
#
# Static dielectric constant tensor:
#      x y z
#    x 4.103040 -0.088890 0.182260 
#    y -0.088890 3.916410 -0.175940 
#    z 0.182260 -0.175940 4.219470 
# 
# 
# High freq. dielectric constant tensor:
#      x y z
#    x 1.870970 -0.004250 0.010070 
#    y -0.004250 1.859230 -0.005290 
#    z 0.010070 -0.005290 1.889690 
# 
# From -- ./inp_files/223593.got.cif
#   From: 2010.06.25/outbox.cif.g09.slc.cpg/sg2_112_cif.got.tgz:223593.got - 2010.06.27 13:26:56.
