data_PCOD8007001
_publ_section_title
;
Structure prediction by ZEFSAII (Michael W. Deem and Ramdas Pophale) SiO2 
 PCOD8007001
Probable space group: P -1
;
_chemical_formula_sum "Si O2"
_cell_formula_units_Z 16
_cell_length_a 19.729071
_cell_length_b 12.101125
_cell_length_c 8.422525
_cell_angle_alpha 75.347155
_cell_angle_beta 136.980167
_cell_angle_gamma 138.222919
_cell_volume 700.010066
_symmetry_space_group_name_H-M "P -1"
_symmetry_group_IT_number 2
_symmetry_cell_setting 'triclinic'
loop_
_space_group_symop_operation_xyz
x,y,z
-x,-y,-z
loop_
_atom_site_type_symbol
_atom_site_label
_atom_site_fract_x
_atom_site_fract_y
_atom_site_fract_z
Si Si1 0.879359 0.956312 0.185554
Si Si2 0.635204 0.061245 0.416117
Si Si3 0.133748 0.800035 0.944959
Si Si4 0.698171 0.644332 0.737034
Si Si5 0.042368 0.576467 0.368178
Si Si6 0.689452 0.380013 0.848937
Si Si7 0.499341 0.163958 0.270212
Si Si8 0.477965 0.567664 0.799442
O O1 0.958740 0.162860 0.227145
O O2 0.868178 0.885565 0.016898
O O3 0.666849 0.757646 0.952515
O O4 0.000000 0.000000 0.500000
O O5 0.604344 0.162944 0.369329
O O6 0.746842 0.167321 0.399188
O O7 0.430099 0.798935 0.148264
O O8 0.771461 0.131199 0.748310
O O9 0.974664 0.549473 0.732647
O O10 0.275112 0.923270 0.990719
O O11 0.500000 0.500000 0.500000
O O12 0.721036 0.541602 0.890866
O O13 0.696824 0.636843 0.543432
O O14 0.000000 0.500000 0.500000
O O15 0.888585 0.522425 0.088335
O O16 0.555835 0.234311 0.523769
O O17 0.551767 0.334952 0.210709
O O18 0.500000 0.500000 0.000000
#
# Coordination Sequence:
#
# PCOD8007001 Si02
#       8
#     2   2   2   2   2   2   2   2
#     4  10  22  39  63  92 126 169 214 263 321 372
#     4  11  20  40  68  89 117 173 208 251 328 390
#     4  10  20  41  63  88 127 164 213 264 310 389
#     4   9  19  40  67  87 123 174 214 254 322 384
#     4  12  26  38  58  98 131 158 206 268 326 376
#     4  10  20  40  66  91 127 158 211 266 312 383
#     4   9  17  36  65  88 117 164 210 259 309 380
#     4   9  19  37  61  91 124 164 215 264 309 385
#
# _framework density 22.856812000000001
#
# number of rings (size 3 to 8) (size 9 to 14) (size 15 to 20)
#    0.000    2.000    2.500    3.375    1.750    1.500 
#    4.500    5.625    0.000    0.000    0.000    0.000 
#    0.000    0.000    0.000    0.000    0.000    0.000 
#
# Total GULP energy -198257.686624 kJ/mol
# GULP energy per Si atom -12391.105414 kJ/mol
# Density = 2.280479 g / cm^3
# Si number density = 22.856812 Si / 1000 Ang^3
#
#
#
# Elastic Constant Matrix: (Units=GPa)
#
#
# Indices 1 2 3 4 5 6 
#
# 1 79.1486 63.2537 23.9005 -3.5765 11.9396 -17.3818
# 2 63.2537 117.1558 28.6489 -22.8276 20.6538 -13.8511
# 3 23.9005 28.6489 58.6758 -13.8500 4.4952 -16.9658
# 4 -3.5765 -22.8276 -13.8500 41.0205 3.4121 10.6525
# 5 11.9396 20.6538 4.4952 3.4121 27.9539 -6.5755
# 6 -17.3818 -13.8511 -16.9658 10.6525 -6.5755 48.8027
#
#
#
# Elastic Compliance Matrix: (Units=1/GPa)
#
#
# Indices 1 2 3 4 5 6 
#
# 1 0.026032 -0.014610 -0.004070 -0.009050 0.002863 0.006071
# 2 -0.014610 0.020554 -0.001657 0.011548 -0.011019 -0.003951
# 3 -0.004070 -0.001657 0.022031 0.004963 -0.000093 0.004643
# 4 -0.009050 0.011548 0.004963 0.034533 -0.011396 -0.007293
# 5 0.002863 -0.011019 -0.000093 -0.011396 0.045625 0.006495
# 6 0.006071 -0.003951 0.004643 -0.007293 0.006495 0.025613
#
#
# Mechanical properties :
#
#
# Convention : Reuss Voigt Hill
#
# Bulk Modulus (GPa) = 35.78763 54.06515 44.92639
# Shear Modulus (GPa) = 22.28387 32.83389 27.55888
#
# Velocity S-wave (km/s) = 3.12578 3.79424 3.47611
# Velocity P-wave (km/s) = 5.35898 6.54982 5.98410
#
# Compressibility (1/GPa) = 0.02794261
#
# Stress axis : x y z
#
# Youngs Moduli (GPa) = 38.41447 48.65140 45.39025
#
# Poissons Ratio (x) = 0.71079 0.18475
# Poissons Ratio (y) = 0.56123 0.07523
# Poissons Ratio (z) = 0.15636 0.08063
#
# Static dielectric constant tensor:
#      x y z
#    x 3.853400 0.103940 -0.435680 
#    y 0.103940 4.765190 0.239050 
#    z -0.435680 0.239050 3.561510 
# 
# 
# High freq. dielectric constant tensor:
#      x y z
#    x 1.887490 -0.017700 0.010390 
#    y -0.017700 1.901920 -0.007800 
#    z 0.010390 -0.007800 1.892490 
# 
# From -- ./inp_files/346112.got.cif
#   From: 2010.06.25/outbox.cif.g09.slc.cpg/sg2_174_cif.got.tgz:346112.got - 2010.06.27 13:26:56.
