data_PCOD8007034
_publ_section_title
;
Structure prediction by ZEFSAII (Michael W. Deem and Ramdas Pophale) SiO2 
 PCOD8007034
Probable space group: P -1
;
_chemical_formula_sum "Si O2"
_cell_formula_units_Z 16
_cell_length_a 11.955214
_cell_length_b 9.522317
_cell_length_c 13.967248
_cell_angle_alpha 70.767528
_cell_angle_beta 29.423623
_cell_angle_gamma 78.251926
_cell_volume 725.545784
_symmetry_space_group_name_H-M "P -1"
_symmetry_group_IT_number 2
_symmetry_cell_setting 'triclinic'
loop_
_space_group_symop_operation_xyz
x,y,z
-x,-y,-z
loop_
_atom_site_type_symbol
_atom_site_label
_atom_site_fract_x
_atom_site_fract_y
_atom_site_fract_z
Si Si1 0.612305 0.220143 0.935220
Si Si2 0.685145 0.279084 0.085993
Si Si3 0.603324 0.608569 0.100274
Si Si4 0.359354 0.091051 0.517033
Si Si5 0.192902 0.991224 0.281738
Si Si6 0.789631 0.672837 0.286436
Si Si7 0.403086 0.657830 0.430971
Si Si8 0.031626 0.832329 0.734385
O O1 0.483693 0.341403 0.949956
O O2 0.811390 0.174551 0.726014
O O3 0.711659 0.278457 0.950907
O O4 0.445097 0.059909 0.120627
O O5 0.596081 0.431100 0.144332
O O6 0.500870 0.142815 0.301438
O O7 0.936202 0.272881 0.945906
O O8 0.422975 0.645261 0.305351
O O9 0.861206 0.682117 0.932039
O O10 0.304946 0.239553 0.575494
O O11 0.500000 0.000000 0.500000
O O12 0.119334 0.973914 0.706375
O O13 0.000000 0.000000 0.500000
O O14 0.153483 0.112960 0.207035
O O15 0.653793 0.702658 0.284455
O O16 0.740937 0.495515 0.384421
O O17 0.259317 0.791298 0.524753
#
# Coordination Sequence:
#
# PCOD8007034 Si02
#       8
#     2   2   2   2   2   2   2   2
#     4  10  23  41  65 103 133 171 232 274 333 407
#     4  12  25  44  69  97 142 178 220 286 341 391
#     4  11  24  43  71  96 135 183 224 276 339 397
#     4  12  26  44  65 102 138 174 226 282 339 401
#     4  10  20  40  66  94 134 178 217 276 337 391
#     4  11  25  43  68  98 134 177 228 277 341 403
#     4  11  23  43  68  98 133 177 230 276 329 411
#     4  11  23  41  67  98 132 172 228 271 335 406
#
# _framework density 22.052365000000002
#
# number of rings (size 3 to 8) (size 9 to 14) (size 15 to 20)
#    0.000    1.000    3.750    2.625    1.750    4.000 
#    0.000    0.625    0.000    0.000    0.000    0.000 
#    0.000    0.000    0.000    0.000    0.000    0.000 
#
# Total GULP energy -198274.444752 kJ/mol
# GULP energy per Si atom -12392.152797 kJ/mol
# Density = 2.200217 g / cm^3
# Si number density = 22.052365 Si / 1000 Ang^3
#
#
#
# Elastic Constant Matrix: (Units=GPa)
#
#
# Indices 1 2 3 4 5 6 
#
# 1 85.0008 24.6326 24.2572 -1.7064 -3.7440 3.1883
# 2 24.6326 99.9849 24.0825 8.9312 -5.5152 3.8770
# 3 24.2572 24.0825 64.8326 3.5101 1.4009 -0.7096
# 4 -1.7064 8.9312 3.5101 35.8131 5.3246 -1.9534
# 5 -3.7440 -5.5152 1.4009 5.3246 28.4604 5.7727
# 6 3.1883 3.8770 -0.7096 -1.9534 5.7727 34.0278
#
#
#
# Elastic Compliance Matrix: (Units=1/GPa)
#
#
# Indices 1 2 3 4 5 6 
#
# 1 0.013854 -0.002325 -0.004443 0.001365 0.001603 -0.001319
# 2 -0.002325 0.011964 -0.003484 -0.003336 0.003204 -0.001953
# 3 -0.004443 -0.003484 0.018488 -0.000720 -0.002350 0.001556
# 4 0.001365 -0.003336 -0.000720 0.030053 -0.006682 0.003096
# 5 0.001603 0.003204 -0.002350 -0.006682 0.038864 -0.007541
# 6 -0.001319 -0.001953 0.001556 0.003096 -0.007541 0.031223
#
#
# Mechanical properties :
#
#
# Convention : Reuss Voigt Hill
#
# Bulk Modulus (GPa) = 42.01467 43.97365 42.99416
# Shear Modulus (GPa) = 28.92132 31.45000 30.18566
#
# Velocity S-wave (km/s) = 3.62537 3.78054 3.70377
# Velocity P-wave (km/s) = 6.05128 6.24824 6.15055
#
# Compressibility (1/GPa) = 0.02380121
#
# Stress axis : x y z
#
# Youngs Moduli (GPa) = 72.18247 83.58374 54.09043
#
# Poissons Ratio (x) = 0.19437 0.24030
# Poissons Ratio (y) = 0.16785 0.18846
# Poissons Ratio (z) = 0.32068 0.29121
#
# Static dielectric constant tensor:
#      x y z
#    x 3.897990 0.212740 -0.200430 
#    y 0.212740 4.895640 -0.261830 
#    z -0.200430 -0.261830 3.925600 
# 
# 
# High freq. dielectric constant tensor:
#      x y z
#    x 1.864330 -0.001770 -0.008880 
#    y -0.001770 1.881270 0.006350 
#    z -0.008880 0.006350 1.859040 
# 
# From -- ./inp_files/46653.got.cif
#   From: 2010.06.25/outbox.cif.g09.slc.cpg/sg2_24_cif.got.tgz:46653.got - 2010.06.27 13:26:56.
