data_PCOD8007012
_publ_section_title
;
Structure prediction by ZEFSAII (Michael W. Deem and Ramdas Pophale) SiO2 
 PCOD8007012
Probable space group: P -1
;
_chemical_formula_sum "Si O2"
_cell_formula_units_Z 16
_cell_length_a 8.382117
_cell_length_b 26.276500
_cell_length_c 9.603479
_cell_angle_alpha 127.109405
_cell_angle_beta 134.774112
_cell_angle_gamma 25.548181
_cell_volume 644.002791
_symmetry_space_group_name_H-M "P -1"
_symmetry_group_IT_number 2
_symmetry_cell_setting 'triclinic'
loop_
_space_group_symop_operation_xyz
x,y,z
-x,-y,-z
loop_
_atom_site_type_symbol
_atom_site_label
_atom_site_fract_x
_atom_site_fract_y
_atom_site_fract_z
Si Si1 0.494054 0.856039 0.517605
Si Si2 0.589963 0.983988 0.191278
Si Si3 0.735173 0.506920 0.693275
Si Si4 0.433956 0.752582 0.143480
Si Si5 0.862806 0.304735 0.139829
Si Si6 0.742298 0.290217 0.452760
Si Si7 0.070761 0.224175 0.846656
Si Si8 0.711468 0.169792 0.097036
O O1 0.249449 0.981835 0.604549
O O2 0.237176 0.858457 0.290672
O O3 0.718183 0.770636 0.649855
O O4 0.853948 0.784100 0.507450
O O5 0.928669 0.849844 0.227153
O O6 0.185319 0.057498 0.150183
O O7 0.500000 0.000000 0.000000
O O8 0.500000 0.500000 0.500000
O O9 0.568988 0.569068 0.845940
O O10 0.656408 0.577694 0.640321
O O11 0.220908 0.372720 0.773043
O O12 0.594785 0.739572 0.072368
O O13 0.071153 0.787978 0.943956
O O14 0.852647 0.319417 0.992004
O O15 0.799546 0.294782 0.656628
O O16 0.665058 0.232739 0.296067
O O17 0.543958 0.140049 0.989435
#
# Coordination Sequence:
#
# PCOD8007012 Si02
#       8
#     2   2   2   2   2   2   2   2
#     4  10  20  40  66  92 128 162 222 262 307 389
#     4  11  22  44  68  97 130 170 219 267 317 389
#     4  11  20  40  72  94 124 176 219 262 321 387
#     4  12  20  41  73  90 126 175 215 265 323 375
#     4  11  23  40  64  98 128 166 220 266 310 390
#     4  10  22  41  61  96 131 163 220 260 316 391
#     4  12  24  44  65  91 141 169 205 276 329 370
#     4  11  23  41  66  95 133 173 213 261 328 386
#
# _framework density 24.844612999999999
#
# number of rings (size 3 to 8) (size 9 to 14) (size 15 to 20)
#    0.000    1.000    8.750    0.750    0.000    3.000 
#    2.250    4.375    0.000    0.000    0.000    0.000 
#    0.000    0.000    0.000    0.000    0.000    0.000 
#
# Total GULP energy -198263.688265 kJ/mol
# GULP energy per Si atom -12391.480517 kJ/mol
# Density = 2.478807 g / cm^3
# Si number density = 24.844613 Si / 1000 Ang^3
#
#
#
# Elastic Constant Matrix: (Units=GPa)
#
#
# Indices 1 2 3 4 5 6 
#
# 1 78.1318 4.5383 51.2789 12.6438 -0.9733 8.9341
# 2 4.5383 92.1609 33.9809 17.1558 -15.4296 2.5154
# 3 51.2789 33.9809 179.0312 14.0279 -15.5596 4.1445
# 4 12.6438 17.1558 14.0279 31.0815 5.5941 -6.3973
# 5 -0.9733 -15.4296 -15.5596 5.5941 61.4190 1.7384
# 6 8.9341 2.5154 4.1445 -6.3973 1.7384 22.6842
#
#
#
# Elastic Compliance Matrix: (Units=1/GPa)
#
#
# Indices 1 2 3 4 5 6 
#
# 1 0.018302 0.002941 -0.004807 -0.008964 0.000889 -0.009252
# 2 0.002941 0.014217 -0.002287 -0.009861 0.004090 -0.005411
# 3 -0.004807 -0.002287 0.007514 -0.000277 0.001261 0.000599
# 4 -0.008964 -0.009861 -0.000277 0.046507 -0.007445 0.018361
# 5 0.000889 0.004090 0.001261 -0.007445 0.018449 -0.004548
# 6 -0.009252 -0.005411 0.000599 0.018361 -0.004548 0.053745
#
#
# Mechanical properties :
#
#
# Convention : Reuss Voigt Hill
#
# Bulk Modulus (GPa) = 31.51841 58.76891 45.14366
# Shear Modulus (GPa) = 28.15052 40.33867 34.24460
#
# Velocity S-wave (km/s) = 3.36975 4.03381 3.71664
# Velocity P-wave (km/s) = 5.27769 6.73806 6.05209
#
# Compressibility (1/GPa) = 0.03172749
#
# Stress axis : x y z
#
# Youngs Moduli (GPa) = 54.63796 70.33668 133.08583
#
# Poissons Ratio (x) = -0.20686 0.63969
# Poissons Ratio (y) = -0.16069 0.30443
# Poissons Ratio (z) = 0.26262 0.16089
#
# Static dielectric constant tensor:
#      x y z
#    x 4.393730 0.404710 -0.152130 
#    y 0.404710 2.825040 1.210470 
#    z -0.152130 1.210470 4.608930 
# 
# 
# High freq. dielectric constant tensor:
#      x y z
#    x 1.984840 -0.009480 0.012530 
#    y -0.009480 1.975170 0.012880 
#    z 0.012530 0.012880 2.018890 
# 
# From -- ./inp_files/202301.got.cif
#   From: 2010.06.25/outbox.cif.g09.slc.cpg/sg2_102_cif.got.tgz:202301.got - 2010.06.27 13:26:56.
