data_PCOD8007505
_publ_section_title
;
Structure prediction by ZEFSAII (Michael W. Deem and Ramdas Pophale) SiO2 
 PCOD8007505
Probable space group: P -1
;
_chemical_formula_sum "Si O2"
_cell_formula_units_Z 16
_cell_length_a 13.486497
_cell_length_b 13.265584
_cell_length_c 7.699295
_cell_angle_alpha 105.688871
_cell_angle_beta 42.377485
_cell_angle_gamma 125.370877
_cell_volume 725.422983
_symmetry_space_group_name_H-M "P -1"
_symmetry_group_IT_number 2
_symmetry_cell_setting 'triclinic'
loop_
_space_group_symop_operation_xyz
x,y,z
-x,-y,-z
loop_
_atom_site_type_symbol
_atom_site_label
_atom_site_fract_x
_atom_site_fract_y
_atom_site_fract_z
Si Si1 0.397446 0.052847 0.880601
Si Si2 0.818903 0.926300 0.310887
Si Si3 0.932838 0.681681 0.516523
Si Si4 0.517190 0.248177 0.541223
Si Si5 0.254706 0.190517 0.299131
Si Si6 0.213308 0.843761 0.523531
Si Si7 0.416288 0.577470 0.141495
Si Si8 0.818237 0.232351 0.075769
O O1 0.448245 0.108880 0.646486
O O2 0.590673 0.123688 0.762324
O O3 0.297616 0.902091 0.938596
O O4 0.256186 0.078918 0.150611
O O5 0.648186 0.791192 0.389298
O O6 0.854887 0.872896 0.411673
O O7 0.768716 0.024514 0.463506
O O8 0.000000 0.000000 0.000000
O O9 0.841839 0.759777 0.667352
O O10 0.795604 0.529192 0.672409
O O11 0.080049 0.740138 0.504804
O O12 0.000646 0.682020 0.233859
O O13 0.549540 0.352929 0.685579
O O14 0.710037 0.297927 0.228897
O O15 0.470324 0.310299 0.098418
O O16 0.143126 0.783079 0.780017
O O17 0.500000 0.500000 0.000000
#
# Coordination Sequence:
#
# PCOD8007505 Si02
#       8
#     2   2   2   2   2   2   2   2
#     4  10  20  41  64  92 135 169 203 257 332 393
#     4  12  24  36  65 103 128 159 212 265 331 387
#     4  11  25  42  65  94 129 173 223 266 302 378
#     4  10  21  41  65  91 132 168 203 269 323 378
#     4  10  24  42  64  92 130 173 210 260 323 378
#     4  11  23  39  66  98 133 167 207 265 327 383
#     4   9  22  47  63  83 127 176 218 262 313 370
#     4  11  21  41  65  98 134 165 211 264 327 381
#
# _framework density 22.056099
#
# number of rings (size 3 to 8) (size 9 to 14) (size 15 to 20)
#    0.000    1.500    2.500    2.250    7.000    2.500 
#    2.250    6.875    0.000    0.000    0.000    0.000 
#    0.000    0.000    0.000    0.000    0.000    0.000 
#
# Total GULP energy -198248.699464 kJ/mol
# GULP energy per Si atom -12390.543716 kJ/mol
# Density = 2.200590 g / cm^3
# Si number density = 22.056099 Si / 1000 Ang^3
#
#
#
# Elastic Constant Matrix: (Units=GPa)
#
#
# Indices 1 2 3 4 5 6 
#
# 1 76.4371 6.3503 23.8318 -9.0541 2.9922 13.2820
# 2 6.3503 74.6094 28.1337 2.9810 2.7400 10.8788
# 3 23.8318 28.1337 117.4172 2.4621 6.4023 -3.2384
# 4 -9.0541 2.9810 2.4621 33.6819 -9.4826 -7.1799
# 5 2.9922 2.7400 6.4023 -9.4826 28.9296 0.9974
# 6 13.2820 10.8788 -3.2384 -7.1799 0.9974 27.0552
#
#
#
# Elastic Compliance Matrix: (Units=1/GPa)
#
#
# Indices 1 2 3 4 5 6 
#
# 1 0.015876 0.001111 -0.003783 0.002833 0.000293 -0.007952
# 2 0.001111 0.016289 -0.004218 -0.003015 -0.001425 -0.008348
# 3 -0.003783 -0.004218 0.010554 -0.001001 -0.002033 0.004626
# 4 0.002833 -0.003015 -0.001001 0.035964 0.011698 0.008814
# 5 0.000293 -0.001425 -0.002033 0.011698 0.038892 0.001857
# 6 -0.007952 -0.008348 0.004626 0.008814 0.001857 0.047046
#
#
# Mechanical properties :
#
#
# Convention : Reuss Voigt Hill
#
# Bulk Modulus (GPa) = 34.55503 42.78836 38.67169
# Shear Modulus (GPa) = 26.58906 31.94321 29.26613
#
# Velocity S-wave (km/s) = 3.47583 3.80974 3.64661
# Velocity P-wave (km/s) = 5.63998 6.22849 5.94153
#
# Compressibility (1/GPa) = 0.02893935
#
# Stress axis : x y z
#
# Youngs Moduli (GPa) = 62.98889 61.39124 94.74651
#
# Poissons Ratio (x) = -0.06820 0.35844
# Poissons Ratio (y) = -0.06997 0.39961
# Poissons Ratio (z) = 0.23829 0.25893
#
# Static dielectric constant tensor:
#      x y z
#    x 3.925400 -0.051840 -0.174290 
#    y -0.051840 4.674620 -0.272660 
#    z -0.174290 -0.272660 4.445660 
# 
# 
# High freq. dielectric constant tensor:
#      x y z
#    x 1.845580 0.001690 -0.011860 
#    y 0.001690 1.858490 0.004450 
#    z -0.011860 0.004450 1.883870 
# 
# From -- ./inp_files/313647.got.cif
#   From: 2010.06.25/outbox.cif.g09.slc.cpg/sg2_157_cif.got.tgz:313647.got - 2010.06.27 13:26:56.
