data_PCOD8007629
_publ_section_title
;
Structure prediction by ZEFSAII (Michael W. Deem and Ramdas Pophale) SiO2 
 PCOD8007629
Probable space group: P -1
;
_chemical_formula_sum "Si O2"
_cell_formula_units_Z 14
_cell_length_a 9.576863
_cell_length_b 10.989688
_cell_length_c 13.929382
_cell_angle_alpha 127.533239
_cell_angle_beta 105.844021
_cell_angle_gamma 116.605130
_cell_volume 663.400427
_symmetry_space_group_name_H-M "P -1"
_symmetry_group_IT_number 2
_symmetry_cell_setting 'triclinic'
loop_
_space_group_symop_operation_xyz
x,y,z
-x,-y,-z
loop_
_atom_site_type_symbol
_atom_site_label
_atom_site_fract_x
_atom_site_fract_y
_atom_site_fract_z
Si Si1 0.345675 0.356654 0.304282
Si Si2 0.468631 0.575262 0.232844
Si Si3 0.061654 0.481899 0.774412
Si Si4 0.845536 0.094227 0.051821
Si Si5 0.228572 0.667689 0.189531
Si Si6 0.281937 0.984152 0.628839
Si Si7 0.570925 0.779778 0.030869
O O1 0.500000 0.500000 0.500000
O O2 0.510730 0.557547 0.342126
O O3 0.104623 0.255954 0.219133
O O4 0.261755 0.110401 0.148785
O O5 0.240244 0.500003 0.148081
O O6 0.707815 0.863008 0.370985
O O7 0.394500 0.370960 0.052906
O O8 0.141747 0.725506 0.900848
O O9 0.287699 0.575939 0.901206
O O10 0.824674 0.267565 0.697966
O O11 0.964495 0.324668 0.581347
O O12 0.659922 0.948789 0.036257
O O13 0.478070 0.919873 0.299846
O O14 0.000000 0.500000 0.000000
O O15 0.269963 0.036084 0.759222
#
# Coordination Sequence:
#
# PCOD8007629 Si02
#       7
#     2   2   2   2   2   2   2
#     4  10  21  42  68  92 123 168 213 261 320 361
#     4   9  21  42  63  93 128 156 218 266 301 383
#     4  12  22  41  61  92 131 163 211 259 314 376
#     4  10  23  41  61  93 131 161 216 265 296 391
#     4  10  20  41  66  91 122 168 207 263 322 362
#     4  10  23  38  64  92 127 161 209 263 313 379
#     4  11  23  40  63  90 129 173 204 254 328 363
#
# _framework density 21.103391999999999
#
# number of rings (size 3 to 8) (size 9 to 14) (size 15 to 20)
#    0.857    0.857    2.857    1.286    0.000    4.571 
#    2.571    2.857    0.000    0.000    0.000    0.000 
#    0.000    0.000    0.000    0.000    0.000    0.000 
#
# Total GULP energy -173500.808825 kJ/mol
# GULP energy per Si atom -12392.914916 kJ/mol
# Density = 2.105536 g / cm^3
# Si number density = 21.103392 Si / 1000 Ang^3
#
#
#
# Elastic Constant Matrix: (Units=GPa)
#
#
# Indices 1 2 3 4 5 6 
#
# 1 86.1045 16.9195 37.8537 -14.0947 -15.4959 4.7867
# 2 16.9195 50.4653 27.8655 -12.5717 -13.6665 0.6352
# 3 37.8537 27.8655 130.3887 -24.4989 -23.3325 -13.1345
# 4 -14.0947 -12.5717 -24.4989 30.2413 4.1171 0.1267
# 5 -15.4959 -13.6665 -23.3325 4.1171 27.5631 -4.2106
# 6 4.7867 0.6352 -13.1345 0.1267 -4.2106 30.8316
#
#
#
# Elastic Compliance Matrix: (Units=1/GPa)
#
#
# Indices 1 2 3 4 5 6 
#
# 1 0.014599 -0.001297 -0.002869 0.003383 0.004187 -0.002904
# 2 -0.001297 0.025672 -0.002150 0.007085 0.009117 -0.000027
# 3 -0.002869 -0.002150 0.012275 0.006629 0.007753 0.006750
# 4 0.003383 0.007085 0.006629 0.042251 0.005125 0.002679
# 5 0.004187 0.009117 0.007753 0.005125 0.050376 0.009324
# 6 -0.002904 -0.000027 0.006750 0.002679 0.009324 0.037024
#
#
# Mechanical properties :
#
#
# Convention : Reuss Voigt Hill
#
# Bulk Modulus (GPa) = 25.05432 48.02621 36.54026
# Shear Modulus (GPa) = 24.02326 30.01520 27.01923
#
# Velocity S-wave (km/s) = 3.37762 3.77542 3.58205
# Velocity P-wave (km/s) = 5.20663 6.46622 5.87031
#
# Compressibility (1/GPa) = 0.03991328
#
# Stress axis : x y z
#
# Youngs Moduli (GPa) = 68.50014 38.95316 81.46970
#
# Poissons Ratio (x) = 0.05054 0.23370
# Poissons Ratio (y) = 0.08887 0.17515
# Poissons Ratio (z) = 0.19650 0.08374
#
# Static dielectric constant tensor:
#      x y z
#    x 4.088720 0.265940 -0.172780 
#    y 0.265940 3.807050 0.030700 
#    z -0.172780 0.030700 3.559580 
# 
# 
# High freq. dielectric constant tensor:
#      x y z
#    x 1.836900 0.011490 -0.010430 
#    y 0.011490 1.816330 -0.003000 
#    z -0.010430 -0.003000 1.810700 
# 
# From -- ./inp_files/500863.got.cif
#   From: 2010.06.25/outbox.cif.g09.slc.cpg/sg2_251_cif.got.tgz:500863.got - 2010.06.27 13:26:56.
