data_PCOD8007423
_publ_section_title
;
Structure prediction by ZEFSAII (Michael W. Deem and Ramdas Pophale) SiO2 
 PCOD8007423
Probable space group: P -1
;
_chemical_formula_sum "Si O2"
_cell_formula_units_Z 16
_cell_length_a 10.756749
_cell_length_b 8.562643
_cell_length_c 22.633268
_cell_angle_alpha 40.132206
_cell_angle_beta 141.840933
_cell_angle_gamma 136.917862
_cell_volume 785.279046
_symmetry_space_group_name_H-M "P -1"
_symmetry_group_IT_number 2
_symmetry_cell_setting 'triclinic'
loop_
_space_group_symop_operation_xyz
x,y,z
-x,-y,-z
loop_
_atom_site_type_symbol
_atom_site_label
_atom_site_fract_x
_atom_site_fract_y
_atom_site_fract_z
Si Si1 0.258602 0.553716 0.617635
Si Si2 0.489205 0.707045 0.983101
Si Si3 0.781855 0.237159 0.928911
Si Si4 0.599360 0.971764 0.682698
Si Si5 0.835310 0.400445 0.559433
Si Si6 0.754298 0.887733 0.421670
Si Si7 0.756730 0.610319 0.916107
Si Si8 0.368574 0.081544 0.759565
O O1 0.219131 0.689241 0.503122
O O2 0.238187 0.260588 0.682112
O O3 0.090318 0.549285 0.608826
O O4 0.490979 0.715081 0.679281
O O5 0.707638 0.940962 0.009936
O O6 0.318064 0.835928 0.855456
O O7 0.500000 0.500000 0.000000
O O8 0.432400 0.566927 0.064311
O O9 0.764056 0.441821 0.911050
O O10 0.626801 0.237245 0.814829
O O11 0.031518 0.313620 0.985731
O O12 0.774554 0.166400 0.650226
O O13 0.414491 0.086621 0.600265
O O14 0.717002 0.877253 0.807242
O O15 0.706348 0.587043 0.478045
O O16 0.706455 0.016190 0.306202
O O17 0.000000 0.000000 0.500000
#
# Coordination Sequence:
#
# PCOD8007423 Si02
#       8
#     2   2   2   2   2   2   2   2
#     4  10  20  41  63  85 122 156 203 257 297 365
#     4  10  21  40  61  89 126 165 204 249 308 367
#     4   9  22  41  61  89 124 159 212 254 301 362
#     4  12  22  38  61  92 119 160 203 249 306 360
#     4  10  23  39  62  89 119 160 202 250 309 359
#     4  11  22  42  63  87 128 160 203 251 310 370
#     4  11  22  39  65  91 124 163 208 260 298 358
#     4   9  21  42  61  87 124 165 199 252 311 357
#
# _framework density 20.374922000000002
#
# number of rings (size 3 to 8) (size 9 to 14) (size 15 to 20)
#    0.750    1.000    2.500    1.875    0.000    3.500 
#    2.250    1.250    0.000    0.000    0.000    0.000 
#    0.000    0.000    0.000    0.000    0.000    0.000 
#
# Total GULP energy -198213.853390 kJ/mol
# GULP energy per Si atom -12388.365837 kJ/mol
# Density = 2.032855 g / cm^3
# Si number density = 20.374922 Si / 1000 Ang^3
#
#
#
# Elastic Constant Matrix: (Units=GPa)
#
#
# Indices 1 2 3 4 5 6 
#
# 1 68.5554 29.2376 23.9778 -8.9489 -3.5114 4.9801
# 2 29.2376 68.2056 33.9245 5.8150 0.2403 9.3134
# 3 23.9778 33.9245 96.3023 -1.9646 -10.8486 0.5692
# 4 -8.9489 5.8150 -1.9646 45.4384 1.6410 -2.0813
# 5 -3.5114 0.2403 -10.8486 1.6410 32.3935 -6.1800
# 6 4.9801 9.3134 0.5692 -2.0813 -6.1800 22.4606
#
#
#
# Elastic Compliance Matrix: (Units=1/GPa)
#
#
# Indices 1 2 3 4 5 6 
#
# 1 0.019189 -0.007675 -0.001839 0.004625 0.001238 -0.000256
# 2 -0.007675 0.023081 -0.006811 -0.005020 -0.004841 -0.009493
# 3 -0.001839 -0.006811 0.013832 0.001120 0.005273 0.004436
# 4 0.004625 -0.005020 0.001120 0.023749 0.000345 0.003323
# 5 0.001238 -0.004841 0.005273 0.000345 0.034934 0.011243
# 6 -0.000256 -0.009493 0.004436 0.003323 0.011243 0.051805
#
#
# Mechanical properties :
#
#
# Convention : Reuss Voigt Hill
#
# Bulk Modulus (GPa) = 42.64114 45.26033 43.95074
# Shear Modulus (GPa) = 24.14798 29.78673 26.96735
#
# Velocity S-wave (km/s) = 3.44638 3.82767 3.64202
# Velocity P-wave (km/s) = 6.06716 6.46504 6.26925
#
# Compressibility (1/GPa) = 0.02345153
#
# Stress axis : x y z
#
# Youngs Moduli (GPa) = 52.11373 43.32623 72.29648
#
# Poissons Ratio (x) = 0.33252 0.13294
# Poissons Ratio (y) = 0.39996 0.49244
# Poissons Ratio (z) = 0.09583 0.29511
#
# Static dielectric constant tensor:
#      x y z
#    x 2.788880 -0.121010 0.025480 
#    y -0.121010 3.634860 0.046240 
#    z 0.025480 0.046240 3.796810 
# 
# 
# High freq. dielectric constant tensor:
#      x y z
#    x 1.776740 -0.012750 0.009050 
#    y -0.012750 1.790840 -0.000920 
#    z 0.009050 -0.000920 1.799890 
# 
# From -- ./inp_files/617969.got.cif
#   From: 2010.06.25/outbox.cif.g09.slc.cpg/sg2_309_cif.got.tgz:617969.got - 2010.06.27 13:26:56.
