data_PCOD8007338
_publ_section_title
;
Structure prediction by ZEFSAII (Michael W. Deem and Ramdas Pophale) SiO2 
 PCOD8007338
Probable space group: P -1
;
_chemical_formula_sum "Si O2"
_cell_formula_units_Z 16
_cell_length_a 9.401295
_cell_length_b 19.348204
_cell_length_c 14.204609
_cell_angle_alpha 158.315370
_cell_angle_beta 79.075543
_cell_angle_gamma 88.392503
_cell_volume 774.902793
_symmetry_space_group_name_H-M "P -1"
_symmetry_group_IT_number 2
_symmetry_cell_setting 'triclinic'
loop_
_space_group_symop_operation_xyz
x,y,z
-x,-y,-z
loop_
_atom_site_type_symbol
_atom_site_label
_atom_site_fract_x
_atom_site_fract_y
_atom_site_fract_z
Si Si1 0.693785 0.002366 0.752040
Si Si2 0.880661 0.934730 0.824408
Si Si3 0.225267 0.995955 0.720502
Si Si4 0.017220 0.736447 0.741537
Si Si5 0.659100 0.693615 0.908376
Si Si6 0.971307 0.078214 0.497669
Si Si7 0.259018 0.578411 0.257335
Si Si8 0.804908 0.562603 0.097164
O O1 0.717857 0.006939 0.867682
O O2 0.848491 0.984545 0.650807
O O3 0.681213 0.789951 0.460371
O O4 0.512684 0.233349 0.037873
O O5 0.889796 0.800765 0.747554
O O6 0.052975 0.773854 0.536624
O O7 0.871066 0.153048 0.139609
O O8 0.333213 0.732345 0.411464
O O9 0.350317 0.077080 0.775703
O O10 0.105006 0.038100 0.699217
O O11 0.099138 0.180378 0.046912
O O12 0.166770 0.468674 0.381970
O O13 0.658861 0.561335 0.833986
O O14 0.000000 0.000000 0.500000
O O15 0.817727 0.344952 0.861181
O O16 0.275792 0.403600 0.955354
O O17 0.000000 0.500000 0.000000
#
# Coordination Sequence:
#
# PCOD8007338 Si02
#       8
#     2   2   2   2   2   2   2   2
#     4  11  21  38  56  94 118 144 197 249 292 342
#     4   9  16  34  63  82 109 158 198 235 289 348
#     4  10  20  41  60  86 116 157 204 232 277 369
#     4   9  18  36  61  84 110 161 199 230 286 357
#     4  11  24  34  61  90 122 151 192 247 301 331
#     4  10  21  38  62  85 115 156 199 239 283 352
#     4   9  18  38  58  81 114 161 193 231 285 359
#     4   9  17  34  59  78 112 153 194 231 281 349
#
# _framework density 20.647751
#
# number of rings (size 3 to 8) (size 9 to 14) (size 15 to 20)
#    0.000    2.250    5.000    1.125    3.500    1.000 
#    2.250    1.875    0.000    0.000    0.000    0.000 
#    0.000    0.000    0.000    0.000    0.000    0.000 
#
# Total GULP energy -198222.855226 kJ/mol
# GULP energy per Si atom -12388.928452 kJ/mol
# Density = 2.060076 g / cm^3
# Si number density = 20.647751 Si / 1000 Ang^3
#
#
#
# Elastic Constant Matrix: (Units=GPa)
#
#
# Indices 1 2 3 4 5 6 
#
# 1 60.9270 46.6717 33.6726 13.0141 10.5618 -25.3408
# 2 46.6717 140.2632 52.5321 3.7164 4.6057 -38.8570
# 3 33.6726 52.5321 73.3578 7.7603 14.5813 -18.8387
# 4 13.0141 3.7164 7.7603 29.5204 -6.5077 2.0157
# 5 10.5618 4.6057 14.5813 -6.5077 27.0253 5.0539
# 6 -25.3408 -38.8570 -18.8387 2.0157 5.0539 36.2761
#
#
#
# Elastic Compliance Matrix: (Units=1/GPa)
#
#
# Indices 1 2 3 4 5 6 
#
# 1 0.043341 -0.003906 -0.000654 -0.026788 -0.028200 0.031170
# 2 -0.003906 0.012554 -0.005713 0.001446 0.001420 0.007474
# 3 -0.000654 -0.005713 0.024487 -0.009552 -0.015945 0.008892
# 4 -0.026788 0.001446 -0.009552 0.057778 0.034937 -0.030202
# 5 -0.028200 0.001420 -0.015945 0.034937 0.071983 -0.038428
# 6 0.031170 0.007474 0.008892 -0.030202 -0.038428 0.068995
#
#
# Mechanical properties :
#
#
# Convention : Reuss Voigt Hill
#
# Bulk Modulus (GPa) = 16.71226 60.03343 38.37285
# Shear Modulus (GPa) = 15.64308 28.00914 21.82611
#
# Velocity S-wave (km/s) = 2.75547 3.68710 3.25479
# Velocity P-wave (km/s) = 4.27025 6.87491 5.72274
#
# Compressibility (1/GPa) = 0.05983630
#
# Stress axis : x y z
#
# Youngs Moduli (GPa) = 23.07279 79.65273 40.83850
#
# Poissons Ratio (x) = 0.31112 0.02669
# Poissons Ratio (y) = 0.09012 0.23333
# Poissons Ratio (z) = 0.01508 0.45509
#
# Static dielectric constant tensor:
#      x y z
#    x 3.461430 -0.147990 0.338690 
#    y -0.147990 3.782210 0.065010 
#    z 0.338690 0.065010 4.013180 
# 
# 
# High freq. dielectric constant tensor:
#      x y z
#    x 1.776120 -0.017970 0.021950 
#    y -0.017970 1.806130 0.004070 
#    z 0.021950 0.004070 1.809430 
# 
# From -- ./inp_files/214522.got.cif
#   From: 2010.06.25/outbox.cif.g09.slc.cpg/sg2_108_cif.got.tgz:214522.got - 2010.06.27 13:26:56.
