data_PCOD8007996
_publ_section_title
;
Structure prediction by ZEFSAII (Michael W. Deem and Ramdas Pophale) SiO2 
 PCOD8007996
Probable space group: P -1
;
_chemical_formula_sum "Si O2"
_cell_formula_units_Z 16
_cell_length_a 9.896558
_cell_length_b 13.243299
_cell_length_c 16.767551
_cell_angle_alpha 139.079698
_cell_angle_beta 108.072157
_cell_angle_gamma 41.431016
_cell_volume 768.109889
_symmetry_space_group_name_H-M "P -1"
_symmetry_group_IT_number 2
_symmetry_cell_setting 'triclinic'
loop_
_space_group_symop_operation_xyz
x,y,z
-x,-y,-z
loop_
_atom_site_type_symbol
_atom_site_label
_atom_site_fract_x
_atom_site_fract_y
_atom_site_fract_z
Si Si1 0.050878 0.093333 0.956305
Si Si2 0.010222 0.646347 0.198599
Si Si3 0.757739 0.876834 0.698996
Si Si4 0.238933 0.452314 0.440891
Si Si5 0.366199 0.412994 0.266215
Si Si6 0.783086 0.527777 0.043296
Si Si7 0.581626 0.282616 0.522284
Si Si8 0.891128 0.304143 0.221693
O O1 0.340346 0.882368 0.872123
O O2 0.022506 0.938211 0.872670
O O3 0.892941 0.280781 0.961193
O O4 0.929609 0.290446 0.126814
O O5 0.217916 0.467950 0.199343
O O6 0.888646 0.586388 0.139988
O O7 0.143432 0.555935 0.084892
O O8 0.807311 0.960167 0.365768
O O9 0.658169 0.790927 0.637722
O O10 0.938446 0.744166 0.576348
O O11 0.925293 0.741090 0.728484
O O12 0.520882 0.203716 0.845376
O O13 0.285224 0.399673 0.324235
O O14 0.405283 0.439966 0.504004
O O15 0.302930 0.650821 0.405349
O O16 0.403668 0.400806 0.636160
#
# Coordination Sequence:
#
# PCOD8007996 Si02
#       8
#     2   2   2   2   2   2   2   2
#     4  10  22  40  61  92 120 160 201 245 304 354
#     4  11  24  39  58  93 125 157 205 247 300 354
#     4  10  21  39  59  87 122 160 194 248 299 359
#     4  10  21  38  62  90 119 155 203 243 302 363
#     4  11  23  38  65  90 118 161 206 250 296 356
#     4  11  24  40  60  86 128 163 195 251 299 358
#     4  10  20  42  63  87 124 155 197 257 299 351
#     4   9  21  40  64  89 121 156 202 249 296 361
#
# _framework density 20.830352000000001
#
# number of rings (size 3 to 8) (size 9 to 14) (size 15 to 20)
#    0.000    1.750    1.250    2.250    3.500    4.000 
#    0.000    2.500    0.000    0.000    0.000    0.000 
#    0.000    0.000    0.000    0.000    0.000    0.000 
#
# Total GULP energy -198426.660963 kJ/mol
# GULP energy per Si atom -12401.666310 kJ/mol
# Density = 2.078294 g / cm^3
# Si number density = 20.830352 Si / 1000 Ang^3
#
#
#
# Elastic Constant Matrix: (Units=GPa)
#
#
# Indices 1 2 3 4 5 6 
#
# 1 60.6874 26.1803 22.2596 -7.0227 -17.3557 2.4145
# 2 26.1803 91.0504 33.4894 -13.8270 -16.9821 7.2741
# 3 22.2596 33.4894 119.7980 3.6918 -27.0929 4.9234
# 4 -7.0227 -13.8270 3.6918 41.0121 -3.4085 -1.9138
# 5 -17.3557 -16.9821 -27.0929 -3.4085 31.7501 -7.2813
# 6 2.4145 7.2741 4.9234 -1.9138 -7.2813 27.1389
#
#
#
# Elastic Compliance Matrix: (Units=1/GPa)
#
#
# Indices 1 2 3 4 5 6 
#
# 1 0.021538 -0.003648 -0.000942 0.003463 0.009878 0.002127
# 2 -0.003648 0.014541 -0.002639 0.004734 0.003630 -0.001786
# 3 -0.000942 -0.002639 0.010955 -0.001387 0.007434 0.000700
# 4 0.003463 0.004734 -0.001387 0.027369 0.006733 0.002411
# 5 0.009878 0.003630 0.007434 0.006733 0.048247 0.010219
# 6 0.002127 -0.001786 0.000700 0.002411 0.010219 0.039922
#
#
# Mechanical properties :
#
#
# Convention : Reuss Voigt Hill
#
# Bulk Modulus (GPa) = 30.69699 48.37714 39.53707
# Shear Modulus (GPa) = 26.61148 32.62065 29.61607
#
# Velocity S-wave (km/s) = 3.57814 3.96158 3.77473
# Velocity P-wave (km/s) = 5.64264 6.64833 6.16602
#
# Compressibility (1/GPa) = 0.03257649
#
# Stress axis : x y z
#
# Youngs Moduli (GPa) = 46.42878 68.77081 91.28103
#
# Poissons Ratio (x) = 0.25088 0.08603
# Poissons Ratio (y) = 0.16938 0.24085
# Poissons Ratio (z) = 0.04376 0.18145
#
# Static dielectric constant tensor:
#      x y z
#    x 3.743770 -0.109920 -0.085450 
#    y -0.109920 3.550750 -0.173680 
#    z -0.085450 -0.173680 3.950540 
# 
# 
# High freq. dielectric constant tensor:
#      x y z
#    x 1.816110 -0.009530 -0.007060 
#    y -0.009530 1.799080 -0.011180 
#    z -0.007060 -0.011180 1.830670 
# 
# From -- ./inp_files/254661.got.cif
#   From: 2010.06.25/outbox.cif.g09.slc.cpg/sg2_128_cif.got.tgz:254661.got - 2010.06.27 13:26:56.
