data_PCOD8007159
_publ_section_title
;
Structure prediction by ZEFSAII (Michael W. Deem and Ramdas Pophale) SiO2 
 PCOD8007159
Probable space group: P -1
;
_chemical_formula_sum "Si O2"
_cell_formula_units_Z 12
_cell_length_a 9.438613
_cell_length_b 11.824167
_cell_length_c 8.881714
_cell_angle_alpha 53.922280
_cell_angle_beta 46.574491
_cell_angle_gamma 80.820071
_cell_volume 528.610114
_symmetry_space_group_name_H-M "P -1"
_symmetry_group_IT_number 2
_symmetry_cell_setting 'triclinic'
loop_
_space_group_symop_operation_xyz
x,y,z
-x,-y,-z
loop_
_atom_site_type_symbol
_atom_site_label
_atom_site_fract_x
_atom_site_fract_y
_atom_site_fract_z
Si Si1 0.337835 0.785869 0.662332
Si Si2 0.184710 0.755703 0.120205
Si Si3 0.984876 0.857190 0.722842
Si Si4 0.273632 0.461189 0.001099
Si Si5 0.196275 0.057113 0.927446
Si Si6 0.736676 0.522707 0.649329
O O1 0.212765 0.599326 0.882443
O O2 0.582615 0.834382 0.398405
O O3 0.221574 0.872244 0.583126
O O4 0.335361 0.825930 0.809446
O O5 0.253983 0.641754 0.255566
O O6 0.938398 0.660623 0.315932
O O7 0.211145 0.899144 0.095278
O O8 0.870959 0.698144 0.844276
O O9 0.846260 0.852581 0.974466
O O10 0.000000 0.000000 0.500000
O O11 0.522424 0.512487 0.735923
O O12 0.247331 0.437668 0.217068
O O13 0.000000 0.000000 0.000000
#
# Coordination Sequence:
#
# PCOD8007159 Si02
#       6
#     2   2   2   2   2   2
#     4  11  25  44  70  98 134 183 224 278 334 402
#     4  10  20  40  68 101 131 176 230 273 333 403
#     4  12  28  45  67 101 140 179 223 282 337 397
#     4  10  22  44  68 100 137 174 230 274 337 401
#     4  12  25  44  71 100 134 178 226 276 339 403
#     4   9  20  40  72  98 133 180 221 282 333 397
#
# _framework density 22.701041
#
# number of rings (size 3 to 8) (size 9 to 14) (size 15 to 20)
#    0.000    1.333    1.667    3.000    2.333    2.667 
#    9.000    0.000    0.000    0.000    0.000    0.000 
#    0.000    0.000    0.000    0.000    0.000    0.000 
#
# Total GULP energy -148796.145846 kJ/mol
# GULP energy per Si atom -12399.678821 kJ/mol
# Density = 2.264937 g / cm^3
# Si number density = 22.701041 Si / 1000 Ang^3
#
#
#
# Elastic Constant Matrix: (Units=GPa)
#
#
# Indices 1 2 3 4 5 6 
#
# 1 71.8776 20.0348 26.5919 2.1795 -6.0382 -12.7192
# 2 20.0348 112.8285 12.3061 -18.4298 -5.8838 -3.9012
# 3 26.5919 12.3061 96.7710 9.9237 -8.6144 -10.0106
# 4 2.1795 -18.4298 9.9237 42.3649 -14.1869 -4.3363
# 5 -6.0382 -5.8838 -8.6144 -14.1869 25.4549 1.2363
# 6 -12.7192 -3.9012 -10.0106 -4.3363 1.2363 27.1395
#
#
#
# Elastic Compliance Matrix: (Units=1/GPa)
#
#
# Indices 1 2 3 4 5 6 
#
# 1 0.017180 -0.002258 -0.003617 0.000378 0.002232 0.006352
# 2 -0.002258 0.010823 -0.000874 0.006981 0.005510 0.001040
# 3 -0.003617 -0.000874 0.012042 -0.002233 0.001664 0.002189
# 4 0.000378 0.006981 -0.002233 0.034286 0.019817 0.004932
# 5 0.002232 0.005510 0.001664 0.019817 0.052539 0.003225
# 6 0.006352 0.001040 0.002189 0.004932 0.003225 0.041421
#
#
# Mechanical properties :
#
#
# Convention : Reuss Voigt Hill
#
# Bulk Modulus (GPa) = 37.66802 44.37141 41.01971
# Shear Modulus (GPa) = 26.22764 33.82815 30.02790
#
# Velocity S-wave (km/s) = 3.40273 3.86445 3.64091
# Velocity P-wave (km/s) = 5.66279 6.28493 5.98195
#
# Compressibility (1/GPa) = 0.02654772
#
# Stress axis : x y z
#
# Youngs Moduli (GPa) = 58.20694 92.39696 83.04116
#
# Poissons Ratio (x) = 0.20867 0.30035
# Poissons Ratio (y) = 0.13145 0.07254
# Poissons Ratio (z) = 0.21053 0.08071
#
# Static dielectric constant tensor:
#      x y z
#    x 3.834780 -0.412160 -0.077670 
#    y -0.412160 4.618430 0.041270 
#    z -0.077670 0.041270 4.104280 
# 
# 
# High freq. dielectric constant tensor:
#      x y z
#    x 1.865930 -0.029200 -0.007780 
#    y -0.029200 1.917520 -0.007050 
#    z -0.007780 -0.007050 1.902790 
# 
# From -- ./inp_files/183922.got.cif
#   From: 2010.06.25/outbox.cif.g09.slc.cpg/sg2_92_cif.got.tgz:183922.got - 2010.06.27 13:26:56.
