data_PCOD8007850
_publ_section_title
;
Structure prediction by ZEFSAII (Michael W. Deem and Ramdas Pophale) SiO2 
 PCOD8007850
Probable space group: P -1
;
_chemical_formula_sum "Si O2"
_cell_formula_units_Z 14
_cell_length_a 12.644700
_cell_length_b 8.801905
_cell_length_c 9.470072
_cell_angle_alpha 119.785440
_cell_angle_beta 45.078550
_cell_angle_gamma 126.982416
_cell_volume 591.321173
_symmetry_space_group_name_H-M "P -1"
_symmetry_group_IT_number 2
_symmetry_cell_setting 'triclinic'
loop_
_space_group_symop_operation_xyz
x,y,z
-x,-y,-z
loop_
_atom_site_type_symbol
_atom_site_label
_atom_site_fract_x
_atom_site_fract_y
_atom_site_fract_z
Si Si1 0.446015 0.647000 0.043839
Si Si2 0.969134 0.501684 0.195161
Si Si3 0.074783 0.867949 0.444419
Si Si4 0.379772 0.742672 0.608273
Si Si5 0.879218 0.680228 0.824861
Si Si6 0.363677 0.126116 0.794214
Si Si7 0.556444 0.870233 0.787405
O O1 0.248917 0.542856 0.178054
O O2 0.516962 0.836924 0.163042
O O3 0.500000 0.500000 0.000000
O O4 0.533977 0.692056 0.829213
O O5 0.775919 0.454633 0.367403
O O6 0.072323 0.710376 0.260036
O O7 0.007652 0.335797 0.162003
O O8 0.000000 0.500000 0.000000
O O9 0.979077 0.762392 0.625875
O O10 0.259401 0.004425 0.379207
O O11 0.000000 0.000000 0.500000
O O12 0.529623 0.744629 0.374553
O O13 0.433879 0.766694 0.729807
O O14 0.313984 0.905181 0.702119
O O15 0.791509 0.821146 0.014346
O O16 0.500000 0.000000 0.000000
#
# Coordination Sequence:
#
# PCOD8007850 Si02
#       7
#     2   2   2   2   2   2   2
#     4  10  20  41  69  97 134 185 235 285 346 428
#     4  12  28  47  72 107 153 187 238 307 365 425
#     4  12  28  48  75 113 144 190 245 303 360 433
#     4  11  25  43  70 105 146 186 240 294 368 426
#     4  11  25  46  76 102 146 192 246 294 368 425
#     4  10  23  42  71 103 140 186 241 298 353 435
#     4  12  24  44  74 101 141 190 241 288 356 433
#
# _framework density 23.675795999999998
#
# number of rings (size 3 to 8) (size 9 to 14) (size 15 to 20)
#    0.000    0.857    1.429    5.571    6.000    2.857 
#    0.000    4.286    0.000    0.000    0.000    0.000 
#    0.000    0.000    0.000    0.000    0.000    0.000 
#
# Total GULP energy -173529.967307 kJ/mol
# GULP energy per Si atom -12394.997665 kJ/mol
# Density = 2.362191 g / cm^3
# Si number density = 23.675796 Si / 1000 Ang^3
#
#
#
# Elastic Constant Matrix: (Units=GPa)
#
#
# Indices 1 2 3 4 5 6 
#
# 1 135.9250 33.9084 48.8832 -17.4060 10.7274 -0.1281
# 2 33.9084 85.3680 28.1263 -25.9026 -0.3448 -1.1488
# 3 48.8832 28.1263 130.9676 -26.0077 11.9387 -13.2449
# 4 -17.4060 -25.9026 -26.0077 47.0594 -6.1714 -4.0904
# 5 10.7274 -0.3448 11.9387 -6.1714 41.2541 -13.4294
# 6 -0.1281 -1.1488 -13.2449 -4.0904 -13.4294 37.9997
#
#
#
# Elastic Compliance Matrix: (Units=1/GPa)
#
#
# Indices 1 2 3 4 5 6 
#
# 1 0.009241 -0.002811 -0.002863 -0.000165 -0.002227 -0.001856
# 2 -0.002811 0.015432 -0.000826 0.007549 0.002879 0.001999
# 3 -0.002863 -0.000826 0.010176 0.004411 -0.000282 0.003888
# 4 -0.000165 0.007549 0.004411 0.029081 0.005394 0.006802
# 5 -0.002227 0.002879 -0.000282 0.005394 0.029283 0.010911
# 6 -0.001856 0.001999 0.003888 0.006802 0.010911 0.032313
#
#
# Mechanical properties :
#
#
# Convention : Reuss Voigt Hill
#
# Bulk Modulus (GPa) = 45.76925 63.78848 54.77887
# Shear Modulus (GPa) = 34.29134 41.35215 37.82174
#
# Velocity S-wave (km/s) = 3.80988 4.18377 4.00119
# Velocity P-wave (km/s) = 6.22312 7.09504 6.67333
#
# Compressibility (1/GPa) = 0.02184873
#
# Stress axis : x y z
#
# Youngs Moduli (GPa) = 108.21624 64.80080 98.26760
#
# Poissons Ratio (x) = 0.18217 0.28133
# Poissons Ratio (y) = 0.30423 0.08117
# Poissons Ratio (z) = 0.30981 0.05352
#
# Static dielectric constant tensor:
#      x y z
#    x 4.365350 -5.879790 5.210050 
#    y -5.879790 43.346450 -50.559250 
#    z 5.210050 -50.559250 65.045600 
# 
# 
# High freq. dielectric constant tensor:
#      x y z
#    x 1.952420 -0.001150 0.006850 
#    y -0.001150 1.946830 -0.014430 
#    z 0.006850 -0.014430 1.934760 
# 
# From -- ./inp_files/244852.got.cif
#   From: 2010.06.25/outbox.cif.g09.slc.cpg/sg2_123_cif.got.tgz:244852.got - 2010.06.27 13:26:56.
