data_PCOD8007781
_publ_section_title
;
Structure prediction by ZEFSAII (Michael W. Deem and Ramdas Pophale) SiO2 
 PCOD8007781
Probable space group: P -1
;
_chemical_formula_sum "Si O2"
_cell_formula_units_Z 16
_cell_length_a 12.521257
_cell_length_b 8.684063
_cell_length_c 15.069912
_cell_angle_alpha 117.161886
_cell_angle_beta 153.339710
_cell_angle_gamma 65.255364
_cell_volume 653.939619
_symmetry_space_group_name_H-M "P -1"
_symmetry_group_IT_number 2
_symmetry_cell_setting 'triclinic'
loop_
_space_group_symop_operation_xyz
x,y,z
-x,-y,-z
loop_
_atom_site_type_symbol
_atom_site_label
_atom_site_fract_x
_atom_site_fract_y
_atom_site_fract_z
Si Si1 0.584245 0.835168 0.635077
Si Si2 0.362579 0.523916 0.056197
Si Si3 0.448174 0.105972 0.741127
Si Si4 0.934709 0.049148 0.273888
Si Si5 0.861457 0.069584 0.774175
Si Si6 0.793348 0.784935 0.244372
Si Si7 0.029067 0.388769 0.079083
Si Si8 0.836484 0.357412 0.383916
O O1 0.314949 0.821655 0.395809
O O2 0.598980 0.948285 0.766954
O O3 0.733933 0.911974 0.684826
O O4 0.699105 0.644523 0.693109
O O5 0.406975 0.719488 0.114149
O O6 0.127467 0.514729 0.938206
O O7 0.591789 0.447455 0.260221
O O8 0.320423 0.401281 0.907782
O O9 0.384144 0.090736 0.794772
O O10 0.200521 0.116486 0.506466
O O11 0.766396 0.213795 0.219156
O O12 0.862468 0.880615 0.230940
O O13 0.920361 0.004327 0.145947
O O14 0.942011 0.194977 0.944696
O O15 0.036515 0.745823 0.468808
O O16 0.000000 0.500000 0.000000
O O17 0.000000 0.500000 0.500000
#
# Coordination Sequence:
#
# PCOD8007781 Si02
#       8
#     2   2   2   2   2   2   2   2
#     4  10  23  44  70  95 124 178 226 277 323 393
#     4  12  25  41  65 100 133 175 227 268 332 405
#     4  10  20  41  68  95 130 172 229 272 327 405
#     4  10  22  42  68  99 132 174 220 277 338 396
#     4  10  22  43  70  94 127 175 232 263 328 400
#     4  11  24  42  66  99 137 169 218 281 340 390
#     4  12  27  43  64 102 140 171 221 281 337 392
#     4  11  23  41  67  96 134 174 218 276 334 396
#
# _framework density 24.467089000000001
#
# number of rings (size 3 to 8) (size 9 to 14) (size 15 to 20)
#    0.000    1.250    3.750    3.000    0.000    7.000 
#    0.000    0.000    0.000    0.000    0.000    0.000 
#    0.000    0.000    0.000    0.000    0.000    0.000 
#
# Total GULP energy -198356.271752 kJ/mol
# GULP energy per Si atom -12397.266984 kJ/mol
# Density = 2.441140 g / cm^3
# Si number density = 24.467089 Si / 1000 Ang^3
#
#
#
# Elastic Constant Matrix: (Units=GPa)
#
#
# Indices 1 2 3 4 5 6 
#
# 1 133.8750 20.1545 13.9109 -12.8631 2.1649 -24.1335
# 2 20.1545 75.0376 14.3680 -20.3767 11.5406 -15.7185
# 3 13.9109 14.3680 33.9061 -1.4581 -3.4696 -8.1821
# 4 -12.8631 -20.3767 -1.4581 41.3342 -5.3846 -0.5199
# 5 2.1649 11.5406 -3.4696 -5.3846 30.7366 -1.8113
# 6 -24.1335 -15.7185 -8.1821 -0.5199 -1.8113 38.9703
#
#
#
# Elastic Compliance Matrix: (Units=1/GPa)
#
#
# Indices 1 2 3 4 5 6 
#
# 1 0.008887 -0.000181 -0.002257 0.002652 -0.000054 0.004989
# 2 -0.000181 0.019184 -0.006869 0.008435 -0.006134 0.006011
# 3 -0.002257 -0.006869 0.034732 -0.001972 0.006514 0.003401
# 4 0.002652 0.008435 -0.001972 0.029416 0.001878 0.005110
# 5 -0.000054 -0.006134 0.006514 0.001878 0.035938 0.000556
# 6 0.004989 0.006011 0.003401 0.005110 0.000556 0.031983
#
#
# Mechanical properties :
#
#
# Convention : Reuss Voigt Hill
#
# Bulk Modulus (GPa) = 22.63046 37.74284 30.18665
# Shear Modulus (GPa) = 25.84205 35.16724 30.50465
#
# Velocity S-wave (km/s) = 3.25344 3.79532 3.53478
# Velocity P-wave (km/s) = 4.83556 5.88774 5.38740
#
# Compressibility (1/GPa) = 0.04418824
#
# Stress axis : x y z
#
# Youngs Moduli (GPa) = 112.52982 52.12796 28.79155
#
# Poissons Ratio (x) = 0.00944 0.06497
# Poissons Ratio (y) = 0.02038 0.19778
# Poissons Ratio (z) = 0.25394 0.35809
#
# Static dielectric constant tensor:
#      x y z
#    x 4.624240 -0.548590 -0.038930 
#    y -0.548590 4.438200 -0.025850 
#    z -0.038930 -0.025850 4.534600 
# 
# 
# High freq. dielectric constant tensor:
#      x y z
#    x 1.973990 -0.018300 0.001970 
#    y -0.018300 1.964630 -0.004340 
#    z 0.001970 -0.004340 1.974430 
# 
# From -- ./inp_files/516022.got.cif
#   From: 2010.06.25/outbox.cif.g09.slc.cpg/sg2_259_cif.got.tgz:516022.got - 2010.06.27 13:26:56.
