data_PCOD8007980
_publ_section_title
;
Structure prediction by ZEFSAII (Michael W. Deem and Ramdas Pophale) SiO2 
 PCOD8007980
Probable space group: P -1
;
_chemical_formula_sum "Si O2"
_cell_formula_units_Z 16
_cell_length_a 9.058128
_cell_length_b 16.137436
_cell_length_c 14.577575
_cell_angle_alpha 151.175308
_cell_angle_beta 76.760785
_cell_angle_gamma 83.045460
_cell_volume 728.101478
_symmetry_space_group_name_H-M "P -1"
_symmetry_group_IT_number 2
_symmetry_cell_setting 'triclinic'
loop_
_space_group_symop_operation_xyz
x,y,z
-x,-y,-z
loop_
_atom_site_type_symbol
_atom_site_label
_atom_site_fract_x
_atom_site_fract_y
_atom_site_fract_z
Si Si1 0.238291 0.279482 0.265772
Si Si2 0.146187 0.069749 0.948024
Si Si3 0.406402 0.526601 0.941554
Si Si4 0.352777 0.940507 0.065255
Si Si5 0.737268 0.273096 0.256835
Si Si6 0.952318 0.735311 0.219396
Si Si7 0.618603 0.092297 0.759199
Si Si8 0.326236 0.003465 0.666532
O O1 0.000000 0.500000 0.500000
O O2 0.293085 0.173354 0.257420
O O3 0.403393 0.297772 0.227842
O O4 0.293841 0.087437 0.997249
O O5 0.206407 0.835558 0.753786
O O6 0.180886 0.057381 0.823175
O O7 0.898934 0.300344 0.232031
O O8 0.159659 0.687959 0.138769
O O9 0.459300 0.650395 0.990713
O O10 0.500000 0.500000 0.000000
O O11 0.505339 0.276363 0.644610
O O12 0.311533 0.985342 0.221692
O O13 0.207844 0.912835 0.009605
O O14 0.500000 0.500000 0.500000
O O15 0.821910 0.907666 0.490086
O O16 0.820335 0.859548 0.266604
O O17 0.000000 0.500000 0.000000
O O18 0.439642 0.096406 0.760175
#
# Coordination Sequence:
#
# PCOD8007980 Si02
#       8
#     2   2   2   2   2   2   2   2
#     4  10  20  42  62  91 131 178 224 274 336 404
#     4  10  23  40  64  97 131 182 225 277 342 400
#     4  12  27  48  75 102 139 188 229 291 350 412
#     4  10  23  39  64  96 131 173 228 278 331 403
#     4  10  22  41  64  93 138 175 224 283 333 400
#     4  12  26  47  75 102 141 187 227 286 359 412
#     4  12  25  48  70 104 144 179 237 291 345 419
#     4  12  26  48  70 103 148 178 235 291 344 421
#
# _framework density 21.974958000000001
#
# number of rings (size 3 to 8) (size 9 to 14) (size 15 to 20)
#    0.000    1.000    3.750    2.250    3.500    1.000 
#    2.250    0.000    0.000    0.000    0.000    0.000 
#    0.000    0.000    0.000    0.000    0.000    0.000 
#
# Total GULP energy -198341.557920 kJ/mol
# GULP energy per Si atom -12396.347370 kJ/mol
# Density = 2.192494 g / cm^3
# Si number density = 21.974958 Si / 1000 Ang^3
#
#
#
# Elastic Constant Matrix: (Units=GPa)
#
#
# Indices 1 2 3 4 5 6 
#
# 1 132.4066 56.9896 34.3908 2.8802 -8.2214 4.9150
# 2 56.9896 184.9072 55.8216 -10.7507 -7.8382 -10.9513
# 3 34.3908 55.8216 70.4786 7.2697 -24.4460 -0.3849
# 4 2.8802 -10.7507 7.2697 32.3425 2.0956 1.7213
# 5 -8.2214 -7.8382 -24.4460 2.0956 42.9170 2.2296
# 6 4.9150 -10.9513 -0.3849 1.7213 2.2296 38.7323
#
#
#
# Elastic Compliance Matrix: (Units=1/GPa)
#
#
# Indices 1 2 3 4 5 6 
#
# 1 0.009289 -0.002195 -0.002732 -0.000845 -0.000043 -0.001786
# 2 -0.002195 0.008618 -0.007435 0.004815 -0.003453 0.002626
# 3 -0.002732 -0.007435 0.027272 -0.009177 0.014200 -0.001894
# 4 -0.000845 0.004815 -0.009177 0.035052 -0.006231 0.000178
# 5 -0.000043 -0.003453 0.014200 -0.006231 0.031176 -0.002347
# 6 -0.001786 0.002626 -0.001894 0.000178 -0.002347 0.026896
#
#
# Mechanical properties :
#
#
# Convention : Reuss Voigt Hill
#
# Bulk Modulus (GPa) = 48.88617 75.79963 62.34290
# Shear Modulus (GPa) = 29.43851 38.83771 34.13811
#
# Velocity S-wave (km/s) = 3.66408 4.20856 3.94572
# Velocity P-wave (km/s) = 6.33997 7.62788 7.01355
#
# Compressibility (1/GPa) = 0.02045568
#
# Stress axis : x y z
#
# Youngs Moduli (GPa) = 107.65708 116.03192 36.66743
#
# Poissons Ratio (x) = 0.25468 0.10017
# Poissons Ratio (y) = 0.23630 0.27263
# Poissons Ratio (z) = 0.29409 0.86271
#
# Static dielectric constant tensor:
#      x y z
#    x 4.645420 0.195900 0.282960 
#    y 0.195900 4.095480 0.198080 
#    z 0.282960 0.198080 4.143790 
# 
# 
# High freq. dielectric constant tensor:
#      x y z
#    x 1.895730 -0.000670 0.000630 
#    y -0.000670 1.864190 0.005670 
#    z 0.000630 0.005670 1.857560 
# 
# From -- ./inp_files/505751.got.cif
#   From: 2010.06.25/outbox.cif.g09.slc.cpg/sg2_253_cif.got.tgz:505751.got - 2010.06.27 13:26:56.
