data_PCOD8007355
_publ_section_title
;
Structure prediction by ZEFSAII (Michael W. Deem and Ramdas Pophale) SiO2 
 PCOD8007355
Probable space group: P -1
;
_chemical_formula_sum "Si O2"
_cell_formula_units_Z 16
_cell_length_a 8.383698
_cell_length_b 8.604464
_cell_length_c 14.874508
_cell_angle_alpha 100.223954
_cell_angle_beta 99.990680
_cell_angle_gamma 128.060925
_cell_volume 774.021521
_symmetry_space_group_name_H-M "P -1"
_symmetry_group_IT_number 2
_symmetry_cell_setting 'triclinic'
loop_
_space_group_symop_operation_xyz
x,y,z
-x,-y,-z
loop_
_atom_site_type_symbol
_atom_site_label
_atom_site_fract_x
_atom_site_fract_y
_atom_site_fract_z
Si Si1 0.208437 0.754594 0.307827
Si Si2 0.475112 0.222020 0.346374
Si Si3 0.167693 0.524407 0.454650
Si Si4 0.948238 0.836179 0.710411
Si Si5 0.017711 0.647202 0.854211
Si Si6 0.854135 0.731945 0.200594
Si Si7 0.921012 0.104002 0.953622
Si Si8 0.421823 0.715266 0.834635
O O1 0.237553 0.683132 0.396797
O O2 0.174342 0.605201 0.208322
O O3 0.992939 0.722315 0.285959
O O4 0.415905 0.999815 0.335732
O O5 0.617036 0.380115 0.458956
O O6 0.267801 0.198629 0.312336
O O7 0.616370 0.316032 0.279354
O O8 0.055789 0.291126 0.383909
O O9 0.000000 0.500000 0.500000
O O10 0.971352 0.769851 0.801810
O O11 0.153744 0.091645 0.746693
O O12 0.252626 0.728359 0.861418
O O13 0.014191 0.699123 0.962407
O O14 0.620831 0.490904 0.150338
O O15 0.971505 0.804587 0.123088
O O16 0.661650 0.928245 0.902835
O O17 0.000000 0.000000 0.000000
#
# Coordination Sequence:
#
# PCOD8007355 Si02
#       8
#     2   2   2   2   2   2   2   2
#     4   9  20  38  61  88 124 158 200 253 305 357
#     4  11  20  41  62  89 124 166 205 250 310 369
#     4  11  22  38  63  92 122 161 209 254 303 371
#     4  10  20  41  61  88 126 161 200 257 310 362
#     4  10  21  39  62  93 122 161 207 256 305 361
#     4  10  21  41  64  87 128 163 204 255 306 363
#     4  12  22  42  64  89 128 165 205 255 308 363
#     4  11  23  40  64  92 125 164 208 253 305 360
#
# _framework density 20.671258999999999
#
# number of rings (size 3 to 8) (size 9 to 14) (size 15 to 20)
#    0.000    1.500    3.750    3.375    0.000    2.500 
#    2.250   13.125    0.000    0.000    0.000    0.000 
#    0.000    0.000    0.000    0.000    0.000    0.000 
#
# Total GULP energy -198346.648763 kJ/mol
# GULP energy per Si atom -12396.665548 kJ/mol
# Density = 2.062421 g / cm^3
# Si number density = 20.671259 Si / 1000 Ang^3
#
#
#
# Elastic Constant Matrix: (Units=GPa)
#
#
# Indices 1 2 3 4 5 6 
#
# 1 59.4126 38.0212 40.2408 -3.9763 -13.8558 -12.9021
# 2 38.0212 136.3781 50.8968 15.9377 -15.0263 -12.9931
# 3 40.2408 50.8968 129.4847 15.1828 -12.6433 -6.7217
# 4 -3.9763 15.9377 15.1828 28.3061 -8.8482 -4.0696
# 5 -13.8558 -15.0263 -12.6433 -8.8482 37.3521 1.6770
# 6 -12.9021 -12.9931 -6.7217 -4.0696 1.6770 33.3957
#
#
#
# Elastic Compliance Matrix: (Units=1/GPa)
#
#
# Indices 1 2 3 4 5 6 
#
# 1 0.031475 -0.005664 -0.007985 0.016485 0.010157 0.009848
# 2 -0.005664 0.010233 -0.001555 -0.005567 0.000135 0.000795
# 3 -0.007985 -0.001555 0.011405 -0.007088 -0.001308 -0.002192
# 4 0.016485 -0.005567 -0.007088 0.049792 0.012903 0.008196
# 5 0.010157 0.000135 -0.001308 0.012903 0.033045 0.003626
# 6 0.009848 0.000795 -0.002192 0.008196 0.003626 0.034433
#
#
# Mechanical properties :
#
#
# Convention : Reuss Voigt Hill
#
# Bulk Modulus (GPa) = 44.04266 64.84365 54.44316
# Shear Modulus (GPa) = 23.99677 32.88522 28.44100
#
# Velocity S-wave (km/s) = 3.41086 3.99289 3.71330
# Velocity P-wave (km/s) = 6.07161 7.25911 6.69175
#
# Compressibility (1/GPa) = 0.02270526
#
# Stress axis : x y z
#
# Youngs Moduli (GPa) = 31.77088 97.72192 87.67813
#
# Poissons Ratio (x) = 0.55350 0.70014
# Poissons Ratio (y) = 0.17995 0.13633
# Poissons Ratio (z) = 0.25370 0.15195
#
# Static dielectric constant tensor:
#      x y z
#    x 3.548450 -0.294280 0.020240 
#    y -0.294280 4.181170 0.209560 
#    z 0.020240 0.209560 4.097440 
# 
# 
# High freq. dielectric constant tensor:
#      x y z
#    x 1.790560 -0.019420 0.003720 
#    y -0.019420 1.816580 0.008630 
#    z 0.003720 0.008630 1.821200 
# 
# From -- ./inp_files/221717.got.cif
#   From: 2010.06.25/outbox.cif.g09.slc.cpg/sg2_111_cif.got.tgz:221717.got - 2010.06.27 13:26:56.
