data_PCOD8007370
_publ_section_title
;
Structure prediction by ZEFSAII (Michael W. Deem and Ramdas Pophale) SiO2 
 PCOD8007370
Probable space group: P -1
;
_chemical_formula_sum "Si O2"
_cell_formula_units_Z 16
_cell_length_a 21.331599
_cell_length_b 18.058097
_cell_length_c 13.525144
_cell_angle_alpha 139.762538
_cell_angle_beta 27.185609
_cell_angle_gamma 160.311469
_cell_volume 702.748727
_symmetry_space_group_name_H-M "P -1"
_symmetry_group_IT_number 2
_symmetry_cell_setting 'triclinic'
loop_
_space_group_symop_operation_xyz
x,y,z
-x,-y,-z
loop_
_atom_site_type_symbol
_atom_site_label
_atom_site_fract_x
_atom_site_fract_y
_atom_site_fract_z
Si Si1 0.574824 0.923028 0.822877
Si Si2 0.898210 0.193745 0.456311
Si Si3 0.490515 0.322892 0.012739
Si Si4 0.292373 0.141217 0.751516
Si Si5 0.062934 0.924272 0.053116
Si Si6 0.449000 0.504624 0.387162
Si Si7 0.477146 0.083901 0.895820
Si Si8 0.064180 0.359978 0.919041
O O1 0.288373 0.632791 0.895368
O O2 0.850133 0.108797 0.549000
O O3 0.664388 0.966666 0.855699
O O4 0.500000 0.000000 0.000000
O O5 0.769444 0.226711 0.659175
O O6 0.702485 0.971159 0.431592
O O7 0.244060 0.438781 0.189519
O O8 0.431870 0.362153 0.227786
O O9 0.183325 0.088709 0.143231
O O10 0.584507 0.268456 0.865596
O O11 0.566696 0.422658 0.612785
O O12 0.315601 0.120517 0.812266
O O13 0.000000 0.000000 0.000000
O O14 0.755498 0.750744 0.269724
O O15 0.018875 0.757958 0.978138
O O16 0.191283 0.345975 0.663531
O O17 0.233623 0.825381 0.913763
#
# Coordination Sequence:
#
# PCOD8007370 Si02
#       8
#     2   2   2   2   2   2   2   2
#     4  10  23  41  63  90 124 167 211 251 310 372
#     4  11  21  43  65  89 132 165 207 264 311 373
#     4  11  23  42  64  98 124 166 214 255 320 373
#     4  10  20  41  61  92 126 165 208 256 315 366
#     4  10  23  39  63  94 127 163 210 254 317 375
#     4  11  22  41  65  91 132 164 205 269 312 368
#     4  10  25  43  64  94 128 167 213 257 311 381
#     4  11  23  43  65  94 127 167 209 261 318 370
#
# _framework density 22.767741999999998
#
# number of rings (size 3 to 8) (size 9 to 14) (size 15 to 20)
#    0.000    1.500    3.750    1.500    0.000    6.500 
#    4.500    1.250    0.000    0.000    0.000    0.000 
#    0.000    0.000    0.000    0.000    0.000    0.000 
#
# Total GULP energy -198289.442872 kJ/mol
# GULP energy per Si atom -12393.090179 kJ/mol
# Density = 2.271592 g / cm^3
# Si number density = 22.767742 Si / 1000 Ang^3
#
#
#
# Elastic Constant Matrix: (Units=GPa)
#
#
# Indices 1 2 3 4 5 6 
#
# 1 91.9598 32.0259 22.0129 -1.8000 26.8613 -4.7823
# 2 32.0259 105.4964 12.8264 15.2657 2.0112 -10.6013
# 3 22.0129 12.8264 59.9568 15.6726 10.0198 -2.4221
# 4 -1.8000 15.2657 15.6726 27.6253 -2.0060 2.8951
# 5 26.8613 2.0112 10.0198 -2.0060 26.6407 -2.4593
# 6 -4.7823 -10.6013 -2.4221 2.8951 -2.4593 30.5084
#
#
#
# Elastic Compliance Matrix: (Units=1/GPa)
#
#
# Indices 1 2 3 4 5 6 
#
# 1 0.018890 -0.005868 -0.004527 0.005979 -0.016575 -0.001341
# 2 -0.005868 0.012705 0.001025 -0.008159 0.004392 0.004705
# 3 -0.004527 0.001025 0.022817 -0.014421 -0.004956 0.002427
# 4 0.005979 -0.008159 -0.014421 0.050296 0.003100 -0.007566
# 5 -0.016575 0.004392 -0.004956 0.003100 0.056271 0.002776
# 6 -0.001341 0.004705 0.002427 -0.007566 0.002776 0.035337
#
#
# Mechanical properties :
#
#
# Convention : Reuss Voigt Hill
#
# Bulk Modulus (GPa) = 28.03244 43.46039 35.74642
# Shear Modulus (GPa) = 22.03143 29.65808 25.84475
#
# Velocity S-wave (km/s) = 3.11410 3.61312 3.37285
# Velocity P-wave (km/s) = 5.02685 6.04452 5.55902
#
# Compressibility (1/GPa) = 0.03567295
#
# Stress axis : x y z
#
# Youngs Moduli (GPa) = 52.93686 78.70622 43.82621
#
# Poissons Ratio (x) = 0.46186 0.19842
# Poissons Ratio (y) = 0.31064 -0.04494
# Poissons Ratio (z) = 0.23966 -0.08070
#
# Static dielectric constant tensor:
#      x y z
#    x 4.456440 -0.228420 0.681080 
#    y -0.228420 4.103260 -0.023850 
#    z 0.681080 -0.023850 4.097700 
# 
# 
# High freq. dielectric constant tensor:
#      x y z
#    x 1.900620 -0.014170 0.028970 
#    y -0.014170 1.899370 0.004580 
#    z 0.028970 0.004580 1.881800 
# 
# From -- ./inp_files/472418.got.cif
#   From: 2010.06.25/outbox.cif.g09.slc.cpg/sg2_237_cif.got.tgz:472418.got - 2010.06.27 13:26:56.
