data_PCOD8007583
_publ_section_title
;
Structure prediction by ZEFSAII (Michael W. Deem and Ramdas Pophale) SiO2 
 PCOD8007583
Probable space group: P -1
;
_chemical_formula_sum "Si O2"
_cell_formula_units_Z 16
_cell_length_a 13.854312
_cell_length_b 13.986767
_cell_length_c 11.294441
_cell_angle_alpha 31.897540
_cell_angle_beta 44.794597
_cell_angle_gamma 42.959588
_cell_volume 764.039522
_symmetry_space_group_name_H-M "P -1"
_symmetry_group_IT_number 2
_symmetry_cell_setting 'triclinic'
loop_
_space_group_symop_operation_xyz
x,y,z
-x,-y,-z
loop_
_atom_site_type_symbol
_atom_site_label
_atom_site_fract_x
_atom_site_fract_y
_atom_site_fract_z
Si Si1 0.111954 0.716711 0.789361
Si Si2 0.557341 0.016938 0.802595
Si Si3 0.560963 0.425272 0.398881
Si Si4 0.892357 0.859750 0.635304
Si Si5 0.203278 0.463534 0.199253
Si Si6 0.218552 0.789733 0.009379
Si Si7 0.495175 0.764638 0.932795
Si Si8 0.045830 0.193914 0.625718
O O1 0.267356 0.616516 0.697415
O O2 0.987463 0.717083 0.803878
O O3 0.082629 0.938632 0.610387
O O4 0.106554 0.599455 0.036053
O O5 0.529652 0.240392 0.571306
O O6 0.726527 0.884420 0.783968
O O7 0.470986 0.945957 0.851386
O O8 0.500000 0.000000 0.000000
O O9 0.500000 0.500000 0.500000
O O10 0.480915 0.587272 0.204560
O O11 0.944937 0.758035 0.571054
O O12 0.253669 0.596577 0.105105
O O13 0.348321 0.296013 0.202731
O O14 0.108318 0.350460 0.466915
O O15 0.118184 0.773236 0.224214
O O16 0.365857 0.819016 0.893239
O O17 0.141731 0.973867 0.801111
#
# Coordination Sequence:
#
# PCOD8007583 Si02
#       8
#     2   2   2   2   2   2   2   2
#     4   9  21  37  68  92 126 165 210 256 329 382
#     4  11  22  41  63  95 134 161 212 261 316 397
#     4  10  21  38  61  93 130 161 203 262 317 378
#     4  10  20  41  65  94 126 175 203 265 327 379
#     4  11  22  45  66  96 127 165 223 267 311 384
#     4  11  26  44  64  94 130 172 219 268 315 374
#     4  11  24  41  66  92 126 173 211 261 322 377
#     4  11  24  43  67  88 134 166 219 267 320 372
#
# _framework density 20.941324999999999
#
# number of rings (size 3 to 8) (size 9 to 14) (size 15 to 20)
#    0.000    1.500    3.750    0.750    1.750    3.000 
#    2.250    0.000    0.000    0.000    0.000    0.000 
#    0.000    0.000    0.000    0.000    0.000    0.000 
#
# Total GULP energy -198395.398487 kJ/mol
# GULP energy per Si atom -12399.712405 kJ/mol
# Density = 2.089366 g / cm^3
# Si number density = 20.941325 Si / 1000 Ang^3
#
#
#
# Elastic Constant Matrix: (Units=GPa)
#
#
# Indices 1 2 3 4 5 6 
#
# 1 114.6547 37.2978 20.7867 -0.7477 -8.9045 9.4853
# 2 37.2978 83.4468 21.4821 -4.3220 -0.7595 16.8584
# 3 20.7867 21.4821 72.5113 1.6541 -15.8037 2.5759
# 4 -0.7477 -4.3220 1.6541 30.0277 11.9781 -3.5418
# 5 -8.9045 -0.7595 -15.8037 11.9781 25.3743 -4.1911
# 6 9.4853 16.8584 2.5759 -3.5418 -4.1911 31.7685
#
#
#
# Elastic Compliance Matrix: (Units=1/GPa)
#
#
# Indices 1 2 3 4 5 6 
#
# 1 0.010676 -0.004557 -0.000780 -0.001989 0.003997 -0.000401
# 2 -0.004557 0.017166 -0.005370 0.004944 -0.008056 -0.007825
# 3 -0.000780 -0.005370 0.019071 -0.007719 0.015538 0.002725
# 4 -0.001989 0.004944 -0.007719 0.045008 -0.026586 0.000107
# 5 0.003997 -0.008056 0.015538 -0.026586 0.064005 0.007302
# 6 -0.000401 -0.007825 0.002725 0.000107 0.007302 0.036504
#
#
# Mechanical properties :
#
#
# Convention : Reuss Voigt Hill
#
# Bulk Modulus (GPa) = 39.21482 47.74957 43.48219
# Shear Modulus (GPa) = 22.48766 30.17052 26.32909
#
# Velocity S-wave (km/s) = 3.28051 3.79980 3.54966
# Velocity P-wave (km/s) = 5.75462 6.48863 6.13262
#
# Compressibility (1/GPa) = 0.02550056
#
# Stress axis : x y z
#
# Youngs Moduli (GPa) = 93.66648 58.25303 52.43542
#
# Poissons Ratio (x) = 0.26545 0.04089
# Poissons Ratio (y) = 0.42682 0.28158
# Poissons Ratio (z) = 0.07304 0.31282
#
# Static dielectric constant tensor:
#      x y z
#    x 3.728720 0.077910 -0.012780 
#    y 0.077910 3.837540 -0.086570 
#    z -0.012780 -0.086570 3.969550 
# 
# 
# High freq. dielectric constant tensor:
#      x y z
#    x 1.811900 0.010760 -0.008020 
#    y 0.010760 1.823870 -0.006690 
#    z -0.008020 -0.006690 1.828810 
# 
# From -- ./inp_files/454318.got.cif
#   From: 2010.06.25/outbox.cif.g09.slc.cpg/sg2_228_cif.got.tgz:454318.got - 2010.06.27 13:26:56.
