data_PCOD8007973
_publ_section_title
;
Structure prediction by ZEFSAII (Michael W. Deem and Ramdas Pophale) SiO2 
 PCOD8007973
Probable space group: P -1
;
_chemical_formula_sum "Si O2"
_cell_formula_units_Z 16
_cell_length_a 8.754783
_cell_length_b 22.255459
_cell_length_c 16.045032
_cell_angle_alpha 19.206915
_cell_angle_beta 123.495107
_cell_angle_gamma 113.899372
_cell_volume 777.215990
_symmetry_space_group_name_H-M "P -1"
_symmetry_group_IT_number 2
_symmetry_cell_setting 'triclinic'
loop_
_space_group_symop_operation_xyz
x,y,z
-x,-y,-z
loop_
_atom_site_type_symbol
_atom_site_label
_atom_site_fract_x
_atom_site_fract_y
_atom_site_fract_z
Si Si1 0.490433 0.527644 0.793134
Si Si2 0.638163 0.787516 0.781821
Si Si3 0.633292 0.628756 0.543871
Si Si4 0.798706 0.206008 0.880965
Si Si5 0.053267 0.782098 0.267343
Si Si6 0.115502 0.222278 0.474556
Si Si7 0.921510 0.464158 0.699466
Si Si8 0.233553 0.351378 0.176940
O O1 0.606328 0.484554 0.795518
O O2 0.256787 0.654673 0.542853
O O3 0.568181 0.647647 0.722641
O O4 0.510407 0.322929 0.109615
O O5 0.699217 0.786454 0.704712
O O6 0.500000 0.000000 0.500000
O O7 0.843191 0.689781 0.025676
O O8 0.431229 0.744628 0.277763
O O9 0.688915 0.792004 0.395756
O O10 0.820605 0.489025 0.726888
O O11 0.929835 0.213943 0.831709
O O12 0.798440 0.377731 0.717464
O O13 0.904836 0.985319 0.244255
O O14 0.896663 0.684454 0.370526
O O15 0.000000 0.000000 0.000000
O O16 0.134191 0.249384 0.345291
O O17 0.920748 0.417481 0.193439
#
# Coordination Sequence:
#
# PCOD8007973 Si02
#       8
#     2   2   2   2   2   2   2   2
#     4   9  22  39  63  90 119 155 211 254 302 361
#     4  11  24  40  59  89 127 166 200 253 310 369
#     4  10  20  42  62  88 123 160 202 263 303 368
#     4  11  23  37  63  93 122 160 204 253 316 371
#     4  10  22  40  63  90 121 162 201 257 309 365
#     4  10  21  38  65  93 117 161 213 256 304 359
#     4  11  23  40  60  91 129 161 203 252 313 369
#     4  10  21  40  62  88 123 159 211 260 294 361
#
# _framework density 20.586297999999999
#
# number of rings (size 3 to 8) (size 9 to 14) (size 15 to 20)
#    0.000    1.750    1.250    2.250    3.500    4.000 
#    0.000    2.500    0.000    0.000    0.000    0.000 
#    0.000    0.000    0.000    0.000    0.000    0.000 
#
# Total GULP energy -198363.066070 kJ/mol
# GULP energy per Si atom -12397.691629 kJ/mol
# Density = 2.053944 g / cm^3
# Si number density = 20.586298 Si / 1000 Ang^3
#
#
#
# Elastic Constant Matrix: (Units=GPa)
#
#
# Indices 1 2 3 4 5 6 
#
# 1 93.1829 37.6815 37.3519 -7.9068 0.0267 -15.9483
# 2 37.6815 109.2494 46.4583 -10.4814 -6.9983 -9.7635
# 3 37.3519 46.4583 91.4899 -11.5986 -8.0303 -11.0511
# 4 -7.9068 -10.4814 -11.5986 29.3017 -3.8524 4.2527
# 5 0.0267 -6.9983 -8.0303 -3.8524 18.7058 -6.2826
# 6 -15.9483 -9.7635 -11.0511 4.2527 -6.2826 35.9684
#
#
#
# Elastic Compliance Matrix: (Units=1/GPa)
#
#
# Indices 1 2 3 4 5 6 
#
# 1 0.014200 -0.002927 -0.003880 0.000491 -0.001330 0.004019
# 2 -0.002927 0.012614 -0.004467 0.002272 0.003651 0.001123
# 3 -0.003880 -0.004467 0.016303 0.004343 0.007173 0.002815
# 4 0.000491 0.002272 0.004343 0.038238 0.010409 -0.000534
# 5 -0.001330 0.003651 0.007173 0.010409 0.064283 0.012603
# 6 0.004019 0.001123 0.002815 -0.000534 0.012603 0.033019
#
#
# Mechanical properties :
#
#
# Convention : Reuss Voigt Hill
#
# Bulk Modulus (GPa) = 48.61370 59.65618 54.13494
# Shear Modulus (GPa) = 24.03137 28.29055 26.16096
#
# Velocity S-wave (km/s) = 3.42035 3.71110 3.56869
# Velocity P-wave (km/s) = 6.26612 6.88509 6.58289
#
# Compressibility (1/GPa) = 0.02057033
#
# Stress axis : x y z
#
# Youngs Moduli (GPa) = 70.42025 79.27421 61.33954
#
# Poissons Ratio (x) = 0.23201 0.23802
# Poissons Ratio (y) = 0.20610 0.27398
# Poissons Ratio (z) = 0.27326 0.35408
#
# Static dielectric constant tensor:
#      x y z
#    x 3.861550 0.021250 -0.054110 
#    y 0.021250 3.970450 -0.055560 
#    z -0.054110 -0.055560 3.498330 
# 
# 
# High freq. dielectric constant tensor:
#      x y z
#    x 1.815830 0.000200 -0.008040 
#    y 0.000200 1.808040 0.010940 
#    z -0.008040 0.010940 1.788870 
# 
# From -- ./inp_files/158724.got.cif
#   From: 2010.06.25/outbox.cif.g09.slc.cpg/sg2_80_cif.got.tgz:158724.got - 2010.06.27 13:26:56.
