data_PCOD8007759
_publ_section_title
;
Structure prediction by ZEFSAII (Michael W. Deem and Ramdas Pophale) SiO2 
 PCOD8007759
Probable space group: P -1
;
_chemical_formula_sum "Si O2"
_cell_formula_units_Z 16
_cell_length_a 11.433466
_cell_length_b 8.534504
_cell_length_c 7.569407
_cell_angle_alpha 94.616406
_cell_angle_beta 114.315837
_cell_angle_gamma 120.359321
_cell_volume 540.260350
_symmetry_space_group_name_H-M "P -1"
_symmetry_group_IT_number 2
_symmetry_cell_setting 'triclinic'
loop_
_space_group_symop_operation_xyz
x,y,z
-x,-y,-z
loop_
_atom_site_type_symbol
_atom_site_label
_atom_site_fract_x
_atom_site_fract_y
_atom_site_fract_z
Si Si1 0.216924 0.389946 0.952280
Si Si2 0.255349 0.851919 0.279663
Si Si3 0.911115 0.988141 0.635547
Si Si4 0.235238 0.434850 0.374468
Si Si5 0.065237 0.606704 0.845825
Si Si6 0.558811 0.059775 0.271663
Si Si7 0.538647 0.359632 0.151219
Si Si8 0.760480 0.978954 0.195263
O O1 0.125369 0.476298 0.819949
O O2 0.376716 0.482332 0.939592
O O3 0.280455 0.458964 0.197347
O O4 0.092429 0.155207 0.830533
O O5 0.341959 0.811815 0.481073
O O6 0.216103 0.995082 0.341384
O O7 0.372456 0.932697 0.191546
O O8 0.091360 0.657462 0.081326
O O9 0.880256 0.791048 0.663650
O O10 0.891140 0.992805 0.408860
O O11 0.394109 0.541842 0.604176
O O12 0.120630 0.506212 0.335604
O O13 0.164262 0.817759 0.833449
O O14 0.584888 0.207405 0.147285
O O15 0.617969 0.933252 0.233603
O O16 0.340969 0.220432 0.010747
#
# Coordination Sequence:
#
# PCOD8007759 Si02
#       8
#     2   2   2   2   2   2   2   2
#     4  12  26  46  75 111 143 183 243 302 356 423
#     4  10  21  39  74  99 141 184 234 287 358 418
#     4  11  27  50  69 101 144 199 239 290 355 431
#     4  12  29  48  71 104 150 193 241 291 357 426
#     4  12  23  43  74 112 136 184 240 297 361 423
#     4  10  20  41  68 108 138 177 230 300 357 412
#     4  12  25  44  72 109 145 184 234 305 359 421
#     4  11  24  44  74 104 146 180 238 296 366 425
#
# _framework density 29.615352000000001
#
# number of rings (size 3 to 8) (size 9 to 14) (size 15 to 20)
#    0.000    0.750    3.750    3.375    3.500    5.500 
#    0.000    2.500    0.000    0.000    0.000    0.000 
#    0.000    0.000    0.000    0.000    0.000    0.000 
#
# Total GULP energy -198388.573102 kJ/mol
# GULP energy per Si atom -12399.285819 kJ/mol
# Density = 2.954795 g / cm^3
# Si number density = 29.615352 Si / 1000 Ang^3
#
#
#
# Elastic Constant Matrix: (Units=GPa)
#
#
# Indices 1 2 3 4 5 6 
#
# 1 120.3158 16.9073 66.9659 5.7716 22.7418 17.0891
# 2 16.9073 127.7968 43.4598 -9.0155 19.8251 14.8650
# 3 66.9659 43.4598 208.9281 9.8728 21.5675 22.0415
# 4 5.7716 -9.0155 9.8728 48.6428 9.3021 -2.7029
# 5 22.7418 19.8251 21.5675 9.3021 48.0424 -0.4074
# 6 17.0891 14.8650 22.0415 -2.7029 -0.4074 32.7651
#
#
#
# Elastic Compliance Matrix: (Units=1/GPa)
#
#
# Indices 1 2 3 4 5 6 
#
# 1 0.011229 0.000647 -0.002829 -0.000047 -0.004340 -0.004305
# 2 0.000647 0.009467 -0.001515 0.002570 -0.004060 -0.003452
# 3 -0.002829 -0.001515 0.006372 -0.001233 -0.000676 -0.002234
# 4 -0.000047 0.002570 -0.001233 0.022287 -0.004787 0.001467
# 5 -0.004340 -0.004060 -0.000676 -0.004787 0.025813 0.004486
# 6 -0.004305 -0.003452 -0.002234 0.001467 0.004486 0.036011
#
#
# Mechanical properties :
#
#
# Convention : Reuss Voigt Hill
#
# Bulk Modulus (GPa) = 50.82785 79.07852 64.95318
# Shear Modulus (GPa) = 39.95763 47.87059 43.91411
#
# Velocity S-wave (km/s) = 3.67716 4.02482 3.85491
# Velocity P-wave (km/s) = 5.93537 6.95405 6.46480
#
# Compressibility (1/GPa) = 0.01967425
#
# Stress axis : x y z
#
# Youngs Moduli (GPa) = 89.05206 105.62908 156.93422
#
# Poissons Ratio (x) = -0.06837 0.44404
# Poissons Ratio (y) = -0.05764 0.23774
# Poissons Ratio (z) = 0.25197 0.16002
#
# Static dielectric constant tensor:
#      x y z
#    x 5.568150 -0.058310 0.312270 
#    y -0.058310 5.596360 0.015020 
#    z 0.312270 0.015020 5.943550 
# 
# 
# High freq. dielectric constant tensor:
#      x y z
#    x 2.224500 -0.007080 0.027380 
#    y -0.007080 2.235520 -0.004970 
#    z 0.027380 -0.004970 2.232210 
# 
# From -- ./inp_files/298600.got.cif
#   From: 2010.06.25/outbox.cif.g09.slc.cpg/sg2_150_cif.got.tgz:298600.got - 2010.06.27 13:26:56.
