data_PCOD8007722
_publ_section_title
;
Structure prediction by ZEFSAII (Michael W. Deem and Ramdas Pophale) SiO2 
 PCOD8007722
Probable space group: P -1
;
_chemical_formula_sum "Si O2"
_cell_formula_units_Z 10
_cell_length_a 9.906533
_cell_length_b 7.754143
_cell_length_c 14.148814
_cell_angle_alpha 74.557667
_cell_angle_beta 149.476450
_cell_angle_gamma 89.848925
_cell_volume 468.537566
_symmetry_space_group_name_H-M "P -1"
_symmetry_group_IT_number 2
_symmetry_cell_setting 'triclinic'
loop_
_space_group_symop_operation_xyz
x,y,z
-x,-y,-z
loop_
_atom_site_type_symbol
_atom_site_label
_atom_site_fract_x
_atom_site_fract_y
_atom_site_fract_z
Si Si1 0.336687 0.889914 0.966821
Si Si2 0.888727 0.502835 0.328155
Si Si3 0.224279 0.064258 0.076892
Si Si4 0.165533 0.146606 0.422084
Si Si5 0.827044 0.475734 0.684940
O O1 0.528348 0.650280 0.091447
O O2 0.338554 0.924425 0.073930
O O3 0.998406 0.966828 0.711696
O O4 0.500000 0.000000 0.000000
O O5 0.965657 0.276294 0.373404
O O6 0.000000 0.500000 0.500000
O O7 0.056496 0.588380 0.344089
O O8 0.504825 0.020008 0.320715
O O9 0.061573 0.303965 0.921369
O O10 0.000000 0.000000 0.000000
O O11 0.190085 0.304471 0.338772
O O12 0.500000 0.500000 0.500000
#
# Coordination Sequence:
#
# PCOD8007722 Si02
#       5
#     2   2   2   2   2
#     4  12  23  43  65  95 131 173 219 270 314 384
#     4  10  20  41  67  93 132 170 211 271 324 379
#     4  12  23  43  68  95 132 171 218 269 320 385
#     4  10  24  41  68  94 133 169 217 263 330 378
#     4  10  21  43  66  91 133 171 210 271 322 384
#
# _framework density 21.343005000000002
#
# number of rings (size 3 to 8) (size 9 to 14) (size 15 to 20)
#    1.200    0.000    6.000    0.600    0.000    1.600 
#    3.600    1.000    0.000    0.000    0.000    0.000 
#    0.000    0.000    0.000    0.000    0.000    0.000 
#
# Total GULP energy -123929.196214 kJ/mol
# GULP energy per Si atom -12392.919621 kJ/mol
# Density = 2.129443 g / cm^3
# Si number density = 21.343005 Si / 1000 Ang^3
#
#
#
# Elastic Constant Matrix: (Units=GPa)
#
#
# Indices 1 2 3 4 5 6 
#
# 1 126.2649 17.2806 47.3750 6.3238 1.4264 10.3665
# 2 17.2806 43.9850 38.8240 -2.0279 2.1415 20.0650
# 3 47.3750 38.8240 182.8558 -6.1419 7.3084 24.7966
# 4 6.3238 -2.0279 -6.1419 43.6234 7.0497 4.3164
# 5 1.4264 2.1415 7.3084 7.0497 37.0226 -5.6067
# 6 10.3665 20.0650 24.7966 4.3164 -5.6067 29.4444
#
#
#
# Elastic Compliance Matrix: (Units=1/GPa)
#
#
# Indices 1 2 3 4 5 6 
#
# 1 0.009016 -0.001970 -0.002034 -0.001798 0.000548 0.000249
# 2 -0.001970 0.038515 -0.004012 0.004843 -0.005918 -0.024011
# 3 -0.002034 -0.004012 0.007465 0.001835 -0.002042 -0.003494
# 4 -0.001798 0.004843 0.001835 0.025697 -0.006873 -0.009289
# 5 0.000548 -0.005918 -0.002042 -0.006873 0.030930 0.012457
# 6 0.000249 -0.024011 -0.003494 -0.009289 0.012457 0.056913
#
#
# Mechanical properties :
#
#
# Convention : Reuss Voigt Hill
#
# Bulk Modulus (GPa) = 25.66475 62.22943 43.94709
# Shear Modulus (GPa) = 25.30939 38.65983 31.98461
#
# Velocity S-wave (km/s) = 3.44734 4.26062 3.87537
# Velocity P-wave (km/s) = 5.28172 7.30917 6.37654
#
# Compressibility (1/GPa) = 0.03896394
#
# Stress axis : x y z
#
# Youngs Moduli (GPa) = 110.91449 25.96408 133.96711
#
# Poissons Ratio (x) = 0.05116 0.27244
# Poissons Ratio (y) = 0.21854 0.53743
# Poissons Ratio (z) = 0.22556 0.10416
#
# Static dielectric constant tensor:
#      x y z
#    x 3.898930 -0.065570 0.132930 
#    y -0.065570 3.695740 -0.457650 
#    z 0.132930 -0.457650 4.214790 
# 
# 
# High freq. dielectric constant tensor:
#      x y z
#    x 1.838490 -0.004070 0.004140 
#    y -0.004070 1.812920 -0.018980 
#    z 0.004140 -0.018980 1.846790 
# 
# From -- ./inp_files/20077.got.cif
#   From: 2010.06.25/outbox.cif.g09.slc.cpg/sg2_11_cif.got.tgz:20077.got - 2010.06.27 13:26:56.
