data_PCOD8007649
_publ_section_title
;
Structure prediction by ZEFSAII (Michael W. Deem and Ramdas Pophale) SiO2 
 PCOD8007649
Probable space group: P -1
;
_chemical_formula_sum "Si O2"
_cell_formula_units_Z 16
_cell_length_a 15.958373
_cell_length_b 14.002573
_cell_length_c 8.156803
_cell_angle_alpha 33.702095
_cell_angle_beta 53.524319
_cell_angle_gamma 48.849920
_cell_volume 756.710282
_symmetry_space_group_name_H-M "P -1"
_symmetry_group_IT_number 2
_symmetry_cell_setting 'triclinic'
loop_
_space_group_symop_operation_xyz
x,y,z
-x,-y,-z
loop_
_atom_site_type_symbol
_atom_site_label
_atom_site_fract_x
_atom_site_fract_y
_atom_site_fract_z
Si Si1 0.258930 0.581785 0.523508
Si Si2 0.982971 0.317643 0.843665
Si Si3 0.420537 0.053459 0.668469
Si Si4 0.881304 0.159879 0.931552
Si Si5 0.903562 0.526845 0.943435
Si Si6 0.584776 0.298290 0.638788
Si Si7 0.814106 0.865250 0.323951
Si Si8 0.469411 0.370379 0.350100
O O1 0.216410 0.445620 0.873677
O O2 0.294257 0.713248 0.420439
O O3 0.358123 0.480195 0.426482
O O4 0.147019 0.699965 0.387433
O O5 0.100813 0.151148 0.904990
O O6 0.000000 0.500000 0.500000
O O7 0.881508 0.276423 0.928571
O O8 0.949447 0.343015 0.037420
O O9 0.296105 0.148452 0.605978
O O10 0.448922 0.202348 0.528128
O O11 0.500000 0.000000 0.500000
O O12 0.442770 0.869267 0.011102
O O13 0.789205 0.060129 0.172352
O O14 0.000000 0.000000 0.000000
O O15 0.877884 0.707196 0.605415
O O16 0.000000 0.500000 0.000000
O O17 0.500000 0.500000 0.500000
O O18 0.575496 0.286257 0.469900
O O19 0.500000 0.500000 0.000000
#
# Coordination Sequence:
#
# PCOD8007649 Si02
#       8
#     2   2   2   2   2   2   2   2
#     4  11  23  42  70  97 136 179 220 281 344 398
#     4   9  20  39  65  93 130 171 221 263 323 402
#     4  12  25  44  71 101 135 176 231 287 346 405
#     4  10  20  41  66  94 132 176 224 272 326 403
#     4  11  24  41  65 101 139 177 224 272 331 405
#     4  10  23  46  67  99 135 169 228 283 343 412
#     4  10  23  41  67  96 133 179 221 270 342 401
#     4  11  27  44  72 100 134 178 231 285 345 413
#
# _framework density 21.144155999999999
#
# number of rings (size 3 to 8) (size 9 to 14) (size 15 to 20)
#    0.000    1.500    1.250    4.125   10.500    0.000 
#    0.000    5.625    2.750    0.000    0.000    0.000 
#    0.000    0.000    0.000    0.000    0.000    0.000 
#
# Total GULP energy -198249.158997 kJ/mol
# GULP energy per Si atom -12390.572437 kJ/mol
# Density = 2.109603 g / cm^3
# Si number density = 21.144156 Si / 1000 Ang^3
#
#
#
# Elastic Constant Matrix: (Units=GPa)
#
#
# Indices 1 2 3 4 5 6 
#
# 1 182.9445 61.9328 46.7444 -4.1957 -2.0556 36.5193
# 2 61.9328 92.2250 47.9480 10.3549 -6.1645 16.7485
# 3 46.7444 47.9480 118.0517 1.5788 -3.8086 20.3498
# 4 -4.1957 10.3549 1.5788 39.7506 2.6114 -5.1649
# 5 -2.0556 -6.1645 -3.8086 2.6114 44.0030 -9.6485
# 6 36.5193 16.7485 20.3498 -5.1649 -9.6485 37.5264
#
#
#
# Elastic Compliance Matrix: (Units=1/GPa)
#
#
# Indices 1 2 3 4 5 6 
#
# 1 0.008349 -0.004514 -0.000497 0.001398 -0.001703 -0.006086
# 2 -0.004514 0.017299 -0.004966 -0.005019 0.001897 -0.000838
# 3 -0.000497 -0.004966 0.011265 0.000375 -0.000532 -0.003494
# 4 0.001398 -0.005019 0.000375 0.027214 -0.001326 0.004081
# 5 -0.001703 0.001897 -0.000532 -0.001326 0.024528 0.007223
# 6 -0.006086 -0.000838 -0.003494 0.004081 0.007223 0.037259
#
#
# Mechanical properties :
#
#
# Convention : Reuss Voigt Hill
#
# Bulk Modulus (GPa) = 58.96649 78.49688 68.73168
# Shear Modulus (GPa) = 32.99894 40.02907 36.51400
#
# Velocity S-wave (km/s) = 3.95481 4.35576 4.16012
# Velocity P-wave (km/s) = 6.98587 7.90582 7.46004
#
# Compressibility (1/GPa) = 0.01695878
#
# Stress axis : x y z
#
# Youngs Moduli (GPa) = 119.77334 57.80844 88.77260
#
# Poissons Ratio (x) = 0.26093 0.04413
# Poissons Ratio (y) = 0.54063 0.44084
# Poissons Ratio (z) = 0.05954 0.28707
#
# Static dielectric constant tensor:
#      x y z
#    x 4.488000 0.350340 -0.150700 
#    y 0.350340 4.006610 -0.073400 
#    z -0.150700 -0.073400 3.933980 
# 
# 
# High freq. dielectric constant tensor:
#      x y z
#    x 1.855870 0.010730 -0.008540 
#    y 0.010730 1.812560 -0.009180 
#    z -0.008540 -0.009180 1.827080 
# 
# From -- ./inp_files/314381.got.cif
#   From: 2010.06.25/outbox.cif.g09.slc.cpg/sg2_158_cif.got.tgz:314381.got - 2010.06.27 13:26:56.
