data_PCOD8007995
_publ_section_title
;
Structure prediction by ZEFSAII (Michael W. Deem and Ramdas Pophale) SiO2 
 PCOD8007995
Probable space group: P -1
;
_chemical_formula_sum "Si O2"
_cell_formula_units_Z 16
_cell_length_a 10.171886
_cell_length_b 7.412756
_cell_length_c 15.318214
_cell_angle_alpha 132.637837
_cell_angle_beta 80.164288
_cell_angle_gamma 83.379513
_cell_volume 793.547118
_symmetry_space_group_name_H-M "P -1"
_symmetry_group_IT_number 2
_symmetry_cell_setting 'triclinic'
loop_
_space_group_symop_operation_xyz
x,y,z
-x,-y,-z
loop_
_atom_site_type_symbol
_atom_site_label
_atom_site_fract_x
_atom_site_fract_y
_atom_site_fract_z
Si Si1 0.340322 0.083428 0.332248
Si Si2 0.911883 0.399134 0.185071
Si Si3 0.313102 0.232808 0.200336
Si Si4 0.584067 0.147826 0.234104
Si Si5 0.107468 0.030783 0.626841
Si Si6 0.806753 0.196624 0.636019
Si Si7 0.786345 0.981861 0.013652
Si Si8 0.780426 0.393420 0.377807
O O1 0.261852 0.133522 0.263376
O O2 0.508869 0.027164 0.278760
O O3 0.265516 0.333475 0.480490
O O4 0.319677 0.836470 0.301198
O O5 0.874414 0.696567 0.257156
O O6 0.809774 0.262719 0.104172
O O7 0.895406 0.385690 0.287510
O O8 0.069786 0.249455 0.088785
O O9 0.465180 0.271764 0.213852
O O10 0.204116 0.505160 0.272243
O O11 0.317515 0.023477 0.056272
O O12 0.713993 0.941629 0.100736
O O13 0.638011 0.365842 0.343237
O O14 0.950893 0.049720 0.621088
O O15 0.206673 0.916729 0.495259
O O16 0.150515 0.840692 0.641160
#
# Coordination Sequence:
#
# PCOD8007995 Si02
#       8
#     2   2   2   2   2   2   2   2
#     4  10  22  37  63  92 121 158 194 248 307 356
#     4  10  22  39  65  88 123 160 196 251 294 366
#     4  10  21  40  63  85 124 159 197 253 287 356
#     4   9  22  40  63  84 120 165 200 249 286 357
#     4  11  22  37  62  92 128 150 194 258 298 365
#     4  11  22  37  60  97 121 154 199 243 315 356
#     4  10  20  42  63  86 119 167 206 232 303 348
#     4  11  21  40  61  95 122 153 198 247 317 347
#
# _framework density 20.162634000000001
#
# number of rings (size 3 to 8) (size 9 to 14) (size 15 to 20)
#    0.750    1.000    3.750    0.750    1.750    0.500 
#    4.500   10.000    0.000    0.000    0.000    0.000 
#    0.000    0.000    0.000    0.000    0.000    0.000 
#
# Total GULP energy -198282.670245 kJ/mol
# GULP energy per Si atom -12392.666890 kJ/mol
# Density = 2.011674 g / cm^3
# Si number density = 20.162634 Si / 1000 Ang^3
#
#
#
# Elastic Constant Matrix: (Units=GPa)
#
#
# Indices 1 2 3 4 5 6 
#
# 1 54.0671 16.0562 19.0154 -5.0719 -5.3692 0.1741
# 2 16.0562 84.5684 30.4716 -6.8458 -6.6386 11.1348
# 3 19.0154 30.4716 109.4431 -11.7543 3.5711 7.9309
# 4 -5.0719 -6.8458 -11.7543 23.4728 9.4101 -0.9857
# 5 -5.3692 -6.6386 3.5711 9.4101 38.0981 -14.2791
# 6 0.1741 11.1348 7.9309 -0.9857 -14.2791 31.3255
#
#
#
# Elastic Compliance Matrix: (Units=1/GPa)
#
#
# Indices 1 2 3 4 5 6 
#
# 1 0.020905 -0.002948 -0.003117 0.000693 0.003867 0.003505
# 2 -0.002948 0.014152 -0.002970 0.001670 0.000409 -0.004023
# 3 -0.003117 -0.002970 0.011618 0.006137 -0.005053 -0.003978
# 4 0.000693 0.001670 0.006137 0.052425 -0.016068 -0.007826
# 5 0.003867 0.000409 -0.005053 -0.016068 0.038032 0.017943
# 6 0.003505 -0.004023 -0.003978 -0.007826 0.017943 0.042273
#
#
# Mechanical properties :
#
#
# Convention : Reuss Voigt Hill
#
# Bulk Modulus (GPa) = 34.96011 42.12943 38.54477
# Shear Modulus (GPa) = 24.15336 30.74831 27.45084
#
# Velocity S-wave (km/s) = 3.46486 3.90938 3.69381
# Velocity P-wave (km/s) = 5.77787 6.42790 6.11153
#
# Compressibility (1/GPa) = 0.02860403
#
# Stress axis : x y z
#
# Youngs Moduli (GPa) = 47.83532 70.66298 86.07303
#
# Poissons Ratio (x) = 0.20829 0.26831
# Poissons Ratio (y) = 0.14100 0.25567
# Poissons Ratio (z) = 0.14911 0.20990
#
# Static dielectric constant tensor:
#      x y z
#    x 3.645510 0.176090 0.101870 
#    y 0.176090 3.435210 -0.255260 
#    z 0.101870 -0.255260 3.783000 
# 
# 
# High freq. dielectric constant tensor:
#      x y z
#    x 1.786600 0.015090 0.007830 
#    y 0.015090 1.761520 -0.019260 
#    z 0.007830 -0.019260 1.795980 
# 
# From -- ./inp_files/477008.got.cif
#   From: 2010.06.25/outbox.cif.g09.slc.cpg/sg2_239_cif.got.tgz:477008.got - 2010.06.27 13:26:56.
