data_PCOD8007038
_publ_section_title
;
Structure prediction by ZEFSAII (Michael W. Deem and Ramdas Pophale) SiO2 
 PCOD8007038
Probable space group: P -1
;
_chemical_formula_sum "Si O2"
_cell_formula_units_Z 16
_cell_length_a 9.211912
_cell_length_b 8.619888
_cell_length_c 11.244925
_cell_angle_alpha 103.272329
_cell_angle_beta 103.991884
_cell_angle_gamma 115.481043
_cell_volume 723.196676
_symmetry_space_group_name_H-M "P -1"
_symmetry_group_IT_number 2
_symmetry_cell_setting 'triclinic'
loop_
_space_group_symop_operation_xyz
x,y,z
-x,-y,-z
loop_
_atom_site_type_symbol
_atom_site_label
_atom_site_fract_x
_atom_site_fract_y
_atom_site_fract_z
Si Si1 0.227063 0.048165 0.960807
Si Si2 0.830429 0.301378 0.237618
Si Si3 0.458965 0.607647 0.806317
Si Si4 0.921860 0.089091 0.834399
Si Si5 0.290070 0.867474 0.572368
Si Si6 0.416110 0.219843 0.387619
Si Si7 0.150841 0.651306 0.271495
Si Si8 0.521328 0.712607 0.326027
O O1 0.103774 0.094602 0.865531
O O2 0.263669 0.902851 0.875050
O O3 0.405237 0.241939 0.048439
O O4 0.145072 0.952872 0.052290
O O5 0.722389 0.403055 0.210020
O O6 0.835082 0.269764 0.373816
O O7 0.022728 0.436113 0.246403
O O8 0.523071 0.647251 0.689851
O O9 0.439726 0.406629 0.782546
O O10 0.939681 0.284497 0.833848
O O11 0.788867 0.928473 0.690485
O O12 0.480432 0.890694 0.611570
O O13 0.189441 0.782982 0.415614
O O14 0.331001 0.075619 0.635217
O O15 0.456651 0.331514 0.539259
O O16 0.324638 0.666066 0.256079
#
# Coordination Sequence:
#
# PCOD8007038 Si02
#       8
#     2   2   2   2   2   2   2   2
#     4  10  24  43  64  87 129 171 214 258 310 369
#     4  11  25  43  62  91 133 171 204 259 325 369
#     4  10  23  41  62  92 127 170 215 251 315 380
#     4  10  20  40  66  95 122 158 219 265 302 364
#     4  10  20  41  64  96 132 166 200 256 326 382
#     4   9  17  37  64  94 124 162 206 262 309 369
#     4  11  22  40  67 101 125 160 212 267 312 371
#     4  11  20  38  70  98 122 163 215 259 310 375
#
# _framework density 22.123996999999999
#
# number of rings (size 3 to 8) (size 9 to 14) (size 15 to 20)
#    0.000    1.750    2.500    1.875    5.250    1.500 
#    2.250    2.500    0.000    0.000    0.000    0.000 
#    0.000    0.000    0.000    0.000    0.000    0.000 
#
# Total GULP energy -198397.169925 kJ/mol
# GULP energy per Si atom -12399.823120 kJ/mol
# Density = 2.207364 g / cm^3
# Si number density = 22.123997 Si / 1000 Ang^3
#
#
#
# Elastic Constant Matrix: (Units=GPa)
#
#
# Indices 1 2 3 4 5 6 
#
# 1 53.9533 17.4186 25.5626 1.5165 -3.4512 -16.9705
# 2 17.4186 60.3251 37.4703 12.6581 5.3471 -16.4280
# 3 25.5626 37.4703 73.7753 6.8989 6.6071 -18.4090
# 4 1.5165 12.6581 6.8989 38.0002 -11.0519 -4.5053
# 5 -3.4512 5.3471 6.6071 -11.0519 28.6952 8.9136
# 6 -16.9705 -16.4280 -18.4090 -4.5053 8.9136 35.3888
#
#
#
# Elastic Compliance Matrix: (Units=1/GPa)
#
#
# Indices 1 2 3 4 5 6 
#
# 1 0.024548 -0.002260 -0.006237 0.002814 0.003753 0.006891
# 2 -0.002260 0.028376 -0.009886 -0.009339 -0.009404 0.008126
# 3 -0.006237 -0.009886 0.022971 -0.001897 -0.006737 0.005825
# 4 0.002814 -0.009339 -0.001897 0.034101 0.016854 -0.003876
# 5 0.003753 -0.009404 -0.006737 0.016854 0.050246 -0.016581
# 6 0.006891 0.008126 0.005825 -0.003876 -0.016581 0.042047
#
#
# Mechanical properties :
#
#
# Convention : Reuss Voigt Hill
#
# Bulk Modulus (GPa) = 25.55734 38.77299 32.16517
# Shear Modulus (GPa) = 19.83357 27.59033 23.71195
#
# Velocity S-wave (km/s) = 2.99736 3.53523 3.27735
# Velocity P-wave (km/s) = 4.85344 5.85040 5.37508
#
# Compressibility (1/GPa) = 0.03912770
#
# Stress axis : x y z
#
# Youngs Moduli (GPa) = 40.73655 35.24104 43.53316
#
# Poissons Ratio (x) = 0.07966 0.27154
# Poissons Ratio (y) = 0.09208 0.43035
# Poissons Ratio (z) = 0.25409 0.34838
#
# Static dielectric constant tensor:
#      x y z
#    x 3.748010 -0.114840 0.114470 
#    y -0.114840 3.931440 -0.118390 
#    z 0.114470 -0.118390 3.973900 
# 
# 
# High freq. dielectric constant tensor:
#      x y z
#    x 1.850670 -0.008020 0.004260 
#    y -0.008020 1.875410 -0.000070 
#    z 0.004260 -0.000070 1.867810 
# 
# From -- ./inp_files/205843.got.cif
#   From: 2010.06.25/outbox.cif.g09.slc.cpg/sg2_103_cif.got.tgz:205843.got - 2010.06.27 13:26:56.
