data_PCOD8007858
_publ_section_title
;
Structure prediction by ZEFSAII (Michael W. Deem and Ramdas Pophale) SiO2 
 PCOD8007858
Probable space group: P -1
;
_chemical_formula_sum "Si O2"
_cell_formula_units_Z 16
_cell_length_a 9.082207
_cell_length_b 21.888172
_cell_length_c 4.954030
_cell_angle_alpha 94.573323
_cell_angle_beta 84.579772
_cell_angle_gamma 127.580462
_cell_volume 776.676968
_symmetry_space_group_name_H-M "P -1"
_symmetry_group_IT_number 2
_symmetry_cell_setting 'triclinic'
loop_
_space_group_symop_operation_xyz
x,y,z
-x,-y,-z
loop_
_atom_site_type_symbol
_atom_site_label
_atom_site_fract_x
_atom_site_fract_y
_atom_site_fract_z
Si Si1 0.864188 0.696993 0.765167
Si Si2 0.797281 0.817608 0.989695
Si Si3 0.754978 0.264742 0.163085
Si Si4 0.671200 0.594313 0.257159
Si Si5 0.272773 0.512398 0.490976
Si Si6 0.856589 0.909226 0.479316
Si Si7 0.083518 0.570076 0.807598
Si Si8 0.517682 0.201821 0.704201
O O1 0.789292 0.666716 0.466220
O O2 0.081655 0.737726 0.764036
O O3 0.845554 0.762388 0.871309
O O4 0.741787 0.622932 0.953173
O O5 0.924737 0.874269 0.238960
O O6 0.581564 0.764864 0.115008
O O7 0.829348 0.872744 0.761300
O O8 0.828004 0.347039 0.046181
O O9 0.632693 0.250941 0.439992
O O10 0.645864 0.203001 0.915560
O O11 0.453382 0.556906 0.284544
O O12 0.698789 0.529203 0.287419
O O13 0.245912 0.575254 0.620003
O O14 0.081926 0.445033 0.354140
O O15 0.654826 0.884537 0.397599
O O16 0.000000 0.000000 0.500000
O O17 0.000000 0.500000 0.000000
#
# Coordination Sequence:
#
# PCOD8007858 Si02
#       8
#     2   2   2   2   2   2   2   2
#     4  12  25  41  63  89 128 164 206 257 323 362
#     4  10  22  39  64 101 122 159 210 241 303 369
#     4  12  24  41  63  87 132 164 208 266 317 368
#     4  11  25  42  61  83 117 169 211 269 322 366
#     4  10  25  40  57  84 115 155 226 267 318 383
#     4  10  20  41  70 101 130 157 202 253 297 368
#     4  11  25  40  59  86 118 169 216 270 325 364
#     4  10  23  40  64  97 118 165 210 244 314 367
#
# _framework density 20.600584000000001
#
# number of rings (size 3 to 8) (size 9 to 14) (size 15 to 20)
#    0.750    0.500    2.500    2.625    8.750    1.000 
#    0.000    0.000    0.000    4.500    0.000    0.000 
#    0.000    0.000    0.000    0.000    0.000    0.000 
#
# Total GULP energy -198274.542259 kJ/mol
# GULP energy per Si atom -12392.158891 kJ/mol
# Density = 2.055370 g / cm^3
# Si number density = 20.600584 Si / 1000 Ang^3
#
#
#
# Elastic Constant Matrix: (Units=GPa)
#
#
# Indices 1 2 3 4 5 6 
#
# 1 115.0984 40.9726 17.0361 -4.3108 2.7703 13.7131
# 2 40.9726 66.3033 14.0900 1.2860 -0.8379 11.5080
# 3 17.0361 14.0900 87.0832 -7.4763 -4.8473 8.7254
# 4 -4.3108 1.2860 -7.4763 32.2310 5.3453 -0.5887
# 5 2.7703 -0.8379 -4.8473 5.3453 20.2787 1.9043
# 6 13.7131 11.5080 8.7254 -0.5887 1.9043 18.6815
#
#
#
# Elastic Compliance Matrix: (Units=1/GPa)
#
#
# Indices 1 2 3 4 5 6 
#
# 1 0.011694 -0.006433 -0.000807 0.001925 -0.002192 -0.003961
# 2 -0.006433 0.020795 -0.001392 -0.002625 0.002831 -0.007809
# 3 -0.000807 -0.001392 0.012700 0.002324 0.002918 -0.004706
# 4 0.001925 -0.002625 0.002324 0.033392 -0.008717 0.001060
# 5 -0.002192 0.002831 0.002918 -0.008717 0.053402 -0.007216
# 6 -0.003961 -0.007809 -0.004706 0.001060 -0.007216 0.064214
#
#
# Mechanical properties :
#
#
# Convention : Reuss Voigt Hill
#
# Bulk Modulus (GPa) = 35.80764 45.85358 40.83061
# Shear Modulus (GPa) = 22.44483 27.33067 24.88775
#
# Velocity S-wave (km/s) = 3.30437 3.64633 3.47956
# Velocity P-wave (km/s) = 5.65492 6.32727 6.00052
#
# Compressibility (1/GPa) = 0.02792700
#
# Stress axis : x y z
#
# Youngs Moduli (GPa) = 85.51210 48.08809 78.74188
#
# Poissons Ratio (x) = 0.30934 0.06353
# Poissons Ratio (y) = 0.55007 0.10957
# Poissons Ratio (z) = 0.06899 0.06692
#
# Static dielectric constant tensor:
#      x y z
#    x 3.993080 0.138750 -0.003940 
#    y 0.138750 3.440640 0.117840 
#    z -0.003940 0.117840 3.936520 
# 
# 
# High freq. dielectric constant tensor:
#      x y z
#    x 1.807500 0.014400 -0.004510 
#    y 0.014400 1.769270 0.010220 
#    z -0.004510 0.010220 1.822700 
# 
# From -- ./inp_files/51364.got.cif
#   From: 2010.06.25/outbox.cif.g09.slc.cpg/sg2_26_cif.got.tgz:51364.got - 2010.06.27 13:26:56.
