data_PCOD8007778
_publ_section_title
;
Structure prediction by ZEFSAII (Michael W. Deem and Ramdas Pophale) SiO2 
 PCOD8007778
Probable space group: P -1
;
_chemical_formula_sum "Si O2"
_cell_formula_units_Z 14
_cell_length_a 9.367931
_cell_length_b 7.390876
_cell_length_c 9.393848
_cell_angle_alpha 76.227897
_cell_angle_beta 94.611192
_cell_angle_gamma 101.283599
_cell_volume 619.104071
_symmetry_space_group_name_H-M "P -1"
_symmetry_group_IT_number 2
_symmetry_cell_setting 'triclinic'
loop_
_space_group_symop_operation_xyz
x,y,z
-x,-y,-z
loop_
_atom_site_type_symbol
_atom_site_label
_atom_site_fract_x
_atom_site_fract_y
_atom_site_fract_z
Si Si1 0.022285 0.579618 0.826773
Si Si2 0.546519 0.312979 0.485142
Si Si3 0.010189 0.005063 0.668798
Si Si4 0.447012 0.787698 0.079628
Si Si5 0.195902 0.728979 0.290032
Si Si6 0.670225 0.885495 0.293963
Si Si7 0.655458 0.312323 0.192132
O O1 0.917119 0.460352 0.724254
O O2 0.186034 0.559423 0.798506
O O3 0.997610 0.796339 0.774858
O O4 0.000000 0.500000 0.000000
O O5 0.500000 0.500000 0.500000
O O6 0.707124 0.301335 0.559162
O O7 0.417372 0.142032 0.556827
O O8 0.549065 0.321624 0.313466
O O9 0.884893 0.097911 0.713147
O O10 0.164424 0.146371 0.683875
O O11 0.000000 0.000000 0.500000
O O12 0.297025 0.782412 0.152068
O O13 0.574792 0.736510 0.202790
O O14 0.422429 0.642828 0.970724
O O15 0.500000 0.000000 0.000000
O O16 0.680221 0.100090 0.208435
#
# Coordination Sequence:
#
# PCOD8007778 Si02
#       7
#     2   2   2   2   2   2   2
#     4  11  24  45  71 107 144 180 239 289 352 418
#     4  11  25  42  66 100 135 182 233 289 348 410
#     4  11  26  44  75 106 139 190 234 285 359 415
#     4   9  19  41  68  93 130 178 226 283 343 407
#     4  11  24  46  69  99 144 181 233 294 346 418
#     4   9  21  42  64  97 133 175 230 282 346 414
#     4  10  20  41  68  94 134 179 228 288 341 413
#
# _framework density 22.613323999999999
#
# number of rings (size 3 to 8) (size 9 to 14) (size 15 to 20)
#    0.000    1.714    1.429    2.143    4.000    4.000 
#    0.000    2.857    0.000    0.000    0.000    0.000 
#    0.000    0.000    0.000    0.000    0.000    0.000 
#
# Total GULP energy -173517.588082 kJ/mol
# GULP energy per Si atom -12394.113434 kJ/mol
# Density = 2.256185 g / cm^3
# Si number density = 22.613324 Si / 1000 Ang^3
#
#
#
# Elastic Constant Matrix: (Units=GPa)
#
#
# Indices 1 2 3 4 5 6 
#
# 1 147.6432 54.0573 68.0612 9.4250 6.0145 14.1854
# 2 54.0573 75.4770 35.4717 0.7692 7.1007 8.7270
# 3 68.0612 35.4717 167.0216 12.3932 -13.9705 3.8365
# 4 9.4250 0.7692 12.3932 32.9215 7.4077 -0.1579
# 5 6.0145 7.1007 -13.9705 7.4077 23.7432 -3.2476
# 6 14.1854 8.7270 3.8365 -0.1579 -3.2476 41.3086
#
#
#
# Elastic Compliance Matrix: (Units=1/GPa)
#
#
# Indices 1 2 3 4 5 6 
#
# 1 0.010772 -0.005571 -0.003327 -0.001030 -0.003035 -0.002456
# 2 -0.005571 0.019488 -0.002730 0.003860 -0.007574 -0.002531
# 3 -0.003327 -0.002730 0.008906 -0.004225 0.008429 0.001539
# 4 -0.001030 0.003860 -0.004225 0.035448 -0.014587 -0.001080
# 5 -0.003035 -0.007574 0.008429 -0.014587 0.055505 0.006167
# 6 -0.002456 -0.002531 0.001539 -0.001080 0.006167 0.025924
#
#
# Mechanical properties :
#
#
# Convention : Reuss Voigt Hill
#
# Bulk Modulus (GPa) = 62.85955 78.36916 70.61435
# Shear Modulus (GPa) = 27.08494 35.09810 31.09152
#
# Velocity S-wave (km/s) = 3.46460 3.94394 3.71201
# Velocity P-wave (km/s) = 6.62288 7.44789 7.04746
#
# Compressibility (1/GPa) = 0.01590848
#
# Stress axis : x y z
#
# Youngs Moduli (GPa) = 92.83166 51.31276 112.28088
#
# Poissons Ratio (x) = 0.28588 0.37361
# Poissons Ratio (y) = 0.51720 0.30656
# Poissons Ratio (z) = 0.30889 0.14010
#
# Static dielectric constant tensor:
#      x y z
#    x 4.631840 0.433950 0.434780 
#    y 0.433950 3.950830 0.098230 
#    z 0.434780 0.098230 4.885090 
# 
# 
# High freq. dielectric constant tensor:
#      x y z
#    x 1.899400 0.019150 0.003430 
#    y 0.019150 1.882590 -0.003310 
#    z 0.003430 -0.003310 1.905270 
# 
# From -- ./inp_files/154848.got.cif
#   From: 2010.06.25/outbox.cif.g09.slc.cpg/sg2_78_cif.got.tgz:154848.got - 2010.06.27 13:26:56.
