data_PCOD8007146
_publ_section_title
;
Structure prediction by ZEFSAII (Michael W. Deem and Ramdas Pophale) SiO2 
 PCOD8007146
Probable space group: P -1
;
_chemical_formula_sum "Si O2"
_cell_formula_units_Z 14
_cell_length_a 8.268261
_cell_length_b 10.603223
_cell_length_c 19.175473
_cell_angle_alpha 150.144775
_cell_angle_beta 126.098563
_cell_angle_gamma 43.432921
_cell_volume 571.288716
_symmetry_space_group_name_H-M "P -1"
_symmetry_group_IT_number 2
_symmetry_cell_setting 'triclinic'
loop_
_space_group_symop_operation_xyz
x,y,z
-x,-y,-z
loop_
_atom_site_type_symbol
_atom_site_label
_atom_site_fract_x
_atom_site_fract_y
_atom_site_fract_z
Si Si1 0.382931 0.874355 0.099359
Si Si2 0.630276 0.702053 0.343700
Si Si3 0.688069 0.930886 0.671095
Si Si4 0.132092 0.574480 0.949395
Si Si5 0.173778 0.837427 0.767045
Si Si6 0.507928 0.472583 0.571285
Si Si7 0.072860 0.510638 0.272266
O O1 0.665216 0.645341 0.048887
O O2 0.377443 0.017327 0.240601
O O3 0.252115 0.147133 0.142906
O O4 0.241833 0.705998 0.986452
O O5 0.667701 0.414196 0.255649
O O6 0.882557 0.627237 0.342010
O O7 0.500000 0.000000 0.500000
O O8 0.455967 0.761056 0.262339
O O9 0.593732 0.724065 0.520134
O O10 0.966531 0.788649 0.664410
O O11 0.040967 0.409453 0.796334
O O12 0.923020 0.837412 0.068485
O O13 0.335546 0.795050 0.720293
O O14 0.500000 0.500000 0.500000
O O15 0.775370 0.336776 0.601884
#
# Coordination Sequence:
#
# PCOD8007146 Si02
#       7
#     2   2   2   2   2   2   2
#     4  10  20  40  67  98 126 170 219 270 323 388
#     4  12  24  40  67 102 127 171 226 266 324 390
#     4  11  22  43  69  94 130 173 225 265 330 388
#     4  10  22  40  69  94 129 172 226 264 324 389
#     4  11  25  45  68  97 131 175 220 280 313 394
#     4  12  25  43  68  95 138 179 210 274 345 383
#     4  12  24  41  67  99 138 170 212 278 329 390
#
# _framework density 24.505996
#
# number of rings (size 3 to 8) (size 9 to 14) (size 15 to 20)
#    0.000    0.857    7.143    0.857    2.000    1.143 
#    0.000    2.143    0.000    0.000    0.000    0.000 
#    0.000    0.000    0.000    0.000    0.000    0.000 
#
# Total GULP energy -173528.271011 kJ/mol
# GULP energy per Si atom -12394.876501 kJ/mol
# Density = 2.445022 g / cm^3
# Si number density = 24.505996 Si / 1000 Ang^3
#
#
#
# Elastic Constant Matrix: (Units=GPa)
#
#
# Indices 1 2 3 4 5 6 
#
# 1 85.9840 26.4047 37.4213 -6.2359 -31.3708 -15.9182
# 2 26.4047 118.4353 12.9060 -0.7405 -5.5192 -14.6663
# 3 37.4213 12.9060 81.7196 -16.3993 -19.7938 -22.6612
# 4 -6.2359 -0.7405 -16.3993 47.0990 -13.3748 1.8418
# 5 -31.3708 -5.5192 -19.7938 -13.3748 49.1459 2.6154
# 6 -15.9182 -14.6663 -22.6612 1.8418 2.6154 24.6984
#
#
#
# Elastic Compliance Matrix: (Units=1/GPa)
#
#
# Indices 1 2 3 4 5 6 
#
# 1 0.019686 -0.002635 -0.002807 0.004742 0.012062 0.006916
# 2 -0.002635 0.009504 0.000834 -0.000269 -0.000607 0.004795
# 3 -0.002807 0.000834 0.022211 0.009198 0.008822 0.017445
# 4 0.004742 -0.000269 0.009198 0.028767 0.014121 0.007696
# 5 0.012062 -0.000607 0.008822 0.014121 0.034802 0.010770
# 6 0.006916 0.004795 0.017445 0.007696 0.010770 0.062086
#
#
# Mechanical properties :
#
#
# Convention : Reuss Voigt Hill
#
# Bulk Modulus (GPa) = 23.70472 48.84476 36.27474
# Shear Modulus (GPa) = 24.95845 38.14912 31.55379
#
# Velocity S-wave (km/s) = 3.19480 3.94982 3.59220
# Velocity P-wave (km/s) = 4.82732 6.38564 5.66036
#
# Compressibility (1/GPa) = 0.04218569
#
# Stress axis : x y z
#
# Youngs Moduli (GPa) = 50.79725 105.22128 45.02253
#
# Poissons Ratio (x) = 0.27724 0.12639
# Poissons Ratio (y) = 0.13384 -0.03757
# Poissons Ratio (z) = 0.14261 -0.08780
#
# Static dielectric constant tensor:
#      x y z
#    x 4.160300 -0.270530 -0.103100 
#    y -0.270530 4.846100 0.066560 
#    z -0.103100 0.066560 4.422400 
# 
# 
# High freq. dielectric constant tensor:
#      x y z
#    x 1.947980 -0.019540 -0.018450 
#    y -0.019540 1.983700 -0.002280 
#    z -0.018450 -0.002280 1.972680 
# 
# From -- ./inp_files/305759.got.cif
#   From: 2010.06.25/outbox.cif.g09.slc.cpg/sg2_153_cif.got.tgz:305759.got - 2010.06.27 13:26:56.
