data_PCOD8007196
_publ_section_title
;
Structure prediction by ZEFSAII (Michael W. Deem and Ramdas Pophale) SiO2 
 PCOD8007196
Probable space group: P -1
;
_chemical_formula_sum "Si O2"
_cell_formula_units_Z 14
_cell_length_a 9.207339
_cell_length_b 15.211478
_cell_length_c 13.986536
_cell_angle_alpha 135.167214
_cell_angle_beta 36.944859
_cell_angle_gamma 107.715422
_cell_volume 651.687262
_symmetry_space_group_name_H-M "P -1"
_symmetry_group_IT_number 2
_symmetry_cell_setting 'triclinic'
loop_
_space_group_symop_operation_xyz
x,y,z
-x,-y,-z
loop_
_atom_site_type_symbol
_atom_site_label
_atom_site_fract_x
_atom_site_fract_y
_atom_site_fract_z
Si Si1 0.425724 0.130365 0.717889
Si Si2 0.888102 0.239312 0.201013
Si Si3 0.649114 0.733383 0.794499
Si Si4 0.679148 0.468862 0.651718
Si Si5 0.502079 0.013910 0.786258
Si Si6 0.363301 0.436197 0.952507
Si Si7 0.679578 0.716166 0.548631
O O1 0.616325 0.039173 0.645418
O O2 0.503686 0.250388 0.744158
O O3 0.500000 0.000000 0.500000
O O4 0.058528 0.235783 0.013130
O O5 0.779537 0.393215 0.436079
O O6 0.584431 0.261351 0.357269
O O7 0.144697 0.082495 0.009153
O O8 0.528877 0.651245 0.852503
O O9 0.544524 0.772010 0.769395
O O10 0.020439 0.617298 0.505776
O O11 0.491410 0.895785 0.058176
O O12 0.435636 0.455984 0.821523
O O13 0.729625 0.832409 0.559769
O O14 0.500000 0.500000 0.000000
O O15 0.998385 0.539974 0.240018
#
# Coordination Sequence:
#
# PCOD8007196 Si02
#       7
#     2   2   2   2   2   2   2
#     4  10  24  46  72  93 137 180 223 274 348 392
#     4   9  23  43  68  91 137 175 223 272 337 398
#     4  10  20  40  68  93 131 176 221 273 333 405
#     4  10  21  41  67  93 134 177 220 274 337 391
#     4   9  22  43  65  96 133 172 224 278 333 396
#     4  12  25  42  68 100 137 176 226 280 334 397
#     4  12  23  41  71 100 134 174 233 270 339 397
#
# _framework density 21.482697000000002
#
# number of rings (size 3 to 8) (size 9 to 14) (size 15 to 20)
#    0.857    0.857    1.429    2.571    2.000    4.000 
#    5.143    1.429    0.000    0.000    0.000    0.000 
#    0.000    0.000    0.000    0.000    0.000    0.000 
#
# Total GULP energy -173441.417077 kJ/mol
# GULP energy per Si atom -12388.672648 kJ/mol
# Density = 2.143380 g / cm^3
# Si number density = 21.482697 Si / 1000 Ang^3
#
#
#
# Elastic Constant Matrix: (Units=GPa)
#
#
# Indices 1 2 3 4 5 6 
#
# 1 70.8221 30.1519 32.4265 12.8930 19.0161 3.5933
# 2 30.1519 131.9314 24.1665 -0.0670 8.2365 13.4831
# 3 32.4265 24.1665 67.3665 -8.7400 20.2016 7.9389
# 4 12.8930 -0.0670 -8.7400 33.9313 -4.0143 4.8779
# 5 19.0161 8.2365 20.2016 -4.0143 19.9946 1.1113
# 6 3.5933 13.4831 7.9389 4.8779 1.1113 25.8480
#
#
#
# Elastic Compliance Matrix: (Units=1/GPa)
#
#
# Indices 1 2 3 4 5 6 
#
# 1 0.027557 -0.004001 -0.008648 -0.015656 -0.019228 0.004693
# 2 -0.004001 0.009017 -0.001085 0.002094 0.001846 -0.004288
# 3 -0.008648 -0.001085 0.026080 0.009230 -0.015418 -0.007321
# 4 -0.015656 0.002094 0.009230 0.040837 0.013459 -0.010036
# 5 -0.019228 0.001846 -0.015418 0.013459 0.085807 0.000216
# 6 0.004693 -0.004288 -0.007321 -0.010036 0.000216 0.044405
#
#
# Mechanical properties :
#
#
# Convention : Reuss Voigt Hill
#
# Bulk Modulus (GPa) = 28.42069 49.28998 38.85533
# Shear Modulus (GPa) = 18.32168 28.17978 23.25073
#
# Velocity S-wave (km/s) = 2.92354 3.62573 3.29340
# Velocity P-wave (km/s) = 4.96532 6.36567 5.70860
#
# Compressibility (1/GPa) = 0.03518564
#
# Stress axis : x y z
#
# Youngs Moduli (GPa) = 36.28779 110.90121 38.34392
#
# Poissons Ratio (x) = 0.44374 0.33159
# Poissons Ratio (y) = 0.14520 0.04162
# Poissons Ratio (z) = 0.31380 0.12037
#
# Static dielectric constant tensor:
#      x y z
#    x 3.765790 0.013250 0.165970 
#    y 0.013250 3.848150 0.031510 
#    z 0.165970 0.031510 3.626080 
# 
# 
# High freq. dielectric constant tensor:
#      x y z
#    x 1.838550 -0.000110 0.020310 
#    y -0.000110 1.844810 0.000760 
#    z 0.020310 0.000760 1.824490 
# 
# From -- ./inp_files/396154.got.cif
#   From: 2010.06.25/outbox.cif.g09.slc.cpg/sg2_199_cif.got.tgz:396154.got - 2010.06.27 13:26:56.
