data_PCOD8007892
_publ_section_title
;
Structure prediction by ZEFSAII (Michael W. Deem and Ramdas Pophale) SiO2 
 PCOD8007892
Probable space group: P -1
;
_chemical_formula_sum "Si O2"
_cell_formula_units_Z 16
_cell_length_a 9.246984
_cell_length_b 13.285588
_cell_length_c 19.876611
_cell_angle_alpha 25.520492
_cell_angle_beta 44.341034
_cell_angle_gamma 55.197680
_cell_volume 712.338637
_symmetry_space_group_name_H-M "P -1"
_symmetry_group_IT_number 2
_symmetry_cell_setting 'triclinic'
loop_
_space_group_symop_operation_xyz
x,y,z
-x,-y,-z
loop_
_atom_site_type_symbol
_atom_site_label
_atom_site_fract_x
_atom_site_fract_y
_atom_site_fract_z
Si Si1 0.834107 0.919772 0.006327
Si Si2 0.627727 0.005806 0.680520
Si Si3 0.623743 0.664109 0.769941
Si Si4 0.669128 0.257059 0.285205
Si Si5 0.925415 0.738385 0.392376
Si Si6 0.764538 0.178159 0.000082
Si Si7 0.572677 0.414640 0.363183
Si Si8 0.974133 0.973238 0.375002
O O1 0.003086 0.809758 0.056113
O O2 0.632734 0.693500 0.197181
O O3 0.930186 0.044268 0.830082
O O4 0.757934 0.113747 0.961675
O O5 0.693101 0.248629 0.467502
O O6 0.794771 0.982097 0.696536
O O7 0.591002 0.759884 0.797501
O O8 0.411927 0.022075 0.780853
O O9 0.395535 0.611951 0.838345
O O10 0.802406 0.872760 0.550094
O O11 0.711243 0.429454 0.880829
O O12 0.650695 0.416480 0.259733
O O13 0.500000 0.000000 0.500000
O O14 0.909789 0.217009 0.222982
O O15 0.679353 0.698768 0.477593
O O16 0.958590 0.792012 0.427671
O O17 0.000000 0.500000 0.500000
#
# Coordination Sequence:
#
# PCOD8007892 Si02
#       8
#     2   2   2   2   2   2   2   2
#     4  11  28  47  72 102 143 184 237 289 344 415
#     4  12  24  42  74 101 139 189 233 283 358 411
#     4  11  21  43  72  96 145 183 230 292 347 409
#     4  10  20  41  70  98 140 183 225 290 353 405
#     4  12  26  48  73 103 144 185 231 291 346 415
#     4  11  26  47  64 106 142 180 242 292 337 417
#     4  12  24  47  76 101 141 189 230 288 352 417
#     4  11  23  41  69 105 136 177 239 282 350 418
#
# _framework density 22.461226
#
# number of rings (size 3 to 8) (size 9 to 14) (size 15 to 20)
#    0.000    0.750    6.250    2.250    3.500    3.000 
#    0.000    1.250    0.000    0.000    0.000    0.000 
#    0.000    0.000    0.000    0.000    0.000    0.000 
#
# Total GULP energy -198407.930954 kJ/mol
# GULP energy per Si atom -12400.495685 kJ/mol
# Density = 2.241010 g / cm^3
# Si number density = 22.461226 Si / 1000 Ang^3
#
#
#
# Elastic Constant Matrix: (Units=GPa)
#
#
# Indices 1 2 3 4 5 6 
#
# 1 123.6877 44.0931 28.4798 -0.6882 -0.3694 5.6239
# 2 44.0931 125.0901 20.1605 -1.7939 -5.1203 -1.1518
# 3 28.4798 20.1605 61.1939 -9.4855 -8.5878 1.4045
# 4 -0.6882 -1.7939 -9.4855 34.4352 -8.6629 4.8628
# 5 -0.3694 -5.1203 -8.5878 -8.6629 19.3973 -9.3268
# 6 5.6239 -1.1518 1.4045 4.8628 -9.3268 28.5828
#
#
#
# Elastic Compliance Matrix: (Units=1/GPa)
#
#
# Indices 1 2 3 4 5 6 
#
# 1 0.010455 -0.003188 -0.004824 -0.002160 -0.005341 -0.003324
# 2 -0.003188 0.009458 -0.001134 0.000634 0.003175 0.001992
# 3 -0.004824 -0.001134 0.022502 0.009448 0.015325 0.003191
# 4 -0.002160 0.000634 0.009448 0.036844 0.021045 0.000585
# 5 -0.005341 0.003175 0.015325 0.021045 0.079417 0.022760
# 6 -0.003324 0.001992 0.003191 0.000585 0.022760 0.042891
#
#
# Mechanical properties :
#
#
# Convention : Reuss Voigt Hill
#
# Bulk Modulus (GPa) = 41.45342 55.04874 48.25108
# Shear Modulus (GPa) = 21.93940 30.96559 26.45250
#
# Velocity S-wave (km/s) = 3.12872 3.71701 3.43548
# Velocity P-wave (km/s) = 5.61671 6.55615 6.10453
#
# Compressibility (1/GPa) = 0.02412346
#
# Stress axis : x y z
#
# Youngs Moduli (GPa) = 95.64558 105.72814 44.44063
#
# Poissons Ratio (x) = 0.33708 0.21437
# Poissons Ratio (y) = 0.30493 0.05040
# Poissons Ratio (z) = 0.46136 0.11991
#
# Static dielectric constant tensor:
#      x y z
#    x 4.662950 -0.105770 0.314310 
#    y -0.105770 4.281300 0.108420 
#    z 0.314310 0.108420 3.945040 
# 
# 
# High freq. dielectric constant tensor:
#      x y z
#    x 1.895330 -0.000690 0.009480 
#    y -0.000690 1.898120 0.000080 
#    z 0.009480 0.000080 1.868590 
# 
# From -- ./inp_files/205042.got.cif
#   From: 2010.06.25/outbox.cif.g09.slc.cpg/sg2_103_cif.got.tgz:205042.got - 2010.06.27 13:26:56.
