data_PCOD8007270
_publ_section_title
;
Structure prediction by ZEFSAII (Michael W. Deem and Ramdas Pophale) SiO2 
 PCOD8007270
Probable space group: P -1
;
_chemical_formula_sum "Si O2"
_cell_formula_units_Z 12
_cell_length_a 7.960040
_cell_length_b 8.730588
_cell_length_c 11.379055
_cell_angle_alpha 142.348523
_cell_angle_beta 124.428989
_cell_angle_gamma 70.043075
_cell_volume 389.471595
_symmetry_space_group_name_H-M "P -1"
_symmetry_group_IT_number 2
_symmetry_cell_setting 'triclinic'
loop_
_space_group_symop_operation_xyz
x,y,z
-x,-y,-z
loop_
_atom_site_type_symbol
_atom_site_label
_atom_site_fract_x
_atom_site_fract_y
_atom_site_fract_z
Si Si1 0.542828 0.529640 0.837226
Si Si2 0.319190 0.767603 0.105638
Si Si3 0.907200 0.367999 0.738322
Si Si4 0.896060 0.278480 0.240464
Si Si5 0.665718 0.658217 0.573661
Si Si6 0.147746 0.995154 0.714207
O O1 0.499783 0.330914 0.809972
O O2 0.705522 0.447736 0.759445
O O3 0.344910 0.510880 0.656483
O O4 0.632743 0.807230 0.102503
O O5 0.381329 0.072216 0.324945
O O6 0.292092 0.691108 0.907002
O O7 0.100687 0.611130 0.979881
O O8 0.954721 0.122082 0.678333
O O9 0.863202 0.271165 0.525027
O O10 0.000000 0.500000 0.500000
O O11 0.100789 0.260050 0.227927
O O12 0.839809 0.036611 0.158431
O O13 0.500000 0.500000 0.500000
#
# Coordination Sequence:
#
# PCOD8007270 Si02
#       6
#     2   2   2   2   2   2
#     4  11  23  43  69 104 137 172 223 287 346 392
#     4  11  22  43  70  96 133 182 225 272 334 413
#     4  10  20  40  70 102 128 180 228 276 333 408
#     4  12  24  44  68  98 134 179 230 274 330 408
#     4  12  26  43  67 103 138 177 224 281 344 400
#     4  10  21  40  69  99 136 174 230 276 332 408
#
# _framework density 30.810974999999999
#
# number of rings (size 3 to 8) (size 9 to 14) (size 15 to 20)
#    0.000    1.000    1.667    7.000    0.000    0.000 
#    3.000    2.500    0.000    0.000    0.000    0.000 
#    0.000    0.000    0.000    0.000    0.000    0.000 
#
# Total GULP energy -148710.650277 kJ/mol
# GULP energy per Si atom -12392.554190 kJ/mol
# Density = 3.074085 g / cm^3
# Si number density = 30.810975 Si / 1000 Ang^3
#
#
#
# Elastic Constant Matrix: (Units=GPa)
#
#
# Indices 1 2 3 4 5 6 
#
# 1 125.5298 40.7755 23.8028 -12.7608 14.9481 2.7462
# 2 40.7755 206.6279 42.1285 -24.1915 35.8608 19.0607
# 3 23.8028 42.1285 160.0410 -4.6729 11.4752 6.5661
# 4 -12.7608 -24.1915 -4.6729 74.0235 3.0884 8.6070
# 5 14.9481 35.8608 11.4752 3.0884 45.5033 -15.3665
# 6 2.7462 19.0607 6.5661 8.6070 -15.3665 46.6626
#
#
#
# Elastic Compliance Matrix: (Units=1/GPa)
#
#
# Indices 1 2 3 4 5 6 
#
# 1 0.008874 -0.000880 -0.000821 0.001426 -0.002494 -0.001132
# 2 -0.000880 0.007446 -0.000949 0.003229 -0.007566 -0.005943
# 3 -0.000821 -0.000949 0.006728 0.000113 -0.000975 -0.000853
# 4 0.001426 0.003229 0.000113 0.015824 -0.006278 -0.006405
# 5 -0.002494 -0.007566 -0.000975 -0.006278 0.034835 0.016004
# 6 -0.001132 -0.005943 -0.000853 -0.006405 0.016004 0.030497
#
#
# Mechanical properties :
#
#
# Convention : Reuss Voigt Hill
#
# Bulk Modulus (GPa) = 56.33917 78.40137 67.37027
# Shear Modulus (GPa) = 43.31977 58.93733 51.12855
#
# Velocity S-wave (km/s) = 3.75371 4.37838 4.07803
# Velocity P-wave (km/s) = 6.09199 7.14573 6.63979
#
# Compressibility (1/GPa) = 0.01774964
#
# Stress axis : x y z
#
# Youngs Moduli (GPa) = 112.68331 134.30031 148.62178
#
# Poissons Ratio (x) = 0.11813 0.12209
# Poissons Ratio (y) = 0.09911 0.14098
# Poissons Ratio (z) = 0.09256 0.12740
#
# Static dielectric constant tensor:
#      x y z
#    x 19.366730 -15.290510 -0.392090 
#    y -15.290510 19.161290 -0.427990 
#    z -0.392090 -0.427990 5.893150 
# 
# 
# High freq. dielectric constant tensor:
#      x y z
#    x 2.302260 -0.002970 -0.003590 
#    y -0.002970 2.291080 -0.018470 
#    z -0.003590 -0.018470 2.281960 
# 
# From -- ./inp_files/184982.got.cif
#   From: 2010.06.25/outbox.cif.g09.slc.cpg/sg2_93_cif.got.tgz:184982.got - 2010.06.27 13:26:56.
