data_PCOD8007343
_publ_section_title
;
Structure prediction by ZEFSAII (Michael W. Deem and Ramdas Pophale) SiO2 
 PCOD8007343
Probable space group: P -1
;
_chemical_formula_sum "Si O2"
_cell_formula_units_Z 16
_cell_length_a 8.038725
_cell_length_b 14.189932
_cell_length_c 8.648570
_cell_angle_alpha 70.483959
_cell_angle_beta 129.178784
_cell_angle_gamma 103.068936
_cell_volume 720.650163
_symmetry_space_group_name_H-M "P -1"
_symmetry_group_IT_number 2
_symmetry_cell_setting 'triclinic'
loop_
_space_group_symop_operation_xyz
x,y,z
-x,-y,-z
loop_
_atom_site_type_symbol
_atom_site_label
_atom_site_fract_x
_atom_site_fract_y
_atom_site_fract_z
Si Si1 0.119663 0.123032 0.354696
Si Si2 0.554588 0.833166 0.746812
Si Si3 0.328518 0.976171 0.780903
Si Si4 0.780025 0.313585 0.462996
Si Si5 0.924131 0.659626 0.841816
Si Si6 0.502154 0.538814 0.650526
Si Si7 0.249203 0.550815 0.907281
Si Si8 0.847378 0.667791 0.121319
O O1 0.258181 0.115850 0.279438
O O2 0.071510 0.237852 0.308843
O O3 0.883552 0.070972 0.234542
O O4 0.256974 0.077357 0.599199
O O5 0.442174 0.909383 0.754429
O O6 0.364061 0.787552 0.549322
O O7 0.650428 0.743093 0.953436
O O8 0.500000 0.000000 0.000000
O O9 0.720445 0.406662 0.486926
O O10 0.742774 0.350971 0.246172
O O11 0.025271 0.297523 0.667418
O O12 0.678375 0.625476 0.736805
O O13 0.043745 0.567555 0.885899
O O14 0.001599 0.681408 0.052105
O O15 0.500000 0.500000 0.500000
O O16 0.544413 0.453604 0.852920
O O17 0.232219 0.448604 0.854310
#
# Coordination Sequence:
#
# PCOD8007343 Si02
#       8
#     2   2   2   2   2   2   2   2
#     4  10  23  47  68  98 137 165 219 282 330 405
#     4  11  24  45  68  98 134 174 218 276 336 404
#     4  11  26  46  73 101 127 167 221 277 351 406
#     4  12  22  39  62  92 131 176 218 269 329 378
#     4  10  20  41  60  91 132 172 217 272 317 387
#     4  11  21  37  60  92 129 180 223 255 317 382
#     4  11  21  37  59  91 139 172 224 279 309 380
#     4  10  22  38  63  91 134 174 227 265 320 392
#
# _framework density 22.202173999999999
#
# number of rings (size 3 to 8) (size 9 to 14) (size 15 to 20)
#    0.000    1.250    3.750    4.875    0.000    5.500 
#    4.500    0.000    0.000    0.000    0.000    0.000 
#    0.000    0.000    0.000    0.000    0.000    0.000 
#
# Total GULP energy -198230.458528 kJ/mol
# GULP energy per Si atom -12389.403658 kJ/mol
# Density = 2.215164 g / cm^3
# Si number density = 22.202174 Si / 1000 Ang^3
#
#
#
# Elastic Constant Matrix: (Units=GPa)
#
#
# Indices 1 2 3 4 5 6 
#
# 1 98.7706 29.2312 30.0726 2.0666 -5.9510 1.3812
# 2 29.2312 57.1394 45.9203 -9.1882 -11.0909 -4.5881
# 3 30.0726 45.9203 143.5236 12.9964 1.8727 7.0041
# 4 2.0666 -9.1882 12.9964 31.1502 -2.3430 -3.2151
# 5 -5.9510 -11.0909 1.8727 -2.3430 27.1216 -4.0020
# 6 1.3812 -4.5881 7.0041 -3.2151 -4.0020 33.4433
#
#
#
# Elastic Compliance Matrix: (Units=1/GPa)
#
#
# Indices 1 2 3 4 5 6 
#
# 1 0.012268 -0.007248 0.000152 -0.003281 -0.000854 -0.001950
# 2 -0.007248 0.041530 -0.014669 0.021780 0.020293 0.013591
# 3 0.000152 -0.014669 0.013093 -0.011177 -0.008853 -0.006895
# 4 -0.003281 0.021780 -0.011177 0.045706 0.014620 0.011608
# 5 -0.000854 0.020293 -0.008853 0.014620 0.048612 0.011896
# 6 -0.001950 0.013591 -0.006895 0.011608 0.011896 0.035830
#
#
# Mechanical properties :
#
#
# Convention : Reuss Voigt Hill
#
# Bulk Modulus (GPa) = 42.80650 56.65353 49.73001
# Shear Modulus (GPa) = 20.13237 31.29031 25.71134
#
# Velocity S-wave (km/s) = 3.01454 3.75818 3.40671
# Velocity P-wave (km/s) = 5.60703 6.66367 6.15805
#
# Compressibility (1/GPa) = 0.02336094
#
# Stress axis : x y z
#
# Youngs Moduli (GPa) = 81.51499 24.07869 76.37532
#
# Poissons Ratio (x) = 0.17452 -0.01160
# Poissons Ratio (y) = 0.59080 1.12038
# Poissons Ratio (z) = -0.01238 0.35322
#
# Static dielectric constant tensor:
#      x y z
#    x 4.173550 0.037860 0.140050 
#    y 0.037860 3.896880 -0.036520 
#    z 0.140050 -0.036520 4.566740 
# 
# 
# High freq. dielectric constant tensor:
#      x y z
#    x 1.887220 -0.001710 0.004650 
#    y -0.001710 1.856550 -0.017430 
#    z 0.004650 -0.017430 1.872650 
# 
# From -- ./inp_files/201117.got.cif
#   From: 2010.06.25/outbox.cif.g09.slc.cpg/sg2_101_cif.got.tgz:201117.got - 2010.06.27 13:26:56.
