data_PCOD8007900
_publ_section_title
;
Structure prediction by ZEFSAII (Michael W. Deem and Ramdas Pophale) SiO2 
 PCOD8007900
Probable space group: P -1
;
_chemical_formula_sum "Si O2"
_cell_formula_units_Z 16
_cell_length_a 4.970081
_cell_length_b 23.296196
_cell_length_c 8.982656
_cell_angle_alpha 54.488468
_cell_angle_beta 96.012936
_cell_angle_gamma 74.031304
_cell_volume 766.010536
_symmetry_space_group_name_H-M "P -1"
_symmetry_group_IT_number 2
_symmetry_cell_setting 'triclinic'
loop_
_space_group_symop_operation_xyz
x,y,z
-x,-y,-z
loop_
_atom_site_type_symbol
_atom_site_label
_atom_site_fract_x
_atom_site_fract_y
_atom_site_fract_z
Si Si1 0.063791 0.911257 0.135899
Si Si2 0.678436 0.727768 0.760574
Si Si3 0.087800 0.305709 0.846617
Si Si4 0.975969 0.199225 0.485687
Si Si5 0.595858 0.594618 0.364532
Si Si6 0.912055 0.428553 0.113880
Si Si7 0.448229 0.508056 0.732554
Si Si8 0.279802 0.174428 0.826311
O O1 0.023967 0.884703 0.344322
O O2 0.387047 0.858615 0.167869
O O3 0.818080 0.896901 0.041296
O O4 0.000000 0.000000 0.000000
O O5 0.333143 0.748849 0.686811
O O6 0.771745 0.798361 0.616350
O O7 0.827334 0.655013 0.769496
O O8 0.763227 0.703852 0.970142
O O9 0.167262 0.368168 0.667333
O O10 0.240451 0.222546 0.901420
O O11 0.733127 0.337968 0.785104
O O12 0.049252 0.229483 0.603712
O O13 0.618447 0.550703 0.587430
O O14 0.694920 0.532082 0.330516
O O15 0.794012 0.427439 0.275217
O O16 0.667585 0.440247 0.954502
O O17 0.000000 0.500000 0.000000
#
# Coordination Sequence:
#
# PCOD8007900 Si02
#       8
#     2   2   2   2   2   2   2   2
#     4  10  20  41  71 102 130 158 204 255 300 370
#     4  12  24  41  62  89 132 165 210 267 318 371
#     4  12  25  41  63  90 129 168 207 261 323 371
#     4  10  23  40  65  96 122 164 211 248 314 367
#     4  11  25  42  62  83 120 169 214 270 327 369
#     4  11  25  39  61  85 118 168 216 271 325 369
#     4  10  25  41  57  87 115 158 226 272 321 388
#     4  10  22  39  64 102 122 161 211 243 304 372
#
# _framework density 20.887439000000001
#
# number of rings (size 3 to 8) (size 9 to 14) (size 15 to 20)
#    0.750    0.500    2.500    2.625    7.000    1.000 
#    0.000    0.000    0.000    4.500    0.000    0.000 
#    0.000    0.000    0.000    0.000    0.000    0.000 
#
# Total GULP energy -198271.196115 kJ/mol
# GULP energy per Si atom -12391.949757 kJ/mol
# Density = 2.083990 g / cm^3
# Si number density = 20.887439 Si / 1000 Ang^3
#
#
#
# Elastic Constant Matrix: (Units=GPa)
#
#
# Indices 1 2 3 4 5 6 
#
# 1 86.9357 16.5401 9.4630 2.8558 -13.2442 5.2091
# 2 16.5401 87.4229 30.0123 3.0264 -18.5838 2.2815
# 3 9.4630 30.0123 63.2810 4.4119 -14.5954 -2.8228
# 4 2.8558 3.0264 4.4119 30.4366 4.0889 -7.4780
# 5 -13.2442 -18.5838 -14.5954 4.0889 36.3239 -8.6989
# 6 5.2091 2.2815 -2.8228 -7.4780 -8.6989 25.4048
#
#
#
# Elastic Compliance Matrix: (Units=1/GPa)
#
#
# Indices 1 2 3 4 5 6 
#
# 1 0.012509 -0.001390 -0.000359 -0.001905 0.003477 -0.001850
# 2 -0.001390 0.014695 -0.005578 -0.001262 0.004822 -0.000375
# 3 -0.000359 -0.005578 0.020346 -0.002145 0.006492 0.004427
# 4 -0.001905 -0.001262 -0.002145 0.036366 -0.003997 0.009602
# 5 0.003477 0.004822 0.006492 -0.003997 0.036972 0.011059
# 6 -0.001850 -0.000375 0.004427 0.009602 0.011059 0.046880
#
#
# Mechanical properties :
#
#
# Convention : Reuss Voigt Hill
#
# Bulk Modulus (GPa) = 30.39861 38.85225 34.62543
# Shear Modulus (GPa) = 25.85453 30.54134 28.19794
#
# Velocity S-wave (km/s) = 3.52206 3.82800 3.67821
# Velocity P-wave (km/s) = 5.57898 6.17894 5.88661
#
# Compressibility (1/GPa) = 0.03289624
#
# Stress axis : x y z
#
# Youngs Moduli (GPa) = 79.93937 68.04946 49.14919
#
# Poissons Ratio (x) = 0.09460 0.01765
# Poissons Ratio (y) = 0.11112 0.27416
# Poissons Ratio (z) = 0.02871 0.37959
#
# Static dielectric constant tensor:
#      x y z
#    x 4.012940 0.026990 -0.130890 
#    y 0.026990 3.511770 0.141870 
#    z -0.130890 0.141870 3.769670 
# 
# 
# High freq. dielectric constant tensor:
#      x y z
#    x 1.840620 0.005960 -0.006400 
#    y 0.005960 1.785030 0.012950 
#    z -0.006400 0.012950 1.809910 
# 
# From -- ./inp_files/140569.got.cif
#   From: 2010.06.25/outbox.cif.g09.slc.cpg/sg2_71_cif.got.tgz:140569.got - 2010.06.27 13:26:56.
