data_PCOD8007181
_publ_section_title
;
Structure prediction by ZEFSAII (Michael W. Deem and Ramdas Pophale) SiO2 
 PCOD8007181
Probable space group: P -1
;
_chemical_formula_sum "Si O2"
_cell_formula_units_Z 14
_cell_length_a 11.202675
_cell_length_b 8.994664
_cell_length_c 8.891270
_cell_angle_alpha 135.720181
_cell_angle_beta 95.989569
_cell_angle_gamma 70.753304
_cell_volume 578.640609
_symmetry_space_group_name_H-M "P -1"
_symmetry_group_IT_number 2
_symmetry_cell_setting 'triclinic'
loop_
_space_group_symop_operation_xyz
x,y,z
-x,-y,-z
loop_
_atom_site_type_symbol
_atom_site_label
_atom_site_fract_x
_atom_site_fract_y
_atom_site_fract_z
Si Si1 0.401028 0.879887 0.928360
Si Si2 0.743515 0.836583 0.135340
Si Si3 0.835042 0.020427 0.859239
Si Si4 0.830528 0.097826 0.572464
Si Si5 0.580319 0.537034 0.899496
Si Si6 0.906915 0.362827 0.288136
Si Si7 0.923356 0.428305 0.663955
O O1 0.484866 0.619614 0.801208
O O2 0.316306 0.925231 0.796471
O O3 0.302433 0.001679 0.141640
O O4 0.500000 0.000000 0.000000
O O5 0.816951 0.889714 0.325157
O O6 0.635410 0.734760 0.096869
O O7 0.848342 0.646607 0.911721
O O8 0.870285 0.014270 0.685610
O O9 0.816876 0.270681 0.109630
O O10 0.949052 0.828071 0.820313
O O11 0.693155 0.305198 0.700270
O O12 0.937285 0.193524 0.585544
O O13 0.500000 0.500000 0.000000
O O14 0.848130 0.435983 0.500427
O O15 0.932894 0.572845 0.359126
#
# Coordination Sequence:
#
# PCOD8007181 Si02
#       7
#     2   2   2   2   2   2   2
#     4  10  20  40  68  90 131 171 215 263 316 388
#     4  10  22  42  64  95 135 171 209 268 328 394
#     4  11  22  42  67  97 131 173 215 269 331 380
#     4  11  24  41  66  97 137 167 211 274 330 385
#     4  10  21  41  63  96 130 167 222 267 318 386
#     4  10  23  43  68  92 129 173 223 269 314 394
#     4  10  22  44  64  95 126 170 219 266 318 387
#
# _framework density 24.194638000000001
#
# number of rings (size 3 to 8) (size 9 to 14) (size 15 to 20)
#    0.000    1.714    2.857    0.857    2.000    2.286 
#   10.286    2.857    0.000    0.000    0.000    0.000 
#    0.000    0.000    0.000    0.000    0.000    0.000 
#
# Total GULP energy -173516.761927 kJ/mol
# GULP energy per Si atom -12394.054423 kJ/mol
# Density = 2.413957 g / cm^3
# Si number density = 24.194638 Si / 1000 Ang^3
#
#
#
# Elastic Constant Matrix: (Units=GPa)
#
#
# Indices 1 2 3 4 5 6 
#
# 1 86.0651 35.8706 30.0255 -12.4623 -5.4812 34.5097
# 2 35.8706 129.2094 31.8444 -10.8824 4.9403 29.3042
# 3 30.0255 31.8444 141.6602 -16.6401 20.3393 22.6256
# 4 -12.4623 -10.8824 -16.6401 36.2898 0.7427 -10.4602
# 5 -5.4812 4.9403 20.3393 0.7427 34.3911 -5.7268
# 6 34.5097 29.3042 22.6256 -10.4602 -5.7268 43.5399
#
#
#
# Elastic Compliance Matrix: (Units=1/GPa)
#
#
# Indices 1 2 3 4 5 6 
#
# 1 0.017939 -0.001941 -0.001691 0.001475 0.002210 -0.011388
# 2 -0.001941 0.009644 -0.000617 0.000613 -0.002137 -0.004766
# 3 -0.001691 -0.000617 0.009293 0.002686 -0.006276 -0.003254
# 4 0.001475 0.000613 0.002686 0.030723 -0.001402 0.004219
# 5 0.002210 -0.002137 -0.006276 -0.001402 0.034673 0.007172
# 6 -0.011388 -0.004766 -0.003254 0.004219 0.007172 0.038850
#
#
# Mechanical properties :
#
#
# Convention : Reuss Voigt Hill
#
# Bulk Modulus (GPa) = 35.23740 61.37951 48.30845
# Shear Modulus (GPa) = 31.43131 40.12377 35.77754
#
# Velocity S-wave (km/s) = 3.60822 4.07673 3.84961
# Velocity P-wave (km/s) = 5.65285 6.89810 6.30629
#
# Compressibility (1/GPa) = 0.02837894
#
# Stress axis : x y z
#
# Youngs Moduli (GPa) = 55.74574 103.68691 107.61343
#
# Poissons Ratio (x) = 0.20123 0.18197
# Poissons Ratio (y) = 0.10819 0.06635
# Poissons Ratio (z) = 0.09426 0.06393
#
# Static dielectric constant tensor:
#      x y z
#    x 4.827030 -0.011140 -0.028480 
#    y -0.011140 5.097930 0.042520 
#    z -0.028480 0.042520 4.231190 
# 
# 
# High freq. dielectric constant tensor:
#      x y z
#    x 1.961820 0.016410 -0.014880 
#    y 0.016410 1.982950 0.001050 
#    z -0.014880 0.001050 1.939140 
# 
# From -- ./inp_files/245929.got.cif
#   From: 2010.06.25/outbox.cif.g09.slc.cpg/sg2_123_cif.got.tgz:245929.got - 2010.06.27 13:26:56.
