data_PCOD8007130
_publ_section_title
;
Structure prediction by ZEFSAII (Michael W. Deem and Ramdas Pophale) SiO2 
 PCOD8007130
Probable space group: P -1
;
_chemical_formula_sum "Si O2"
_cell_formula_units_Z 16
_cell_length_a 11.640907
_cell_length_b 9.746510
_cell_length_c 14.933999
_cell_angle_alpha 53.475967
_cell_angle_beta 119.824684
_cell_angle_gamma 75.962312
_cell_volume 750.132739
_symmetry_space_group_name_H-M "P -1"
_symmetry_group_IT_number 2
_symmetry_cell_setting 'triclinic'
loop_
_space_group_symop_operation_xyz
x,y,z
-x,-y,-z
loop_
_atom_site_type_symbol
_atom_site_label
_atom_site_fract_x
_atom_site_fract_y
_atom_site_fract_z
Si Si1 0.471743 0.831110 0.534405
Si Si2 0.276343 0.444083 0.967889
Si Si3 0.587493 0.731169 0.111702
Si Si4 0.904539 0.226410 0.943519
Si Si5 0.842247 0.976136 0.524726
Si Si6 0.740203 0.216047 0.055804
Si Si7 0.178665 0.229519 0.119733
Si Si8 0.000592 0.188030 0.534043
O O1 0.682903 0.522479 0.711295
O O2 0.500000 0.000000 0.500000
O O3 0.377216 0.841183 0.583638
O O4 0.319899 0.966460 0.338341
O O5 0.393444 0.309413 0.971976
O O6 0.351729 0.542310 0.009436
O O7 0.026759 0.697001 0.758100
O O8 0.322404 0.229842 0.128001
O O9 0.807630 0.511916 0.335511
O O10 0.437017 0.722693 0.084410
O O11 0.500000 0.000000 0.000000
O O12 0.884548 0.159393 0.058979
O O13 0.069261 0.216307 0.010954
O O14 0.000000 0.000000 0.000000
O O15 0.835766 0.922430 0.438629
O O16 0.882189 0.136074 0.477966
O O17 0.884183 0.943207 0.275794
O O18 0.000000 0.500000 0.000000
#
# Coordination Sequence:
#
# PCOD8007130 Si02
#       8
#     2   2   2   2   2   2   2   2
#     4  12  22  39  68  98 129 173 216 264 326 387
#     4  10  20  40  67  95 127 165 214 268 309 375
#     4  11  25  40  60  95 133 163 204 266 327 380
#     4  12  28  44  64  98 137 172 215 277 333 383
#     4   9  17  35  64  94 122 155 209 267 307 368
#     4  11  22  43  67  87 122 170 219 257 314 391
#     4  12  21  43  68  97 130 170 223 268 314 391
#     4   9  20  38  63  89 119 163 205 259 318 370
#
# _framework density 21.329559
#
# number of rings (size 3 to 8) (size 9 to 14) (size 15 to 20)
#    0.000    1.250    3.750    2.625    1.750    3.000 
#    2.250    0.000    0.000    0.000    0.000    0.000 
#    0.000    0.000    0.000    0.000    0.000    0.000 
#
# Total GULP energy -198395.437174 kJ/mol
# GULP energy per Si atom -12399.714823 kJ/mol
# Density = 2.128101 g / cm^3
# Si number density = 21.329559 Si / 1000 Ang^3
#
#
#
# Elastic Constant Matrix: (Units=GPa)
#
#
# Indices 1 2 3 4 5 6 
#
# 1 94.9443 28.9612 19.9170 -10.6342 -5.4549 4.8115
# 2 28.9612 117.6765 42.4300 -23.8890 0.0292 10.0694
# 3 19.9170 42.4300 126.6000 -14.3083 -10.6042 -6.6542
# 4 -10.6342 -23.8890 -14.3083 32.1395 -2.2752 0.0159
# 5 -5.4549 0.0292 -10.6042 -2.2752 31.2120 7.0558
# 6 4.8115 10.0694 -6.6542 0.0159 7.0558 29.0374
#
#
#
# Elastic Compliance Matrix: (Units=1/GPa)
#
#
# Indices 1 2 3 4 5 6 
#
# 1 0.011804 -0.001970 -0.000851 0.002234 0.002403 -0.002053
# 2 -0.001970 0.011880 -0.003134 0.006793 0.000101 -0.004540
# 3 -0.000851 -0.003134 0.009664 0.001877 0.002641 0.002800
# 4 0.002234 0.006793 0.001877 0.038063 0.004571 -0.003427
# 5 0.002403 0.000101 0.002641 0.004571 0.035607 -0.008483
# 6 -0.002053 -0.004540 0.002800 -0.003427 -0.008483 0.039057
#
#
# Mechanical properties :
#
#
# Convention : Reuss Voigt Hill
#
# Bulk Modulus (GPa) = 46.64604 57.98191 52.31397
# Shear Modulus (GPa) = 30.27892 35.00528 32.64210
#
# Velocity S-wave (km/s) = 3.77181 4.05552 3.91624
# Velocity P-wave (km/s) = 6.39417 7.01231 6.71036
#
# Compressibility (1/GPa) = 0.02143805
#
# Stress axis : x y z
#
# Youngs Moduli (GPa) = 84.71611 84.17431 103.48017
#
# Poissons Ratio (x) = 0.16580 0.08807
# Poissons Ratio (y) = 0.16686 0.32432
# Poissons Ratio (z) = 0.07210 0.26382
#
# Static dielectric constant tensor:
#      x y z
#    x 3.955650 -0.184520 -0.202530 
#    y -0.184520 3.551420 0.052560 
#    z -0.202530 0.052560 4.100580 
# 
# 
# High freq. dielectric constant tensor:
#      x y z
#    x 1.845230 -0.001810 -0.007700 
#    y -0.001810 1.804740 0.003790 
#    z -0.007700 0.003790 1.845940 
# 
# From -- ./inp_files/515226.got.cif
#   From: 2010.06.25/outbox.cif.g09.slc.cpg/sg2_258_cif.got.tgz:515226.got - 2010.06.27 13:26:56.
