data_PCOD8007577
_publ_section_title
;
Structure prediction by ZEFSAII (Michael W. Deem and Ramdas Pophale) SiO2 
 PCOD8007577
Probable space group: P -1
;
_chemical_formula_sum "Si O2"
_cell_formula_units_Z 14
_cell_length_a 12.364983
_cell_length_b 9.363590
_cell_length_c 17.837670
_cell_angle_alpha 60.445709
_cell_angle_beta 21.105608
_cell_angle_gamma 60.625260
_cell_volume 643.868288
_symmetry_space_group_name_H-M "P -1"
_symmetry_group_IT_number 2
_symmetry_cell_setting 'triclinic'
loop_
_space_group_symop_operation_xyz
x,y,z
-x,-y,-z
loop_
_atom_site_type_symbol
_atom_site_label
_atom_site_fract_x
_atom_site_fract_y
_atom_site_fract_z
Si Si1 0.758774 0.460735 0.731349
Si Si2 0.797934 0.325595 0.901194
Si Si3 0.325704 0.876788 0.191548
Si Si4 0.300171 0.034508 0.941601
Si Si5 0.576055 0.668190 0.444192
Si Si6 0.638494 0.996454 0.581840
Si Si7 0.371170 0.845162 0.662840
O O1 0.883620 0.426867 0.744832
O O2 0.606349 0.303298 0.840876
O O3 0.000000 0.500000 0.500000
O O4 0.496043 0.607490 0.877692
O O5 0.065173 0.319531 0.791551
O O6 0.754483 0.144476 0.943466
O O7 0.461287 0.873867 0.188198
O O8 0.975422 0.940629 0.403947
O O9 0.500000 0.000000 0.000000
O O10 0.419008 0.011131 0.788546
O O11 0.987659 0.146686 0.108481
O O12 0.500000 0.500000 0.500000
O O13 0.385422 0.823952 0.488164
O O14 0.481529 0.676563 0.591173
O O15 0.517385 0.848139 0.649851
O O16 0.500000 0.000000 0.500000
#
# Coordination Sequence:
#
# PCOD8007577 Si02
#       7
#     2   2   2   2   2   2   2
#     4  11  26  46  69  99 141 183 225 283 354 410
#     4  11  24  44  69  98 138 182 227 284 347 410
#     4  12  24  42  72 100 133 179 233 281 338 405
#     4  12  23  42  69 104 133 174 237 283 337 411
#     4  11  25  41  66  96 133 178 226 281 342 406
#     4  11  24  42  68 100 135 176 227 281 339 416
#     4  10  20  41  65  92 131 178 220 267 340 405
#
# _framework density 21.743577999999999
#
# number of rings (size 3 to 8) (size 9 to 14) (size 15 to 20)
#    0.000    0.857    4.286    4.286    4.000    1.143 
#    0.000    0.714    0.000    0.000    0.000    0.000 
#    0.000    0.000    0.000    0.000    0.000    0.000 
#
# Total GULP energy -173509.186671 kJ/mol
# GULP energy per Si atom -12393.513334 kJ/mol
# Density = 2.169409 g / cm^3
# Si number density = 21.743578 Si / 1000 Ang^3
#
#
#
# Elastic Constant Matrix: (Units=GPa)
#
#
# Indices 1 2 3 4 5 6 
#
# 1 95.4495 7.5430 54.5808 -10.3983 -7.6057 38.7012
# 2 7.5430 77.3995 25.2848 -10.2265 -7.6622 40.2014
# 3 54.5808 25.2848 131.9008 25.0712 -11.7699 11.7235
# 4 -10.3983 -10.2265 25.0712 24.4366 3.7973 4.1080
# 5 -7.6057 -7.6622 -11.7699 3.7973 54.9412 -1.7005
# 6 38.7012 40.2014 11.7235 4.1080 -1.7005 33.7080
#
#
#
# Elastic Compliance Matrix: (Units=1/GPa)
#
#
# Indices 1 2 3 4 5 6 
#
# 1 -0.003557 -0.016672 0.006178 -0.018978 0.000566 0.024159
# 2 -0.016672 -0.002921 0.009916 -0.022443 0.001641 0.021994
# 3 0.006178 0.009916 0.004065 0.005808 0.002060 -0.020937
# 4 -0.018978 -0.022443 0.005808 0.010518 -0.003845 0.045060
# 5 0.000566 0.001641 0.002060 -0.003845 0.019157 -0.001888
# 6 0.024159 0.021994 -0.020937 0.045060 -0.001888 -0.022607
#
#
# Mechanical properties :
#
#
# Convention : Reuss Voigt Hill
#
# Bulk Modulus (GPa) = -280.27148 53.28522 -113.49313
# Shear Modulus (GPa) = 1082.23780 37.10656 559.67218
#
# Velocity S-wave (km/s) = 22.33401 4.13553 16.06099
# Velocity P-wave (km/s) = 23.14949 6.88207 17.07721
#
# Compressibility (1/GPa) = -0.00356797
#
# Stress axis : x y z
#
# Youngs Moduli (GPa) = -281.16317 -342.29898 246.01243
#
# Poissons Ratio (x) = -5.70664 -1.51988
# Poissons Ratio (y) = -4.68741 -2.43948
# Poissons Ratio (z) = 1.73704 3.39427
#
# Static dielectric constant tensor:
#      x y z
#    x 4.049670 0.297250 0.310350 
#    y 0.297250 4.170000 0.202940 
#    z 0.310350 0.202940 3.748750 
# 
# 
# High freq. dielectric constant tensor:
#      x y z
#    x 1.866270 0.014740 -0.002170 
#    y 0.014740 1.844230 0.022340 
#    z -0.002170 0.022340 1.859450 
# 
# From -- ./inp_files/445585.got.cif
#   From: 2010.06.25/outbox.cif.g09.slc.cpg/sg2_223_cif.got.tgz:445585.got - 2010.06.27 13:26:56.
