data_PCOD8007052
_publ_section_title
;
Structure prediction by ZEFSAII (Michael W. Deem and Ramdas Pophale) SiO2 
 PCOD8007052
Probable space group: P -1
;
_chemical_formula_sum "Si O2"
_cell_formula_units_Z 14
_cell_length_a 9.807855
_cell_length_b 8.791332
_cell_length_c 16.020957
_cell_angle_alpha 35.814591
_cell_angle_beta 101.177507
_cell_angle_gamma 118.534409
_cell_volume 657.919136
_symmetry_space_group_name_H-M "P -1"
_symmetry_group_IT_number 2
_symmetry_cell_setting 'triclinic'
loop_
_space_group_symop_operation_xyz
x,y,z
-x,-y,-z
loop_
_atom_site_type_symbol
_atom_site_label
_atom_site_fract_x
_atom_site_fract_y
_atom_site_fract_z
Si Si1 0.421819 0.155220 0.968666
Si Si2 0.576015 0.865483 0.839150
Si Si3 0.874556 0.841850 0.131292
Si Si4 0.034175 0.831077 0.833187
Si Si5 0.368568 0.132564 0.636670
Si Si6 0.683933 0.111821 0.442152
Si Si7 0.258922 0.161896 0.277585
O O1 0.269695 0.094429 0.921894
O O2 0.559425 0.521764 0.830627
O O3 0.354368 0.990626 0.124754
O O4 0.500000 0.000000 0.000000
O O5 0.724935 0.016616 0.720984
O O6 0.435500 0.926467 0.769247
O O7 0.500000 0.500000 0.000000
O O8 0.798090 0.478420 0.277521
O O9 0.965025 0.988718 0.164494
O O10 0.000000 0.000000 0.000000
O O11 0.884314 0.774543 0.781624
O O12 0.205635 0.040676 0.710220
O O13 0.000000 0.500000 0.000000
O O14 0.500000 0.500000 0.500000
O O15 0.325626 0.066219 0.563721
O O16 0.500000 0.000000 0.500000
O O17 0.780632 0.042824 0.553475
#
# Coordination Sequence:
#
# PCOD8007052 Si02
#       7
#     2   2   2   2   2   2   2
#     4  11  22  39  68 101 132 177 234 283 339 408
#     4  10  20  40  66  96 131 180 231 271 337 416
#     4  12  25  45  71 101 137 186 232 284 340 418
#     4  12  26  47  69 104 144 178 231 292 350 408
#     4  12  26  44  70 105 144 179 225 299 359 404
#     4  12  23  46  72  98 141 183 236 279 346 423
#     4  11  24  43  71  97 137 186 228 281 343 416
#
# _framework density 21.279211
#
# number of rings (size 3 to 8) (size 9 to 14) (size 15 to 20)
#    0.000    0.571    2.857    6.857    2.000    1.143 
#    2.571    0.000    0.000    0.000    0.000    0.000 
#    0.000    0.000    0.000    0.000    0.000    0.000 
#
# Total GULP energy -173648.520712 kJ/mol
# GULP energy per Si atom -12403.465765 kJ/mol
# Density = 2.123078 g / cm^3
# Si number density = 21.279211 Si / 1000 Ang^3
#
#
#
# Elastic Constant Matrix: (Units=GPa)
#
#
# Indices 1 2 3 4 5 6 
#
# 1 115.1440 30.8528 55.1088 5.0514 9.9096 5.1580
# 2 30.8528 115.6442 62.0345 11.2423 0.1584 -18.6837
# 3 55.1088 62.0345 140.1078 10.4923 -3.0728 -4.0766
# 4 5.0514 11.2423 10.4923 42.8026 7.3793 -1.7828
# 5 9.9096 0.1584 -3.0728 7.3793 43.8768 10.9816
# 6 5.1580 -18.6837 -4.0766 -1.7828 10.9816 46.7890
#
#
#
# Elastic Compliance Matrix: (Units=1/GPa)
#
#
# Indices 1 2 3 4 5 6 
#
# 1 0.011169 -0.001068 -0.004040 0.000326 -0.002504 -0.001410
# 2 -0.001068 0.012489 -0.004874 -0.001566 -0.001103 0.004879
# 3 -0.004040 -0.004874 0.011003 -0.001367 0.002209 -0.001113
# 4 0.000326 -0.001566 -0.001367 0.024930 -0.004673 0.001266
# 5 -0.002504 -0.001103 0.002209 -0.004673 0.025858 -0.006219
# 6 -0.001410 0.004879 -0.001113 0.001266 -0.006219 0.024887
#
#
# Mechanical properties :
#
#
# Convention : Reuss Voigt Hill
#
# Bulk Modulus (GPa) = 68.05071 74.09868 71.07469
# Shear Modulus (GPa) = 36.98195 41.55367 39.26781
#
# Velocity S-wave (km/s) = 4.17338 4.42382 4.30043
# Velocity P-wave (km/s) = 7.43452 7.80969 7.62442
#
# Compressibility (1/GPa) = 0.01469492
#
# Stress axis : x y z
#
# Youngs Moduli (GPa) = 89.53199 80.06988 90.88219
#
# Poissons Ratio (x) = 0.08555 0.36720
# Poissons Ratio (y) = 0.09566 0.44299
# Poissons Ratio (z) = 0.36175 0.39029
#
# Static dielectric constant tensor:
#      x y z
#    x 3.914200 -0.050890 -0.024820 
#    y -0.050890 4.428960 0.516320 
#    z -0.024820 0.516320 4.089840 
# 
# 
# High freq. dielectric constant tensor:
#      x y z
#    x 1.841700 -0.008050 0.003070 
#    y -0.008050 1.842020 0.018750 
#    z 0.003070 0.018750 1.841340 
# 
# From -- ./inp_files/209165.got.cif
#   From: 2010.06.25/outbox.cif.g09.slc.cpg/sg2_105_cif.got.tgz:209165.got - 2010.06.27 13:26:56.
