data_PCOD8007373
_publ_section_title
;
Structure prediction by ZEFSAII (Michael W. Deem and Ramdas Pophale) SiO2 
 PCOD8007373
Probable space group: P -1
;
_chemical_formula_sum "Si O2"
_cell_formula_units_Z 16
_cell_length_a 6.567530
_cell_length_b 10.629984
_cell_length_c 17.160251
_cell_angle_alpha 56.532498
_cell_angle_beta 127.962588
_cell_angle_gamma 108.267683
_cell_volume 787.313407
_symmetry_space_group_name_H-M "P -1"
_symmetry_group_IT_number 2
_symmetry_cell_setting 'triclinic'
loop_
_space_group_symop_operation_xyz
x,y,z
-x,-y,-z
loop_
_atom_site_type_symbol
_atom_site_label
_atom_site_fract_x
_atom_site_fract_y
_atom_site_fract_z
Si Si1 0.177872 0.826390 0.684077
Si Si2 0.800408 0.836400 0.460467
Si Si3 0.425230 0.814095 0.188132
Si Si4 0.861241 0.063086 0.197324
Si Si5 0.231806 0.822541 0.303645
Si Si6 0.903417 0.660451 0.395330
Si Si7 0.835417 0.305981 0.981684
Si Si8 0.393370 0.419921 0.079750
O O1 0.058500 0.868778 0.724648
O O2 0.408389 0.702330 0.792706
O O3 0.958718 0.765426 0.595337
O O4 0.258112 0.983192 0.609748
O O5 0.516203 0.771874 0.417903
O O6 0.944476 0.785385 0.430900
O O7 0.220323 0.836441 0.202379
O O8 0.600896 0.663450 0.300420
O O9 0.269064 0.789328 0.081971
O O10 0.615723 0.955069 0.180330
O O11 0.784507 0.205794 0.078713
O O12 0.121728 0.983330 0.253356
O O13 0.052794 0.695537 0.338980
O O14 0.000000 0.500000 0.500000
O O15 0.673209 0.461332 0.907283
O O16 0.133942 0.336230 0.023849
O O17 0.500000 0.500000 0.000000
#
# Coordination Sequence:
#
# PCOD8007373 Si02
#       8
#     2   2   2   2   2   2   2   2
#     4  11  21  43  63  91 129 161 207 265 311 368
#     4  10  22  40  64  93 122 164 212 256 315 373
#     4  10  23  41  64  96 123 160 217 257 316 376
#     4  11  21  41  66  93 130 161 209 267 309 376
#     4  10  20  41  61  93 125 161 206 256 312 370
#     4  10  22  41  60  91 127 163 205 262 310 373
#     4  11  25  42  65  95 122 173 211 250 327 376
#     4  11  25  45  63  89 133 168 209 266 309 376
#
# _framework density 20.322274
#
# number of rings (size 3 to 8) (size 9 to 14) (size 15 to 20)
#    0.000    1.500    5.000    1.125    1.750    5.000 
#    4.500    0.000    0.000    0.000    0.000    0.000 
#    0.000    0.000    0.000    0.000    0.000    0.000 
#
# Total GULP energy -198294.301637 kJ/mol
# GULP energy per Si atom -12393.393852 kJ/mol
# Density = 2.027602 g / cm^3
# Si number density = 20.322274 Si / 1000 Ang^3
#
#
#
# Elastic Constant Matrix: (Units=GPa)
#
#
# Indices 1 2 3 4 5 6 
#
# 1 122.9626 36.2043 43.9681 7.0247 -8.5076 -7.9880
# 2 36.2043 62.3275 36.2996 7.8010 -7.1179 -1.1667
# 3 43.9681 36.2996 124.6903 -0.4562 -3.5631 -4.1083
# 4 7.0247 7.8010 -0.4562 50.9221 -10.6876 -4.0291
# 5 -8.5076 -7.1179 -3.5631 -10.6876 31.6479 -1.7919
# 6 -7.9880 -1.1667 -4.1083 -4.0291 -1.7919 17.3509
#
#
#
# Elastic Compliance Matrix: (Units=1/GPa)
#
#
# Indices 1 2 3 4 5 6 
#
# 1 0.010697 -0.004616 -0.002237 -0.000074 0.001801 0.004253
# 2 -0.004616 0.022050 -0.004807 -0.002488 0.002217 -0.002129
# 3 -0.002237 -0.004807 0.010256 0.001238 -0.000033 0.001359
# 4 -0.000074 -0.002488 0.001238 0.022055 0.007346 0.005972
# 5 0.001801 0.002217 -0.000033 0.007346 0.035416 0.006334
# 6 0.004253 -0.002129 0.001359 0.005972 0.006334 0.061812
#
#
# Mechanical properties :
#
#
# Convention : Reuss Voigt Hill
#
# Bulk Modulus (GPa) = 50.80566 60.32492 55.56529
# Shear Modulus (GPa) = 26.01908 32.88475 29.45192
#
# Velocity S-wave (km/s) = 3.58204 4.02700 3.81102
# Velocity P-wave (km/s) = 6.49325 7.16735 6.83861
#
# Compressibility (1/GPa) = 0.01968285
#
# Stress axis : x y z
#
# Youngs Moduli (GPa) = 93.48735 45.35121 97.49970
#
# Poissons Ratio (x) = 0.20935 0.21807
# Poissons Ratio (y) = 0.43155 0.46872
# Poissons Ratio (z) = 0.20910 0.21802
#
# Static dielectric constant tensor:
#      x y z
#    x 3.755480 -0.133990 0.021810 
#    y -0.133990 3.654510 -0.069080 
#    z 0.021810 -0.069080 3.845440 
# 
# 
# High freq. dielectric constant tensor:
#      x y z
#    x 1.800320 -0.012470 -0.001600 
#    y -0.012470 1.778980 -0.006770 
#    z -0.001600 -0.006770 1.802070 
# 
# From -- ./inp_files/69257.got.cif
#   From: 2010.06.25/outbox.cif.g09.slc.cpg/sg2_35_cif.got.tgz:69257.got - 2010.06.27 13:26:56.
