data_PCOD8007569
_publ_section_title
;
Structure prediction by ZEFSAII (Michael W. Deem and Ramdas Pophale) SiO2 
 PCOD8007569
Probable space group: P -1
;
_chemical_formula_sum "Si O2"
_cell_formula_units_Z 16
_cell_length_a 14.661274
_cell_length_b 8.285588
_cell_length_c 9.044176
_cell_angle_alpha 132.431294
_cell_angle_beta 81.284922
_cell_angle_gamma 77.095874
_cell_volume 717.318333
_symmetry_space_group_name_H-M "P -1"
_symmetry_group_IT_number 2
_symmetry_cell_setting 'triclinic'
loop_
_space_group_symop_operation_xyz
x,y,z
-x,-y,-z
loop_
_atom_site_type_symbol
_atom_site_label
_atom_site_fract_x
_atom_site_fract_y
_atom_site_fract_z
Si Si1 0.339243 0.052619 0.697877
Si Si2 0.140470 0.764013 0.490284
Si Si3 0.000627 0.460468 0.648721
Si Si4 0.306634 0.892213 0.043511
Si Si5 0.651734 0.708784 0.879679
Si Si6 0.791800 0.889967 0.495755
Si Si7 0.492645 0.518938 0.339075
Si Si8 0.161347 0.019022 0.905327
O O1 0.279872 0.179275 0.639320
O O2 0.262966 0.987947 0.775303
O O3 0.439471 0.801592 0.476966
O O4 0.370032 0.227277 0.899639
O O5 0.041051 0.741674 0.438584
O O6 0.232597 0.494234 0.296296
O O7 0.161955 0.951886 0.502930
O O8 0.120319 0.850831 0.721843
O O9 0.000000 0.500000 0.500000
O O10 0.115538 0.359589 0.623241
O O11 0.929885 0.708338 0.904990
O O12 0.358154 0.057902 0.067208
O O13 0.279270 0.951049 0.256700
O O14 0.392615 0.610959 0.837778
O O15 0.201913 0.928187 0.005341
O O16 0.571323 0.618808 0.788165
O O17 0.500000 0.500000 0.500000
#
# Coordination Sequence:
#
# PCOD8007569 Si02
#       8
#     2   2   2   2   2   2   2   2
#     4  10  22  40  64  92 133 164 214 260 321 378
#     4  11  22  41  68  90 131 169 209 260 331 375
#     4  12  23  43  69  94 127 169 219 264 311 382
#     4  11  22  40  67  93 132 164 216 268 312 375
#     4  11  20  42  67  93 124 171 213 261 312 384
#     4  11  24  44  61  96 134 167 208 270 322 377
#     4  12  21  39  72  97 123 172 218 262 315 377
#     4  10  20  41  65  91 128 163 213 263 311 380
#
# _framework density 22.305298000000001
#
# number of rings (size 3 to 8) (size 9 to 14) (size 15 to 20)
#    0.000    1.000    8.750    0.750    0.000    3.000 
#    2.250    3.125    0.000    0.000    0.000    0.000 
#    0.000    0.000    0.000    0.000    0.000    0.000 
#
# Total GULP energy -198395.634082 kJ/mol
# GULP energy per Si atom -12399.727130 kJ/mol
# Density = 2.225453 g / cm^3
# Si number density = 22.305298 Si / 1000 Ang^3
#
#
#
# Elastic Constant Matrix: (Units=GPa)
#
#
# Indices 1 2 3 4 5 6 
#
# 1 70.4978 30.2766 56.1817 -3.3899 13.6075 -33.4544
# 2 30.2766 84.2432 47.5264 -15.3560 9.1523 -30.1952
# 3 56.1817 47.5264 165.7095 -2.4584 17.3148 -25.3440
# 4 -3.3899 -15.3560 -2.4584 41.0415 -10.6052 0.6984
# 5 13.6075 9.1523 17.3148 -10.6052 36.0665 -6.7436
# 6 -33.4544 -30.1952 -25.3440 0.6984 -6.7436 35.5929
#
#
#
# Elastic Compliance Matrix: (Units=1/GPa)
#
#
# Indices 1 2 3 4 5 6 
#
# 1 0.032310 0.002857 -0.007231 0.001846 -0.003876 0.026873
# 2 0.002857 0.020751 -0.004285 0.007768 0.001236 0.017320
# 3 -0.007231 -0.004285 0.009256 -0.002099 -0.002027 -0.004184
# 4 0.001846 0.007768 -0.002099 0.029345 0.008437 0.007853
# 5 -0.003876 0.001236 -0.002027 0.008437 0.032702 0.001992
# 6 0.026873 0.017320 -0.004184 0.007853 0.001992 0.065291
#
#
# Mechanical properties :
#
#
# Convention : Reuss Voigt Hill
#
# Bulk Modulus (GPa) = 22.22313 65.37998 43.80156
# Shear Modulus (GPa) = 22.52528 34.97121 28.74825
#
# Velocity S-wave (km/s) = 3.18128 3.96390 3.59395
# Velocity P-wave (km/s) = 4.84550 7.09401 6.07470
#
# Compressibility (1/GPa) = 0.04499816
#
# Stress axis : x y z
#
# Youngs Moduli (GPa) = 30.95023 48.19141 108.03700
#
# Poissons Ratio (x) = -0.13769 0.78125
# Poissons Ratio (y) = -0.08843 0.46294
# Poissons Ratio (z) = 0.22381 0.20650
#
# Static dielectric constant tensor:
#      x y z
#    x 4.121910 -0.502380 0.189230 
#    y -0.502380 3.958340 -0.152690 
#    z 0.189230 -0.152690 4.624290 
# 
# 
# High freq. dielectric constant tensor:
#      x y z
#    x 1.866080 -0.030230 0.002060 
#    y -0.030230 1.860730 -0.002860 
#    z 0.002060 -0.002860 1.900020 
# 
# From -- ./inp_files/329592.got.cif
#   From: 2010.06.25/outbox.cif.g09.slc.cpg/sg2_165_cif.got.tgz:329592.got - 2010.06.27 13:26:56.
