data_PCOD8007050
_publ_section_title
;
Structure prediction by ZEFSAII (Michael W. Deem and Ramdas Pophale) SiO2 
 PCOD8007050
Probable space group: P -1
;
_chemical_formula_sum "Si O2"
_cell_formula_units_Z 16
_cell_length_a 11.816795
_cell_length_b 9.062933
_cell_length_c 12.247749
_cell_angle_alpha 130.587065
_cell_angle_beta 128.312072
_cell_angle_gamma 75.714668
_cell_volume 754.121328
_symmetry_space_group_name_H-M "P -1"
_symmetry_group_IT_number 2
_symmetry_cell_setting 'triclinic'
loop_
_space_group_symop_operation_xyz
x,y,z
-x,-y,-z
loop_
_atom_site_type_symbol
_atom_site_label
_atom_site_fract_x
_atom_site_fract_y
_atom_site_fract_z
Si Si1 0.041668 0.703380 0.851060
Si Si2 0.609566 0.813449 0.713446
Si Si3 0.378371 0.744209 0.059176
Si Si4 0.927607 0.905045 0.064098
Si Si5 0.891719 0.953217 0.307564
Si Si6 0.589912 0.627706 0.974115
Si Si7 0.124433 0.610053 0.540037
Si Si8 0.583154 0.465879 0.376264
O O1 0.926525 0.487657 0.656224
O O2 0.003603 0.865060 0.822286
O O3 0.201511 0.669290 0.902132
O O4 0.021723 0.767460 0.994468
O O5 0.630441 0.695004 0.558935
O O6 0.457634 0.688082 0.620848
O O7 0.582706 0.026315 0.763939
O O8 0.754001 0.841941 0.892200
O O9 0.432432 0.596885 0.102163
O O10 0.463573 0.732624 0.991562
O O11 0.955569 0.880033 0.198345
O O12 0.848373 0.151945 0.336916
O O13 0.749128 0.776492 0.172105
O O14 0.000000 0.000000 0.500000
O O15 0.566696 0.587296 0.812194
O O16 0.284558 0.569100 0.638219
O O17 0.000000 0.500000 0.500000
#
# Coordination Sequence:
#
# PCOD8007050 Si02
#       8
#     2   2   2   2   2   2   2   2
#     4  10  20  40  66  96 125 169 218 261 315 379
#     4  10  21  41  65  95 124 164 217 262 317 376
#     4  10  23  42  65  91 130 175 212 259 317 386
#     4  10  20  41  66  93 130 165 214 267 316 383
#     4  12  26  43  65  95 133 170 215 271 325 382
#     4  11  24  44  62  93 132 170 213 262 323 378
#     4  12  23  38  63 100 128 169 218 261 319 382
#     4  11  23  38  67  95 128 162 212 269 313 382
#
# _framework density 21.216743999999998
#
# number of rings (size 3 to 8) (size 9 to 14) (size 15 to 20)
#    0.000    1.250    3.750    2.250    1.750    2.500 
#    0.000    6.250    0.000    0.000    0.000    0.000 
#    0.000    0.000    0.000    0.000    0.000    0.000 
#
# Total GULP energy -198303.364972 kJ/mol
# GULP energy per Si atom -12393.960311 kJ/mol
# Density = 2.116845 g / cm^3
# Si number density = 21.216744 Si / 1000 Ang^3
#
#
#
# Elastic Constant Matrix: (Units=GPa)
#
#
# Indices 1 2 3 4 5 6 
#
# 1 107.1041 32.6932 38.8087 -3.6842 -6.7094 5.9669
# 2 32.6932 82.3184 39.9377 19.4070 -8.5950 -2.4185
# 3 38.8087 39.9377 138.9700 2.5332 -8.7236 2.9887
# 4 -3.6842 19.4070 2.5332 36.1457 7.0288 1.2566
# 5 -6.7094 -8.5950 -8.7236 7.0288 29.2933 -3.0085
# 6 5.9669 -2.4185 2.9887 1.2566 -3.0085 20.4329
#
#
#
# Elastic Compliance Matrix: (Units=1/GPa)
#
#
# Indices 1 2 3 4 5 6 
#
# 1 0.011897 -0.005024 -0.001918 0.004343 -0.000791 -0.004172
# 2 -0.005024 0.019850 -0.003755 -0.012521 0.007196 0.006195
# 3 -0.001918 -0.003755 0.008860 0.001100 0.000716 -0.001143
# 4 0.004343 -0.012521 0.001100 0.037336 -0.012027 -0.006978
# 5 -0.000791 0.007196 0.000716 -0.012027 0.039947 0.007599
# 6 -0.004172 0.006195 -0.001143 -0.006978 0.007599 0.052607
#
#
# Mechanical properties :
#
#
# Convention : Reuss Voigt Hill
#
# Bulk Modulus (GPa) = 52.04373 61.25242 56.64807
# Shear Modulus (GPa) = 25.21484 31.63792 28.42638
#
# Velocity S-wave (km/s) = 3.45112 3.86577 3.66431
# Velocity P-wave (km/s) = 6.36106 6.98985 6.68286
#
# Compressibility (1/GPa) = 0.01921461
#
# Stress axis : x y z
#
# Youngs Moduli (GPa) = 84.05218 50.37703 112.86717
#
# Poissons Ratio (x) = 0.25308 0.21646
# Poissons Ratio (y) = 0.42225 0.42382
# Poissons Ratio (z) = 0.16120 0.18917
#
# Static dielectric constant tensor:
#      x y z
#    x 3.976770 -0.059800 -0.127020 
#    y -0.059800 3.638690 0.334270 
#    z -0.127020 0.334270 3.938010 
# 
# 
# High freq. dielectric constant tensor:
#      x y z
#    x 1.841020 -0.000940 -0.003560 
#    y -0.000940 1.804490 0.025260 
#    z -0.003560 0.025260 1.840210 
# 
# From -- ./inp_files/261560.got.cif
#   From: 2010.06.25/outbox.cif.g09.slc.cpg/sg2_131_cif.got.tgz:261560.got - 2010.06.27 13:26:56.
