data_PCOD8007763
_publ_section_title
;
Structure prediction by ZEFSAII (Michael W. Deem and Ramdas Pophale) SiO2 
 PCOD8007763
Probable space group: P -1
;
_chemical_formula_sum "Si O2"
_cell_formula_units_Z 14
_cell_length_a 12.165020
_cell_length_b 20.469825
_cell_length_c 9.123266
_cell_angle_alpha 133.518321
_cell_angle_beta 36.789543
_cell_angle_gamma 153.126305
_cell_volume 612.211573
_symmetry_space_group_name_H-M "P -1"
_symmetry_group_IT_number 2
_symmetry_cell_setting 'triclinic'
loop_
_space_group_symop_operation_xyz
x,y,z
-x,-y,-z
loop_
_atom_site_type_symbol
_atom_site_label
_atom_site_fract_x
_atom_site_fract_y
_atom_site_fract_z
Si Si1 0.149065 0.781549 0.279126
Si Si2 0.693666 0.582655 0.067150
Si Si3 0.677161 0.154639 0.113871
Si Si4 0.278343 0.524694 0.623211
Si Si5 0.642815 0.895251 0.108937
Si Si6 0.831135 0.009381 0.396718
Si Si7 0.266807 0.579615 0.039300
O O1 0.462154 0.895708 0.203776
O O2 0.052578 0.847241 0.459599
O O3 0.904541 0.637758 0.412710
O O4 0.186094 0.745677 0.024917
O O5 0.557689 0.607501 0.354383
O O6 0.500000 0.500000 0.000000
O O7 0.687203 0.480836 0.986302
O O8 0.035157 0.747956 0.935758
O O9 0.443377 0.123782 0.409520
O O10 0.500000 0.000000 0.000000
O O11 0.078315 0.523933 0.758075
O O12 0.386702 0.599502 0.781129
O O13 0.460274 0.740059 0.126657
O O14 0.748668 0.989221 0.283281
O O15 0.913893 0.967188 0.826429
#
# Coordination Sequence:
#
# PCOD8007763 Si02
#       7
#     2   2   2   2   2   2   2
#     4  10  20  41  68  89 125 170 215 265 314 380
#     4  12  26  43  67  98 131 173 211 270 334 377
#     4  10  24  43  63  95 130 170 216 262 319 387
#     4  10  22  41  70  94 124 170 221 266 318 383
#     4  10  22  39  66  96 120 174 213 262 326 374
#     4  10  22  41  60  92 136 164 213 263 317 389
#     4  10  22  42  67  96 127 165 222 270 313 389
#
# _framework density 22.867912
#
# number of rings (size 3 to 8) (size 9 to 14) (size 15 to 20)
#    0.000    1.714    1.429    1.714    8.000    1.143 
#   10.286    0.000    0.000    0.000    0.000    0.000 
#    0.000    0.000    0.000    0.000    0.000    0.000 
#
# Total GULP energy -173524.154913 kJ/mol
# GULP energy per Si atom -12394.582494 kJ/mol
# Density = 2.281586 g / cm^3
# Si number density = 22.867912 Si / 1000 Ang^3
#
#
#
# Elastic Constant Matrix: (Units=GPa)
#
#
# Indices 1 2 3 4 5 6 
#
# 1 77.7712 12.6208 0.3840 -0.5266 -1.8150 2.7395
# 2 12.6208 70.4173 17.7840 -5.9665 -4.5242 18.3443
# 3 0.3840 17.7840 107.4935 -15.4375 -2.2658 -12.8989
# 4 -0.5266 -5.9665 -15.4375 30.8124 2.5482 -5.7908
# 5 -1.8150 -4.5242 -2.2658 2.5482 19.1969 0.5581
# 6 2.7395 18.3443 -12.8989 -5.7908 0.5581 24.8998
#
#
#
# Elastic Compliance Matrix: (Units=1/GPa)
#
#
# Indices 1 2 3 4 5 6 
#
# 1 0.013276 -0.002657 0.000504 0.000052 0.000660 0.000755
# 2 -0.002657 0.021391 -0.006211 -0.003100 0.005036 -0.019518
# 3 0.000504 -0.006211 0.013011 0.007900 -0.001311 0.013127
# 4 0.000052 -0.003100 0.007900 0.039197 -0.005450 0.015608
# 5 0.000660 0.005036 -0.001311 -0.005450 0.054112 -0.006942
# 6 0.000755 -0.019518 0.013127 0.015608 -0.006942 0.065043
#
#
# Mechanical properties :
#
#
# Convention : Reuss Voigt Hill
#
# Bulk Modulus (GPa) = 32.30849 35.25108 33.77978
# Shear Modulus (GPa) = 21.45246 29.97468 25.71357
#
# Velocity S-wave (km/s) = 3.06617 3.62439 3.35690
# Velocity P-wave (km/s) = 5.16664 5.74138 5.46158
#
# Compressibility (1/GPa) = 0.03095162
#
# Stress axis : x y z
#
# Youngs Moduli (GPa) = 75.32375 46.74800 76.85998
#
# Poissons Ratio (x) = 0.12419 -0.03875
# Poissons Ratio (y) = 0.20011 0.47735
# Poissons Ratio (z) = -0.03797 0.29034
#
# Static dielectric constant tensor:
#      x y z
#    x 4.037770 0.206520 0.014810 
#    y 0.206520 4.105830 -0.191390 
#    z 0.014810 -0.191390 4.305220 
# 
# 
# High freq. dielectric constant tensor:
#      x y z
#    x 1.886650 0.020670 -0.004690 
#    y 0.020670 1.903950 -0.001790 
#    z -0.004690 -0.001790 1.909440 
# 
# From -- ./inp_files/278545.got.cif
#   From: 2010.06.25/outbox.cif.g09.slc.cpg/sg2_140_cif.got.tgz:278545.got - 2010.06.27 13:26:56.
