data_PCOD8007645
_publ_section_title
;
Structure prediction by ZEFSAII (Michael W. Deem and Ramdas Pophale) SiO2 
 PCOD8007645
Probable space group: P -1
;
_chemical_formula_sum "Si O2"
_cell_formula_units_Z 16
_cell_length_a 10.832239
_cell_length_b 13.680687
_cell_length_c 8.557952
_cell_angle_alpha 53.780831
_cell_angle_beta 54.665383
_cell_angle_gamma 47.473483
_cell_volume 719.061624
_symmetry_space_group_name_H-M "P -1"
_symmetry_group_IT_number 2
_symmetry_cell_setting 'triclinic'
loop_
_space_group_symop_operation_xyz
x,y,z
-x,-y,-z
loop_
_atom_site_type_symbol
_atom_site_label
_atom_site_fract_x
_atom_site_fract_y
_atom_site_fract_z
Si Si1 0.282427 0.714627 0.266355
Si Si2 0.763246 0.869664 0.719732
Si Si3 0.657776 0.028042 0.354920
Si Si4 0.106417 0.004892 0.270707
Si Si5 0.995823 0.818807 0.110689
Si Si6 0.576474 0.715077 0.895173
Si Si7 0.921217 0.446741 0.887405
Si Si8 0.114440 0.595391 0.699601
O O1 0.153568 0.772136 0.158228
O O2 0.270824 0.594402 0.487281
O O3 0.242777 0.846135 0.277981
O O4 0.485824 0.648041 0.130652
O O5 0.728086 0.998468 0.508826
O O6 0.784894 0.917141 0.832332
O O7 0.621418 0.817942 0.867573
O O8 0.944834 0.742840 0.641359
O O9 0.806473 0.920740 0.228323
O O10 0.500000 0.000000 0.500000
O O11 0.572456 0.190950 0.213426
O O12 0.000000 0.000000 0.500000
O O13 0.982509 0.093140 0.130848
O O14 0.007438 0.677078 0.172642
O O15 0.752598 0.588314 0.808037
O O16 0.084668 0.469244 0.784568
O O17 0.853800 0.412990 0.129792
#
# Coordination Sequence:
#
# PCOD8007645 Si02
#       8
#     2   2   2   2   2   2   2   2
#     4  12  24  39  65  97 135 172 219 273 331 386
#     4  10  20  41  66  93 132 170 219 270 329 385
#     4  10  21  42  64  99 132 164 213 280 325 380
#     4  12  22  37  67 101 125 165 226 277 322 383
#     4  12  23  41  71  96 129 176 226 260 333 400
#     4  10  24  41  64  95 140 170 210 275 332 384
#     4  10  23  43  70  92 129 180 219 265 328 400
#     4  10  20  43  66  94 128 171 225 272 320 395
#
# _framework density 22.251224000000001
#
# number of rings (size 3 to 8) (size 9 to 14) (size 15 to 20)
#    0.000    1.250    5.000    0.375    1.750    2.000 
#    0.000    0.000    0.000    0.000    0.000    0.000 
#    0.000    0.000    0.000    0.000    0.000    0.000 
#
# Total GULP energy -198305.994712 kJ/mol
# GULP energy per Si atom -12394.124670 kJ/mol
# Density = 2.220058 g / cm^3
# Si number density = 22.251224 Si / 1000 Ang^3
#
#
#
# Elastic Constant Matrix: (Units=GPa)
#
#
# Indices 1 2 3 4 5 6 
#
# 1 63.8673 16.8608 32.6075 3.3978 2.2189 5.3265
# 2 16.8608 77.4900 12.5770 -2.6817 1.6650 1.6373
# 3 32.6075 12.5770 117.9187 -5.9775 -9.5933 -0.4476
# 4 3.3978 -2.6817 -5.9775 27.4886 -3.2866 1.3813
# 5 2.2189 1.6650 -9.5933 -3.2866 35.8107 -4.3523
# 6 5.3265 1.6373 -0.4476 1.3813 -4.3523 25.6530
#
#
#
# Elastic Compliance Matrix: (Units=1/GPa)
#
#
# Indices 1 2 3 4 5 6 
#
# 1 0.020227 -0.003445 -0.005750 -0.004290 -0.003569 -0.004455
# 2 -0.003445 0.013805 -0.000475 0.001633 -0.000447 -0.000338
# 3 -0.005750 -0.000475 0.010602 0.003325 0.003750 0.001867
# 4 -0.004290 0.001633 0.003325 0.038357 0.004546 -0.000450
# 5 -0.003569 -0.000447 0.003750 0.004546 0.030285 0.005728
# 6 -0.004455 -0.000338 0.001867 -0.000450 0.005728 0.040957
#
#
# Mechanical properties :
#
#
# Convention : Reuss Voigt Hill
#
# Bulk Modulus (GPa) = 39.53695 42.59630 41.06663
# Shear Modulus (GPa) = 27.47198 30.93915 29.20557
#
# Velocity S-wave (km/s) = 3.51754 3.73292 3.62683
# Velocity P-wave (km/s) = 5.85700 6.14528 6.00287
#
# Compressibility (1/GPa) = 0.02529279
#
# Stress axis : x y z
#
# Youngs Moduli (GPa) = 49.43990 72.43845 94.32293
#
# Poissons Ratio (x) = 0.24958 0.54239
# Poissons Ratio (y) = 0.17034 0.04476
# Poissons Ratio (z) = 0.28430 0.03437
#
# Static dielectric constant tensor:
#      x y z
#    x 4.541550 -0.170850 0.408010 
#    y -0.170850 4.050620 -0.451850 
#    z 0.408010 -0.451850 4.730850 
# 
# 
# High freq. dielectric constant tensor:
#      x y z
#    x 1.875930 -0.004680 -0.002990 
#    y -0.004680 1.855130 -0.017260 
#    z -0.002990 -0.017260 1.882200 
# 
# From -- ./inp_files/271757.got.cif
#   From: 2010.06.25/outbox.cif.g09.slc.cpg/sg2_136_cif.got.tgz:271757.got - 2010.06.27 13:26:56.
