data_PCOD8007091
_publ_section_title
;
Structure prediction by ZEFSAII (Michael W. Deem and Ramdas Pophale) SiO2 
 PCOD8007091
Probable space group: P -1
;
_chemical_formula_sum "Si O2"
_cell_formula_units_Z 16
_cell_length_a 15.637649
_cell_length_b 12.072075
_cell_length_c 12.058237
_cell_angle_alpha 106.429640
_cell_angle_beta 56.636797
_cell_angle_gamma 153.224808
_cell_volume 713.484231
_symmetry_space_group_name_H-M "P -1"
_symmetry_group_IT_number 2
_symmetry_cell_setting 'triclinic'
loop_
_space_group_symop_operation_xyz
x,y,z
-x,-y,-z
loop_
_atom_site_type_symbol
_atom_site_label
_atom_site_fract_x
_atom_site_fract_y
_atom_site_fract_z
Si Si1 0.651047 0.303255 0.025717
Si Si2 0.768645 0.031109 0.455265
Si Si3 0.377289 0.814239 0.738581
Si Si4 0.493879 0.559622 0.633903
Si Si5 0.557287 0.717898 0.293324
Si Si6 0.953067 0.825125 0.029656
Si Si7 0.229799 0.584080 0.415253
Si Si8 0.910539 0.353914 0.778332
O O1 0.672956 0.274983 0.125984
O O2 0.766623 0.552151 0.007074
O O3 0.346826 0.992483 0.119357
O O4 0.819476 0.393532 0.851544
O O5 0.061285 0.380362 0.367990
O O6 0.563834 0.922708 0.568113
O O7 0.706354 0.882328 0.563458
O O8 0.739961 0.936984 0.331744
O O9 0.098650 0.527072 0.796384
O O10 0.512993 0.080663 0.711778
O O11 0.500000 0.500000 0.500000
O O12 0.552703 0.527844 0.681182
O O13 0.206733 0.323648 0.784097
O O14 0.319201 0.557781 0.402265
O O15 0.755761 0.929396 0.104921
O O16 0.000000 0.000000 0.000000
O O17 0.051135 0.472775 0.595234
#
# Coordination Sequence:
#
# PCOD8007091 Si02
#       8
#     2   2   2   2   2   2   2   2
#     4  11  24  41  61  91 126 166 204 256 306 364
#     4  11  22  39  63  88 125 161 205 255 303 363
#     4  12  23  38  60  87 125 162 199 254 304 367
#     4   9  19  40  66  92 115 164 205 250 309 356
#     4  10  23  39  65  88 124 163 203 254 307 364
#     4  10  20  40  67  89 122 161 206 254 308 360
#     4  12  24  38  60  95 123 163 208 247 309 370
#     4  11  24  39  62  91 126 166 207 248 307 370
#
# _framework density 22.425163999999999
#
# number of rings (size 3 to 8) (size 9 to 14) (size 15 to 20)
#    0.000    1.250    3.750    1.875    1.750    1.500 
#    0.000    0.000    0.000    6.750    0.000    0.000 
#    0.000    0.000    0.000    0.000    0.000    0.000 
#
# Total GULP energy -198279.962252 kJ/mol
# GULP energy per Si atom -12392.497641 kJ/mol
# Density = 2.237412 g / cm^3
# Si number density = 22.425164 Si / 1000 Ang^3
#
#
#
# Elastic Constant Matrix: (Units=GPa)
#
#
# Indices 1 2 3 4 5 6 
#
# 1 86.5624 57.1193 27.6019 -15.7576 -10.8897 -7.2021
# 2 57.1193 117.1575 21.2837 -23.9183 -12.5048 1.4808
# 3 27.6019 21.2837 96.5442 1.0188 -21.5725 -1.6784
# 4 -15.7576 -23.9183 1.0188 29.3712 -2.7421 -2.8896
# 5 -10.8897 -12.5048 -21.5725 -2.7421 26.9952 -1.0026
# 6 -7.2021 1.4808 -1.6784 -2.8896 -1.0026 43.8669
#
#
#
# Elastic Compliance Matrix: (Units=1/GPa)
#
#
# Indices 1 2 3 4 5 6 
#
# 1 0.018988 -0.007506 -0.003274 0.004747 0.002183 0.003608
# 2 -0.007506 0.014307 -0.000165 0.007915 0.004230 -0.001104
# 3 -0.003274 -0.000165 0.013394 -0.001491 0.009158 0.000092
# 4 0.004747 0.007915 -0.001491 0.044285 0.009021 0.003578
# 5 0.002183 0.004230 0.009158 0.009021 0.048203 0.002262
# 6 0.003608 -0.001104 0.000092 0.003578 0.002262 0.023717
#
#
# Mechanical properties :
#
#
# Convention : Reuss Voigt Hill
#
# Bulk Modulus (GPa) = 40.32546 56.91933 48.62240
# Shear Modulus (GPa) = 25.89991 32.99727 29.44859
#
# Velocity S-wave (km/s) = 3.40214 3.84010 3.62773
# Velocity P-wave (km/s) = 5.78394 6.71556 6.26709
#
# Compressibility (1/GPa) = 0.02479823
#
# Stress axis : x y z
#
# Youngs Moduli (GPa) = 52.66394 69.89721 74.66004
#
# Poissons Ratio (x) = 0.52468 0.24440
# Poissons Ratio (y) = 0.39532 0.01235
# Poissons Ratio (z) = 0.17240 0.01156
#
# Static dielectric constant tensor:
#      x y z
#    x 4.112970 -0.597720 -0.104250 
#    y -0.597720 4.388390 -0.138370 
#    z -0.104250 -0.138370 4.600230 
# 
# 
# High freq. dielectric constant tensor:
#      x y z
#    x 1.860350 -0.032410 -0.011450 
#    y -0.032410 1.879440 -0.005670 
#    z -0.011450 -0.005670 1.903660 
# 
# From -- ./inp_files/452477.got.cif
#   From: 2010.06.25/outbox.cif.g09.slc.cpg/sg2_227_cif.got.tgz:452477.got - 2010.06.27 13:26:56.
