data_PCOD8007322
_publ_section_title
;
Structure prediction by ZEFSAII (Michael W. Deem and Ramdas Pophale) SiO2 
 PCOD8007322
Probable space group: P -1
;
_chemical_formula_sum "Si O2"
_cell_formula_units_Z 12
_cell_length_a 11.209755
_cell_length_b 8.110498
_cell_length_c 9.491144
_cell_angle_alpha 135.575659
_cell_angle_beta 84.752737
_cell_angle_gamma 119.800959
_cell_volume 472.247888
_symmetry_space_group_name_H-M "P -1"
_symmetry_group_IT_number 2
_symmetry_cell_setting 'triclinic'
loop_
_space_group_symop_operation_xyz
x,y,z
-x,-y,-z
loop_
_atom_site_type_symbol
_atom_site_label
_atom_site_fract_x
_atom_site_fract_y
_atom_site_fract_z
Si Si1 0.886961 0.667694 0.002383
Si Si2 0.938083 0.681564 0.587401
Si Si3 0.410591 0.733244 0.640901
Si Si4 0.950947 0.243721 0.677651
Si Si5 0.465511 0.755722 0.238601
Si Si6 0.387279 0.351212 0.628976
O O1 0.928979 0.638829 0.138171
O O2 0.926622 0.491681 0.792406
O O3 0.710384 0.516232 0.923105
O O4 0.976054 0.007724 0.145988
O O5 0.762621 0.489428 0.531199
O O6 0.000000 0.500000 0.500000
O O7 0.972237 0.786638 0.483661
O O8 0.413809 0.653428 0.756307
O O9 0.514460 0.690085 0.510553
O O10 0.469945 0.072831 0.815112
O O11 0.788651 0.931959 0.543346
O O12 0.554650 0.625135 0.201607
O O13 0.500000 0.000000 0.500000
#
# Coordination Sequence:
#
# PCOD8007322 Si02
#       6
#     2   2   2   2   2   2
#     4  11  24  45  76  98 141 197 236 282 372 428
#     4  12  27  45  71 110 147 179 241 308 348 427
#     4  10  21  41  69 101 140 181 237 294 351 412
#     4  11  23  46  75 101 139 193 239 292 360 425
#     4  10  20  42  70  99 139 189 232 287 353 427
#     4  10  20  40  75  96 140 192 224 298 355 412
#
# _framework density 25.410381000000001
#
# number of rings (size 3 to 8) (size 9 to 14) (size 15 to 20)
#    0.000    1.333    5.000    1.500    2.333    0.667 
#    3.000    4.167    0.000    0.000    0.000    0.000 
#    0.000    0.000    0.000    0.000    0.000    0.000 
#
# Total GULP energy -148746.244641 kJ/mol
# GULP energy per Si atom -12395.520387 kJ/mol
# Density = 2.535255 g / cm^3
# Si number density = 25.410381 Si / 1000 Ang^3
#
#
#
# Elastic Constant Matrix: (Units=GPa)
#
#
# Indices 1 2 3 4 5 6 
#
# 1 112.6836 40.7855 54.5102 17.3435 18.3522 -13.0413
# 2 40.7855 100.4906 24.9364 11.1280 -0.3347 -18.3066
# 3 54.5102 24.9364 65.3322 20.9976 14.7723 -3.6018
# 4 17.3435 11.1280 20.9976 34.9546 -9.5455 -2.6879
# 5 18.3522 -0.3347 14.7723 -9.5455 54.1261 8.4288
# 6 -13.0413 -18.3066 -3.6018 -2.6879 8.4288 66.0172
#
#
#
# Elastic Compliance Matrix: (Units=1/GPa)
#
#
# Indices 1 2 3 4 5 6 
#
# 1 0.016460 -0.003401 -0.011352 -0.000923 -0.002983 0.002032
# 2 -0.003401 0.012299 -0.001798 -0.000624 0.001227 0.002458
# 3 -0.011352 -0.001798 0.031954 -0.015072 -0.007438 -0.000662
# 4 -0.000923 -0.000624 -0.015072 0.041490 0.011897 -0.001007
# 5 -0.002983 0.001227 -0.007438 0.011897 0.024129 -0.003251
# 6 0.002032 0.002458 -0.000662 -0.001007 -0.003251 0.016569
#
#
# Mechanical properties :
#
#
# Convention : Reuss Voigt Hill
#
# Bulk Modulus (GPa) = 36.21854 57.66340 46.94097
# Shear Modulus (GPa) = 26.99686 41.57121 34.28403
#
# Velocity S-wave (km/s) = 3.26304 4.04913 3.67715
# Velocity P-wave (km/s) = 5.33675 6.67853 6.04498
#
# Compressibility (1/GPa) = 0.02761017
#
# Stress axis : x y z
#
# Youngs Moduli (GPa) = 60.75281 81.30926 31.29509
#
# Poissons Ratio (x) = 0.27653 0.35527
# Poissons Ratio (y) = 0.20662 0.05627
# Poissons Ratio (z) = 0.68968 0.14620
#
# Static dielectric constant tensor:
#      x y z
#    x 5.313560 -0.961060 -0.220450 
#    y -0.961060 5.864490 0.358040 
#    z -0.220450 0.358040 4.552900 
# 
# 
# High freq. dielectric constant tensor:
#      x y z
#    x 2.035770 -0.019840 0.000840 
#    y -0.019840 2.027430 0.016670 
#    z 0.000840 0.016670 1.998390 
# 
# From -- ./inp_files/157441.got.cif
#   From: 2010.06.25/outbox.cif.g09.slc.cpg/sg2_79_cif.got.tgz:157441.got - 2010.06.27 13:26:56.
