data_PCOD8007559
_publ_section_title
;
Structure prediction by ZEFSAII (Michael W. Deem and Ramdas Pophale) SiO2 
 PCOD8007559
Probable space group: P -1
;
_chemical_formula_sum "Si O2"
_cell_formula_units_Z 14
_cell_length_a 15.871689
_cell_length_b 19.655441
_cell_length_c 7.877771
_cell_angle_alpha 54.057386
_cell_angle_beta 126.636640
_cell_angle_gamma 161.097707
_cell_volume 636.478761
_symmetry_space_group_name_H-M "P -1"
_symmetry_group_IT_number 2
_symmetry_cell_setting 'triclinic'
loop_
_space_group_symop_operation_xyz
x,y,z
-x,-y,-z
loop_
_atom_site_type_symbol
_atom_site_label
_atom_site_fract_x
_atom_site_fract_y
_atom_site_fract_z
Si Si1 0.980766 0.551892 0.252074
Si Si2 0.551742 0.626148 0.789959
Si Si3 0.627046 0.428281 0.675861
Si Si4 0.471206 0.227017 0.255269
Si Si5 0.611949 0.245413 0.738506
Si Si6 0.104676 0.816497 0.931252
Si Si7 0.880952 0.003611 0.115527
O O1 0.669221 0.344456 0.166181
O O2 0.000000 0.500000 0.500000
O O3 0.119202 0.612080 0.166045
O O4 0.114792 0.741173 0.174701
O O5 0.402424 0.525072 0.578681
O O6 0.452976 0.624818 0.803208
O O7 0.862666 0.867056 0.773478
O O8 0.500000 0.500000 0.000000
O O9 0.689506 0.383768 0.735188
O O10 0.873766 0.636577 0.779316
O O11 0.353688 0.223403 0.752293
O O12 0.486355 0.174389 0.507240
O O13 0.188525 0.020261 0.126949
O O14 0.392022 0.029121 0.882222
O O15 0.045985 0.858585 0.897918
#
# Coordination Sequence:
#
# PCOD8007559 Si02
#       7
#     2   2   2   2   2   2   2
#     4  10  20  41  65  90 126 161 202 253 308 361
#     4  11  24  40  66  93 120 166 209 250 308 365
#     4  10  23  43  63  89 129 160 202 258 301 364
#     4  10  21  43  62  90 129 160 201 262 301 361
#     4   9  22  40  65  91 123 162 205 250 307 361
#     4  11  22  41  64  93 124 161 208 248 304 371
#     4  11  23  42  64  90 127 163 204 253 310 359
#
# _framework density 21.996023000000001
#
# number of rings (size 3 to 8) (size 9 to 14) (size 15 to 20)
#    0.000    1.714    1.429    2.143    2.000    1.143 
#    5.143    1.429    0.000    0.000    0.000    0.000 
#    0.000    0.000    0.000    0.000    0.000    0.000 
#
# Total GULP energy -173521.043854 kJ/mol
# GULP energy per Si atom -12394.360275 kJ/mol
# Density = 2.194596 g / cm^3
# Si number density = 21.996023 Si / 1000 Ang^3
#
#
#
# Elastic Constant Matrix: (Units=GPa)
#
#
# Indices 1 2 3 4 5 6 
#
# 1 81.3351 30.9511 27.3581 7.0618 -0.8498 11.9494
# 2 30.9511 78.4617 39.5571 -2.8254 -3.4314 -7.5232
# 3 27.3581 39.5571 114.8604 -9.1763 7.3599 -10.5073
# 4 7.0618 -2.8254 -9.1763 35.7894 -5.7033 -4.4295
# 5 -0.8498 -3.4314 7.3599 -5.7033 27.7329 8.3545
# 6 11.9494 -7.5232 -10.5073 -4.4295 8.3545 37.6141
#
#
#
# Elastic Compliance Matrix: (Units=1/GPa)
#
#
# Indices 1 2 3 4 5 6 
#
# 1 0.017646 -0.006163 -0.003495 -0.005616 0.002255 -0.008977
# 2 -0.006163 0.017927 -0.004294 0.002424 0.002436 0.004088
# 3 -0.003495 -0.004294 0.012043 0.003318 -0.004672 0.005044
# 4 -0.005616 0.002424 0.003318 0.031460 0.003899 0.006035
# 5 0.002255 0.002436 -0.004672 0.003899 0.041576 -0.010309
# 6 -0.008977 0.004088 0.005044 0.006035 -0.010309 0.034665
#
#
# Mechanical properties :
#
#
# Convention : Reuss Voigt Hill
#
# Bulk Modulus (GPa) = 50.73149 52.26551 51.49850
# Shear Modulus (GPa) = 26.34461 32.01335 29.17898
#
# Velocity S-wave (km/s) = 3.46453 3.81913 3.64614
# Velocity P-wave (km/s) = 6.25444 6.57728 6.41789
#
# Compressibility (1/GPa) = 0.01971162
#
# Stress axis : x y z
#
# Youngs Moduli (GPa) = 56.67115 55.78112 83.03274
#
# Poissons Ratio (x) = 0.34379 0.29018
# Poissons Ratio (y) = 0.34928 0.35658
# Poissons Ratio (z) = 0.19805 0.23955
#
# Static dielectric constant tensor:
#      x y z
#    x 4.358690 0.387120 0.081100 
#    y 0.387120 3.907770 0.014770 
#    z 0.081100 0.014770 4.132830 
# 
# 
# High freq. dielectric constant tensor:
#      x y z
#    x 1.874760 0.018100 0.002990 
#    y 0.018100 1.853720 -0.001800 
#    z 0.002990 -0.001800 1.873760 
# 
# From -- ./inp_files/27264.got.cif
#   From: 2010.06.25/outbox.cif.g09.slc.cpg/sg2_14_cif.got.tgz:27264.got - 2010.06.27 13:26:56.
