data_PCOD8007262
_publ_section_title
;
Structure prediction by ZEFSAII (Michael W. Deem and Ramdas Pophale) SiO2 
 PCOD8007262
Probable space group: P -1
;
_chemical_formula_sum "Si O2"
_cell_formula_units_Z 14
_cell_length_a 22.153064
_cell_length_b 8.658407
_cell_length_c 9.131174
_cell_angle_alpha 71.799233
_cell_angle_beta 35.896025
_cell_angle_gamma 47.157791
_cell_volume 626.467940
_symmetry_space_group_name_H-M "P -1"
_symmetry_group_IT_number 2
_symmetry_cell_setting 'triclinic'
loop_
_space_group_symop_operation_xyz
x,y,z
-x,-y,-z
loop_
_atom_site_type_symbol
_atom_site_label
_atom_site_fract_x
_atom_site_fract_y
_atom_site_fract_z
Si Si1 0.313366 0.263843 0.800067
Si Si2 0.140990 0.666495 0.253580
Si Si3 0.932413 0.671738 0.850034
Si Si4 0.310586 0.390853 0.461613
Si Si5 0.389084 0.789870 0.132941
Si Si6 0.202471 0.177394 0.626816
Si Si7 0.837380 0.158212 0.577497
O O1 0.260490 0.438797 0.715022
O O2 0.500000 0.000000 0.500000
O O3 0.277691 0.399447 0.981885
O O4 0.204374 0.233570 0.017050
O O5 0.227101 0.691296 0.185018
O O6 0.026994 0.695322 0.571835
O O7 0.028387 0.896782 0.290149
O O8 0.051561 0.383163 0.753456
O O9 0.850892 0.840378 0.109628
O O10 0.281533 0.258042 0.473533
O O11 0.203525 0.664499 0.522871
O O12 0.502939 0.190303 0.138969
O O13 0.244188 0.918999 0.269654
O O14 0.325911 0.906769 0.385380
O O15 0.500000 0.500000 0.000000
#
# Coordination Sequence:
#
# PCOD8007262 Si02
#       7
#     2   2   2   2   2   2   2
#     4  11  26  40  65 104 131 166 217 272 332 381
#     4  11  23  44  66  94 134 173 214 274 321 383
#     4  10  22  40  68  97 125 172 217 273 321 376
#     4  10  22  42  65  98 131 172 217 266 325 386
#     4  10  22  39  63  97 134 171 209 267 327 384
#     4  10  20  40  69  99 122 169 230 262 317 391
#     4  10  23  43  65  94 128 179 220 256 329 385
#
# _framework density 22.347511000000001
#
# number of rings (size 3 to 8) (size 9 to 14) (size 15 to 20)
#    0.000    1.714    1.429    1.714    4.000    5.143 
#   10.286    0.714    0.000    0.000    0.000    0.000 
#    0.000    0.000    0.000    0.000    0.000    0.000 
#
# Total GULP energy -173540.954339 kJ/mol
# GULP energy per Si atom -12395.782453 kJ/mol
# Density = 2.229665 g / cm^3
# Si number density = 22.347511 Si / 1000 Ang^3
#
#
#
# Elastic Constant Matrix: (Units=GPa)
#
#
# Indices 1 2 3 4 5 6 
#
# 1 118.6109 32.2338 59.5099 -5.2923 -0.3657 16.0181
# 2 32.2338 73.4760 39.9246 1.8627 9.5316 -2.7626
# 3 59.5099 39.9246 127.1213 -0.7037 18.7621 23.9120
# 4 -5.2923 1.8627 -0.7037 25.1168 3.9421 7.4588
# 5 -0.3657 9.5316 18.7621 3.9421 40.6153 8.6899
# 6 16.0181 -2.7626 23.9120 7.4588 8.6899 28.1420
#
#
#
# Elastic Compliance Matrix: (Units=1/GPa)
#
#
# Indices 1 2 3 4 5 6 
#
# 1 0.012646 -0.004315 -0.003865 0.004242 0.003929 -0.006674
# 2 -0.004315 0.019848 -0.005937 -0.005526 -0.004018 0.012155
# 3 -0.003865 -0.005937 0.013955 0.003550 -0.003255 -0.010176
# 4 0.004242 -0.005526 0.003550 0.046733 -0.000977 -0.018057
# 5 0.003929 -0.004018 -0.003255 -0.000977 0.029032 -0.008570
# 6 -0.006674 0.012155 -0.010176 -0.018057 -0.008570 0.056605
#
#
# Mechanical properties :
#
#
# Convention : Reuss Voigt Hill
#
# Bulk Modulus (GPa) = 54.90861 64.72718 59.81790
# Shear Modulus (GPa) = 23.46044 31.27747 27.36896
#
# Velocity S-wave (km/s) = 3.24358 3.74518 3.50337
# Velocity P-wave (km/s) = 6.21703 6.90859 6.57191
#
# Compressibility (1/GPa) = 0.01821208
#
# Stress axis : x y z
#
# Youngs Moduli (GPa) = 79.07734 50.38408 71.65937
#
# Poissons Ratio (x) = 0.21743 0.27700
# Poissons Ratio (y) = 0.34125 0.42545
# Poissons Ratio (z) = 0.30567 0.29914
#
# Static dielectric constant tensor:
#      x y z
#    x 4.672650 0.025990 -0.373250 
#    y 0.025990 3.813910 -0.133410 
#    z -0.373250 -0.133410 4.208770 
# 
# 
# High freq. dielectric constant tensor:
#      x y z
#    x 1.897450 -0.001230 -0.008360 
#    y -0.001230 1.862160 -0.001250 
#    z -0.008360 -0.001250 1.872410 
# 
# From -- ./inp_files/159517.got.cif
#   From: 2010.06.25/outbox.cif.g09.slc.cpg/sg2_80_cif.got.tgz:159517.got - 2010.06.27 13:26:56.
