data_PCOD8007056
_publ_section_title
;
Structure prediction by ZEFSAII (Michael W. Deem and Ramdas Pophale) SiO2 
 PCOD8007056
Probable space group: P -1
;
_chemical_formula_sum "Si O2"
_cell_formula_units_Z 14
_cell_length_a 9.846443
_cell_length_b 8.779213
_cell_length_c 10.039138
_cell_angle_alpha 80.669144
_cell_angle_beta 79.657776
_cell_angle_gamma 48.638074
_cell_volume 639.649741
_symmetry_space_group_name_H-M "P -1"
_symmetry_group_IT_number 2
_symmetry_cell_setting 'triclinic'
loop_
_space_group_symop_operation_xyz
x,y,z
-x,-y,-z
loop_
_atom_site_type_symbol
_atom_site_label
_atom_site_fract_x
_atom_site_fract_y
_atom_site_fract_z
Si Si1 0.378215 0.387473 0.923793
Si Si2 0.750274 0.209010 0.769971
Si Si3 0.705418 0.811090 0.516524
Si Si4 0.215443 0.464761 0.216324
Si Si5 0.146322 0.432442 0.740641
Si Si6 0.872108 0.223691 0.232848
Si Si7 0.197686 0.920038 0.503414
O O1 0.308086 0.309312 0.840590
O O2 0.257144 0.633314 0.889130
O O3 0.408566 0.733294 0.112732
O O4 0.348431 0.349684 0.083273
O O5 0.773338 0.374980 0.745423
O O6 0.687202 0.204982 0.631665
O O7 0.942206 0.995491 0.813524
O O8 0.721103 0.705808 0.663952
O O9 0.781947 0.653315 0.406475
O O10 0.500000 0.000000 0.500000
O O11 0.815751 0.889088 0.495045
O O12 0.009519 0.576388 0.190285
O O13 0.066167 0.665004 0.716442
O O14 0.742108 0.212451 0.353106
O O15 0.000000 0.000000 0.500000
#
# Coordination Sequence:
#
# PCOD8007056 Si02
#       7
#     2   2   2   2   2   2   2
#     4  10  25  43  69  98 137 175 222 267 336 399
#     4  11  22  42  68  99 134 176 221 273 328 393
#     4  12  26  42  68 102 130 173 228 277 329 388
#     4  12  24  44  67  98 137 173 222 275 333 394
#     4  10  22  45  68  97 131 177 220 272 332 394
#     4   9  22  41  70  94 133 170 224 261 338 384
#     4  10  20  40  66  97 127 175 220 268 329 388
#
# _framework density 21.886977000000002
#
# number of rings (size 3 to 8) (size 9 to 14) (size 15 to 20)
#    0.857    0.571    0.000    6.429    2.000    1.143 
#    2.571    3.571    0.000    0.000    0.000    0.000 
#    0.000    0.000    0.000    0.000    0.000    0.000 
#
# Total GULP energy -173535.073964 kJ/mol
# GULP energy per Si atom -12395.362426 kJ/mol
# Density = 2.183716 g / cm^3
# Si number density = 21.886977 Si / 1000 Ang^3
#
#
#
# Elastic Constant Matrix: (Units=GPa)
#
#
# Indices 1 2 3 4 5 6 
#
# 1 95.0809 51.9626 32.2937 9.7952 -12.5299 14.6595
# 2 51.9626 80.3073 48.9588 8.2526 -8.5835 11.8980
# 3 32.2937 48.9588 140.5212 5.2704 -18.6171 8.6636
# 4 9.7952 8.2526 5.2704 15.2523 -3.5592 -7.4467
# 5 -12.5299 -8.5835 -18.6171 -3.5592 35.5910 7.7916
# 6 14.6595 11.8980 8.6636 -7.4467 7.7916 40.2718
#
#
#
# Elastic Compliance Matrix: (Units=1/GPa)
#
#
# Indices 1 2 3 4 5 6 
#
# 1 0.018164 -0.009765 0.000590 -0.008561 0.004890 -0.006383
# 2 -0.009765 0.023114 -0.005481 -0.005997 -0.000657 -0.003077
# 3 0.000590 -0.005481 0.009558 -0.000499 0.004175 -0.001552
# 4 -0.008561 -0.005997 -0.000499 0.084426 -0.000825 0.020766
# 5 0.004890 -0.000657 0.004175 -0.000825 0.033769 -0.009170
# 6 -0.006383 -0.003077 -0.001552 0.020766 -0.009170 0.034012
#
#
# Mechanical properties :
#
#
# Convention : Reuss Voigt Hill
#
# Bulk Modulus (GPa) = 46.45928 64.70438 55.58183
# Shear Modulus (GPa) = 20.87432 30.40264 25.63848
#
# Velocity S-wave (km/s) = 3.09161 3.73107 3.42629
# Velocity P-wave (km/s) = 5.83241 6.94178 6.41114
#
# Compressibility (1/GPa) = 0.02152423
#
# Stress axis : x y z
#
# Youngs Moduli (GPa) = 55.05452 43.26380 104.62375
#
# Poissons Ratio (x) = 0.42245 -0.06175
# Poissons Ratio (y) = 0.53759 0.57349
# Poissons Ratio (z) = -0.03249 0.23715
#
# Static dielectric constant tensor:
#      x y z
#    x 4.029790 0.135550 -0.133520 
#    y 0.135550 3.724600 0.051710 
#    z -0.133520 0.051710 4.706530 
# 
# 
# High freq. dielectric constant tensor:
#      x y z
#    x 1.866710 0.010330 -0.005720 
#    y 0.010330 1.847040 0.003570 
#    z -0.005720 0.003570 1.864580 
# 
# From -- ./inp_files/412336.got.cif
#   From: 2010.06.25/outbox.cif.g09.slc.cpg/sg2_207_cif.got.tgz:412336.got - 2010.06.27 13:26:56.
