data_PCOD8007202
_publ_section_title
;
Structure prediction by ZEFSAII (Michael W. Deem and Ramdas Pophale) SiO2 
 PCOD8007202
Probable space group: P -1
;
_chemical_formula_sum "Si O2"
_cell_formula_units_Z 16
_cell_length_a 15.129304
_cell_length_b 10.065103
_cell_length_c 17.228445
_cell_angle_alpha 125.963374
_cell_angle_beta 149.488090
_cell_angle_gamma 35.525729
_cell_volume 713.989577
_symmetry_space_group_name_H-M "P -1"
_symmetry_group_IT_number 2
_symmetry_cell_setting 'triclinic'
loop_
_space_group_symop_operation_xyz
x,y,z
-x,-y,-z
loop_
_atom_site_type_symbol
_atom_site_label
_atom_site_fract_x
_atom_site_fract_y
_atom_site_fract_z
Si Si1 0.195552 0.191671 0.821553
Si Si2 0.530742 0.303998 0.413314
Si Si3 0.985865 0.761284 0.134233
Si Si4 0.926626 0.933429 0.699227
Si Si5 0.112145 0.117696 0.567398
Si Si6 0.454995 0.169751 0.807100
Si Si7 0.798377 0.475208 0.121353
Si Si8 0.632389 0.462616 0.225184
O O1 0.067360 0.193105 0.797945
O O2 0.147667 0.106959 0.682638
O O3 0.082000 0.457025 0.813988
O O4 0.500000 0.000000 0.000000
O O5 0.500000 0.500000 0.500000
O O6 0.240187 0.460906 0.215034
O O7 0.734575 0.152453 0.442281
O O8 0.655346 0.093233 0.500906
O O9 0.063428 0.885658 0.203630
O O10 0.736055 0.879907 0.935264
O O11 0.951065 0.796209 0.744707
O O12 0.183379 0.723975 0.769565
O O13 0.235907 0.184805 0.637089
O O14 0.800796 0.334490 0.388032
O O15 0.398138 0.315892 0.890752
O O16 0.461470 0.283612 0.775937
O O17 0.622324 0.474403 0.936711
#
# Coordination Sequence:
#
# PCOD8007202 Si02
#       8
#     2   2   2   2   2   2   2   2
#     4  11  21  37  55  87 122 147 182 235 298 338
#     4   9  21  36  56  84 116 152 193 237 276 338
#     4  11  18  35  59  82 116 150 187 229 291 331
#     4   9  16  33  55  81 107 149 196 226 269 338
#     4  10  21  34  54  88 117 146 189 238 282 339
#     4  10  17  30  55  83 115 138 192 238 283 321
#     4  10  17  31  57  80 112 153 187 227 282 339
#     4  10  16  30  54  86 109 142 192 241 275 324
#
# _framework density 22.409289999999999
#
# number of rings (size 3 to 8) (size 9 to 14) (size 15 to 20)
#    0.000    2.000    5.000    1.125    0.000    1.500 
#    0.000   10.625    0.000    0.000    0.000    8.750 
#    0.000    0.000    0.000    0.000    0.000    0.000 
#
# Total GULP energy -198210.210155 kJ/mol
# GULP energy per Si atom -12388.138135 kJ/mol
# Density = 2.235829 g / cm^3
# Si number density = 22.409290 Si / 1000 Ang^3
#
#
#
# Elastic Constant Matrix: (Units=GPa)
#
#
# Indices 1 2 3 4 5 6 
#
# 1 45.2666 32.7171 7.9839 -4.8800 -12.3474 13.3103
# 2 32.7171 83.1242 45.3608 -14.7125 -9.5064 18.1189
# 3 7.9839 45.3608 120.7230 -33.8973 -18.7840 1.5151
# 4 -4.8800 -14.7125 -33.8973 46.0685 3.8731 -3.9608
# 5 -12.3474 -9.5064 -18.7840 3.8731 24.2882 0.5919
# 6 13.3103 18.1189 1.5151 -3.9608 0.5919 22.5927
#
#
#
# Elastic Compliance Matrix: (Units=1/GPa)
#
#
# Indices 1 2 3 4 5 6 
#
# 1 0.040682 -0.013922 0.006314 0.001655 0.020180 -0.013464
# 2 -0.013922 0.024003 -0.008858 -0.000882 -0.004137 -0.010500
# 3 0.006314 -0.008858 0.015054 0.008388 0.009961 0.003584
# 4 0.001655 -0.000882 0.008388 0.027911 0.002435 0.003999
# 5 0.020180 -0.004137 0.009961 0.002435 0.057379 -0.010316
# 6 -0.013464 -0.010500 0.003584 0.003999 -0.010316 0.061346
#
#
# Mechanical properties :
#
#
# Convention : Reuss Voigt Hill
#
# Bulk Modulus (GPa) = 21.36375 46.80414 34.08394
# Shear Modulus (GPa) = 18.18778 29.46002 23.82390
#
# Velocity S-wave (km/s) = 2.85198 3.62972 3.26410
# Velocity P-wave (km/s) = 4.51655 6.20467 5.42665
#
# Compressibility (1/GPa) = 0.04680827
#
# Stress axis : x y z
#
# Youngs Moduli (GPa) = 24.58069 41.66124 66.42747
#
# Poissons Ratio (x) = 0.58002 -0.41945
# Poissons Ratio (y) = 0.34222 0.58839
# Poissons Ratio (z) = -0.15521 0.36902
#
# Static dielectric constant tensor:
#      x y z
#    x 3.954470 0.485620 -0.136880 
#    y 0.485620 4.345120 -0.471160 
#    z -0.136880 -0.471160 4.440940 
# 
# 
# High freq. dielectric constant tensor:
#      x y z
#    x 1.827920 0.035620 -0.010490 
#    y 0.035620 1.868960 -0.012100 
#    z -0.010490 -0.012100 1.899570 
# 
# From -- ./inp_files/464780.got.cif
#   From: 2010.06.25/outbox.cif.g09.slc.cpg/sg2_233_cif.got.tgz:464780.got - 2010.06.27 13:26:56.
