data_PCOD8007560
_publ_section_title
;
Structure prediction by ZEFSAII (Michael W. Deem and Ramdas Pophale) SiO2 
 PCOD8007560
Probable space group: P -1
;
_chemical_formula_sum "Si O2"
_cell_formula_units_Z 16
_cell_length_a 13.294003
_cell_length_b 11.076640
_cell_length_c 11.859319
_cell_angle_alpha 44.008178
_cell_angle_beta 111.502877
_cell_angle_gamma 77.048531
_cell_volume 740.752036
_symmetry_space_group_name_H-M "P -1"
_symmetry_group_IT_number 2
_symmetry_cell_setting 'triclinic'
loop_
_space_group_symop_operation_xyz
x,y,z
-x,-y,-z
loop_
_atom_site_type_symbol
_atom_site_label
_atom_site_fract_x
_atom_site_fract_y
_atom_site_fract_z
Si Si1 0.076687 0.240975 0.761319
Si Si2 0.752230 0.987549 0.792604
Si Si3 0.399321 0.285450 0.966107
Si Si4 0.333744 0.244838 0.208237
Si Si5 0.111612 0.823081 0.366255
Si Si6 0.236100 0.605458 0.116162
Si Si7 0.592536 0.259532 0.896534
Si Si8 0.459401 0.260305 0.632036
O O1 0.000000 0.500000 0.500000
O O2 0.949551 0.232773 0.719575
O O3 0.112626 0.231961 0.912547
O O4 0.239165 0.007780 0.911604
O O5 0.756920 0.825455 0.813329
O O6 0.783272 0.137835 0.651725
O O7 0.576441 0.226626 0.618824
O O8 0.220608 0.569253 0.662573
O O9 0.545638 0.231240 0.016361
O O10 0.383131 0.302639 0.082437
O O11 0.450074 0.033177 0.111003
O O12 0.225741 0.478112 0.097723
O O13 0.500000 0.000000 0.500000
O O14 0.943644 0.094642 0.170314
O O15 0.380968 0.570678 0.177505
O O16 0.283447 0.463513 0.355191
O O17 0.445841 0.381061 0.664693
#
# Coordination Sequence:
#
# PCOD8007560 Si02
#       8
#     2   2   2   2   2   2   2   2
#     4  10  21  41  65  96 137 167 199 262 325 376
#     4  10  21  39  65  92 126 170 209 256 313 374
#     4  11  23  40  66  92 127 167 210 258 317 380
#     4  11  23  45  67  85 125 170 221 259 306 375
#     4  11  24  39  62 100 131 159 208 265 323 371
#     4  11  23  41  63  92 125 168 210 261 313 368
#     4  10  22  37  63  97 123 160 216 260 312 370
#     4  10  20  41  65  90 127 168 208 260 309 377
#
# _framework density 21.59967
#
# number of rings (size 3 to 8) (size 9 to 14) (size 15 to 20)
#    0.000    1.500    2.500    4.125    0.000    5.500 
#    0.000    0.000    0.000    0.000    0.000    0.000 
#    0.000    0.000    0.000    0.000    0.000    0.000 
#
# Total GULP energy -198210.358623 kJ/mol
# GULP energy per Si atom -12388.147414 kJ/mol
# Density = 2.155051 g / cm^3
# Si number density = 21.599670 Si / 1000 Ang^3
#
#
#
# Elastic Constant Matrix: (Units=GPa)
#
#
# Indices 1 2 3 4 5 6 
#
# 1 108.3088 36.1357 43.4898 4.0303 -12.5999 16.8143
# 2 36.1357 111.4874 43.8613 14.4829 -10.4205 29.3435
# 3 43.4898 43.8613 142.6501 7.5476 -13.4838 9.3788
# 4 4.0303 14.4829 7.5476 27.3052 3.8443 -2.2582
# 5 -12.5999 -10.4205 -13.4838 3.8443 24.6008 -0.0509
# 6 16.8143 29.3435 9.3788 -2.2582 -0.0509 28.6738
#
#
#
# Elastic Compliance Matrix: (Units=1/GPa)
#
#
# Indices 1 2 3 4 5 6 
#
# 1 0.011970 -0.000757 -0.002512 -0.001793 0.004702 -0.005556
# 2 -0.000757 0.016511 -0.002588 -0.010238 0.006754 -0.016400
# 3 -0.002512 -0.002588 0.008789 -0.000953 0.002586 0.001176
# 4 -0.001793 -0.010238 -0.000953 0.045670 -0.012882 0.015413
# 5 0.004702 0.006754 0.002586 -0.012882 0.049325 -0.011442
# 6 -0.005556 -0.016400 0.001176 0.015413 -0.011442 0.055726
#
#
# Mechanical properties :
#
#
# Convention : Reuss Voigt Hill
#
# Bulk Modulus (GPa) = 39.12785 67.71332 53.42058
# Shear Modulus (GPa) = 24.01278 32.04658 28.02968
#
# Velocity S-wave (km/s) = 3.33786 3.85601 3.60625
# Velocity P-wave (km/s) = 5.74539 7.15838 6.49045
#
# Compressibility (1/GPa) = 0.02555724
#
# Stress axis : x y z
#
# Youngs Moduli (GPa) = 83.54005 60.56672 113.77595
#
# Poissons Ratio (x) = 0.04584 0.28582
# Poissons Ratio (y) = 0.06323 0.29440
# Poissons Ratio (z) = 0.20986 0.15672
#
# Static dielectric constant tensor:
#      x y z
#    x 4.019150 0.079250 0.013120 
#    y 0.079250 3.515280 -0.107630 
#    z 0.013120 -0.107630 4.067910 
# 
# 
# High freq. dielectric constant tensor:
#      x y z
#    x 1.844410 0.015270 -0.004120 
#    y 0.015270 1.835360 -0.009940 
#    z -0.004120 -0.009940 1.864360 
# 
# From -- ./inp_files/427443.got.cif
#   From: 2010.06.25/outbox.cif.g09.slc.cpg/sg2_214_cif.got.tgz:427443.got - 2010.06.27 13:26:56.
