data_PCOD8007815
_publ_section_title
;
Structure prediction by ZEFSAII (Michael W. Deem and Ramdas Pophale) SiO2 
 PCOD8007815
Probable space group: P -1
;
_chemical_formula_sum "Si O2"
_cell_formula_units_Z 14
_cell_length_a 11.888770
_cell_length_b 11.095191
_cell_length_c 12.018044
_cell_angle_alpha 139.111416
_cell_angle_beta 53.789300
_cell_angle_gamma 95.286432
_cell_volume 620.695961
_symmetry_space_group_name_H-M "P -1"
_symmetry_group_IT_number 2
_symmetry_cell_setting 'triclinic'
loop_
_space_group_symop_operation_xyz
x,y,z
-x,-y,-z
loop_
_atom_site_type_symbol
_atom_site_label
_atom_site_fract_x
_atom_site_fract_y
_atom_site_fract_z
Si Si1 0.556233 0.406050 0.625380
Si Si2 0.901474 0.144286 0.374514
Si Si3 0.856809 0.361854 0.990608
Si Si4 0.402694 0.910301 0.042393
Si Si5 0.750293 0.042863 0.067930
Si Si6 0.101760 0.357733 0.670466
Si Si7 0.886330 0.565174 0.723389
O O1 0.716769 0.197612 0.473654
O O2 0.612323 0.301112 0.393844
O O3 0.345971 0.523564 0.856772
O O4 0.559787 0.624876 0.788355
O O5 0.832087 0.397947 0.649984
O O6 0.007395 0.923890 0.249158
O O7 0.034183 0.073040 0.139911
O O8 0.952973 0.375770 0.840904
O O9 0.820900 0.535267 0.233270
O O10 0.273509 0.072962 0.336957
O O11 0.500000 0.000000 0.000000
O O12 0.286297 0.920016 0.017255
O O13 0.720188 0.865424 0.017827
O O14 0.005909 0.520267 0.728887
O O15 0.000000 0.500000 0.500000
#
# Coordination Sequence:
#
# PCOD8007815 Si02
#       7
#     2   2   2   2   2   2   2
#     4  12  25  42  68 107 137 179 233 279 340 417
#     4  11  23  42  68 100 139 182 224 281 345 400
#     4  11  26  47  70 100 136 192 227 275 344 408
#     4  12  24  39  67 102 136 176 225 285 338 403
#     4  11  22  41  65 101 142 173 224 287 340 395
#     4  11  24  47  71  94 145 183 227 286 340 408
#     4  10  20  41  69 101 131 181 225 277 349 397
#
# _framework density 22.555326000000001
#
# number of rings (size 3 to 8) (size 9 to 14) (size 15 to 20)
#    0.000    0.857    4.286    3.429    4.000    2.286 
#    0.000   10.714    0.000    0.000    0.000    0.000 
#    0.000    0.000    0.000    0.000    0.000    0.000 
#
# Total GULP energy -173530.700365 kJ/mol
# GULP energy per Si atom -12395.050026 kJ/mol
# Density = 2.250399 g / cm^3
# Si number density = 22.555326 Si / 1000 Ang^3
#
#
#
# Elastic Constant Matrix: (Units=GPa)
#
#
# Indices 1 2 3 4 5 6 
#
# 1 98.8301 18.2432 24.7358 -6.8412 -18.7962 -3.7794
# 2 18.2432 67.1926 16.3853 4.4328 -5.6288 -4.7299
# 3 24.7358 16.3853 104.2299 3.5236 6.1856 -2.2051
# 4 -6.8412 4.4328 3.5236 32.1563 -3.2688 2.3641
# 5 -18.7962 -5.6288 6.1856 -3.2688 41.0619 1.1798
# 6 -3.7794 -4.7299 -2.2051 2.3641 1.1798 33.4477
#
#
#
# Elastic Compliance Matrix: (Units=1/GPa)
#
#
# Indices 1 2 3 4 5 6 
#
# 1 0.012861 -0.002425 -0.003176 0.004034 0.006343 0.000392
# 2 -0.002425 0.016430 -0.001945 -0.002600 0.001169 0.002064
# 3 -0.003176 -0.001945 0.010938 -0.001991 -0.003537 0.000353
# 4 0.004034 -0.002600 -0.001991 0.033178 0.004505 -0.002547
# 5 0.006343 0.001169 -0.003537 0.004505 0.028328 -0.000669
# 6 0.000392 0.002064 0.000353 -0.002547 -0.000669 0.030460
#
#
# Mechanical properties :
#
#
# Convention : Reuss Voigt Hill
#
# Bulk Modulus (GPa) = 39.77950 43.22014 41.49982
# Shear Modulus (GPa) = 32.11982 35.39241 33.75611
#
# Velocity S-wave (km/s) = 3.77775 3.96553 3.87278
# Velocity P-wave (km/s) = 6.05832 6.33803 6.19975
#
# Compressibility (1/GPa) = 0.02513857
#
# Stress axis : x y z
#
# Youngs Moduli (GPa) = 77.75173 60.86418 91.42203
#
# Poissons Ratio (x) = 0.14758 0.29032
# Poissons Ratio (y) = 0.18853 0.17784
# Poissons Ratio (z) = 0.24691 0.11839
#
# Static dielectric constant tensor:
#      x y z
#    x 4.735130 0.097270 0.149440 
#    y 0.097270 4.269030 0.578340 
#    z 0.149440 0.578340 4.492660 
# 
# 
# High freq. dielectric constant tensor:
#      x y z
#    x 1.896720 0.000670 0.009630 
#    y 0.000670 1.871920 0.021340 
#    z 0.009630 0.021340 1.890700 
# 
# From -- ./inp_files/417993.got.cif
#   From: 2010.06.25/outbox.cif.g09.slc.cpg/sg2_209_cif.got.tgz:417993.got - 2010.06.27 13:26:56.
