data_PCOD8007426
_publ_section_title
;
Structure prediction by ZEFSAII (Michael W. Deem and Ramdas Pophale) SiO2 
 PCOD8007426
Probable space group: P -1
;
_chemical_formula_sum "Si O2"
_cell_formula_units_Z 14
_cell_length_a 8.741044
_cell_length_b 14.574568
_cell_length_c 9.193117
_cell_angle_alpha 125.065806
_cell_angle_beta 130.954914
_cell_angle_gamma 86.395779
_cell_volume 623.798085
_symmetry_space_group_name_H-M "P -1"
_symmetry_group_IT_number 2
_symmetry_cell_setting 'triclinic'
loop_
_space_group_symop_operation_xyz
x,y,z
-x,-y,-z
loop_
_atom_site_type_symbol
_atom_site_label
_atom_site_fract_x
_atom_site_fract_y
_atom_site_fract_z
Si Si1 0.011097 0.548391 0.890801
Si Si2 0.900066 0.188951 0.708156
Si Si3 0.606906 0.903092 0.636194
Si Si4 0.952263 0.950108 0.121935
Si Si5 0.809463 0.379963 0.363715
Si Si6 0.533519 0.327465 0.873193
Si Si7 0.027405 0.230974 0.495355
O O1 0.786607 0.441613 0.559442
O O2 0.027528 0.687229 0.029384
O O3 0.239958 0.556010 0.961165
O O4 0.000000 0.500000 0.000000
O O5 0.617360 0.085911 0.444178
O O6 0.972184 0.239236 0.636242
O O7 0.043026 0.120597 0.791586
O O8 0.831231 0.034345 0.830853
O O9 0.519190 0.802371 0.359175
O O10 0.707197 0.862271 0.801942
O O11 0.970906 0.086640 0.293266
O O12 0.000000 0.500000 0.500000
O O13 0.872641 0.267964 0.331236
O O14 0.575375 0.314465 0.059820
O O15 0.300625 0.338572 0.730121
#
# Coordination Sequence:
#
# PCOD8007426 Si02
#       7
#     2   2   2   2   2   2   2
#     4  10  20  41  63  87 121 161 205 253 299 357
#     4  11  22  39  63  88 129 159 201 257 306 359
#     4   9  21  39  62  89 125 162 204 251 297 369
#     4  10  22  39  63  93 121 161 208 244 312 364
#     4  10  22  40  64  87 122 165 204 246 308 358
#     4   9  22  40  65  88 124 162 204 249 310 361
#     4  11  23  40  61  94 127 156 205 257 300 370
#
# _framework density 22.443159999999999
#
# number of rings (size 3 to 8) (size 9 to 14) (size 15 to 20)
#    0.000    2.000    1.429    0.857    0.000   16.571 
#    0.000    2.143    0.000    0.000    0.000    0.000 
#    0.000    0.000    0.000    0.000    0.000    0.000 
#
# Total GULP energy -173473.057526 kJ/mol
# GULP energy per Si atom -12390.932680 kJ/mol
# Density = 2.239208 g / cm^3
# Si number density = 22.443160 Si / 1000 Ang^3
#
#
#
# Elastic Constant Matrix: (Units=GPa)
#
#
# Indices 1 2 3 4 5 6 
#
# 1 78.9604 14.2439 28.6842 0.1635 -15.0164 3.1362
# 2 14.2439 106.8569 25.4626 -18.2282 -6.0254 -6.7646
# 3 28.6842 25.4626 134.8712 -20.0194 -19.8409 0.7910
# 4 0.1635 -18.2282 -20.0194 30.8542 4.0263 -9.3114
# 5 -15.0164 -6.0254 -19.8409 4.0263 28.3066 -4.1769
# 6 3.1362 -6.7646 0.7910 -9.3114 -4.1769 25.5950
#
#
#
# Elastic Compliance Matrix: (Units=1/GPa)
#
#
# Indices 1 2 3 4 5 6 
#
# 1 0.015281 -0.002068 -0.002660 -0.004744 0.006022 -0.003080
# 2 -0.002068 0.011646 -0.000410 0.008497 0.000856 0.006575
# 3 -0.002660 -0.000410 0.009693 0.006339 0.004839 0.003014
# 4 -0.004744 0.008497 0.006339 0.047596 -0.000094 0.019931
# 5 0.006022 0.000856 0.004839 -0.000094 0.043043 0.006329
# 6 -0.003080 0.006575 0.003014 0.019931 0.006329 0.049376
#
#
# Mechanical properties :
#
#
# Convention : Reuss Voigt Hill
#
# Bulk Modulus (GPa) = 37.95882 50.82997 44.39440
# Shear Modulus (GPa) = 25.55050 33.77103 29.66077
#
# Velocity S-wave (km/s) = 3.37776 3.88330 3.63932
# Velocity P-wave (km/s) = 5.67119 6.54249 6.12236
#
# Compressibility (1/GPa) = 0.02634434
#
# Stress axis : x y z
#
# Youngs Moduli (GPa) = 65.43967 85.86854 103.17150
#
# Poissons Ratio (x) = 0.17755 0.27440
# Poissons Ratio (y) = 0.13531 0.04232
# Poissons Ratio (z) = 0.17405 0.03522
#
# Static dielectric constant tensor:
#      x y z
#    x 4.285920 -0.005630 -0.136500 
#    y -0.005630 3.770920 -0.041970 
#    z -0.136500 -0.041970 4.981470 
# 
# 
# High freq. dielectric constant tensor:
#      x y z
#    x 1.874460 0.003410 -0.016330 
#    y 0.003410 1.865690 -0.007590 
#    z -0.016330 -0.007590 1.897480 
# 
# From -- ./inp_files/91043.got.cif
#   From: 2010.06.25/outbox.cif.g09.slc.cpg/sg2_46_cif.got.tgz:91043.got - 2010.06.27 13:26:56.
