data_PCOD8007810
_publ_section_title
;
Structure prediction by ZEFSAII (Michael W. Deem and Ramdas Pophale) SiO2 
 PCOD8007810
Probable space group: P -1
;
_chemical_formula_sum "Si O2"
_cell_formula_units_Z 16
_cell_length_a 7.787492
_cell_length_b 18.142530
_cell_length_c 14.141479
_cell_angle_alpha 152.556206
_cell_angle_beta 118.355872
_cell_angle_gamma 77.970442
_cell_volume 689.493205
_symmetry_space_group_name_H-M "P -1"
_symmetry_group_IT_number 2
_symmetry_cell_setting 'triclinic'
loop_
_space_group_symop_operation_xyz
x,y,z
-x,-y,-z
loop_
_atom_site_type_symbol
_atom_site_label
_atom_site_fract_x
_atom_site_fract_y
_atom_site_fract_z
Si Si1 0.547825 0.243156 0.885961
Si Si2 0.379854 0.682030 0.570119
Si Si3 0.989185 0.597391 0.701639
Si Si4 0.670570 0.429436 0.951037
Si Si5 0.082893 0.075977 0.002617
Si Si6 0.276791 0.452416 0.095895
Si Si7 0.862563 0.089700 0.526917
Si Si8 0.917674 0.188253 0.442028
O O1 0.794528 0.354585 0.124249
O O2 0.582908 0.244995 0.783152
O O3 0.415187 0.349632 0.997050
O O4 0.397225 0.027172 0.634758
O O5 0.350363 0.546828 0.322778
O O6 0.298489 0.823842 0.680576
O O7 0.244411 0.550480 0.473952
O O8 0.644906 0.810036 0.809962
O O9 0.000000 0.500000 0.500000
O O10 0.006425 0.790246 0.899381
O O11 0.912674 0.593129 0.242404
O O12 0.500000 0.500000 0.000000
O O13 0.674516 0.393552 0.798526
O O14 0.977173 0.899159 0.701255
O O15 0.000000 0.000000 0.000000
O O16 0.999673 0.303361 0.846130
O O17 0.848833 0.073906 0.391787
O O18 0.000000 0.000000 0.500000
#
# Coordination Sequence:
#
# PCOD8007810 Si02
#       8
#     2   2   2   2   2   2   2   2
#     4  10  20  41  69 100 136 180 225 280 332 401
#     4  12  26  47  71 101 134 183 229 287 335 415
#     4  12  27  46  72 100 135 181 232 281 345 407
#     4   9  19  39  69  99 137 185 216 276 332 411
#     4  12  30  47  70 102 133 179 230 291 345 400
#     4   9  21  41  70  99 138 180 228 265 349 393
#     4   9  21  39  69 100 140 177 218 277 334 398
#     4  11  24  45  69  98 141 177 227 274 348 398
#
# _framework density 23.205449000000002
#
# number of rings (size 3 to 8) (size 9 to 14) (size 15 to 20)
#    0.000    1.500    1.250    3.000   10.500    2.000 
#    0.000    1.875    0.000    0.000    0.000    0.000 
#    0.000    0.000    0.000    0.000    0.000    0.000 
#
# Total GULP energy -198353.074478 kJ/mol
# GULP energy per Si atom -12397.067155 kJ/mol
# Density = 2.315263 g / cm^3
# Si number density = 23.205449 Si / 1000 Ang^3
#
#
#
# Elastic Constant Matrix: (Units=GPa)
#
#
# Indices 1 2 3 4 5 6 
#
# 1 69.3514 35.8388 28.7632 8.3274 6.0967 21.4726
# 2 35.8388 145.9422 21.8588 18.4565 1.5896 32.7792
# 3 28.7632 21.8588 52.3226 3.0509 0.7771 20.4283
# 4 8.3274 18.4565 3.0509 34.1746 4.6417 7.0842
# 5 6.0967 1.5896 0.7771 4.6417 53.3558 1.6654
# 6 21.4726 32.7792 20.4283 7.0842 1.6654 50.1167
#
#
#
# Elastic Compliance Matrix: (Units=1/GPa)
#
#
# Indices 1 2 3 4 5 6 
#
# 1 0.020979 -0.002845 -0.008981 -0.001862 -0.001922 -0.003140
# 2 -0.002845 0.008926 -0.000419 -0.003327 0.000479 -0.003994
# 3 -0.008981 -0.000419 0.026889 0.001376 0.000748 -0.007058
# 4 -0.001862 -0.003327 0.001376 0.032146 -0.002441 -0.002050
# 5 -0.001922 0.000479 0.000748 -0.002441 0.019152 -0.000086
# 6 -0.003140 -0.003994 -0.007058 -0.002050 -0.000086 0.027080
#
#
# Mechanical properties :
#
#
# Convention : Reuss Voigt Hill
#
# Bulk Modulus (GPa) = 30.95624 48.94864 39.95244
# Shear Modulus (GPa) = 29.33769 39.60644 34.47207
#
# Velocity S-wave (km/s) = 3.55950 4.13579 3.85842
# Velocity P-wave (km/s) = 5.50113 6.62916 6.09131
#
# Compressibility (1/GPa) = 0.03230366
#
# Stress axis : x y z
#
# Youngs Moduli (GPa) = 47.66644 112.03184 37.19056
#
# Poissons Ratio (x) = 0.31873 0.33402
# Poissons Ratio (y) = 0.13561 0.01557
# Poissons Ratio (z) = 0.42810 0.04691
#
# Static dielectric constant tensor:
#      x y z
#    x 6.206700 2.325870 2.848100 
#    y 2.325870 6.960780 3.084400 
#    z 2.848100 3.084400 7.792750 
# 
# 
# High freq. dielectric constant tensor:
#      x y z
#    x 1.925240 0.003240 0.009930 
#    y 0.003240 1.940080 0.002360 
#    z 0.009930 0.002360 1.907550 
# 
# From -- ./inp_files/507349.got.cif
#   From: 2010.06.25/outbox.cif.g09.slc.cpg/sg2_254_cif.got.tgz:507349.got - 2010.06.27 13:26:56.
