data_PCOD8007259
_publ_section_title
;
Structure prediction by ZEFSAII (Michael W. Deem and Ramdas Pophale) SiO2 
 PCOD8007259
Probable space group: P -1
;
_chemical_formula_sum "Si O2"
_cell_formula_units_Z 16
_cell_length_a 15.403716
_cell_length_b 8.260089
_cell_length_c 8.984916
_cell_angle_alpha 109.618449
_cell_angle_beta 47.929064
_cell_angle_gamma 124.124589
_cell_volume 701.003551
_symmetry_space_group_name_H-M "P -1"
_symmetry_group_IT_number 2
_symmetry_cell_setting 'triclinic'
loop_
_space_group_symop_operation_xyz
x,y,z
-x,-y,-z
loop_
_atom_site_type_symbol
_atom_site_label
_atom_site_fract_x
_atom_site_fract_y
_atom_site_fract_z
Si Si1 0.540111 0.195236 0.870179
Si Si2 0.696585 0.021621 0.746413
Si Si3 0.867695 0.977500 0.072799
Si Si4 0.862363 0.929585 0.713375
Si Si5 0.346325 0.247034 0.535757
Si Si6 0.147014 0.637132 0.805460
Si Si7 0.565671 0.150736 0.333669
Si Si8 0.288091 0.457863 0.413993
O O1 0.581791 0.365365 0.755630
O O2 0.670127 0.204753 0.804900
O O3 0.457032 0.980721 0.825158
O O4 0.435259 0.183404 0.110980
O O5 0.810062 0.076816 0.757709
O O6 0.733284 0.957085 0.528466
O O7 0.742493 0.785479 0.224753
O O8 0.852371 0.166880 0.189589
O O9 0.871583 0.943109 0.882805
O O10 0.000000 0.000000 0.000000
O O11 0.766733 0.711006 0.697952
O O12 0.000000 0.000000 0.500000
O O13 0.492866 0.284613 0.430335
O O14 0.345061 0.416706 0.488054
O O15 0.275787 0.705253 0.787104
O O16 0.174648 0.521068 0.603527
O O17 0.000000 0.500000 0.000000
O O18 0.500000 0.000000 0.500000
#
# Coordination Sequence:
#
# PCOD8007259 Si02
#       8
#     2   2   2   2   2   2   2   2
#     4  10  20  40  69  97 129 182 228 296 344 415
#     4   9  20  40  66  92 131 174 232 277 356 416
#     4  12  24  45  71  97 142 189 233 281 361 425
#     4  11  24  43  66  96 137 185 224 280 355 425
#     4  10  22  40  66 100 135 183 226 291 346 421
#     4  12  24  42  68 101 137 181 235 290 339 414
#     4  11  20  41  67 100 140 187 231 280 361 419
#     4  11  24  44  69 102 141 172 238 296 347 410
#
# _framework density 22.824421999999998
#
# number of rings (size 3 to 8) (size 9 to 14) (size 15 to 20)
#    0.000    1.250    2.500    4.500    0.000    2.500 
#    0.000   13.750    0.000    0.000    0.000    0.000 
#    0.000    0.000    0.000    0.000    0.000    0.000 
#
# Total GULP energy -198255.040161 kJ/mol
# GULP energy per Si atom -12390.940010 kJ/mol
# Density = 2.277247 g / cm^3
# Si number density = 22.824422 Si / 1000 Ang^3
#
#
#
# Elastic Constant Matrix: (Units=GPa)
#
#
# Indices 1 2 3 4 5 6 
#
# 1 191.9671 45.4206 55.5312 -4.0604 -4.1323 -13.5308
# 2 45.4206 67.5029 23.1700 -4.5992 0.6890 -9.3131
# 3 55.5312 23.1700 118.3179 -18.2466 7.9880 -6.6458
# 4 -4.0604 -4.5992 -18.2466 44.0602 2.2012 2.7201
# 5 -4.1323 0.6890 7.9880 2.2012 42.2048 -1.6419
# 6 -13.5308 -9.3131 -6.6458 2.7201 -1.6419 42.7695
#
#
#
# Elastic Compliance Matrix: (Units=1/GPa)
#
#
# Indices 1 2 3 4 5 6 
#
# 1 0.006953 -0.003673 -0.002729 -0.001008 0.001352 0.001092
# 2 -0.003673 0.018224 -0.001564 0.000777 -0.000304 0.002502
# 3 -0.002729 -0.001564 0.010863 0.004202 -0.002512 0.000120
# 4 -0.001008 0.000777 0.004202 0.024607 -0.002235 -0.001148
# 5 0.001352 -0.000304 -0.002512 -0.002235 0.024464 0.001052
# 6 0.001092 0.002502 0.000120 -0.001148 0.001052 0.024403
#
#
# Mechanical properties :
#
#
# Convention : Reuss Voigt Hill
#
# Bulk Modulus (GPa) = 49.73347 69.55905 59.64626
# Shear Modulus (GPa) = 37.83590 42.71798 40.27694
#
# Velocity S-wave (km/s) = 4.07590 4.33088 4.20532
# Velocity P-wave (km/s) = 6.63230 7.45323 7.05472
#
# Compressibility (1/GPa) = 0.02010718
#
# Stress axis : x y z
#
# Youngs Moduli (GPa) = 143.83197 54.87329 92.05240
#
# Poissons Ratio (x) = 0.20156 0.25123
# Poissons Ratio (y) = 0.52833 0.14395
# Poissons Ratio (z) = 0.39255 0.08581
#
# Static dielectric constant tensor:
#      x y z
#    x 5.213860 2.659160 0.807540 
#    y 2.659160 13.882430 3.191380 
#    z 0.807540 3.191380 5.217270 
# 
# 
# High freq. dielectric constant tensor:
#      x y z
#    x 1.913060 -0.017140 -0.000570 
#    y -0.017140 1.876240 0.012370 
#    z -0.000570 0.012370 1.915810 
# 
# From -- ./inp_files/295469.got.cif
#   From: 2010.06.25/outbox.cif.g09.slc.cpg/sg2_148_cif.got.tgz:295469.got - 2010.06.27 13:26:56.
