data_PCOD8007644
_publ_section_title
;
Structure prediction by ZEFSAII (Michael W. Deem and Ramdas Pophale) SiO2 
 PCOD8007644
Probable space group: P -1
;
_chemical_formula_sum "Si O2"
_cell_formula_units_Z 16
_cell_length_a 18.308333
_cell_length_b 8.580404
_cell_length_c 11.738156
_cell_angle_alpha 147.483155
_cell_angle_beta 131.834755
_cell_angle_gamma 61.464084
_cell_volume 721.825808
_symmetry_space_group_name_H-M "P -1"
_symmetry_group_IT_number 2
_symmetry_cell_setting 'triclinic'
loop_
_space_group_symop_operation_xyz
x,y,z
-x,-y,-z
loop_
_atom_site_type_symbol
_atom_site_label
_atom_site_fract_x
_atom_site_fract_y
_atom_site_fract_z
Si Si1 0.481454 0.653624 0.800136
Si Si2 0.679651 0.729272 0.742561
Si Si3 0.679337 0.362850 0.190228
Si Si4 0.859102 0.396370 0.033241
Si Si5 0.673803 0.589085 0.074425
Si Si6 0.046298 0.569619 0.215178
Si Si7 0.166545 0.191368 0.238019
Si Si8 0.224487 0.785681 0.400892
O O1 0.430958 0.457337 0.519701
O O2 0.410475 0.576269 0.788468
O O3 0.580162 0.523370 0.850401
O O4 0.500000 0.000000 0.000000
O O5 0.738812 0.843823 0.760284
O O6 0.737353 0.518290 0.741767
O O7 0.678889 0.015215 0.995865
O O8 0.654417 0.406948 0.059087
O O9 0.786621 0.571029 0.466919
O O10 0.774278 0.543238 0.089030
O O11 0.961207 0.644914 0.260266
O O12 0.826509 0.209197 0.770219
O O13 0.885023 0.140225 0.981946
O O14 0.684374 0.935573 0.326647
O O15 0.080318 0.290052 0.135884
O O16 0.148392 0.813158 0.445511
O O17 0.000000 0.500000 0.000000
#
# Coordination Sequence:
#
# PCOD8007644 Si02
#       8
#     2   2   2   2   2   2   2   2
#     4  11  25  42  65  96 129 167 219 266 316 378
#     4  10  22  42  65  95 124 169 215 263 318 379
#     4  11  24  42  66  92 131 169 213 263 323 375
#     4  11  22  39  66  95 125 171 215 261 321 379
#     4  12  24  42  63  95 130 170 214 263 319 378
#     4   9  21  41  66  96 128 169 209 264 322 374
#     4  10  20  41  66  93 130 165 212 263 315 383
#     4  10  22  40  65  91 135 163 209 268 318 375
#
# _framework density 22.166013
#
# number of rings (size 3 to 8) (size 9 to 14) (size 15 to 20)
#    0.000    1.500    3.750    0.750    1.750    2.500 
#    0.000    5.625    0.000    0.000    0.000    0.000 
#    0.000    0.000    0.000    0.000    0.000    0.000 
#
# Total GULP energy -198244.376365 kJ/mol
# GULP energy per Si atom -12390.273523 kJ/mol
# Density = 2.211556 g / cm^3
# Si number density = 22.166013 Si / 1000 Ang^3
#
#
#
# Elastic Constant Matrix: (Units=GPa)
#
#
# Indices 1 2 3 4 5 6 
#
# 1 88.4148 34.4241 0.4273 4.4001 0.3157 -5.2490
# 2 34.4241 121.7345 16.7109 -10.2836 6.8726 -2.5649
# 3 0.4273 16.7109 55.8362 9.3683 4.4766 -6.7653
# 4 4.4001 -10.2836 9.3683 32.9436 -1.3049 3.6261
# 5 0.3157 6.8726 4.4766 -1.3049 24.3418 2.2544
# 6 -5.2490 -2.5649 -6.7653 3.6261 2.2544 33.0837
#
#
#
# Elastic Compliance Matrix: (Units=1/GPa)
#
#
# Indices 1 2 3 4 5 6 
#
# 1 0.013364 -0.004379 0.002197 -0.004062 0.000195 0.002662
# 2 -0.004379 0.010498 -0.003943 0.005034 -0.001809 -0.001116
# 3 0.002197 -0.003943 0.021470 -0.008400 -0.003834 0.005615
# 4 -0.004062 0.005034 -0.008400 0.035629 0.002647 -0.006057
# 5 0.000195 -0.001809 -0.003834 0.002647 0.042817 -0.004101
# 6 0.002662 -0.001116 0.005615 -0.006057 -0.004101 0.032654
#
#
# Mechanical properties :
#
#
# Convention : Reuss Voigt Hill
#
# Bulk Modulus (GPa) = 30.22848 41.01222 35.62035
# Shear Modulus (GPa) = 27.82276 32.36869 30.09573
#
# Velocity S-wave (km/s) = 3.54672 3.82551 3.68875
# Velocity P-wave (km/s) = 5.51718 6.16889 5.85211
#
# Compressibility (1/GPa) = 0.03308139
#
# Stress axis : x y z
#
# Youngs Moduli (GPa) = 74.82796 95.25656 46.57683
#
# Poissons Ratio (x) = 0.41709 -0.10231
# Poissons Ratio (y) = 0.32764 0.18366
# Poissons Ratio (z) = -0.16437 0.37562
#
# Static dielectric constant tensor:
#      x y z
#    x 4.241380 0.110820 0.280010 
#    y 0.110820 3.942030 -0.065310 
#    z 0.280010 -0.065310 3.812920 
# 
# 
# High freq. dielectric constant tensor:
#      x y z
#    x 1.878820 0.010950 0.016130 
#    y 0.010950 1.883020 -0.002800 
#    z 0.016130 -0.002800 1.849400 
# 
# From -- ./inp_files/37233.got.cif
#   From: 2010.06.25/outbox.cif.g09.slc.cpg/sg2_19_cif.got.tgz:37233.got - 2010.06.27 13:26:56.
