data_PCOD8007725
_publ_section_title
;
Structure prediction by ZEFSAII (Michael W. Deem and Ramdas Pophale) SiO2 
 PCOD8007725
Probable space group: P -1
;
_chemical_formula_sum "Si O2"
_cell_formula_units_Z 16
_cell_length_a 12.085170
_cell_length_b 9.101393
_cell_length_c 9.393155
_cell_angle_alpha 103.804642
_cell_angle_beta 58.384197
_cell_angle_gamma 122.069771
_cell_volume 744.439424
_symmetry_space_group_name_H-M "P -1"
_symmetry_group_IT_number 2
_symmetry_cell_setting 'triclinic'
loop_
_space_group_symop_operation_xyz
x,y,z
-x,-y,-z
loop_
_atom_site_type_symbol
_atom_site_label
_atom_site_fract_x
_atom_site_fract_y
_atom_site_fract_z
Si Si1 0.886107 0.335440 0.446214
Si Si2 0.144459 0.546647 0.814349
Si Si3 0.406352 0.353561 0.918220
Si Si4 0.399811 0.813622 0.208612
Si Si5 0.155292 0.006042 0.041876
Si Si6 0.135584 0.001174 0.725089
Si Si7 0.340270 0.834839 0.949021
Si Si8 0.655128 0.617930 0.343052
O O1 0.890403 0.409464 0.305803
O O2 0.725531 0.248899 0.604201
O O3 0.000000 0.500000 0.500000
O O4 0.913701 0.170126 0.377856
O O5 0.288159 0.705725 0.823175
O O6 0.202222 0.407543 0.723172
O O7 0.000000 0.500000 0.000000
O O8 0.489172 0.243184 0.811323
O O9 0.387539 0.434358 0.804695
O O10 0.500000 0.500000 0.000000
O O11 0.243107 0.215011 0.054388
O O12 0.490501 0.021356 0.171103
O O13 0.334975 0.735311 0.077073
O O14 0.152824 0.955123 0.865758
O O15 0.989951 0.941617 0.193109
O O16 0.229235 0.914772 0.063122
O O17 0.288259 0.176521 0.617859
O O18 0.500000 0.500000 0.500000
#
# Coordination Sequence:
#
# PCOD8007725 Si02
#       8
#     2   2   2   2   2   2   2   2
#     4  12  27  43  66  97 137 176 220 279 340 391
#     4  12  25  42  71  98 132 176 230 274 330 404
#     4  10  21  38  66  92 128 169 215 270 325 394
#     4  10  23  40  62  98 132 168 222 270 339 388
#     4   9  19  39  67  94 119 175 225 264 323 389
#     4  10  22  42  67  93 132 171 222 271 326 400
#     4  10  20  41  67  94 130 172 222 275 322 401
#     4  11  25  43  66  99 133 172 221 273 335 395
#
# _framework density 21.492683
#
# number of rings (size 3 to 8) (size 9 to 14) (size 15 to 20)
#    0.000    1.500    1.250    3.000    7.000    0.500 
#    0.000    1.250    0.000    0.000    0.000    0.000 
#    0.000    0.000    0.000    0.000    0.000    0.000 
#
# Total GULP energy -198276.706654 kJ/mol
# GULP energy per Si atom -12392.294166 kJ/mol
# Density = 2.144377 g / cm^3
# Si number density = 21.492683 Si / 1000 Ang^3
#
#
#
# Elastic Constant Matrix: (Units=GPa)
#
#
# Indices 1 2 3 4 5 6 
#
# 1 90.4213 23.6482 34.9583 -10.6872 1.2968 2.9417
# 2 23.6482 120.8507 46.6795 7.9533 3.8709 20.7418
# 3 34.9583 46.6795 103.3228 -20.2112 -5.1199 4.8963
# 4 -10.6872 7.9533 -20.2112 33.3249 6.6958 7.5215
# 5 1.2968 3.8709 -5.1199 6.6958 37.6976 2.9529
# 6 2.9417 20.7418 4.8963 7.5215 2.9529 37.5510
#
#
#
# Elastic Compliance Matrix: (Units=1/GPa)
#
#
# Indices 1 2 3 4 5 6 
#
# 1 0.013053 -0.001381 -0.003283 0.002841 -0.001234 -0.000303
# 2 -0.001381 0.011997 -0.005887 -0.005726 -0.000610 -0.004556
# 3 -0.003283 -0.005887 0.015404 0.009578 0.001148 -0.000508
# 4 0.002841 -0.005726 0.009578 0.040442 -0.004920 -0.006022
# 5 -0.001234 -0.000610 0.001148 -0.004920 0.027733 -0.000911
# 6 -0.000303 -0.004556 -0.000508 -0.006022 -0.000911 0.030515
#
#
# Mechanical properties :
#
#
# Convention : Reuss Voigt Hill
#
# Bulk Modulus (GPa) = 51.67878 58.35186 55.01532
# Shear Modulus (GPa) = 29.99418 35.66862 32.83140
#
# Velocity S-wave (km/s) = 3.73976 4.07820 3.91264
# Velocity P-wave (km/s) = 6.53795 7.02739 6.78708
#
# Compressibility (1/GPa) = 0.01935030
#
# Stress axis : x y z
#
# Youngs Moduli (GPa) = 76.60832 83.35222 64.91970
#
# Poissons Ratio (x) = 0.11514 0.21316
# Poissons Ratio (y) = 0.10583 0.38219
# Poissons Ratio (z) = 0.25154 0.49071
#
# Static dielectric constant tensor:
#      x y z
#    x 4.126120 -0.027590 0.036530 
#    y -0.027590 4.293500 -0.154810 
#    z 0.036530 -0.154810 3.683740 
# 
# 
# High freq. dielectric constant tensor:
#      x y z
#    x 1.856750 0.006790 -0.001130 
#    y 0.006790 1.855180 -0.011460 
#    z -0.001130 -0.011460 1.818690 
# 
# From -- ./inp_files/244446.got.cif
#   From: 2010.06.25/outbox.cif.g09.slc.cpg/sg2_123_cif.got.tgz:244446.got - 2010.06.27 13:26:56.
