data_PCOD8007960
_publ_section_title
;
Structure prediction by ZEFSAII (Michael W. Deem and Ramdas Pophale) SiO2 
 PCOD8007960
Probable space group: P -1
;
_chemical_formula_sum "Si O2"
_cell_formula_units_Z 14
_cell_length_a 16.820882
_cell_length_b 17.123697
_cell_length_c 9.719464
_cell_angle_alpha 52.759944
_cell_angle_beta 111.755358
_cell_angle_gamma 156.906346
_cell_volume 702.150017
_symmetry_space_group_name_H-M "P -1"
_symmetry_group_IT_number 2
_symmetry_cell_setting 'triclinic'
loop_
_space_group_symop_operation_xyz
x,y,z
-x,-y,-z
loop_
_atom_site_type_symbol
_atom_site_label
_atom_site_fract_x
_atom_site_fract_y
_atom_site_fract_z
Si Si1 0.450113 0.850623 0.216814
Si Si2 0.914847 0.206937 0.457687
Si Si3 0.843305 0.962822 0.865655
Si Si4 0.779604 0.021030 0.280168
Si Si5 0.473006 0.878682 0.516788
Si Si6 0.652654 0.561077 0.227460
Si Si7 0.068430 0.287320 0.918635
O O1 0.642271 0.968309 0.182279
O O2 0.485374 0.922596 0.319004
O O3 0.170254 0.508623 0.378286
O O4 0.500000 0.000000 0.000000
O O5 0.805088 0.985022 0.680068
O O6 0.963281 0.252514 0.275890
O O7 0.705571 0.061323 0.511905
O O8 0.620532 0.641188 0.079600
O O9 0.109158 0.190633 0.779576
O O10 0.855530 0.047794 0.917466
O O11 0.585869 0.735915 0.527036
O O12 0.938000 0.134367 0.146081
O O13 0.202578 0.537379 0.734418
O O14 0.500000 0.000000 0.500000
O O15 0.714311 0.560772 0.131740
#
# Coordination Sequence:
#
# PCOD8007960 Si02
#       7
#     2   2   2   2   2   2   2
#     4  11  24  41  60  89 123 165 210 251 310 366
#     4  11  21  43  64  86 130 166 200 259 311 360
#     4   9  18  39  70  84 123 172 198 252 314 362
#     4  11  23  39  63  92 128 157 206 263 298 369
#     4  11  25  41  62  90 126 161 210 257 304 365
#     4   9  18  42  63  89 127 161 207 251 308 363
#     4  10  20  42  60  90 127 160 202 258 303 360
#
# _framework density 19.938759000000001
#
# number of rings (size 3 to 8) (size 9 to 14) (size 15 to 20)
#    0.857    0.857    5.714    0.000    4.000    4.000 
#    0.000    0.714    0.000    0.000    0.000    0.000 
#    0.000    0.000    0.000    0.000    0.000    0.000 
#
# Total GULP energy -173514.990573 kJ/mol
# GULP energy per Si atom -12393.927898 kJ/mol
# Density = 1.989338 g / cm^3
# Si number density = 19.938759 Si / 1000 Ang^3
#
#
#
# Elastic Constant Matrix: (Units=GPa)
#
#
# Indices 1 2 3 4 5 6 
#
# 1 98.1408 34.0706 81.3106 1.6785 3.6099 -15.9532
# 2 34.0706 59.0948 31.8450 10.3386 8.7202 -3.0704
# 3 81.3106 31.8450 146.8737 2.2309 8.0644 -4.7028
# 4 1.6785 10.3386 2.2309 28.6589 -0.8777 8.4691
# 5 3.6099 8.7202 8.0644 -0.8777 45.2765 -0.5751
# 6 -15.9532 -3.0704 -4.7028 8.4691 -0.5751 25.1130
#
#
#
# Elastic Compliance Matrix: (Units=1/GPa)
#
#
# Indices 1 2 3 4 5 6 
#
# 1 0.024320 -0.007023 -0.011584 -0.001801 0.001608 0.013066
# 2 -0.007023 0.023537 -0.000837 -0.008436 -0.003975 0.001014
# 3 -0.011584 -0.000837 0.013275 0.001539 -0.001320 -0.005524
# 4 -0.001801 -0.008436 0.001539 0.042795 0.002117 -0.016271
# 5 0.001608 -0.003975 -0.001320 0.002117 0.023001 0.000101
# 6 0.013066 0.001014 -0.005524 -0.016271 0.000101 0.052699
#
#
# Mechanical properties :
#
#
# Convention : Reuss Voigt Hill
#
# Bulk Modulus (GPa) = 44.95199 66.50687 55.72943
# Shear Modulus (GPa) = 22.13078 30.26857 26.19967
#
# Velocity S-wave (km/s) = 3.33519 3.90048 3.62886
# Velocity P-wave (km/s) = 6.11762 7.32891 6.75049
#
# Compressibility (1/GPa) = 0.02224596
#
# Stress axis : x y z
#
# Youngs Moduli (GPa) = 41.11765 42.48701 75.32877
#
# Poissons Ratio (x) = 0.29837 0.87260
# Poissons Ratio (y) = 0.28875 0.06302
# Poissons Ratio (z) = 0.47630 0.03554
#
# Static dielectric constant tensor:
#      x y z
#    x 3.477790 -0.134410 0.151410 
#    y -0.134410 3.654350 -0.012790 
#    z 0.151410 -0.012790 3.594320 
# 
# 
# High freq. dielectric constant tensor:
#      x y z
#    x 1.757300 -0.012230 0.015740 
#    y -0.012230 1.781280 -0.001080 
#    z 0.015740 -0.001080 1.778250 
# 
# From -- ./inp_files/336463.got.cif
#   From: 2010.06.25/outbox.cif.g09.slc.cpg/sg2_169_cif.got.tgz:336463.got - 2010.06.27 13:26:56.
