data_PCOD8007947
_publ_section_title
;
Structure prediction by ZEFSAII (Michael W. Deem and Ramdas Pophale) SiO2 
 PCOD8007947
Probable space group: P -1
;
_chemical_formula_sum "Si O2"
_cell_formula_units_Z 12
_cell_length_a 13.137485
_cell_length_b 11.955777
_cell_length_c 7.784221
_cell_angle_alpha 41.004508
_cell_angle_beta 117.031328
_cell_angle_gamma 138.613937
_cell_volume 512.471566
_symmetry_space_group_name_H-M "P -1"
_symmetry_group_IT_number 2
_symmetry_cell_setting 'triclinic'
loop_
_space_group_symop_operation_xyz
x,y,z
-x,-y,-z
loop_
_atom_site_type_symbol
_atom_site_label
_atom_site_fract_x
_atom_site_fract_y
_atom_site_fract_z
Si Si1 0.626155 0.218689 0.718360
Si Si2 0.409649 0.266928 0.594926
Si Si3 0.363191 0.072954 0.135680
Si Si4 0.708731 0.570709 0.886882
Si Si5 0.909270 0.571946 0.777633
Si Si6 0.114343 0.034964 0.184890
O O1 0.541687 0.314999 0.516304
O O2 0.797671 0.408975 0.719897
O O3 0.636997 0.135851 0.634225
O O4 0.500000 0.000000 0.000000
O O5 0.500000 0.500000 0.500000
O O6 0.327552 0.066476 0.911130
O O7 0.279514 0.229497 0.425325
O O8 0.526914 0.318263 0.051640
O O9 0.221847 0.999770 0.223913
O O10 0.806037 0.529941 0.907111
O O11 0.785593 0.695352 0.985424
O O12 0.023282 0.843777 0.490004
O O13 0.000000 0.500000 0.000000
O O14 0.000000 0.000000 0.000000
#
# Coordination Sequence:
#
# PCOD8007947 Si02
#       6
#     2   2   2   2   2   2
#     4  10  20  41  74  99 133 180 237 279 340 417
#     4   9  17  37  75  97 125 175 249 270 320 409
#     4  10  22  43  69 103 134 180 230 292 341 406
#     4  11  23  46  72  99 133 195 240 272 334 439
#     4  12  27  46  71 104 141 184 231 287 352 418
#     4  12  29  45  67 105 149 181 224 297 358 396
#
# _framework density 23.415932000000002
#
# number of rings (size 3 to 8) (size 9 to 14) (size 15 to 20)
#    0.000    1.333    5.000    2.000    9.333    0.667 
#    0.000    1.667    0.000    0.000    0.000    0.000 
#    0.000    0.000    0.000    0.000    0.000    0.000 
#
# Total GULP energy -148681.046765 kJ/mol
# GULP energy per Si atom -12390.087230 kJ/mol
# Density = 2.336264 g / cm^3
# Si number density = 23.415932 Si / 1000 Ang^3
#
#
#
# Elastic Constant Matrix: (Units=GPa)
#
#
# Indices 1 2 3 4 5 6 
#
# 1 158.1852 47.1211 16.8265 -9.7728 20.5603 -0.8116
# 2 47.1211 138.2572 16.3845 -8.4850 14.2681 -9.4400
# 3 16.8265 16.3845 36.1660 3.1001 15.8907 8.5507
# 4 -9.7728 -8.4850 3.1001 34.1793 2.7992 10.2244
# 5 20.5603 14.2681 15.8907 2.7992 38.4557 -2.2141
# 6 -0.8116 -9.4400 8.5507 10.2244 -2.2141 44.0424
#
#
#
# Elastic Compliance Matrix: (Units=1/GPa)
#
#
# Indices 1 2 3 4 5 6 
#
# 1 0.007588 -0.002034 -0.001337 0.002239 -0.002954 -0.000705
# 2 -0.002034 0.008608 -0.003234 0.001281 -0.000742 0.002101
# 3 -0.001337 -0.003234 0.038125 -0.000893 -0.014271 -0.008630
# 4 0.002239 0.001281 -0.000893 0.032829 -0.004116 -0.007339
# 5 -0.002954 -0.000742 -0.014271 -0.004116 0.034357 0.005240
# 6 -0.000705 0.002101 -0.008630 -0.007339 0.005240 0.026785
#
#
# Mechanical properties :
#
#
# Convention : Reuss Voigt Hill
#
# Bulk Modulus (GPa) = 24.32343 54.80807 39.56575
# Shear Modulus (GPa) = 28.53806 40.15391 34.34599
#
# Velocity S-wave (km/s) = 3.49484 4.14552 3.83401
# Velocity P-wave (km/s) = 5.16675 6.80962 6.04426
#
# Compressibility (1/GPa) = 0.04111263
#
# Stress axis : x y z
#
# Youngs Moduli (GPa) = 131.78133 116.17170 26.22982
#
# Poissons Ratio (x) = 0.23627 0.03506
# Poissons Ratio (y) = 0.26801 0.08482
# Poissons Ratio (z) = 0.17614 0.37567
#
# Static dielectric constant tensor:
#      x y z
#    x 4.424510 -0.368300 -1.150850 
#    y -0.368300 4.163420 -1.050810 
#    z -1.150850 -1.050810 -4.415300 
# 
# 
# High freq. dielectric constant tensor:
#      x y z
#    x 1.944380 -0.006190 0.024080 
#    y -0.006190 1.930070 -0.007960 
#    z 0.024080 -0.007960 1.909320 
# 
# From -- ./inp_files/261359.got.cif
#   From: 2010.06.25/outbox.cif.g09.slc.cpg/sg2_131_cif.got.tgz:261359.got - 2010.06.27 13:26:56.
