data_PCOD8007392
_publ_section_title
;
Structure prediction by ZEFSAII (Michael W. Deem and Ramdas Pophale) SiO2 
 PCOD8007392
Probable space group: P -1
;
_chemical_formula_sum "Si O2"
_cell_formula_units_Z 14
_cell_length_a 7.952908
_cell_length_b 9.422163
_cell_length_c 14.165541
_cell_angle_alpha 107.563990
_cell_angle_beta 40.850775
_cell_angle_gamma 105.402596
_cell_volume 660.745978
_symmetry_space_group_name_H-M "P -1"
_symmetry_group_IT_number 2
_symmetry_cell_setting 'triclinic'
loop_
_space_group_symop_operation_xyz
x,y,z
-x,-y,-z
loop_
_atom_site_type_symbol
_atom_site_label
_atom_site_fract_x
_atom_site_fract_y
_atom_site_fract_z
Si Si1 0.954858 0.673262 0.551583
Si Si2 0.350936 0.935783 0.459139
Si Si3 0.461838 0.099446 0.826403
Si Si4 0.050402 0.647633 0.125437
Si Si5 0.445031 0.786143 0.858468
Si Si6 0.977067 0.796794 0.369889
Si Si7 0.057696 0.325155 0.026515
O O1 0.214490 0.769316 0.494632
O O2 0.863612 0.710784 0.491988
O O3 0.000000 0.500000 0.500000
O O4 0.717169 0.711028 0.726944
O O5 0.548145 0.948700 0.289667
O O6 0.500000 0.000000 0.500000
O O7 0.113140 0.036442 0.557608
O O8 0.715790 0.205707 0.755050
O O9 0.472020 0.963066 0.867100
O O10 0.216036 0.192449 0.974987
O O11 0.892443 0.713350 0.292241
O O12 0.119235 0.478585 0.087945
O O13 0.313348 0.748719 0.009300
O O14 0.863525 0.645926 0.112120
O O15 0.248588 0.720141 0.846989
#
# Coordination Sequence:
#
# PCOD8007392 Si02
#       7
#     2   2   2   2   2   2   2
#     4  11  24  44  66  94 127 169 210 269 314 370
#     4  11  23  42  66  91 130 168 213 256 325 374
#     4  11  20  39  64  90 124 170 205 257 309 378
#     4   9  22  39  61  90 126 167 205 258 309 374
#     4  10  20  41  62  88 126 158 215 249 311 370
#     4  11  22  42  63  91 127 164 211 259 319 374
#     4   9  21  39  62  87 132 165 203 251 326 360
#
# _framework density 21.188172999999999
#
# number of rings (size 3 to 8) (size 9 to 14) (size 15 to 20)
#    0.857    0.857    2.857    2.143    4.000    2.286 
#    2.571    1.429    0.000    0.000    0.000    0.000 
#    0.000    0.000    0.000    0.000    0.000    0.000 
#
# Total GULP energy -173524.901875 kJ/mol
# GULP energy per Si atom -12394.635848 kJ/mol
# Density = 2.113995 g / cm^3
# Si number density = 21.188173 Si / 1000 Ang^3
#
#
#
# Elastic Constant Matrix: (Units=GPa)
#
#
# Indices 1 2 3 4 5 6 
#
# 1 47.7912 22.2772 1.0390 4.3182 -5.5596 1.1084
# 2 22.2772 123.9206 29.2268 26.5577 -5.0408 -2.5474
# 3 1.0390 29.2268 52.1176 6.1627 -6.0202 -1.4053
# 4 4.3182 26.5577 6.1627 31.3379 -2.7522 -6.6460
# 5 -5.5596 -5.0408 -6.0202 -2.7522 36.1828 4.8189
# 6 1.1084 -2.5474 -1.4053 -6.6460 4.8189 23.4935
#
#
#
# Elastic Compliance Matrix: (Units=1/GPa)
#
#
# Indices 1 2 3 4 5 6 
#
# 1 0.023555 -0.004763 0.002550 0.000148 0.003683 -0.002189
# 2 -0.004763 0.012119 -0.005754 -0.008779 -0.000511 -0.001184
# 3 0.002550 -0.005754 0.022713 0.000361 0.003394 0.000020
# 4 0.000148 -0.008779 0.000361 0.041581 0.000597 0.010703
# 5 0.003683 -0.000511 0.003394 0.000597 0.029530 -0.005914
# 6 -0.002189 -0.001184 0.000020 0.010703 -0.005914 0.046782
#
#
# Mechanical properties :
#
#
# Convention : Reuss Voigt Hill
#
# Bulk Modulus (GPa) = 23.55508 36.54613 30.05061
# Shear Modulus (GPa) = 24.22887 29.62194 26.92540
#
# Velocity S-wave (km/s) = 3.38525 3.74310 3.56866
# Velocity P-wave (km/s) = 5.14015 5.99723 5.58516
#
# Compressibility (1/GPa) = 0.04245368
#
# Stress axis : x y z
#
# Youngs Moduli (GPa) = 42.45405 82.51274 44.02694
#
# Poissons Ratio (x) = 0.39300 -0.11228
# Poissons Ratio (y) = 0.20221 0.25334
# Poissons Ratio (z) = -0.10827 0.47480
#
# Static dielectric constant tensor:
#      x y z
#    x 3.517330 -0.058910 0.060160 
#    y -0.058910 3.749090 0.015480 
#    z 0.060160 0.015480 3.793140 
# 
# 
# High freq. dielectric constant tensor:
#      x y z
#    x 1.806170 -0.001140 -0.004100 
#    y -0.001140 1.832710 0.008870 
#    z -0.004100 0.008870 1.821510 
# 
# From -- ./inp_files/495358.got.cif
#   From: 2010.06.25/outbox.cif.g09.slc.cpg/sg2_248_cif.got.tgz:495358.got - 2010.06.27 13:26:56.
