data_PCOD8007847
_publ_section_title
;
Structure prediction by ZEFSAII (Michael W. Deem and Ramdas Pophale) SiO2 
 PCOD8007847
Probable space group: P -1
;
_chemical_formula_sum "Si O2"
_cell_formula_units_Z 14
_cell_length_a 8.732440
_cell_length_b 9.329537
_cell_length_c 8.154321
_cell_angle_alpha 115.048294
_cell_angle_beta 73.221201
_cell_angle_gamma 100.960577
_cell_volume 574.458222
_symmetry_space_group_name_H-M "P -1"
_symmetry_group_IT_number 2
_symmetry_cell_setting 'triclinic'
loop_
_space_group_symop_operation_xyz
x,y,z
-x,-y,-z
loop_
_atom_site_type_symbol
_atom_site_label
_atom_site_fract_x
_atom_site_fract_y
_atom_site_fract_z
Si Si1 0.626071 0.396094 0.730793
Si Si2 0.690204 0.806358 0.649672
Si Si3 0.097965 0.449412 0.100930
Si Si4 0.513092 0.094587 0.777758
Si Si5 0.187323 0.503175 0.605373
Si Si6 0.584974 0.342315 0.147232
Si Si7 0.167358 0.108006 0.003777
O O1 0.743752 0.427731 0.868821
O O2 0.543686 0.216368 0.674959
O O3 0.727701 0.426299 0.548954
O O4 0.487449 0.513585 0.856417
O O5 0.795121 0.685507 0.458887
O O6 0.531035 0.695373 0.681552
O O7 0.791046 0.860630 0.804999
O O8 0.629435 0.954245 0.638443
O O9 0.146485 0.269830 0.989966
O O10 0.000740 0.468274 0.312597
O O11 0.000000 0.500000 0.000000
O O12 0.580831 0.182346 0.964236
O O13 0.323264 0.035742 0.833517
O O14 0.245671 0.600770 0.798738
O O15 0.000000 0.000000 0.000000
#
# Coordination Sequence:
#
# PCOD8007847 Si02
#       7
#     2   2   2   2   2   2   2
#     4  11  22  42  67 103 134 178 225 291 332 392
#     4  10  22  43  66 100 136 183 219 281 345 397
#     4  12  26  43  71 101 136 182 233 278 331 409
#     4  11  23  42  73 102 137 172 234 281 333 405
#     4  11  24  44  71 100 139 178 229 277 349 402
#     4  10  20  41  69  96 132 179 234 272 328 409
#     4  11  25  43  67 103 139 183 225 278 343 401
#
# _framework density 24.370787
#
# number of rings (size 3 to 8) (size 9 to 14) (size 15 to 20)
#    0.000    1.143    4.286    5.143    8.000    0.000 
#    0.000    5.000    0.000    0.000    0.000    0.000 
#    0.000    0.000    0.000    0.000    0.000    0.000 
#
# Total GULP energy -173475.848468 kJ/mol
# GULP energy per Si atom -12391.132033 kJ/mol
# Density = 2.431532 g / cm^3
# Si number density = 24.370787 Si / 1000 Ang^3
#
#
#
# Elastic Constant Matrix: (Units=GPa)
#
#
# Indices 1 2 3 4 5 6 
#
# 1 113.3099 44.1885 20.2949 0.0055 0.6128 15.6410
# 2 44.1885 130.4849 1.8832 3.6174 -6.8966 -3.0473
# 3 20.2949 1.8832 58.9548 2.3112 -7.8838 2.4188
# 4 0.0055 3.6174 2.3112 23.8073 -0.2339 -6.7290
# 5 0.6128 -6.8966 -7.8838 -0.2339 29.9447 0.3753
# 6 15.6410 -3.0473 2.4188 -6.7290 0.3753 44.9109
#
#
#
# Elastic Compliance Matrix: (Units=1/GPa)
#
#
# Indices 1 2 3 4 5 6 
#
# 1 0.011742 -0.004127 -0.004027 -0.000183 -0.002200 -0.004162
# 2 -0.004127 0.009246 0.001433 -0.001005 0.002560 0.001816
# 3 -0.004027 0.001433 0.019100 -0.001981 0.005424 0.000129
# 4 -0.000183 -0.001005 -0.001981 0.044248 -0.000488 0.006736
# 5 -0.002200 0.002560 0.005424 -0.000488 0.035450 0.000278
# 6 -0.004162 0.001816 0.000129 0.006736 0.000278 0.024839
#
#
# Mechanical properties :
#
#
# Convention : Reuss Voigt Hill
#
# Bulk Modulus (GPa) = 37.52789 48.38700 42.95744
# Shear Modulus (GPa) = 29.94905 35.49144 32.72025
#
# Velocity S-wave (km/s) = 3.50936 3.82030 3.66813
# Velocity P-wave (km/s) = 5.64384 6.27353 5.96700
#
# Compressibility (1/GPa) = 0.02664685
#
# Stress axis : x y z
#
# Youngs Moduli (GPa) = 85.16207 108.15293 52.35526
#
# Poissons Ratio (x) = 0.44633 0.21082
# Poissons Ratio (y) = 0.35145 -0.07500
# Poissons Ratio (z) = 0.34292 -0.15494
#
# Static dielectric constant tensor:
#      x y z
#    x 4.771680 0.008180 -0.363560 
#    y 0.008180 4.402640 0.075920 
#    z -0.363560 0.075920 4.433690 
# 
# 
# High freq. dielectric constant tensor:
#      x y z
#    x 1.982640 -0.000650 -0.005210 
#    y -0.000650 1.964560 -0.005720 
#    z -0.005210 -0.005720 1.959840 
# 
# From -- ./inp_files/159569.got.cif
#   From: 2010.06.25/outbox.cif.g09.slc.cpg/sg2_80_cif.got.tgz:159569.got - 2010.06.27 13:26:56.
