data_PCOD8007503
_publ_section_title
;
Structure prediction by ZEFSAII (Michael W. Deem and Ramdas Pophale) SiO2 
 PCOD8007503
Probable space group: P -1
;
_chemical_formula_sum "Si O2"
_cell_formula_units_Z 14
_cell_length_a 19.315763
_cell_length_b 7.490232
_cell_length_c 7.056525
_cell_angle_alpha 77.986461
_cell_angle_beta 69.899340
_cell_angle_gamma 129.009668
_cell_volume 605.979127
_symmetry_space_group_name_H-M "P -1"
_symmetry_group_IT_number 2
_symmetry_cell_setting 'triclinic'
loop_
_space_group_symop_operation_xyz
x,y,z
-x,-y,-z
loop_
_atom_site_type_symbol
_atom_site_label
_atom_site_fract_x
_atom_site_fract_y
_atom_site_fract_z
Si Si1 0.819715 0.008343 0.330927
Si Si2 0.172920 0.636574 0.985069
Si Si3 0.428786 0.476209 0.221726
Si Si4 0.570554 0.281622 0.161167
Si Si5 0.190297 0.253696 0.959529
Si Si6 0.972803 0.158717 0.494456
Si Si7 0.435665 0.138723 0.652819
O O1 0.873568 0.293449 0.126164
O O2 0.898659 0.080488 0.403527
O O3 0.697628 0.840356 0.563589
O O4 0.800842 0.805986 0.246743
O O5 0.159425 0.411802 0.948168
O O6 0.302487 0.929295 0.853936
O O7 0.094863 0.493558 0.282921
O O8 0.489818 0.588582 0.344340
O O9 0.500000 0.500000 0.000000
O O10 0.421267 0.659217 0.083100
O O11 0.691300 0.547139 0.087928
O O12 0.475101 0.225700 0.375511
O O13 0.532797 0.002511 0.273109
O O14 0.095944 0.945803 0.221621
O O15 0.000000 0.000000 0.500000
#
# Coordination Sequence:
#
# PCOD8007503 Si02
#       7
#     2   2   2   2   2   2   2
#     4  12  24  43  71  96 135 178 219 279 337 390
#     4  10  24  42  66 101 134 173 224 276 327 402
#     4  12  25  38  64 101 135 173 221 272 334 407
#     4  10  20  41  64  92 129 172 222 267 328 396
#     4  10  22  44  70  94 132 178 221 273 334 392
#     4  10  23  46  69  98 133 173 229 276 327 400
#     4  10  22  41  64  94 132 172 215 274 332 391
#
# _framework density 23.103106
#
# number of rings (size 3 to 8) (size 9 to 14) (size 15 to 20)
#    0.000    1.429    2.857    1.714    2.000    4.000 
#    2.571    5.714    0.000    0.000    0.000    0.000 
#    0.000    0.000    0.000    0.000    0.000    0.000 
#
# Total GULP energy -173532.786902 kJ/mol
# GULP energy per Si atom -12395.199064 kJ/mol
# Density = 2.305052 g / cm^3
# Si number density = 23.103106 Si / 1000 Ang^3
#
#
#
# Elastic Constant Matrix: (Units=GPa)
#
#
# Indices 1 2 3 4 5 6 
#
# 1 85.4820 29.1344 20.6647 -6.0615 7.3223 10.1655
# 2 29.1344 39.2468 11.2138 -3.6429 -1.9130 11.0573
# 3 20.6647 11.2138 109.4063 -21.3678 2.7081 12.5712
# 4 -6.0615 -3.6429 -21.3678 41.4530 8.6018 -0.4352
# 5 7.3223 -1.9130 2.7081 8.6018 45.5177 -6.6329
# 6 10.1655 11.0573 12.5712 -0.4352 -6.6329 33.0502
#
#
#
# Elastic Compliance Matrix: (Units=1/GPa)
#
#
# Indices 1 2 3 4 5 6 
#
# 1 0.016533 -0.011521 -0.001426 0.001387 -0.003522 -0.001377
# 2 -0.011521 0.036635 -0.000564 0.000721 0.002115 -0.008065
# 3 -0.001426 -0.000564 0.011123 0.005879 -0.002144 -0.003957
# 4 0.001387 0.000721 0.005879 0.028735 -0.006532 -0.003836
# 5 -0.003522 0.002115 -0.002144 -0.006532 0.024875 0.006097
# 6 -0.001377 -0.008065 -0.003957 -0.003836 0.006097 0.036057
#
#
# Mechanical properties :
#
#
# Convention : Reuss Voigt Hill
#
# Bulk Modulus (GPa) = 26.83068 39.57343 33.20206
# Shear Modulus (GPa) = 25.85258 35.54568 30.69913
#
# Velocity S-wave (km/s) = 3.34879 3.92671 3.64921
# Velocity P-wave (km/s) = 5.15666 6.14207 5.67081
#
# Compressibility (1/GPa) = 0.03727077
#
# Stress axis : x y z
#
# Youngs Moduli (GPa) = 60.48349 27.29598 89.90209
#
# Poissons Ratio (x) = 0.31448 0.12818
# Poissons Ratio (y) = 0.69683 0.05069
# Poissons Ratio (z) = 0.08624 0.01539
#
# Static dielectric constant tensor:
#      x y z
#    x 4.637840 -0.061410 0.278710 
#    y -0.061410 3.827180 -0.277110 
#    z 0.278710 -0.277110 5.213680 
# 
# 
# High freq. dielectric constant tensor:
#      x y z
#    x 1.936990 -0.004320 0.006660 
#    y -0.004320 1.879420 -0.024120 
#    z 0.006660 -0.024120 1.935850 
# 
# From -- ./inp_files/116924.got.cif
#   From: 2010.06.25/outbox.cif.g09.slc.cpg/sg2_59_cif.got.tgz:116924.got - 2010.06.27 13:26:56.
