data_PCOD8007093
_publ_section_title
;
Structure prediction by ZEFSAII (Michael W. Deem and Ramdas Pophale) SiO2 
 PCOD8007093
Probable space group: P -1
;
_chemical_formula_sum "Si O2"
_cell_formula_units_Z 16
_cell_length_a 24.780561
_cell_length_b 7.668852
_cell_length_c 8.885216
_cell_angle_alpha 34.886609
_cell_angle_beta 56.253500
_cell_angle_gamma 71.248710
_cell_volume 770.389496
_symmetry_space_group_name_H-M "P -1"
_symmetry_group_IT_number 2
_symmetry_cell_setting 'triclinic'
loop_
_space_group_symop_operation_xyz
x,y,z
-x,-y,-z
loop_
_atom_site_type_symbol
_atom_site_label
_atom_site_fract_x
_atom_site_fract_y
_atom_site_fract_z
Si Si1 0.855659 0.677482 0.628760
Si Si2 0.047490 0.323680 0.763315
Si Si3 0.657980 0.632851 0.643157
Si Si4 0.577284 0.023498 0.339196
Si Si5 0.340914 0.730554 0.414143
Si Si6 0.003466 0.071387 0.616516
Si Si7 0.577758 0.670146 0.285569
Si Si8 0.767804 0.083019 0.357128
O O1 0.878017 0.607801 0.474018
O O2 0.920421 0.878071 0.479622
O O3 0.801856 0.877248 0.557403
O O4 0.824436 0.350826 0.994885
O O5 0.019313 0.611353 0.550888
O O6 0.000000 0.000000 0.000000
O O7 0.046487 0.242230 0.000959
O O8 0.674097 0.470402 0.577342
O O9 0.604523 0.834844 0.558294
O O10 0.725174 0.863159 0.447029
O O11 0.624017 0.384427 0.002409
O O12 0.500000 0.000000 0.500000
O O13 0.585546 0.878980 0.271113
O O14 0.380147 0.581687 0.581565
O O15 0.272213 0.748337 0.586447
O O16 0.389158 0.089094 0.068709
O O17 0.000000 0.000000 0.500000
O O18 0.500000 0.500000 0.500000
#
# Coordination Sequence:
#
# PCOD8007093 Si02
#       8
#     2   2   2   2   2   2   2   2
#     4  11  23  42  63  97 121 166 218 237 306 387
#     4  10  20  40  67  89 131 164 199 263 302 359
#     4  10  23  41  57  85 120 160 203 253 318 363
#     4  10  21  36  60  87 115 147 204 264 309 381
#     4  10  23  41  57  84 124 156 203 260 305 366
#     4  11  22  41  68 100 134 161 204 266 320 357
#     4  10  21  36  60  87 114 152 200 259 322 371
#     4  12  24  41  66  85 129 173 205 252 305 385
#
# _framework density 20.768715
#
# number of rings (size 3 to 8) (size 9 to 14) (size 15 to 20)
#    0.000    1.500    0.000    6.375    3.500    0.000 
#    6.750    0.000    0.000    0.000    0.000    0.000 
#    0.000    0.000    0.000    0.000    0.000    0.000 
#
# Total GULP energy -198349.575039 kJ/mol
# GULP energy per Si atom -12396.848440 kJ/mol
# Density = 2.072144 g / cm^3
# Si number density = 20.768715 Si / 1000 Ang^3
#
#
#
# Elastic Constant Matrix: (Units=GPa)
#
#
# Indices 1 2 3 4 5 6 
#
# 1 96.7108 49.8384 22.7215 -1.4833 6.6581 -10.8747
# 2 49.8384 81.7187 24.8258 3.3903 3.9055 -14.8810
# 3 22.7215 24.8258 107.0189 0.5600 0.2174 0.8217
# 4 -1.4833 3.3903 0.5600 28.6635 -8.2259 2.3673
# 5 6.6581 3.9055 0.2174 -8.2259 34.9200 -3.1144
# 6 -10.8747 -14.8810 0.8217 2.3673 -3.1144 31.9005
#
#
#
# Elastic Compliance Matrix: (Units=1/GPa)
#
#
# Indices 1 2 3 4 5 6 
#
# 1 0.015417 -0.008844 -0.001232 0.001350 -0.001543 0.000911
# 2 -0.008844 0.019831 -0.002753 -0.003504 -0.000761 0.006493
# 3 -0.001232 -0.002753 0.010257 0.000333 0.000383 -0.001956
# 4 0.001350 -0.003504 0.000333 0.038163 0.008841 -0.003152
# 5 -0.001543 -0.000761 0.000383 0.008841 0.031231 0.001502
# 6 0.000911 0.006493 -0.001956 -0.003152 0.001502 0.035117
#
#
# Mechanical properties :
#
#
# Convention : Reuss Voigt Hill
#
# Bulk Modulus (GPa) = 50.38738 53.35774 51.87256
# Shear Modulus (GPa) = 27.42879 31.63431 29.53155
#
# Velocity S-wave (km/s) = 3.63806 3.90702 3.77493
# Velocity P-wave (km/s) = 6.47774 6.78971 6.63556
#
# Compressibility (1/GPa) = 0.01984624
#
# Stress axis : x y z
#
# Youngs Moduli (GPa) = 64.86414 50.42521 97.49597
#
# Poissons Ratio (x) = 0.44598 0.12016
# Poissons Ratio (y) = 0.57368 0.26837
# Poissons Ratio (z) = 0.07994 0.13880
#
# Static dielectric constant tensor:
#      x y z
#    x 17.970740 -10.403790 27.647030 
#    y -10.403790 11.602460 -19.885070 
#    z 27.647030 -19.885070 56.605930 
# 
# 
# High freq. dielectric constant tensor:
#      x y z
#    x 1.802070 -0.010420 0.013260 
#    y -0.010420 1.816380 -0.001900 
#    z 0.013260 -0.001900 1.837040 
# 
# From -- ./inp_files/120749.got.cif
#   From: 2010.06.25/outbox.cif.g09.slc.cpg/sg2_61_cif.got.tgz:120749.got - 2010.06.27 13:26:56.
