data_PCOD8007817
_publ_section_title
;
Structure prediction by ZEFSAII (Michael W. Deem and Ramdas Pophale) SiO2 
 PCOD8007817
Probable space group: P -1
;
_chemical_formula_sum "Si O2"
_cell_formula_units_Z 12
_cell_length_a 8.653168
_cell_length_b 8.321468
_cell_length_c 9.108096
_cell_angle_alpha 63.455926
_cell_angle_beta 67.220044
_cell_angle_gamma 56.351530
_cell_volume 479.757411
_symmetry_space_group_name_H-M "P -1"
_symmetry_group_IT_number 2
_symmetry_cell_setting 'triclinic'
loop_
_space_group_symop_operation_xyz
x,y,z
-x,-y,-z
loop_
_atom_site_type_symbol
_atom_site_label
_atom_site_fract_x
_atom_site_fract_y
_atom_site_fract_z
Si Si1 0.878552 0.556981 0.876197
Si Si2 0.418798 0.271702 0.579221
Si Si3 0.745864 0.024936 0.349723
Si Si4 0.813812 0.201974 0.979949
Si Si5 0.943955 0.356262 0.489829
Si Si6 0.511038 0.785405 0.087732
O O1 0.954870 0.677122 0.694269
O O2 0.889748 0.364982 0.862758
O O3 0.660353 0.670214 0.952705
O O4 0.000000 0.500000 0.000000
O O5 0.329067 0.123198 0.632455
O O6 0.286160 0.509742 0.484601
O O7 0.432003 0.299277 0.736035
O O8 0.625471 0.164336 0.473269
O O9 0.965129 0.872999 0.381435
O O10 0.719042 0.200991 0.172113
O O11 0.682809 0.216276 0.884954
O O12 0.000000 0.000000 0.000000
O O13 0.000000 0.500000 0.500000
O O14 0.500000 0.000000 0.000000
#
# Coordination Sequence:
#
# PCOD8007817 Si02
#       6
#     2   2   2   2   2   2
#     4  12  25  46  71 103 140 184 239 290 350 418
#     4  10  20  41  69 101 137 188 226 285 354 422
#     4  10  22  42  70 101 141 181 234 285 355 415
#     4  12  26  46  69 106 141 182 238 294 348 418
#     4  10  21  40  70  99 136 187 227 280 357 413
#     4  12  23  43  72 102 142 184 235 287 353 418
#
# _framework density 25.012642
#
# number of rings (size 3 to 8) (size 9 to 14) (size 15 to 20)
#    0.000    1.000    3.333    4.500    4.667    0.000 
#    3.000    5.833    0.000    0.000    0.000    0.000 
#    0.000    0.000    0.000    0.000    0.000    0.000 
#
# Total GULP energy -148664.772207 kJ/mol
# GULP energy per Si atom -12388.731017 kJ/mol
# Density = 2.495571 g / cm^3
# Si number density = 25.012642 Si / 1000 Ang^3
#
#
#
# Elastic Constant Matrix: (Units=GPa)
#
#
# Indices 1 2 3 4 5 6 
#
# 1 83.5689 39.4246 -8.3434 -3.8320 23.6109 -13.5289
# 2 39.4246 112.3135 12.3823 8.6917 8.0623 -33.3103
# 3 -8.3434 12.3823 81.5736 -1.3629 18.6613 -7.4475
# 4 -3.8320 8.6917 -1.3629 47.4366 -5.6836 -4.0183
# 5 23.6109 8.0623 18.6613 -5.6836 38.0192 -3.2096
# 6 -13.5289 -33.3103 -7.4475 -4.0183 -3.2096 47.7741
#
#
#
# Elastic Compliance Matrix: (Units=1/GPa)
#
#
# Indices 1 2 3 4 5 6 
#
# 1 0.019718 -0.006344 0.006246 0.001413 -0.013642 0.001337
# 2 -0.006344 0.013544 -0.002694 -0.002138 0.002680 0.007227
# 3 0.006246 -0.002694 0.015972 0.000285 -0.010964 0.001668
# 4 0.001413 -0.002138 0.000285 0.022016 0.002811 0.000994
# 5 -0.013642 0.002680 -0.010964 0.002811 0.039942 -0.000784
# 6 0.001337 0.007227 0.001668 0.000994 -0.000784 0.026641
#
#
# Mechanical properties :
#
#
# Convention : Reuss Voigt Hill
#
# Bulk Modulus (GPa) = 22.90891 40.48702 31.69797
# Shear Modulus (GPa) = 31.65257 42.24548 36.94903
#
# Velocity S-wave (km/s) = 3.56119 4.11416 3.84762
# Velocity P-wave (km/s) = 5.10767 6.22818 5.69555
#
# Compressibility (1/GPa) = 0.04365114
#
# Stress axis : x y z
#
# Youngs Moduli (GPa) = 50.71513 73.83344 62.61024
#
# Poissons Ratio (x) = 0.46838 -0.39107
# Poissons Ratio (y) = 0.32172 0.16866
# Poissons Ratio (z) = -0.31677 0.19889
#
# Static dielectric constant tensor:
#      x y z
#    x -0.162570 1.442950 6.286550 
#    y 1.442950 4.094130 -3.028320 
#    z 6.286550 -3.028320 1.885490 
# 
# 
# High freq. dielectric constant tensor:
#      x y z
#    x 1.984120 -0.018940 0.011160 
#    y -0.018940 2.003850 0.009300 
#    z 0.011160 0.009300 2.011700 
# 
# From -- ./inp_files/155140.got.cif
#   From: 2010.06.25/outbox.cif.g09.slc.cpg/sg2_78_cif.got.tgz:155140.got - 2010.06.27 13:26:56.
