data_PCOD8007049
_publ_section_title
;
Structure prediction by ZEFSAII (Michael W. Deem and Ramdas Pophale) SiO2 
 PCOD8007049
Probable space group: P -1
;
_chemical_formula_sum "Si O2"
_cell_formula_units_Z 16
_cell_length_a 16.221578
_cell_length_b 15.922995
_cell_length_c 12.151904
_cell_angle_alpha 123.758265
_cell_angle_beta 142.026264
_cell_angle_gamma 27.413579
_cell_volume 765.592885
_symmetry_space_group_name_H-M "P -1"
_symmetry_group_IT_number 2
_symmetry_cell_setting 'triclinic'
loop_
_space_group_symop_operation_xyz
x,y,z
-x,-y,-z
loop_
_atom_site_type_symbol
_atom_site_label
_atom_site_fract_x
_atom_site_fract_y
_atom_site_fract_z
Si Si1 0.304040 0.281066 0.705692
Si Si2 0.760536 0.077426 0.690738
Si Si3 0.320373 0.518598 0.455457
Si Si4 0.115920 0.474208 0.875300
Si Si5 0.162225 0.982430 0.014288
Si Si6 0.545816 0.909977 0.672634
Si Si7 0.242202 0.208183 0.949085
Si Si8 0.310508 0.549863 0.213445
O O1 0.257769 0.314215 0.811971
O O2 0.000000 0.500000 0.500000
O O3 0.402431 0.109565 0.633571
O O4 0.528384 0.217959 0.859770
O O5 0.489810 0.326818 0.568585
O O6 0.698221 0.012863 0.516100
O O7 0.030980 0.957282 0.837807
O O8 0.814477 0.014651 0.828793
O O9 0.371972 0.472514 0.345742
O O10 0.419869 0.565103 0.629342
O O11 0.995336 0.715080 0.279875
O O12 0.155660 0.380521 0.957567
O O13 0.780084 0.720355 0.690681
O O14 0.282900 0.468773 0.051794
O O15 0.968585 0.195726 0.907343
O O16 0.709793 0.825274 0.895337
O O17 0.500000 0.000000 0.000000
#
# Coordination Sequence:
#
# PCOD8007049 Si02
#       8
#     2   2   2   2   2   2   2   2
#     4  12  27  41  63  98 133 165 221 271 314 387
#     4  10  22  39  72  92 124 179 214 260 329 384
#     4  10  20  40  66  96 124 168 220 264 318 389
#     4  12  23  41  66  94 126 175 211 264 326 380
#     4  10  22  44  64  96 132 166 216 269 319 388
#     4  12  23  44  68  94 129 174 218 262 325 389
#     4  12  23  40  64  97 136 163 213 278 319 377
#     4  10  21  39  70  91 124 174 214 261 326 383
#
# _framework density 20.898837
#
# number of rings (size 3 to 8) (size 9 to 14) (size 15 to 20)
#    0.000    1.000    5.000    1.875    1.750    1.000 
#    2.250    1.250    0.000    0.000    0.000    0.000 
#    0.000    0.000    0.000    0.000    0.000    0.000 
#
# Total GULP energy -198339.946882 kJ/mol
# GULP energy per Si atom -12396.246680 kJ/mol
# Density = 2.085127 g / cm^3
# Si number density = 20.898837 Si / 1000 Ang^3
#
#
#
# Elastic Constant Matrix: (Units=GPa)
#
#
# Indices 1 2 3 4 5 6 
#
# 1 87.3471 33.1920 43.0083 -8.0398 21.9570 8.3056
# 2 33.1920 85.0884 34.1434 -3.8013 25.1819 5.7774
# 3 43.0083 34.1434 137.9131 -7.1863 41.4935 12.0928
# 4 -8.0398 -3.8013 -7.1863 31.4633 5.5336 6.6845
# 5 21.9570 25.1819 41.4935 5.5336 52.2300 -3.8007
# 6 8.3056 5.7774 12.0928 6.6845 -3.8007 30.6097
#
#
#
# Elastic Compliance Matrix: (Units=1/GPa)
#
#
# Indices 1 2 3 4 5 6 
#
# 1 0.015720 -0.003588 -0.002225 0.004658 -0.003911 -0.004212
# 2 -0.003588 0.015461 -0.000486 0.002555 -0.006054 -0.003062
# 3 -0.002225 -0.000486 0.011543 0.004867 -0.008955 -0.006039
# 4 0.004658 0.002555 0.004867 0.039481 -0.012245 -0.013811
# 5 -0.003911 -0.006054 -0.008955 -0.012245 0.033031 0.012517
# 6 -0.004212 -0.003062 -0.006039 -0.013811 0.012517 0.041347
#
#
# Mechanical properties :
#
#
# Convention : Reuss Voigt Hill
#
# Bulk Modulus (GPa) = 33.19451 59.00399 46.09925
# Shear Modulus (GPa) = 27.89829 36.19424 32.04626
#
# Velocity S-wave (km/s) = 3.65762 4.16610 3.92011
# Velocity P-wave (km/s) = 5.80995 7.17191 6.52655
#
# Compressibility (1/GPa) = 0.03012546
#
# Stress axis : x y z
#
# Youngs Moduli (GPa) = 63.61329 64.68060 86.63435
#
# Poissons Ratio (x) = 0.23206 0.19280
# Poissons Ratio (y) = 0.22823 0.04209
# Poissons Ratio (z) = 0.14157 0.03142
#
# Static dielectric constant tensor:
#      x y z
#    x 3.884620 -0.278150 0.203060 
#    y -0.278150 3.649060 0.183980 
#    z 0.203060 0.183980 4.196650 
# 
# 
# High freq. dielectric constant tensor:
#      x y z
#    x 1.826480 0.025010 0.008830 
#    y 0.025010 1.785280 -0.005880 
#    z 0.008830 -0.005880 1.840700 
# 
# From -- ./inp_files/455820.got.cif
#   From: 2010.06.25/outbox.cif.g09.slc.cpg/sg2_228_cif.got.tgz:455820.got - 2010.06.27 13:26:56.
