data_PCOD8007851
_publ_section_title
;
Structure prediction by ZEFSAII (Michael W. Deem and Ramdas Pophale) SiO2 
 PCOD8007851
Probable space group: P -1
;
_chemical_formula_sum "Si O2"
_cell_formula_units_Z 16
_cell_length_a 15.830215
_cell_length_b 14.788791
_cell_length_c 15.105365
_cell_angle_alpha 151.168754
_cell_angle_beta 152.387845
_cell_angle_gamma 28.993094
_cell_volume 709.649642
_symmetry_space_group_name_H-M "P -1"
_symmetry_group_IT_number 2
_symmetry_cell_setting 'triclinic'
loop_
_space_group_symop_operation_xyz
x,y,z
-x,-y,-z
loop_
_atom_site_type_symbol
_atom_site_label
_atom_site_fract_x
_atom_site_fract_y
_atom_site_fract_z
Si Si1 0.995247 0.550956 0.142097
Si Si2 0.465719 0.290633 0.772354
Si Si3 0.390416 0.056127 0.851695
Si Si4 0.742699 0.361822 0.842818
Si Si5 0.815717 0.866250 0.701847
Si Si6 0.477766 0.744240 0.013350
Si Si7 0.542033 0.603836 0.544146
Si Si8 0.048560 0.978153 0.880989
O O1 0.219490 0.490563 0.333366
O O2 0.848400 0.796909 0.229233
O O3 0.917246 0.415967 0.012885
O O4 0.000000 0.500000 0.000000
O O5 0.269601 0.306031 0.546680
O O6 0.453517 0.196385 0.777842
O O7 0.654742 0.107976 0.741577
O O8 0.500000 0.500000 0.000000
O O9 0.421491 0.849205 0.654456
O O10 0.482372 0.164731 0.962484
O O11 0.500000 0.000000 0.000000
O O12 0.558158 0.442342 0.672488
O O13 0.855362 0.115793 0.758021
O O14 0.620001 0.493445 0.927468
O O15 0.895446 0.856362 0.868595
O O16 0.999058 0.827430 0.770962
O O17 0.235210 0.820995 0.859492
O O18 0.500000 0.500000 0.500000
#
# Coordination Sequence:
#
# PCOD8007851 Si02
#       8
#     2   2   2   2   2   2   2   2
#     4  11  22  44  63  92 131 171 221 278 335 397
#     4  10  20  41  69  97 138 179 228 284 344 415
#     4  11  23  41  70  93 136 179 222 278 340 402
#     4  11  24  42  64  95 134 167 233 278 332 413
#     4   9  21  41  67  98 136 178 224 283 354 416
#     4  10  23  42  64  98 131 175 226 279 337 412
#     4  12  24  41  66  95 126 179 226 280 342 399
#     4  10  21  42  69  97 137 177 224 286 351 405
#
# _framework density 22.546337000000001
#
# number of rings (size 3 to 8) (size 9 to 14) (size 15 to 20)
#    0.000    1.500    2.500    2.250    1.750    1.500 
#    9.000    8.750    0.000    0.000    0.000    0.000 
#    0.000    0.000    0.000    0.000    0.000    0.000 
#
# Total GULP energy -198216.209309 kJ/mol
# GULP energy per Si atom -12388.513082 kJ/mol
# Density = 2.249502 g / cm^3
# Si number density = 22.546337 Si / 1000 Ang^3
#
#
#
# Elastic Constant Matrix: (Units=GPa)
#
#
# Indices 1 2 3 4 5 6 
#
# 1 107.3341 40.2104 20.9970 -12.4381 2.8955 -24.8715
# 2 40.2104 122.9780 25.1939 -6.7177 15.0953 -28.0128
# 3 20.9970 25.1939 108.9422 -12.9177 13.9016 -7.0803
# 4 -12.4381 -6.7177 -12.9177 42.4321 2.0084 -3.0351
# 5 2.8955 15.0953 13.9016 2.0084 21.4764 -8.4731
# 6 -24.8715 -28.0128 -7.0803 -3.0351 -8.4731 43.6844
#
#
#
# Elastic Compliance Matrix: (Units=1/GPa)
#
#
# Indices 1 2 3 4 5 6 
#
# 1 0.012182 -0.002575 -0.001412 0.003005 0.003116 0.005869
# 2 -0.002575 0.010868 -0.000937 0.001238 -0.005042 0.004459
# 3 -0.001412 -0.000937 0.010836 0.003002 -0.006740 -0.000747
# 4 0.003005 0.001238 0.003002 0.026038 -0.004071 0.004011
# 5 0.003116 -0.005042 -0.006740 -0.004071 0.057729 0.008363
# 6 0.005869 0.004459 -0.000747 0.004011 0.008363 0.030872
#
#
# Mechanical properties :
#
#
# Convention : Reuss Voigt Hill
#
# Bulk Modulus (GPa) = 41.60410 56.89523 49.24967
# Shear Modulus (GPa) = 30.05082 38.37546 34.21314
#
# Velocity S-wave (km/s) = 3.65478 4.13009 3.89968
# Velocity P-wave (km/s) = 6.02517 6.93059 6.49368
#
# Compressibility (1/GPa) = 0.02403609
#
# Stress axis : x y z
#
# Youngs Moduli (GPa) = 82.08937 92.01560 92.28898
#
# Poissons Ratio (x) = 0.23697 0.13033
# Poissons Ratio (y) = 0.21141 0.08647
# Poissons Ratio (z) = 0.11592 0.08622
#
# Static dielectric constant tensor:
#      x y z
#    x 4.385950 -0.293340 -0.111060 
#    y -0.293340 4.315470 0.000490 
#    z -0.111060 0.000490 4.056020 
# 
# 
# High freq. dielectric constant tensor:
#      x y z
#    x 1.904590 -0.012210 -0.008470 
#    y -0.012210 1.898370 -0.009780 
#    z -0.008470 -0.009780 1.865280 
# 
# From -- ./inp_files/534628.got.cif
#   From: 2010.06.25/outbox.cif.g09.slc.cpg/sg2_268_cif.got.tgz:534628.got - 2010.06.27 13:26:56.
