data_PCOD8007945
_publ_section_title
;
Structure prediction by ZEFSAII (Michael W. Deem and Ramdas Pophale) SiO2 
 PCOD8007945
Probable space group: P -1
;
_chemical_formula_sum "Si O2"
_cell_formula_units_Z 16
_cell_length_a 11.278829
_cell_length_b 10.335175
_cell_length_c 8.646429
_cell_angle_alpha 94.297591
_cell_angle_beta 131.006083
_cell_angle_gamma 109.599042
_cell_volume 651.921151
_symmetry_space_group_name_H-M "P -1"
_symmetry_group_IT_number 2
_symmetry_cell_setting 'triclinic'
loop_
_space_group_symop_operation_xyz
x,y,z
-x,-y,-z
loop_
_atom_site_type_symbol
_atom_site_label
_atom_site_fract_x
_atom_site_fract_y
_atom_site_fract_z
Si Si1 0.204183 0.799826 0.698017
Si Si2 0.215157 0.669633 0.398330
Si Si3 0.643485 0.650257 0.220400
Si Si4 0.095675 0.340857 0.308448
Si Si5 0.889632 0.901211 0.250847
Si Si6 0.550870 0.898250 0.176142
Si Si7 0.608549 0.923822 0.799237
Si Si8 0.091931 0.863627 0.137778
O O1 0.124381 0.673942 0.485207
O O2 0.082704 0.743462 0.741793
O O3 0.241936 0.960789 0.673104
O O4 0.413638 0.839691 0.906453
O O5 0.127170 0.493486 0.269901
O O6 0.436628 0.756897 0.604982
O O7 0.156121 0.746293 0.224676
O O8 0.723698 0.613609 0.435817
O O9 0.797136 0.733399 0.227369
O O10 0.566414 0.755223 0.227865
O O11 0.500000 0.500000 0.000000
O O12 0.062129 0.220791 0.134850
O O13 0.015708 0.915791 0.217168
O O14 0.726709 0.928159 0.051737
O O15 0.000000 0.000000 0.500000
O O16 0.461151 0.955979 0.231624
O O17 0.739426 0.980189 0.766862
#
# Coordination Sequence:
#
# PCOD8007945 Si02
#       8
#     2   2   2   2   2   2   2   2
#     4  10  20  41  74 107 136 192 243 302 353 433
#     4  11  25  45  73 106 149 193 246 294 361 444
#     4  12  27  47  74 112 147 192 247 301 372 430
#     4  12  25  47  70 109 153 193 241 307 364 435
#     4  12  28  49  77 108 145 187 252 310 362 442
#     4  10  22  41  77 105 144 185 246 301 358 432
#     4  11  24  50  72 109 145 190 245 302 369 435
#     4  12  27  48  70 110 145 198 244 301 374 430
#
# _framework density 24.542845
#
# number of rings (size 3 to 8) (size 9 to 14) (size 15 to 20)
#    0.000    0.750    1.250    6.750    7.000    1.000 
#    4.500    1.250    0.000    0.000    0.000    0.000 
#    0.000    0.000    0.000    0.000    0.000    0.000 
#
# Total GULP energy -198304.990012 kJ/mol
# GULP energy per Si atom -12394.061876 kJ/mol
# Density = 2.448698 g / cm^3
# Si number density = 24.542845 Si / 1000 Ang^3
#
#
#
# Elastic Constant Matrix: (Units=GPa)
#
#
# Indices 1 2 3 4 5 6 
#
# 1 121.8262 36.8995 58.6687 11.2134 -10.9362 8.5740
# 2 36.8995 123.5267 44.4228 15.2722 5.2918 -2.4201
# 3 58.6687 44.4228 131.6645 12.4134 -2.2969 9.3246
# 4 11.2134 15.2722 12.4134 46.6056 -5.4947 3.7632
# 5 -10.9362 5.2918 -2.2969 -5.4947 34.0949 -9.1371
# 6 8.5740 -2.4201 9.3246 3.7632 -9.1371 32.7811
#
#
#
# Elastic Compliance Matrix: (Units=1/GPa)
#
#
# Indices 1 2 3 4 5 6 
#
# 1 0.011212 -0.001948 -0.004170 -0.000486 0.003294 -0.000916
# 2 -0.001948 0.009993 -0.002414 -0.002565 -0.002329 0.001579
# 3 -0.004170 -0.002414 0.010498 -0.000939 -0.001009 -0.002247
# 4 -0.000486 -0.002565 -0.000939 0.023199 0.003522 -0.001477
# 5 0.003294 -0.002329 -0.001009 0.003522 0.033437 0.008169
# 6 -0.000916 0.001579 -0.002247 -0.001477 0.008169 0.033947
#
#
# Mechanical properties :
#
#
# Convention : Reuss Voigt Hill
#
# Bulk Modulus (GPa) = 68.31833 72.99993 70.65913
# Shear Modulus (GPa) = 34.66660 38.49808 36.58234
#
# Velocity S-wave (km/s) = 3.76239 3.96486 3.86495
# Velocity P-wave (km/s) = 6.83893 7.12521 6.98353
#
# Compressibility (1/GPa) = 0.01463736
#
# Stress axis : x y z
#
# Youngs Moduli (GPa) = 89.19169 100.06535 95.25660
#
# Poissons Ratio (x) = 0.19496 0.39725
# Poissons Ratio (y) = 0.17378 0.22997
# Poissons Ratio (z) = 0.37196 0.24158
#
# Static dielectric constant tensor:
#      x y z
#    x 4.328990 -0.087210 0.241610 
#    y -0.087210 4.371810 -0.178290 
#    z 0.241610 -0.178290 4.742130 
# 
# 
# High freq. dielectric constant tensor:
#      x y z
#    x 1.975810 -0.000100 0.005940 
#    y -0.000100 1.968780 -0.005750 
#    z 0.005940 -0.005750 1.994970 
# 
# From -- ./inp_files/262629.got.cif
#   From: 2010.06.25/outbox.cif.g09.slc.cpg/sg2_132_cif.got.tgz:262629.got - 2010.06.27 13:26:56.
