data_PCOD8007631
_publ_section_title
;
Structure prediction by ZEFSAII (Michael W. Deem and Ramdas Pophale) SiO2 
 PCOD8007631
Probable space group: P -1
;
_chemical_formula_sum "Si O2"
_cell_formula_units_Z 14
_cell_length_a 9.500545
_cell_length_b 11.244362
_cell_length_c 9.526862
_cell_angle_alpha 141.209595
_cell_angle_beta 66.688979
_cell_angle_gamma 100.162141
_cell_volume 569.914643
_symmetry_space_group_name_H-M "P -1"
_symmetry_group_IT_number 2
_symmetry_cell_setting 'triclinic'
loop_
_space_group_symop_operation_xyz
x,y,z
-x,-y,-z
loop_
_atom_site_type_symbol
_atom_site_label
_atom_site_fract_x
_atom_site_fract_y
_atom_site_fract_z
Si Si1 0.091971 0.988212 0.598861
Si Si2 0.568405 0.182884 0.770059
Si Si3 0.464843 0.391508 0.743713
Si Si4 0.657843 0.920509 0.009565
Si Si5 0.550490 0.695146 0.623905
Si Si6 0.834753 0.355319 0.538531
Si Si7 0.945485 0.739430 0.889122
O O1 0.274163 0.973322 0.476456
O O2 0.075506 0.805121 0.533341
O O3 0.000000 0.000000 0.500000
O O4 0.022204 0.183295 0.898206
O O5 0.452351 0.239127 0.732567
O O6 0.481478 0.092979 0.841333
O O7 0.615782 0.385721 0.981382
O O8 0.379328 0.327775 0.582553
O O9 0.649549 0.369453 0.615690
O O10 0.604044 0.125489 0.138661
O O11 0.680084 0.740582 0.723443
O O12 0.820230 0.913943 0.019559
O O13 0.500000 0.500000 0.500000
O O14 0.862761 0.559431 0.771489
O O15 0.898734 0.313526 0.315854
#
# Coordination Sequence:
#
# PCOD8007631 Si02
#       7
#     2   2   2   2   2   2   2
#     4  11  26  43  62  95 130 168 210 259 323 379
#     4  10  21  41  64  91 127 165 208 255 313 385
#     4  10  20  41  66  91 124 166 212 255 318 370
#     4  11  23  39  63  98 125 161 220 254 322 378
#     4  11  22  38  60  92 132 162 204 270 308 370
#     4  10  22  44  68  91 123 170 218 260 310 375
#     4  11  23  43  68  91 123 171 216 263 310 377
#
# _framework density 24.565083000000001
#
# number of rings (size 3 to 8) (size 9 to 14) (size 15 to 20)
#    0.000    1.429    2.857    2.143    0.000    6.286 
#    5.143    0.000    0.000    0.000    0.000    0.000 
#    0.000    0.000    0.000    0.000    0.000    0.000 
#
# Total GULP energy -173599.566270 kJ/mol
# GULP energy per Si atom -12399.969019 kJ/mol
# Density = 2.450917 g / cm^3
# Si number density = 24.565083 Si / 1000 Ang^3
#
#
#
# Elastic Constant Matrix: (Units=GPa)
#
#
# Indices 1 2 3 4 5 6 
#
# 1 48.0011 23.0032 34.1581 -9.7150 16.6890 -7.0830
# 2 23.0032 98.6461 39.8155 -5.5824 10.8804 -4.5261
# 3 34.1581 39.8155 143.4225 -23.8088 22.5337 -16.0696
# 4 -9.7150 -5.5824 -23.8088 44.6323 -14.2267 7.6749
# 5 16.6890 10.8804 22.5337 -14.2267 41.8603 -15.0014
# 6 -7.0830 -4.5261 -16.0696 7.6749 -15.0014 24.6956
#
#
#
# Elastic Compliance Matrix: (Units=1/GPa)
#
#
# Indices 1 2 3 4 5 6 
#
# 1 0.028755 -0.004034 -0.004376 0.000983 -0.007881 -0.000432
# 2 -0.004034 0.012087 -0.002498 -0.000802 -0.000735 -0.000765
# 3 -0.004376 -0.002498 0.009688 0.003158 -0.000581 0.003257
# 4 0.000983 -0.000802 0.003158 0.026614 0.006369 -0.002212
# 5 -0.007881 -0.000735 -0.000581 0.006369 0.035787 0.016986
# 6 -0.000432 -0.000765 0.003257 -0.002212 0.016986 0.053354
#
#
# Mechanical properties :
#
#
# Convention : Reuss Voigt Hill
#
# Bulk Modulus (GPa) = 34.82502 53.78033 44.30268
# Shear Modulus (GPa) = 25.29437 35.11052 30.20244
#
# Velocity S-wave (km/s) = 3.21236 3.78469 3.51021
# Velocity P-wave (km/s) = 5.28833 6.40617 5.87390
#
# Compressibility (1/GPa) = 0.02871498
#
# Stress axis : x y z
#
# Youngs Moduli (GPa) = 34.77648 82.73485 103.21594
#
# Poissons Ratio (x) = 0.33377 0.45163
# Poissons Ratio (y) = 0.14030 0.25782
# Poissons Ratio (z) = 0.15217 0.20666
#
# Static dielectric constant tensor:
#      x y z
#    x 4.047780 -0.290980 0.268120 
#    y -0.290980 4.797200 -0.115390 
#    z 0.268120 -0.115390 4.911530 
# 
# 
# High freq. dielectric constant tensor:
#      x y z
#    x 1.934910 -0.005370 0.016950 
#    y -0.005370 1.987430 0.002020 
#    z 0.016950 0.002020 2.000220 
# 
# From -- ./inp_files/260882.got.cif
#   From: 2010.06.25/outbox.cif.g09.slc.cpg/sg2_131_cif.got.tgz:260882.got - 2010.06.27 13:26:56.
