data_PCOD8007727
_publ_section_title
;
Structure prediction by ZEFSAII (Michael W. Deem and Ramdas Pophale) SiO2 
 PCOD8007727
Probable space group: P -1
;
_chemical_formula_sum "Si O2"
_cell_formula_units_Z 14
_cell_length_a 12.007627
_cell_length_b 7.453249
_cell_length_c 13.509744
_cell_angle_alpha 129.606200
_cell_angle_beta 33.411411
_cell_angle_gamma 128.200144
_cell_volume 502.223031
_symmetry_space_group_name_H-M "P -1"
_symmetry_group_IT_number 2
_symmetry_cell_setting 'triclinic'
loop_
_space_group_symop_operation_xyz
x,y,z
-x,-y,-z
loop_
_atom_site_type_symbol
_atom_site_label
_atom_site_fract_x
_atom_site_fract_y
_atom_site_fract_z
Si Si1 0.261999 0.057519 0.222885
Si Si2 0.061861 0.680674 0.775275
Si Si3 0.794289 0.010863 0.543023
Si Si4 0.170177 0.351648 0.751069
Si Si5 0.287932 0.801543 0.923739
Si Si6 0.264569 0.580996 0.395153
Si Si7 0.685829 0.878519 0.162301
O O1 0.342635 0.052386 0.276331
O O2 0.290803 0.321250 0.250055
O O3 0.018121 0.942886 0.370148
O O4 0.364295 0.891933 0.011587
O O5 0.104257 0.526071 0.780958
O O6 0.113583 0.560384 0.593401
O O7 0.194667 0.948361 0.781759
O O8 0.821734 0.695671 0.956292
O O9 0.699055 0.828642 0.459872
O O10 0.823637 0.286413 0.585002
O O11 0.311723 0.527062 0.788352
O O12 0.959686 0.200481 0.903247
O O13 0.394757 0.985003 0.823736
O O14 0.486963 0.731474 0.312755
#
# Coordination Sequence:
#
# PCOD8007727 Si02
#       7
#     2   2   2   2   2   2   2
#     4  10  21  40  65  96 136 181 224 272 344 400
#     4  10  20  41  67  94 137 176 219 282 341 400
#     4  10  21  39  66  98 131 179 229 273 337 406
#     4   9  17  37  67  94 126 178 225 273 339 396
#     4   9  19  38  60  92 135 166 223 278 323 401
#     4  12  23  41  70  98 136 177 227 281 334 409
#     4  10  23  40  64 100 133 177 226 277 341 403
#
# _framework density 27.876062000000001
#
# number of rings (size 3 to 8) (size 9 to 14) (size 15 to 20)
#    0.000    2.000    1.429    2.571    0.000    1.714 
#    2.571    3.571    0.000    0.000    0.000    0.000 
#    0.000    0.000    0.000    0.000    0.000    0.000 
#
# Total GULP energy -173650.226250 kJ/mol
# GULP energy per Si atom -12403.587589 kJ/mol
# Density = 2.781262 g / cm^3
# Si number density = 27.876062 Si / 1000 Ang^3
#
#
#
# Elastic Constant Matrix: (Units=GPa)
#
#
# Indices 1 2 3 4 5 6 
#
# 1 92.5136 18.8180 31.4023 23.7919 28.6826 0.4690
# 2 18.8180 101.4296 42.3522 29.6999 31.2244 0.7855
# 3 31.4023 42.3522 137.9019 18.0381 32.2058 -5.5259
# 4 23.7919 29.6999 18.0381 45.6928 9.4225 8.1190
# 5 28.6826 31.2244 32.2058 9.4225 45.1980 6.6370
# 6 0.4690 0.7855 -5.5259 8.1190 6.6370 35.1919
#
#
#
# Elastic Compliance Matrix: (Units=1/GPa)
#
#
# Indices 1 2 3 4 5 6 
#
# 1 0.015799 0.003005 -0.000907 -0.008322 -0.010224 0.003428
# 2 0.003005 0.016026 -0.001813 -0.009791 -0.010158 0.003492
# 3 -0.000907 -0.001813 0.009513 -0.001573 -0.005042 0.002860
# 4 -0.008322 -0.009791 -0.001573 0.033247 0.007559 -0.009013
# 5 -0.010224 -0.010158 -0.005042 0.007559 0.039048 -0.009537
# 6 0.003428 0.003492 0.002860 -0.009013 -0.009537 0.032619
#
#
# Mechanical properties :
#
#
# Convention : Reuss Voigt Hill
#
# Bulk Modulus (GPa) = 23.86183 57.44332 40.65258
# Shear Modulus (GPa) = 31.31859 41.16803 36.24331
#
# Velocity S-wave (km/s) = 3.35549 3.84712 3.60968
# Velocity P-wave (km/s) = 4.85706 6.35493 5.65580
#
# Compressibility (1/GPa) = 0.04190793
#
# Stress axis : x y z
#
# Youngs Moduli (GPa) = 63.29708 62.40011 105.12090
#
# Poissons Ratio (x) = -0.18754 0.09532
# Poissons Ratio (y) = -0.19023 0.19060
# Poissons Ratio (z) = 0.05740 0.11314
#
# Static dielectric constant tensor:
#      x y z
#    x 4.966870 0.339780 0.201050 
#    y 0.339780 5.160280 0.122220 
#    z 0.201050 0.122220 5.316530 
# 
# 
# High freq. dielectric constant tensor:
#      x y z
#    x 2.121040 0.011330 -0.002090 
#    y 0.011330 2.127350 -0.006830 
#    z -0.002090 -0.006830 2.146060 
# 
# From -- ./inp_files/526828.got.cif
#   From: 2010.06.25/outbox.cif.g09.slc.cpg/sg2_264_cif.got.tgz:526828.got - 2010.06.27 13:26:56.
