data_PCOD8007349
_publ_section_title
;
Structure prediction by ZEFSAII (Michael W. Deem and Ramdas Pophale) SiO2 
 PCOD8007349
Probable space group: P -1
;
_chemical_formula_sum "Si O2"
_cell_formula_units_Z 14
_cell_length_a 6.397406
_cell_length_b 26.860754
_cell_length_c 7.335216
_cell_angle_alpha 37.987797
_cell_angle_beta 113.538090
_cell_angle_gamma 117.149655
_cell_volume 688.516947
_symmetry_space_group_name_H-M "P -1"
_symmetry_group_IT_number 2
_symmetry_cell_setting 'triclinic'
loop_
_space_group_symop_operation_xyz
x,y,z
-x,-y,-z
loop_
_atom_site_type_symbol
_atom_site_label
_atom_site_fract_x
_atom_site_fract_y
_atom_site_fract_z
Si Si1 0.245844 0.811834 0.281415
Si Si2 0.060501 0.972483 0.799314
Si Si3 0.011096 0.257084 0.260232
Si Si4 0.435227 0.387371 0.175051
Si Si5 0.209438 0.457425 0.222229
Si Si6 0.773747 0.888746 0.265157
Si Si7 0.859450 0.318367 0.677391
O O1 0.523772 0.824152 0.346152
O O2 0.141647 0.764780 0.197050
O O3 0.129671 0.749714 0.581225
O O4 0.196493 0.901956 0.016618
O O5 0.228221 0.050079 0.741348
O O6 0.000000 0.000000 0.500000
O O7 0.833424 0.938563 0.949238
O O8 0.273414 0.317463 0.193846
O O9 0.036854 0.165446 0.474989
O O10 0.851807 0.292115 0.961004
O O11 0.263105 0.414796 0.178582
O O12 0.634358 0.353236 0.449236
O O13 0.560427 0.468122 0.860320
O O14 0.113438 0.385293 0.545874
O O15 0.000000 0.500000 0.000000
#
# Coordination Sequence:
#
# PCOD8007349 Si02
#       7
#     2   2   2   2   2   2   2
#     4  11  22  39  60  89 126 157 200 252 294 355
#     4  10  22  39  61  88 119 159 203 241 298 361
#     4  11  23  38  62  91 122 160 205 244 299 359
#     4  10  20  41  61  87 125 157 200 257 292 353
#     4   9  20  39  64  86 123 159 199 253 298 351
#     4  10  22  40  59  87 125 156 196 254 294 347
#     4  11  22  38  62  91 120 163 203 244 305 353
#
# _framework density 20.333559999999999
#
# number of rings (size 3 to 8) (size 9 to 14) (size 15 to 20)
#    0.000    1.714    2.857    1.286    0.000    3.429 
#    0.000    6.429    0.000    0.000    0.000    0.000 
#    0.000    0.000    0.000    0.000    0.000    0.000 
#
# Total GULP energy -173530.032453 kJ/mol
# GULP energy per Si atom -12395.002318 kJ/mol
# Density = 2.028728 g / cm^3
# Si number density = 20.333560 Si / 1000 Ang^3
#
#
#
# Elastic Constant Matrix: (Units=GPa)
#
#
# Indices 1 2 3 4 5 6 
#
# 1 78.9368 30.1472 32.0429 2.3929 -4.7871 0.6679
# 2 30.1472 102.0342 54.6774 -5.5837 -3.0435 1.9801
# 3 32.0429 54.6774 98.4447 12.3528 -1.3983 11.5580
# 4 2.3929 -5.5837 12.3528 32.2923 0.9099 -0.8480
# 5 -4.7871 -3.0435 -1.3983 0.9099 24.9922 -8.9669
# 6 0.6679 1.9801 11.5580 -0.8480 -8.9669 36.8852
#
#
#
# Elastic Compliance Matrix: (Units=1/GPa)
#
#
# Indices 1 2 3 4 5 6 
#
# 1 0.015311 -0.002459 -0.003762 -0.000160 0.003065 0.001775
# 2 -0.002459 0.015691 -0.008989 0.006356 0.001624 0.002560
# 3 -0.003762 -0.008989 0.018074 -0.008271 -0.002636 -0.005944
# 4 -0.000160 0.006356 -0.008271 0.035320 0.000103 0.003091
# 5 0.003065 0.001624 -0.002636 0.000103 0.044800 0.011576
# 6 0.001775 0.002560 -0.005944 0.003091 0.011576 0.031689
#
#
# Mechanical properties :
#
#
# Convention : Reuss Voigt Hill
#
# Bulk Modulus (GPa) = 53.61044 57.01674 55.31359
# Shear Modulus (GPa) = 25.31331 29.67048 27.49189
#
# Velocity S-wave (km/s) = 3.53215 3.82408 3.68101
# Velocity P-wave (km/s) = 6.56182 6.89925 6.73265
#
# Compressibility (1/GPa) = 0.01865308
#
# Stress axis : x y z
#
# Youngs Moduli (GPa) = 65.31422 63.73047 55.32913
#
# Poissons Ratio (x) = 0.15674 0.20816
# Poissons Ratio (y) = 0.16063 0.49738
# Poissons Ratio (z) = 0.24573 0.57290
#
# Static dielectric constant tensor:
#      x y z
#    x 3.713720 0.002910 -0.257970 
#    y 0.002910 3.792150 -0.406100 
#    z -0.257970 -0.406100 3.726660 
# 
# 
# High freq. dielectric constant tensor:
#      x y z
#    x 1.795800 -0.008030 -0.011420 
#    y -0.008030 1.800800 -0.028410 
#    z -0.011420 -0.028410 1.785480 
# 
# From -- ./inp_files/7685.got.cif
#   From: 2010.06.25/outbox.cif.g09.slc.cpg/sg2_4_cif.got.tgz:7685.got - 2010.06.27 13:26:56.
