data_PCOD8007356
_publ_section_title
;
Structure prediction by ZEFSAII (Michael W. Deem and Ramdas Pophale) SiO2 
 PCOD8007356
Probable space group: P -1
;
_chemical_formula_sum "Si O2"
_cell_formula_units_Z 16
_cell_length_a 16.579598
_cell_length_b 8.474438
_cell_length_c 19.447011
_cell_angle_alpha 127.901840
_cell_angle_beta 158.113863
_cell_angle_gamma 49.586312
_cell_volume 774.705673
_symmetry_space_group_name_H-M "P -1"
_symmetry_group_IT_number 2
_symmetry_cell_setting 'triclinic'
loop_
_space_group_symop_operation_xyz
x,y,z
-x,-y,-z
loop_
_atom_site_type_symbol
_atom_site_label
_atom_site_fract_x
_atom_site_fract_y
_atom_site_fract_z
Si Si1 0.844849 0.942001 0.567773
Si Si2 0.571924 0.337616 0.263545
Si Si3 0.251328 0.089533 0.962665
Si Si4 0.572698 0.888078 0.635521
Si Si5 0.077562 0.504799 0.485127
Si Si6 0.055868 0.261458 0.997409
Si Si7 0.567757 0.275034 0.652837
Si Si8 0.723986 0.896005 0.306553
O O1 0.748209 0.890150 0.405950
O O2 0.916380 0.717716 0.604178
O O3 0.654726 0.111373 0.503205
O O4 0.057858 0.035227 0.750015
O O5 0.524758 0.487335 0.332982
O O6 0.677248 0.446408 0.314775
O O7 0.756603 0.119138 0.367850
O O8 0.332895 0.282543 0.044349
O O9 0.173518 0.131230 0.990760
O O10 0.469851 0.890692 0.084701
O O11 0.787795 0.788345 0.825143
O O12 0.586988 0.752938 0.541339
O O13 0.554390 0.126211 0.666193
O O14 0.896076 0.694910 0.354722
O O15 0.000000 0.500000 0.500000
O O16 0.000000 0.500000 0.000000
O O17 0.825755 0.205062 0.815386
#
# Coordination Sequence:
#
# PCOD8007356 Si02
#       8
#     2   2   2   2   2   2   2   2
#     4  11  20  39  64  88 123 162 210 253 302 370
#     4  10  20  41  61  88 127 155 203 253 309 367
#     4  10  22  36  62  90 126 158 202 256 303 365
#     4  11  23  38  61  88 128 167 206 255 301 367
#     4  10  21  39  68  88 114 164 206 251 317 364
#     4  12  22  39  59  92 125 166 207 250 306 367
#     4  11  23  39  60  91 127 167 203 250 311 367
#     4   9  21  39  63  88 122 160 199 261 314 349
#
# _framework density 20.653005
#
# number of rings (size 3 to 8) (size 9 to 14) (size 15 to 20)
#    0.750    0.750    5.000    0.750    0.000    2.000 
#    0.000    2.500    5.500    0.000    0.000    0.000 
#    0.000    0.000    0.000    0.000    0.000    0.000 
#
# Total GULP energy -198216.358128 kJ/mol
# GULP energy per Si atom -12388.522383 kJ/mol
# Density = 2.060600 g / cm^3
# Si number density = 20.653005 Si / 1000 Ang^3
#
#
#
# Elastic Constant Matrix: (Units=GPa)
#
#
# Indices 1 2 3 4 5 6 
#
# 1 64.4861 0.4103 17.9114 1.9281 17.8506 9.2537
# 2 0.4103 75.1892 2.7862 8.5605 -3.7951 1.5083
# 3 17.9114 2.7862 79.8616 3.2684 13.8897 11.8950
# 4 1.9281 8.5605 3.2684 25.2157 11.4515 4.2891
# 5 17.8506 -3.7951 13.8897 11.4515 35.9221 2.5987
# 6 9.2537 1.5083 11.8950 4.2891 2.5987 22.8136
#
#
#
# Elastic Compliance Matrix: (Units=1/GPa)
#
#
# Indices 1 2 3 4 5 6 
#
# 1 0.019667 -0.000976 -0.001792 0.004856 -0.010245 -0.006724
# 2 -0.000976 0.014325 -0.000879 -0.006817 0.004462 0.000681
# 3 -0.001792 -0.000879 0.014749 0.001954 -0.005043 -0.006698
# 4 0.004856 -0.006817 0.001954 0.052028 -0.019746 -0.010070
# 5 -0.010245 0.004462 -0.005043 -0.019746 0.041247 0.005504
# 6 -0.006724 0.000681 -0.006698 -0.010070 0.005504 0.051274
#
#
# Mechanical properties :
#
#
# Convention : Reuss Voigt Hill
#
# Bulk Modulus (GPa) = 24.12770 29.08364 26.60567
# Shear Modulus (GPa) = 23.32072 30.01889 26.66980
#
# Velocity S-wave (km/s) = 3.36396 3.81660 3.59740
# Velocity P-wave (km/s) = 5.17649 5.79090 5.49229
#
# Compressibility (1/GPa) = 0.04144613
#
# Stress axis : x y z
#
# Youngs Moduli (GPa) = 50.84702 69.80602 67.80063
#
# Poissons Ratio (x) = 0.06813 0.12152
# Poissons Ratio (y) = 0.04963 0.05962
# Poissons Ratio (z) = 0.09113 0.06139
#
# Static dielectric constant tensor:
#      x y z
#    x 3.795670 -0.194600 0.427110 
#    y -0.194600 4.354000 -0.130970 
#    z 0.427110 -0.130970 3.661280 
# 
# 
# High freq. dielectric constant tensor:
#      x y z
#    x 1.798880 -0.005440 0.029540 
#    y -0.005440 1.813910 0.002250 
#    z 0.029540 0.002250 1.791170 
# 
# From -- ./inp_files/322503.got.cif
#   From: 2010.06.25/outbox.cif.g09.slc.cpg/sg2_162_cif.got.tgz:322503.got - 2010.06.27 13:26:56.
