data_PCOD8007509
_publ_section_title
;
Structure prediction by ZEFSAII (Michael W. Deem and Ramdas Pophale) SiO2 
 PCOD8007509
Probable space group: P -1
;
_chemical_formula_sum "Si O2"
_cell_formula_units_Z 16
_cell_length_a 9.452650
_cell_length_b 10.546500
_cell_length_c 9.719044
_cell_angle_alpha 102.410546
_cell_angle_beta 101.593789
_cell_angle_gamma 122.849299
_cell_volume 733.009941
_symmetry_space_group_name_H-M "P -1"
_symmetry_group_IT_number 2
_symmetry_cell_setting 'triclinic'
loop_
_space_group_symop_operation_xyz
x,y,z
-x,-y,-z
loop_
_atom_site_type_symbol
_atom_site_label
_atom_site_fract_x
_atom_site_fract_y
_atom_site_fract_z
Si Si1 0.510092 0.899402 0.860211
Si Si2 0.674394 0.394721 0.695625
Si Si3 0.210144 0.102924 0.924288
Si Si4 0.220886 0.796116 0.175750
Si Si5 0.729419 0.807263 0.353761
Si Si6 0.073827 0.843688 0.424313
Si Si7 0.951288 0.757984 0.912586
Si Si8 0.806287 0.327333 0.439887
O O1 0.312355 0.735430 0.738184
O O2 0.599648 0.016346 0.770140
O O3 0.627627 0.843460 0.926072
O O4 0.500000 0.000000 0.000000
O O5 0.723520 0.322180 0.812092
O O6 0.470761 0.336526 0.664036
O O7 0.802649 0.591090 0.765534
O O8 0.690120 0.330980 0.538551
O O9 0.280829 0.144845 0.792571
O O10 0.137489 0.204887 0.974904
O O11 0.048453 0.907102 0.857165
O O12 0.103486 0.786454 0.274928
O O13 0.097825 0.738130 0.001004
O O14 0.856420 0.749278 0.374687
O O15 0.816482 0.961444 0.508602
O O16 0.151731 0.799600 0.551905
O O17 0.000000 0.500000 0.500000
#
# Coordination Sequence:
#
# PCOD8007509 Si02
#       8
#     2   2   2   2   2   2   2   2
#     4  11  23  40  69  95 127 176 220 259 318 391
#     4  11  24  40  65  95 129 166 217 272 326 369
#     4  10  22  41  66  92 131 169 218 258 321 390
#     4  10  20  41  64  93 127 169 217 262 315 393
#     4  11  22  41  67  98 122 171 216 269 315 391
#     4  10  22  41  67  90 129 170 214 261 329 381
#     4  10  22  40  63  95 129 172 209 266 325 383
#     4  11  26  44  63  96 135 169 213 273 326 383
#
# _framework density 21.827808000000001
#
# number of rings (size 3 to 8) (size 9 to 14) (size 15 to 20)
#    0.000    1.500    1.250    3.375    5.250    3.500 
#    4.500    1.250    0.000    0.000    0.000    0.000 
#    0.000    0.000    0.000    0.000    0.000    0.000 
#
# Total GULP energy -198448.672532 kJ/mol
# GULP energy per Si atom -12403.042033 kJ/mol
# Density = 2.177813 g / cm^3
# Si number density = 21.827808 Si / 1000 Ang^3
#
#
#
# Elastic Constant Matrix: (Units=GPa)
#
#
# Indices 1 2 3 4 5 6 
#
# 1 127.2374 37.1022 44.2033 10.9937 14.4030 13.1534
# 2 37.1022 55.1505 40.3852 13.7452 10.4656 9.0398
# 3 44.2033 40.3852 94.9674 17.6336 16.3190 7.4340
# 4 10.9937 13.7452 17.6336 34.7240 6.1701 2.8192
# 5 14.4030 10.4656 16.3190 6.1701 32.8886 1.1877
# 6 13.1534 9.0398 7.4340 2.8192 1.1877 34.5662
#
#
#
# Elastic Compliance Matrix: (Units=1/GPa)
#
#
# Indices 1 2 3 4 5 6 
#
# 1 0.010474 -0.004577 -0.002485 0.000269 -0.001868 -0.002212
# 2 -0.004577 0.030151 -0.009096 -0.005218 -0.001965 -0.003694
# 3 -0.002485 -0.009096 0.016836 -0.003512 -0.003717 0.000117
# 4 0.000269 -0.005218 -0.003512 0.033126 -0.002908 -0.000584
# 5 -0.001868 -0.001965 -0.003717 -0.002908 0.034200 0.001086
# 6 -0.002212 -0.003694 0.000117 -0.000584 0.001086 0.030723
#
#
# Mechanical properties :
#
#
# Convention : Reuss Voigt Hill
#
# Bulk Modulus (GPa) = 39.76748 57.85964 48.81356
# Shear Modulus (GPa) = 25.48344 30.81339 28.14841
#
# Velocity S-wave (km/s) = 3.42054 3.76128 3.59495
# Velocity P-wave (km/s) = 5.81880 6.74002 6.29628
#
# Compressibility (1/GPa) = 0.02514618
#
# Stress axis : x y z
#
# Youngs Moduli (GPa) = 95.47430 33.16691 59.39665
#
# Poissons Ratio (x) = 0.15180 0.14758
# Poissons Ratio (y) = 0.43697 0.54025
# Poissons Ratio (z) = 0.23722 0.30168
#
# Static dielectric constant tensor:
#      x y z
#    x 4.258920 -0.066160 0.169590 
#    y -0.066160 3.906440 -0.113730 
#    z 0.169590 -0.113730 3.748100 
# 
# 
# High freq. dielectric constant tensor:
#      x y z
#    x 1.876620 0.003130 0.003550 
#    y 0.003130 1.840730 -0.004260 
#    z 0.003550 -0.004260 1.851150 
# 
# From -- ./inp_files/388058.got.cif
#   From: 2010.06.25/outbox.cif.g09.slc.cpg/sg2_195_cif.got.tgz:388058.got - 2010.06.27 13:26:56.
