data_PCOD8007321
_publ_section_title
;
Structure prediction by ZEFSAII (Michael W. Deem and Ramdas Pophale) SiO2 
 PCOD8007321
Probable space group: P -1
;
_chemical_formula_sum "Si O2"
_cell_formula_units_Z 14
_cell_length_a 19.507648
_cell_length_b 8.585827
_cell_length_c 12.326855
_cell_angle_alpha 49.448233
_cell_angle_beta 155.717795
_cell_angle_gamma 138.866024
_cell_volume 553.432784
_symmetry_space_group_name_H-M "P -1"
_symmetry_group_IT_number 2
_symmetry_cell_setting 'triclinic'
loop_
_space_group_symop_operation_xyz
x,y,z
-x,-y,-z
loop_
_atom_site_type_symbol
_atom_site_label
_atom_site_fract_x
_atom_site_fract_y
_atom_site_fract_z
Si Si1 0.814055 0.963895 0.580937
Si Si2 0.295672 0.364123 0.710638
Si Si3 0.503236 0.479611 0.741717
Si Si4 0.203583 0.972899 0.084185
Si Si5 0.718615 0.063431 0.027196
Si Si6 0.742110 0.221393 0.537522
Si Si7 0.795801 0.309966 0.242924
O O1 0.637164 0.693269 0.479852
O O2 0.858401 0.127833 0.677038
O O3 0.729365 0.058131 0.320252
O O4 0.012250 0.985163 0.820033
O O5 0.332265 0.388072 0.624912
O O6 0.175380 0.498603 0.499828
O O7 0.191556 0.096184 0.727592
O O8 0.500000 0.500000 0.000000
O O9 0.606428 0.762407 0.743955
O O10 0.660037 0.412168 0.034826
O O11 0.219352 0.800554 0.270978
O O12 0.198543 0.861365 0.009344
O O13 0.793149 0.282775 0.120068
O O14 0.486063 0.925302 0.752543
O O15 0.000000 0.500000 0.500000
#
# Coordination Sequence:
#
# PCOD8007321 Si02
#       7
#     2   2   2   2   2   2   2
#     4  12  26  45  73 104 152 190 244 298 362 425
#     4  10  20  40  75 103 134 192 235 295 362 419
#     4  12  23  44  71 106 146 188 237 299 363 424
#     4  12  27  47  72 112 146 191 247 295 356 442
#     4  11  23  46  76 107 145 187 244 303 362 425
#     4  11  24  46  75 102 150 197 236 295 366 430
#     4  12  24  45  75 109 140 187 243 304 358 427
#
# _framework density 25.296658999999998
#
# number of rings (size 3 to 8) (size 9 to 14) (size 15 to 20)
#    0.000    0.571    7.143    3.000    0.000    1.143 
#    5.143    0.714    0.000    0.000    0.000    0.000 
#    0.000    0.000    0.000    0.000    0.000    0.000 
#
# Total GULP energy -173519.383662 kJ/mol
# GULP energy per Si atom -12394.241690 kJ/mol
# Density = 2.523908 g / cm^3
# Si number density = 25.296659 Si / 1000 Ang^3
#
#
#
# Elastic Constant Matrix: (Units=GPa)
#
#
# Indices 1 2 3 4 5 6 
#
# 1 135.0781 2.6305 26.1360 -4.9115 -13.3827 -12.8254
# 2 2.6305 31.4277 0.0136 -5.9236 -17.8802 -10.5454
# 3 26.1360 0.0136 47.5182 -4.7167 -2.9506 -1.8404
# 4 -4.9115 -5.9236 -4.7167 32.6862 8.0328 -3.2584
# 5 -13.3827 -17.8802 -2.9506 8.0328 40.5485 -1.5112
# 6 -12.8254 -10.5454 -1.8404 -3.2584 -1.5112 32.4448
#
#
#
# Elastic Compliance Matrix: (Units=1/GPa)
#
#
# Indices 1 2 3 4 5 6 
#
# 1 0.009092 0.003330 -0.004485 0.000767 0.004166 0.004693
# 2 0.003330 0.053417 0.001090 0.006430 0.024224 0.020514
# 3 -0.004485 0.001090 0.023823 0.002946 0.000159 0.000236
# 4 0.000767 0.006430 0.002946 0.033651 -0.003148 0.005793
# 5 0.004166 0.024224 0.000159 -0.003148 0.037763 0.010972
# 6 0.004693 0.020514 0.000236 0.005793 0.010972 0.040451
#
#
# Mechanical properties :
#
#
# Convention : Reuss Voigt Hill
#
# Bulk Modulus (GPa) = 11.60065 30.17601 20.88833
# Shear Modulus (GPa) = 22.02059 33.48551 27.75305
#
# Velocity S-wave (km/s) = 2.95361 3.64223 3.31585
# Velocity P-wave (km/s) = 4.02835 5.44450 4.78906
#
# Compressibility (1/GPa) = 0.08620208
#
# Stress axis : x y z
#
# Youngs Moduli (GPa) = 109.98216 18.72061 41.97672
#
# Poissons Ratio (x) = -0.06235 0.18828
# Poissons Ratio (y) = -0.36629 -0.04575
# Poissons Ratio (z) = 0.49331 -0.02040
#
# Static dielectric constant tensor:
#      x y z
#    x 4.616580 -0.296970 0.062610 
#    y -0.296970 4.852440 -0.203690 
#    z 0.062610 -0.203690 4.408280 
# 
# 
# High freq. dielectric constant tensor:
#      x y z
#    x 2.013670 -0.022600 0.006730 
#    y -0.022600 2.001320 0.004730 
#    z 0.006730 0.004730 2.006630 
# 
# From -- ./inp_files/158776.got.cif
#   From: 2010.06.25/outbox.cif.g09.slc.cpg/sg2_80_cif.got.tgz:158776.got - 2010.06.27 13:26:56.
