data_PCOD8007793
_publ_section_title
;
Structure prediction by ZEFSAII (Michael W. Deem and Ramdas Pophale) SiO2 
 PCOD8007793
Probable space group: P -1
;
_chemical_formula_sum "Si O2"
_cell_formula_units_Z 16
_cell_length_a 12.507840
_cell_length_b 9.055834
_cell_length_c 18.153612
_cell_angle_alpha 30.504344
_cell_angle_beta 132.021500
_cell_angle_gamma 134.085561
_cell_volume 735.795132
_symmetry_space_group_name_H-M "P -1"
_symmetry_group_IT_number 2
_symmetry_cell_setting 'triclinic'
loop_
_space_group_symop_operation_xyz
x,y,z
-x,-y,-z
loop_
_atom_site_type_symbol
_atom_site_label
_atom_site_fract_x
_atom_site_fract_y
_atom_site_fract_z
Si Si1 0.581596 0.840217 0.958196
Si Si2 0.817913 0.762142 0.716181
Si Si3 0.119146 0.312137 0.451855
Si Si4 0.813650 0.137017 0.049762
Si Si5 0.383847 0.558585 0.362819
Si Si6 0.864316 0.114614 0.247737
Si Si7 0.736815 0.622151 0.000848
Si Si8 0.092420 0.909610 0.241932
O O1 0.710064 0.732062 0.022525
O O2 0.544884 0.094414 0.780631
O O3 0.428242 0.575917 0.020030
O O4 0.650607 0.968386 0.012813
O O5 0.664123 0.660732 0.638766
O O6 0.961675 0.884478 0.675977
O O7 0.816174 0.012340 0.670737
O O8 0.857982 0.492927 0.895787
O O9 0.226269 0.509321 0.353416
O O10 0.047745 0.547231 0.359386
O O11 0.217150 0.186543 0.610936
O O12 0.000000 0.000000 0.500000
O O13 0.784443 0.087071 0.144172
O O14 0.939029 0.995240 0.139143
O O15 0.500000 0.500000 0.500000
O O16 0.851125 0.422212 0.148160
O O17 0.802200 0.902143 0.855391
#
# Coordination Sequence:
#
# PCOD8007793 Si02
#       8
#     2   2   2   2   2   2   2   2
#     4  10  24  39  64  98 126 164 221 268 315 379
#     4  10  20  41  68  97 128 165 219 269 316 379
#     4  12  26  42  62  97 131 173 216 260 322 392
#     4  10  21  39  67  99 125 164 213 272 324 367
#     4  11  23  45  62  90 137 175 205 263 327 380
#     4  11  21  40  65  94 129 164 216 265 317 383
#     4  11  21  41  66  93 127 168 218 267 314 379
#     4  11  22  42  67  95 132 168 213 269 323 380
#
# _framework density 21.745184999999999
#
# number of rings (size 3 to 8) (size 9 to 14) (size 15 to 20)
#    0.000    1.250    5.000    1.500    1.750    3.000 
#    2.250    0.625    0.000    0.000    0.000    0.000 
#    0.000    0.000    0.000    0.000    0.000    0.000 
#
# Total GULP energy -198292.173434 kJ/mol
# GULP energy per Si atom -12393.260840 kJ/mol
# Density = 2.169569 g / cm^3
# Si number density = 21.745185 Si / 1000 Ang^3
#
#
#
# Elastic Constant Matrix: (Units=GPa)
#
#
# Indices 1 2 3 4 5 6 
#
# 1 41.9063 8.9643 18.1039 -7.1538 5.9482 -15.4926
# 2 8.9643 97.0539 52.7725 0.1132 11.1233 -25.4810
# 3 18.1039 52.7725 110.6762 1.2066 -3.0900 -17.7981
# 4 -7.1538 0.1132 1.2066 36.3378 -7.7651 5.5690
# 5 5.9482 11.1233 -3.0900 -7.7651 30.2255 -4.3721
# 6 -15.4926 -25.4810 -17.7981 5.5690 -4.3721 19.8261
#
#
#
# Elastic Compliance Matrix: (Units=1/GPa)
#
#
# Indices 1 2 3 4 5 6 
#
# 1 0.038320 0.009342 -0.005159 0.000907 -0.006107 0.035718
# 2 0.009342 0.021757 -0.007592 -0.003867 -0.007585 0.027862
# 3 -0.005159 -0.007592 0.013580 -0.000300 0.005063 -0.000397
# 4 0.000907 -0.003867 -0.000300 0.031108 0.007526 -0.011609
# 5 -0.006107 -0.007585 0.005063 0.007526 0.039025 -0.003484
# 6 0.035718 0.027862 -0.000397 -0.011609 -0.003484 0.116295
#
#
# Mechanical properties :
#
#
# Convention : Reuss Voigt Hill
#
# Bulk Modulus (GPa) = 14.96106 45.47975 30.22041
# Shear Modulus (GPa) = 17.29015 28.59759 22.94387
#
# Velocity S-wave (km/s) = 2.82286 3.63040 3.25179
# Velocity P-wave (km/s) = 4.18567 6.20752 5.29401
#
# Compressibility (1/GPa) = 0.06684016
#
# Stress axis : x y z
#
# Youngs Moduli (GPa) = 26.09627 45.96136 73.63827
#
# Poissons Ratio (x) = -0.42939 0.37992
# Poissons Ratio (y) = -0.24380 0.55903
# Poissons Ratio (z) = 0.13464 0.34892
#
# Static dielectric constant tensor:
#      x y z
#    x 3.917370 -0.238300 -0.218260 
#    y -0.238300 4.034820 -0.077030 
#    z -0.218260 -0.077030 3.966320 
# 
# 
# High freq. dielectric constant tensor:
#      x y z
#    x 1.849710 -0.013960 -0.017250 
#    y -0.013960 1.858780 -0.000530 
#    z -0.017250 -0.000530 1.846590 
# 
# From -- ./inp_files/205594.got.cif
#   From: 2010.06.25/outbox.cif.g09.slc.cpg/sg2_103_cif.got.tgz:205594.got - 2010.06.27 13:26:56.
