data_PCOD8007073
_publ_section_title
;
Structure prediction by ZEFSAII (Michael W. Deem and Ramdas Pophale) SiO2 
 PCOD8007073
Probable space group: P -1
;
_chemical_formula_sum "Si O2"
_cell_formula_units_Z 16
_cell_length_a 14.395723
_cell_length_b 15.671141
_cell_length_c 11.780331
_cell_angle_alpha 126.399561
_cell_angle_beta 31.263336
_cell_angle_gamma 147.698402
_cell_volume 652.300944
_symmetry_space_group_name_H-M "P -1"
_symmetry_group_IT_number 2
_symmetry_cell_setting 'triclinic'
loop_
_space_group_symop_operation_xyz
x,y,z
-x,-y,-z
loop_
_atom_site_type_symbol
_atom_site_label
_atom_site_fract_x
_atom_site_fract_y
_atom_site_fract_z
Si Si1 0.185184 0.699225 0.965927
Si Si2 0.696276 0.617148 0.496536
Si Si3 0.687246 0.169508 0.513496
Si Si4 0.446160 0.220997 0.179985
Si Si5 0.641596 0.701730 0.258052
Si Si6 0.795807 0.932998 0.921853
Si Si7 0.793724 0.713791 0.866230
Si Si8 0.887922 0.383790 0.263493
O O1 0.508977 0.832147 0.796563
O O2 0.017260 0.710826 0.221178
O O3 0.211897 0.742147 0.837680
O O4 0.000000 0.500000 0.000000
O O5 0.500000 0.500000 0.500000
O O6 0.499059 0.478423 0.699243
O O7 0.746390 0.766375 0.577429
O O8 0.473273 0.146662 0.785826
O O9 0.903830 0.333133 0.326862
O O10 0.905348 0.213568 0.409924
O O11 0.500000 0.000000 0.500000
O O12 0.265211 0.074150 0.153308
O O13 0.782127 0.409048 0.934070
O O14 0.361844 0.645511 0.491717
O O15 0.820781 0.779006 0.013941
O O16 0.878849 0.859336 0.227311
O O17 0.794518 0.805854 0.843952
O O18 0.500000 0.500000 0.000000
#
# Coordination Sequence:
#
# PCOD8007073 Si02
#       8
#     2   2   2   2   2   2   2   2
#     4  10  20  40  67 101 124 168 228 284 323 386
#     4  12  21  40  72  99 128 175 235 276 329 400
#     4  12  25  43  68  98 137 185 219 269 344 407
#     4  11  24  42  68 100 132 173 225 280 331 401
#     4  12  23  42  67  96 138 178 213 281 340 396
#     4  12  27  45  64 101 149 173 218 281 346 403
#     4  12  26  43  67 101 132 179 233 270 327 404
#     4  11  21  41  70  94 128 174 228 271 329 389
#
# _framework density 24.528556999999999
#
# number of rings (size 3 to 8) (size 9 to 14) (size 15 to 20)
#    0.000    0.500    7.500    3.375    1.750    2.000 
#    0.000    2.500    0.000    2.250    0.000    0.000 
#    0.000    0.000    0.000    0.000    0.000    0.000 
#
# Total GULP energy -198415.570804 kJ/mol
# GULP energy per Si atom -12400.973175 kJ/mol
# Density = 2.447273 g / cm^3
# Si number density = 24.528557 Si / 1000 Ang^3
#
#
#
# Elastic Constant Matrix: (Units=GPa)
#
#
# Indices 1 2 3 4 5 6 
#
# 1 93.2329 12.7991 30.3531 13.0759 -19.5400 17.6275
# 2 12.7991 65.7275 12.5915 8.0281 -16.7778 20.6668
# 3 30.3531 12.5915 100.6806 16.6834 -30.6663 -13.1340
# 4 13.0759 8.0281 16.6834 27.0812 6.0960 3.0119
# 5 -19.5400 -16.7778 -30.6663 6.0960 46.6377 1.0314
# 6 17.6275 20.6668 -13.1340 3.0119 1.0314 32.6728
#
#
#
# Elastic Compliance Matrix: (Units=1/GPa)
#
#
# Indices 1 2 3 4 5 6 
#
# 1 0.016144 0.004079 -0.003731 -0.006894 0.006953 -0.012374
# 2 0.004079 0.024109 -0.001978 -0.008293 0.010559 -0.017814
# 3 -0.003731 -0.001978 0.018293 -0.012664 0.011156 0.011433
# 4 -0.006894 -0.008293 -0.012664 0.055400 -0.021428 -0.000556
# 5 0.006953 0.010559 0.011156 -0.021428 0.038404 -0.005183
# 6 -0.012374 -0.017814 0.011433 -0.000556 -0.005183 0.053361
#
#
# Mechanical properties :
#
#
# Convention : Reuss Voigt Hill
#
# Bulk Modulus (GPa) = 18.08855 41.23650 29.66252
# Shear Modulus (GPa) = 21.98762 34.87150 28.42956
#
# Velocity S-wave (km/s) = 2.99726 3.77459 3.40816
# Velocity P-wave (km/s) = 4.40097 5.98706 5.25421
#
# Compressibility (1/GPa) = 0.05528360
#
# Stress axis : x y z
#
# Youngs Moduli (GPa) = 61.94157 41.47874 54.66719
#
# Poissons Ratio (x) = -0.16917 0.20398
# Poissons Ratio (y) = -0.25263 0.10814
# Poissons Ratio (z) = 0.23112 0.08205
#
# Static dielectric constant tensor:
#      x y z
#    x 0.433720 0.033780 -2.617810 
#    y 0.033780 4.220040 0.155360 
#    z -2.617810 0.155360 3.232520 
# 
# 
# High freq. dielectric constant tensor:
#      x y z
#    x 1.989480 0.007580 -0.010520 
#    y 0.007580 1.949170 0.006340 
#    z -0.010520 0.006340 1.986880 
# 
# From -- ./inp_files/456975.got.cif
#   From: 2010.06.25/outbox.cif.g09.slc.cpg/sg2_229_cif.got.tgz:456975.got - 2010.06.27 13:26:56.
