data_PCOD8007533
_publ_section_title
;
Structure prediction by ZEFSAII (Michael W. Deem and Ramdas Pophale) SiO2 
 PCOD8007533
Probable space group: P -1
;
_chemical_formula_sum "Si O2"
_cell_formula_units_Z 14
_cell_length_a 8.291215
_cell_length_b 9.953804
_cell_length_c 16.450839
_cell_angle_alpha 137.137421
_cell_angle_beta 67.012477
_cell_angle_gamma 136.154040
_cell_volume 611.668525
_symmetry_space_group_name_H-M "P -1"
_symmetry_group_IT_number 2
_symmetry_cell_setting 'triclinic'
loop_
_space_group_symop_operation_xyz
x,y,z
-x,-y,-z
loop_
_atom_site_type_symbol
_atom_site_label
_atom_site_fract_x
_atom_site_fract_y
_atom_site_fract_z
Si Si1 0.093256 0.641565 0.434953
Si Si2 0.062574 0.048512 0.603934
Si Si3 0.495959 0.893779 0.040633
Si Si4 0.334364 0.917889 0.658424
Si Si5 0.222566 0.815230 0.210713
Si Si6 0.046795 0.386187 0.177533
Si Si7 0.479220 0.438914 0.805175
O O1 0.926323 0.331872 0.361712
O O2 0.337889 0.837355 0.528928
O O3 0.139289 0.639533 0.329742
O O4 0.972366 0.763445 0.525712
O O5 0.354015 0.306027 0.681486
O O6 0.937066 0.115293 0.714270
O O7 0.000000 0.000000 0.500000
O O8 0.297640 0.847288 0.115804
O O9 0.407698 0.599589 0.921226
O O10 0.765646 0.110168 0.123486
O O11 0.500000 0.000000 0.000000
O O12 0.533645 0.955010 0.685147
O O13 0.377706 0.188781 0.774624
O O14 0.086976 0.508923 0.133780
O O15 0.223976 0.344386 0.151930
#
# Coordination Sequence:
#
# PCOD8007533 Si02
#       7
#     2   2   2   2   2   2   2
#     4  10  20  41  65 103 144 168 232 279 337 417
#     4  11  23  40  71 105 140 183 224 278 355 414
#     4  12  27  49  69 101 141 180 237 286 341 413
#     4   9  21  40  67 101 132 181 225 283 336 406
#     4  11  24  44  71 101 141 184 226 283 349 404
#     4  11  23  44  72 101 137 183 231 283 341 407
#     4  10  25  44  68  99 134 186 227 284 341 400
#
# _framework density 22.888216
#
# number of rings (size 3 to 8) (size 9 to 14) (size 15 to 20)
#    0.000    1.429    2.857    1.286    2.000    6.857 
#   10.286    0.000    0.000    0.000    0.000    0.000 
#    0.000    0.000    0.000    0.000    0.000    0.000 
#
# Total GULP energy -173439.232431 kJ/mol
# GULP energy per Si atom -12388.516602 kJ/mol
# Density = 2.283612 g / cm^3
# Si number density = 22.888216 Si / 1000 Ang^3
#
#
#
# Elastic Constant Matrix: (Units=GPa)
#
#
# Indices 1 2 3 4 5 6 
#
# 1 94.9436 14.8430 46.3445 -8.8984 -2.7992 -5.4007
# 2 14.8430 68.4783 38.2233 -9.9734 0.0465 -7.0336
# 3 46.3445 38.2233 116.6356 -8.5003 -5.4774 -4.6308
# 4 -8.8984 -9.9734 -8.5003 40.2903 0.0556 1.7508
# 5 -2.7992 0.0465 -5.4774 0.0556 40.7751 -1.0290
# 6 -5.4007 -7.0336 -4.6308 1.7508 -1.0290 25.9321
#
#
#
# Elastic Compliance Matrix: (Units=1/GPa)
#
#
# Indices 1 2 3 4 5 6 
#
# 1 0.013293 0.000497 -0.005223 0.001876 0.000255 0.001854
# 2 0.000497 0.018705 -0.005965 0.003315 -0.000696 0.003860
# 3 -0.005223 -0.005965 0.012655 0.000055 0.001338 -0.000396
# 4 0.001876 0.003315 0.000055 0.026086 0.000085 -0.000458
# 5 0.000255 -0.000696 0.001338 0.000085 0.024750 0.001080
# 6 0.001854 0.003860 -0.000396 -0.000458 0.001080 0.039998
#
#
# Mechanical properties :
#
#
# Convention : Reuss Voigt Hill
#
# Bulk Modulus (GPa) = 42.97079 53.20882 48.08980
# Shear Modulus (GPa) = 30.37198 33.44261 31.90729
#
# Velocity S-wave (km/s) = 3.64671 3.82662 3.73775
# Velocity P-wave (km/s) = 6.04535 6.54383 6.29952
#
# Compressibility (1/GPa) = 0.02327162
#
# Stress axis : x y z
#
# Youngs Moduli (GPa) = 75.22817 53.46210 79.02071
#
# Poissons Ratio (x) = -0.02659 0.41269
# Poissons Ratio (y) = -0.03741 0.47138
# Poissons Ratio (z) = 0.39288 0.31892
#
# Static dielectric constant tensor:
#      x y z
#    x 4.439650 0.066130 0.263180 
#    y 0.066130 3.928230 0.115010 
#    z 0.263180 0.115010 4.234480 
# 
# 
# High freq. dielectric constant tensor:
#      x y z
#    x 1.916100 0.000330 0.018820 
#    y 0.000330 1.881960 0.015750 
#    z 0.018820 0.015750 1.905840 
# 
# From -- ./inp_files/415340.got.cif
#   From: 2010.06.25/outbox.cif.g09.slc.cpg/sg2_208_cif.got.tgz:415340.got - 2010.06.27 13:26:56.
