data_PCOD8007924
_publ_section_title
;
Structure prediction by ZEFSAII (Michael W. Deem and Ramdas Pophale) SiO2 
 PCOD8007924
Probable space group: P -1
;
_chemical_formula_sum "Si O2"
_cell_formula_units_Z 16
_cell_length_a 15.000559
_cell_length_b 16.386088
_cell_length_c 6.221072
_cell_angle_alpha 96.624172
_cell_angle_beta 108.948696
_cell_angle_gamma 31.726880
_cell_volume 719.690179
_symmetry_space_group_name_H-M "P -1"
_symmetry_group_IT_number 2
_symmetry_cell_setting 'triclinic'
loop_
_space_group_symop_operation_xyz
x,y,z
-x,-y,-z
loop_
_atom_site_type_symbol
_atom_site_label
_atom_site_fract_x
_atom_site_fract_y
_atom_site_fract_z
Si Si1 0.167004 0.737730 0.384962
Si Si2 0.831804 0.372135 0.019098
Si Si3 0.865298 0.634261 0.615709
Si Si4 0.947980 0.425191 0.862443
Si Si5 0.537704 0.555979 0.163052
Si Si6 0.141576 0.086305 0.481470
Si Si7 0.311410 0.118506 0.762832
Si Si8 0.190570 0.878921 0.235022
O O1 0.165785 0.718837 0.121455
O O2 0.336356 0.560229 0.568565
O O3 0.205556 0.806948 0.432939
O O4 0.970999 0.863843 0.386025
O O5 0.834787 0.428217 0.827438
O O6 0.649039 0.528044 0.068270
O O7 0.010499 0.242557 0.277106
O O8 0.802941 0.599933 0.692452
O O9 0.697101 0.815085 0.434523
O O10 0.000000 0.500000 0.500000
O O11 0.989691 0.594348 0.859266
O O12 0.129490 0.271896 0.812531
O O13 0.356154 0.742552 0.150202
O O14 0.500000 0.500000 0.000000
O O15 0.308321 0.023627 0.666683
O O16 0.213527 0.954608 0.360849
O O17 0.500000 0.000000 0.000000
O O18 0.000000 0.000000 0.000000
#
# Coordination Sequence:
#
# PCOD8007924 Si02
#       8
#     2   2   2   2   2   2   2   2
#     4  11  22  43  71  93 134 183 227 279 338 400
#     4  11  21  41  72  97 130 182 233 278 332 409
#     4   9  20  39  69  97 122 167 232 279 339 399
#     4  10  20  41  72  92 128 175 231 285 339 400
#     4  11  24  41  66 101 135 180 231 276 334 411
#     4  11  23  41  68 102 134 182 230 280 348 419
#     4  11  23  41  69  98 140 180 222 283 356 420
#     4  12  23  43  70 100 140 181 221 280 345 410
#
# _framework density 22.231788999999999
#
# number of rings (size 3 to 8) (size 9 to 14) (size 15 to 20)
#    0.000    1.250    5.000    1.500    0.000    0.500 
#    0.000    5.000   11.000    0.000    0.000    0.000 
#    0.000    0.000    0.000    0.000    0.000    0.000 
#
# Total GULP energy -198267.327922 kJ/mol
# GULP energy per Si atom -12391.707995 kJ/mol
# Density = 2.218119 g / cm^3
# Si number density = 22.231789 Si / 1000 Ang^3
#
#
#
# Elastic Constant Matrix: (Units=GPa)
#
#
# Indices 1 2 3 4 5 6 
#
# 1 151.6817 66.0309 50.8349 -7.5931 -10.6387 9.6563
# 2 66.0309 128.7919 46.9630 10.6435 3.7135 -1.3485
# 3 50.8349 46.9630 114.5018 4.3055 5.8156 2.5254
# 4 -7.5931 10.6435 4.3055 33.3530 5.1599 3.5543
# 5 -10.6387 3.7135 5.8156 5.1599 48.0447 5.2327
# 6 9.6563 -1.3485 2.5254 3.5543 5.2327 29.0953
#
#
#
# Elastic Compliance Matrix: (Units=1/GPa)
#
#
# Indices 1 2 3 4 5 6 
#
# 1 0.010318 -0.004733 -0.002854 0.004235 0.003027 -0.004458
# 2 -0.004733 0.011537 -0.002453 -0.004546 -0.001497 0.003143
# 3 -0.002854 -0.002453 0.011127 -0.001072 -0.001707 0.000306
# 4 0.004235 -0.004546 -0.001072 0.033346 -0.001584 -0.005312
# 5 0.003027 -0.001497 -0.001707 -0.001584 0.022497 -0.004778
# 6 -0.004458 0.003143 0.000306 -0.005312 -0.004778 0.037477
#
#
# Mechanical properties :
#
#
# Convention : Reuss Voigt Hill
#
# Bulk Modulus (GPa) = 77.50951 80.29254 78.90102
# Shear Modulus (GPa) = 33.18224 37.50839 35.34532
#
# Velocity S-wave (km/s) = 3.86756 4.11195 3.99162
# Velocity P-wave (km/s) = 7.40837 7.66412 7.53733
#
# Compressibility (1/GPa) = 0.01290164
#
# Stress axis : x y z
#
# Youngs Moduli (GPa) = 96.92067 86.67543 89.87116
#
# Poissons Ratio (x) = 0.41023 0.25650
# Poissons Ratio (y) = 0.45872 0.22046
# Poissons Ratio (z) = 0.27662 0.21262
#
# Static dielectric constant tensor:
#      x y z
#    x 4.456820 0.261690 -0.129730 
#    y 0.261690 3.744830 0.208680 
#    z -0.129730 0.208680 4.208660 
# 
# 
# High freq. dielectric constant tensor:
#      x y z
#    x 1.882590 0.013610 -0.009690 
#    y 0.013610 1.853160 0.020550 
#    z -0.009690 0.020550 1.885950 
# 
# From -- ./inp_files/99844.got.cif
#   From: 2010.06.25/outbox.cif.g09.slc.cpg/sg2_50_cif.got.tgz:99844.got - 2010.06.27 13:26:56.
