data_PCOD8007633
_publ_section_title
;
Structure prediction by ZEFSAII (Michael W. Deem and Ramdas Pophale) SiO2 
 PCOD8007633
Probable space group: P -1
;
_chemical_formula_sum "Si O2"
_cell_formula_units_Z 16
_cell_length_a 11.546171
_cell_length_b 9.276899
_cell_length_c 11.639774
_cell_angle_alpha 118.084324
_cell_angle_beta 88.167996
_cell_angle_gamma 131.214331
_cell_volume 751.238729
_symmetry_space_group_name_H-M "P -1"
_symmetry_group_IT_number 2
_symmetry_cell_setting 'triclinic'
loop_
_space_group_symop_operation_xyz
x,y,z
-x,-y,-z
loop_
_atom_site_type_symbol
_atom_site_label
_atom_site_fract_x
_atom_site_fract_y
_atom_site_fract_z
Si Si1 0.848047 0.555505 0.614241
Si Si2 0.692719 0.560533 0.049776
Si Si3 0.517988 0.710502 0.441883
Si Si4 0.862578 0.364523 0.324285
Si Si5 0.043497 0.991068 0.125079
Si Si6 0.387689 0.166499 0.771115
Si Si7 0.626838 0.795788 0.714021
Si Si8 0.392268 0.746614 0.857376
O O1 0.646798 0.337595 0.566686
O O2 0.892252 0.544637 0.479172
O O3 0.962265 0.547046 0.683116
O O4 0.917183 0.809778 0.723971
O O5 0.679629 0.742520 0.126967
O O6 0.631725 0.427553 0.122035
O O7 0.887741 0.725544 0.078690
O O8 0.585239 0.364315 0.877264
O O9 0.621532 0.842079 0.370349
O O10 0.646482 0.864472 0.603955
O O11 0.451679 0.460720 0.359751
O O12 0.791330 0.371586 0.213907
O O13 0.722287 0.097492 0.281170
O O14 0.199646 0.024964 0.149477
O O15 0.000000 0.000000 0.000000
O O16 0.493383 0.790463 0.759922
O O17 0.500000 0.000000 0.000000
#
# Coordination Sequence:
#
# PCOD8007633 Si02
#       8
#     2   2   2   2   2   2   2   2
#     4  10  22  41  64  93 129 171 216 261 329 385
#     4  11  23  41  65 101 127 171 227 263 328 394
#     4  10  20  41  66  91 127 170 222 265 318 388
#     4  11  23  42  64  97 134 173 212 270 338 381
#     4  11  24  42  69  98 131 172 223 270 321 392
#     4  11  22  40  68  96 126 172 226 269 315 403
#     4  10  22  41  63  95 128 174 210 268 331 381
#     4  12  24  43  67  94 136 174 215 275 330 392
#
# _framework density 21.298157
#
# number of rings (size 3 to 8) (size 9 to 14) (size 15 to 20)
#    0.000    1.250    5.000    1.500    3.500    0.500 
#    4.500    1.875    0.000    0.000    0.000    0.000 
#    0.000    0.000    0.000    0.000    0.000    0.000 
#
# Total GULP energy -198308.486976 kJ/mol
# GULP energy per Si atom -12394.280436 kJ/mol
# Density = 2.124968 g / cm^3
# Si number density = 21.298157 Si / 1000 Ang^3
#
#
#
# Elastic Constant Matrix: (Units=GPa)
#
#
# Indices 1 2 3 4 5 6 
#
# 1 112.1650 4.0495 33.5189 -2.6968 23.1081 0.7133
# 2 4.0495 63.5555 27.9972 -7.6426 3.2847 -0.1038
# 3 33.5189 27.9972 88.3678 -8.7183 19.0854 -6.7778
# 4 -2.6968 -7.6426 -8.7183 30.6075 -2.8928 3.5720
# 5 23.1081 3.2847 19.0854 -2.8928 43.6533 0.5136
# 6 0.7133 -0.1038 -6.7778 3.5720 0.5136 24.8144
#
#
#
# Elastic Compliance Matrix: (Units=1/GPa)
#
#
# Indices 1 2 3 4 5 6 
#
# 1 0.010843 0.001130 -0.003659 -0.000062 -0.004215 -0.001210
# 2 0.001130 0.018855 -0.006474 0.003323 0.001060 -0.002222
# 3 -0.003659 -0.006474 0.016260 0.001747 -0.004621 0.004364
# 4 -0.000062 0.003323 0.001747 0.034651 0.001369 -0.004524
# 5 -0.004215 0.001060 -0.004621 0.001369 0.027192 -0.001896
# 6 -0.001210 -0.002222 0.004364 -0.004524 -0.001896 0.042207
#
#
# Mechanical properties :
#
#
# Convention : Reuss Voigt Hill
#
# Bulk Modulus (GPa) = 35.77666 43.91327 39.84497
# Shear Modulus (GPa) = 28.19558 33.04987 30.62273
#
# Velocity S-wave (km/s) = 3.64242 3.94353 3.79596
# Velocity P-wave (km/s) = 5.87572 6.43415 6.16127
#
# Compressibility (1/GPa) = 0.02795118
#
# Stress axis : x y z
#
# Youngs Moduli (GPa) = 92.22813 53.03537 61.49918
#
# Poissons Ratio (x) = -0.05990 0.22504
# Poissons Ratio (y) = -0.10417 0.39814
# Poissons Ratio (z) = 0.33749 0.34334
#
# Static dielectric constant tensor:
#      x y z
#    x 3.992820 -0.027380 0.330340 
#    y -0.027380 3.336450 0.106430 
#    z 0.330340 0.106430 4.024210 
# 
# 
# High freq. dielectric constant tensor:
#      x y z
#    x 1.844420 -0.000870 0.008660 
#    y -0.000870 1.801860 -0.000420 
#    z 0.008660 -0.000420 1.847690 
# 
# From -- ./inp_files/189993.got.cif
#   From: 2010.06.25/outbox.cif.g09.slc.cpg/sg2_95_cif.got.tgz:189993.got - 2010.06.27 13:26:56.
