data_PCOD8007351
_publ_section_title
;
Structure prediction by ZEFSAII (Michael W. Deem and Ramdas Pophale) SiO2 
 PCOD8007351
Probable space group: P -1
;
_chemical_formula_sum "Si O2"
_cell_formula_units_Z 16
_cell_length_a 7.646180
_cell_length_b 8.368566
_cell_length_c 14.548510
_cell_angle_alpha 106.552363
_cell_angle_beta 83.995728
_cell_angle_gamma 55.822044
_cell_volume 695.913510
_symmetry_space_group_name_H-M "P -1"
_symmetry_group_IT_number 2
_symmetry_cell_setting 'triclinic'
loop_
_space_group_symop_operation_xyz
x,y,z
-x,-y,-z
loop_
_atom_site_type_symbol
_atom_site_label
_atom_site_fract_x
_atom_site_fract_y
_atom_site_fract_z
Si Si1 0.844267 0.020126 0.844558
Si Si2 0.711122 0.261232 0.460621
Si Si3 0.102429 0.223378 0.367860
Si Si4 0.030009 0.448973 0.700909
Si Si5 0.138257 0.093623 0.744934
Si Si6 0.932917 0.703729 0.920623
Si Si7 0.532434 0.127488 0.589938
Si Si8 0.672085 0.739469 0.109162
O O1 0.578106 0.183795 0.870604
O O2 0.957790 0.133392 0.836916
O O3 0.956675 0.832762 0.733212
O O4 0.914858 0.908876 0.923480
O O5 0.500000 0.500000 0.500000
O O6 0.688724 0.176570 0.544275
O O7 0.924928 0.258261 0.457414
O O8 0.719591 0.133770 0.350172
O O9 0.070512 0.439018 0.376393
O O10 0.349629 0.028777 0.354816
O O11 0.010347 0.263502 0.694785
O O12 0.295082 0.344247 0.669583
O O13 0.891125 0.620476 0.817479
O O14 0.296377 0.135388 0.794591
O O15 0.172553 0.513541 0.920346
O O16 0.733396 0.782595 0.014784
O O17 0.500000 0.000000 0.500000
#
# Coordination Sequence:
#
# PCOD8007351 Si02
#       8
#     2   2   2   2   2   2   2   2
#     4  10  21  39  63  89 126 160 204 253 305 364
#     4  11  22  41  61  91 123 160 208 256 301 364
#     4  10  22  39  62  87 120 162 201 253 310 356
#     4  10  20  41  61  87 128 156 205 251 304 363
#     4  10  22  40  64  94 125 160 212 255 297 374
#     4   9  20  38  64  93 123 162 203 253 305 370
#     4  12  23  39  63  88 121 162 207 250 306 367
#     4  10  20  41  66  88 126 164 199 254 316 354
#
# _framework density 22.991363
#
# number of rings (size 3 to 8) (size 9 to 14) (size 15 to 20)
#    0.000    1.750    2.500    2.250    0.000    1.000 
#    0.000   10.625    2.750    0.000    0.000    0.000 
#    0.000    0.000    0.000    0.000    0.000    0.000 
#
# Total GULP energy -198242.631812 kJ/mol
# GULP energy per Si atom -12390.164488 kJ/mol
# Density = 2.293903 g / cm^3
# Si number density = 22.991363 Si / 1000 Ang^3
#
#
#
# Elastic Constant Matrix: (Units=GPa)
#
#
# Indices 1 2 3 4 5 6 
#
# 1 69.5411 44.8561 27.5301 -10.6053 -28.0128 6.2646
# 2 44.8561 171.7386 33.0992 -33.9924 -21.3139 3.8735
# 3 27.5301 33.0992 77.6716 -9.4331 -20.4610 7.5277
# 4 -10.6053 -33.9924 -9.4331 44.9655 9.3890 -10.9015
# 5 -28.0128 -21.3139 -20.4610 9.3890 38.6416 -6.4830
# 6 6.2646 3.8735 7.5277 -10.9015 -6.4830 31.0456
#
#
#
# Elastic Compliance Matrix: (Units=1/GPa)
#
#
# Indices 1 2 3 4 5 6 
#
# 1 0.023521 -0.004122 -0.003137 -0.001269 0.013231 -0.001154
# 2 -0.004122 0.008213 -0.001659 0.005454 -0.000316 0.002058
# 3 -0.003137 -0.001659 0.016216 -0.000160 0.005086 -0.002086
# 4 -0.001269 0.005454 -0.000160 0.028957 -0.003514 0.009049
# 5 0.013231 -0.000316 0.005086 -0.003514 0.039367 0.003123
# 6 -0.001154 0.002058 -0.002086 0.009049 0.003123 0.036522
#
#
# Mechanical properties :
#
#
# Convention : Reuss Voigt Hill
#
# Bulk Modulus (GPa) = 33.20772 58.88024 46.04398
# Shear Modulus (GPa) = 27.67467 37.16163 32.41815
#
# Velocity S-wave (km/s) = 3.47320 4.02472 3.75909
# Velocity P-wave (km/s) = 5.52803 6.87482 6.23788
#
# Compressibility (1/GPa) = 0.03011348
#
# Stress axis : x y z
#
# Youngs Moduli (GPa) = 42.51530 121.75916 61.66622
#
# Poissons Ratio (x) = 0.50187 0.19345
# Poissons Ratio (y) = 0.17524 0.10233
# Poissons Ratio (z) = 0.13337 0.20205
#
# Static dielectric constant tensor:
#      x y z
#    x 3.883780 0.616940 -0.549760 
#    y 0.616940 4.449110 -0.299670 
#    z -0.549760 -0.299670 4.315090 
# 
# 
# High freq. dielectric constant tensor:
#      x y z
#    x 1.871100 0.012770 -0.032000 
#    y 0.012770 1.922370 -0.012970 
#    z -0.032000 -0.012970 1.915160 
# 
# From -- ./inp_files/493168.got.cif
#   From: 2010.06.25/outbox.cif.g09.slc.cpg/sg2_247_cif.got.tgz:493168.got - 2010.06.27 13:26:56.
