data_PCOD8007174
_publ_section_title
;
Structure prediction by ZEFSAII (Michael W. Deem and Ramdas Pophale) SiO2 
 PCOD8007174
Probable space group: P -1
;
_chemical_formula_sum "Si O2"
_cell_formula_units_Z 14
_cell_length_a 7.095225
_cell_length_b 22.797963
_cell_length_c 6.889990
_cell_angle_alpha 143.321153
_cell_angle_beta 118.524744
_cell_angle_gamma 52.832302
_cell_volume 530.439075
_symmetry_space_group_name_H-M "P -1"
_symmetry_group_IT_number 2
_symmetry_cell_setting 'triclinic'
loop_
_space_group_symop_operation_xyz
x,y,z
-x,-y,-z
loop_
_atom_site_type_symbol
_atom_site_label
_atom_site_fract_x
_atom_site_fract_y
_atom_site_fract_z
Si Si1 0.658491 0.046915 0.310492
Si Si2 0.945029 0.767969 0.127082
Si Si3 0.829824 0.002213 0.696205
Si Si4 0.587355 0.571961 0.028274
Si Si5 0.485528 0.770135 0.762722
Si Si6 0.425732 0.724003 0.046394
Si Si7 0.867145 0.446989 0.163594
O O1 0.534383 0.176898 0.574962
O O2 0.922237 0.993934 0.215408
O O3 0.671696 0.017926 0.467991
O O4 0.500000 0.000000 0.000000
O O5 0.865825 0.886943 0.500219
O O6 0.168724 0.733248 0.004439
O O7 0.748044 0.762734 0.872702
O O8 0.986918 0.683193 0.100480
O O9 0.694641 0.104795 0.044499
O O10 0.455289 0.690603 0.380085
O O11 0.623335 0.607923 0.921420
O O12 0.831530 0.493778 0.048332
O O13 0.401673 0.517243 0.792931
O O14 0.431302 0.729094 0.832749
O O15 0.000000 0.500000 0.500000
#
# Coordination Sequence:
#
# PCOD8007174 Si02
#       7
#     2   2   2   2   2   2   2
#     4   9  18  35  59  87 130 168 209 251 310 382
#     4  10  20  40  68  85 132 173 201 263 324 359
#     4   9  20  37  57  94 130 165 204 260 314 370
#     4  10  22  41  68  91 126 170 209 265 325 362
#     4  11  21  41  68  96 129 165 216 260 313 388
#     4   9  22  42  59  96 130 162 213 267 308 382
#     4  10  20  41  66  90 127 167 211 268 313 375
#
# _framework density 26.393229000000002
#
# number of rings (size 3 to 8) (size 9 to 14) (size 15 to 20)
#    0.000    2.286    1.429    1.286    2.000    0.000 
#   10.286   10.714    0.000    0.000    0.000    0.000 
#    0.000    0.000    0.000    0.000    0.000    0.000 
#
# Total GULP energy -173554.827301 kJ/mol
# GULP energy per Si atom -12396.773379 kJ/mol
# Density = 2.633316 g / cm^3
# Si number density = 26.393229 Si / 1000 Ang^3
#
#
#
# Elastic Constant Matrix: (Units=GPa)
#
#
# Indices 1 2 3 4 5 6 
#
# 1 26.9339 12.2352 30.3552 -0.4032 11.9305 8.8721
# 2 12.2352 133.7186 40.1954 27.4806 16.9227 4.8116
# 3 30.3552 40.1954 118.1615 -0.2215 23.2430 -0.9075
# 4 -0.4032 27.4806 -0.2215 54.7590 -6.6858 11.6403
# 5 11.9305 16.9227 23.2430 -6.6858 24.7335 4.9004
# 6 8.8721 4.8116 -0.9075 11.6403 4.9004 30.9881
#
#
#
# Elastic Compliance Matrix: (Units=1/GPa)
#
#
# Indices 1 2 3 4 5 6 
#
# 1 0.065115 0.000242 -0.014166 0.002351 -0.014110 -0.017747
# 2 0.000242 0.010270 -0.002128 -0.006436 -0.007247 0.001838
# 3 -0.014166 -0.002128 0.014162 -0.001110 -0.006559 0.006255
# 4 0.002351 -0.006436 -0.001110 0.025587 0.013498 -0.011452
# 5 -0.014110 -0.007247 -0.006559 0.013498 0.064033 -0.010223
# 6 -0.017747 0.001838 0.006255 -0.011452 -0.010223 0.043168
#
#
# Mechanical properties :
#
#
# Convention : Reuss Voigt Hill
#
# Bulk Modulus (GPa) = 17.40894 49.37617 33.39256
# Shear Modulus (GPa) = 18.27564 35.16468 26.72016
#
# Velocity S-wave (km/s) = 2.63427 3.65408 3.18525
# Velocity P-wave (km/s) = 3.98282 6.04579 5.11930
#
# Compressibility (1/GPa) = 0.05744176
#
# Stress axis : x y z
#
# Youngs Moduli (GPa) = 15.35739 97.37411 70.61038
#
# Poissons Ratio (x) = -0.02352 1.00029
# Poissons Ratio (y) = -0.00371 0.15025
# Poissons Ratio (z) = 0.21756 0.20720
#
# Static dielectric constant tensor:
#      x y z
#    x 4.625260 0.053830 0.301630 
#    y 0.053830 5.491780 0.404640 
#    z 0.301630 0.404640 4.672830 
# 
# 
# High freq. dielectric constant tensor:
#      x y z
#    x 2.038430 -0.000870 0.030470 
#    y -0.000870 2.083350 0.009640 
#    z 0.030470 0.009640 2.050880 
# 
# From -- ./inp_files/227679.got.cif
#   From: 2010.06.25/outbox.cif.g09.slc.cpg/sg2_114_cif.got.tgz:227679.got - 2010.06.27 13:26:56.
