data_PCOD8007296
_publ_section_title
;
Structure prediction by ZEFSAII (Michael W. Deem and Ramdas Pophale) SiO2 
 PCOD8007296
Probable space group: P -1
;
_chemical_formula_sum "Si O2"
_cell_formula_units_Z 14
_cell_length_a 16.255756
_cell_length_b 5.642165
_cell_length_c 18.461008
_cell_angle_alpha 47.217609
_cell_angle_beta 29.947843
_cell_angle_gamma 57.183295
_cell_volume 615.340185
_symmetry_space_group_name_H-M "P -1"
_symmetry_group_IT_number 2
_symmetry_cell_setting 'triclinic'
loop_
_space_group_symop_operation_xyz
x,y,z
-x,-y,-z
loop_
_atom_site_type_symbol
_atom_site_label
_atom_site_fract_x
_atom_site_fract_y
_atom_site_fract_z
Si Si1 0.955142 0.612874 0.803955
Si Si2 0.081066 0.345584 0.899399
Si Si3 0.210625 0.378313 0.290059
Si Si4 0.400106 0.422330 0.282502
Si Si5 0.125384 0.659740 0.511738
Si Si6 0.676766 0.001166 0.140105
Si Si7 0.332994 0.028963 0.008718
O O1 0.845557 0.903514 0.839384
O O2 0.075821 0.599204 0.784673
O O3 0.067570 0.691253 0.631649
O O4 0.832897 0.280001 0.956281
O O5 0.268864 0.287782 0.790930
O O6 0.000000 0.500000 0.000000
O O7 0.000000 0.000000 0.000000
O O8 0.267597 0.377622 0.328848
O O9 0.026042 0.477536 0.396949
O O10 0.339379 0.640409 0.092828
O O11 0.206230 0.007522 0.343173
O O12 0.276270 0.437913 0.442292
O O13 0.511105 0.130286 0.270747
O O14 0.520047 0.756223 0.105158
O O15 0.638303 0.858530 0.119407
#
# Coordination Sequence:
#
# PCOD8007296 Si02
#       7
#     2   2   2   2   2   2   2
#     4  10  22  39  66  97 126 168 218 277 333 395
#     4  10  20  40  71 103 130 170 224 284 336 401
#     4  11  25  41  63  89 130 180 224 264 324 397
#     4  11  25  40  61  92 135 174 216 275 330 392
#     4  11  25  41  61  93 133 175 218 268 333 400
#     4  10  21  41  64  97 128 165 219 277 332 395
#     4  11  22  40  65  92 128 168 225 272 323 392
#
# _framework density 22.751643000000001
#
# number of rings (size 3 to 8) (size 9 to 14) (size 15 to 20)
#    0.000    1.429    2.857    1.714    6.000    2.286 
#    0.000    0.714    0.000    3.429    0.000    0.000 
#    0.000    0.000    0.000    0.000    0.000    0.000 
#
# Total GULP energy -173434.877813 kJ/mol
# GULP energy per Si atom -12388.205558 kJ/mol
# Density = 2.269986 g / cm^3
# Si number density = 22.751643 Si / 1000 Ang^3
#
#
#
# Elastic Constant Matrix: (Units=GPa)
#
#
# Indices 1 2 3 4 5 6 
#
# 1 115.8285 57.8036 48.9848 20.7282 -2.1064 -9.7767
# 2 57.8036 108.7166 57.6113 38.8258 -9.4509 -3.2851
# 3 48.9848 57.6113 63.3698 30.5047 -6.8501 -12.8903
# 4 20.7282 38.8258 30.5047 52.2333 6.3235 -10.0445
# 5 -2.1064 -9.4509 -6.8501 6.3235 21.7308 -1.8707
# 6 -9.7767 -3.2851 -12.8903 -10.0445 -1.8707 32.3626
#
#
#
# Elastic Compliance Matrix: (Units=1/GPa)
#
#
# Indices 1 2 3 4 5 6 
#
# 1 0.013872 -0.004380 -0.008673 0.003548 -0.004228 0.001149
# 2 -0.004380 0.022044 -0.012687 -0.009401 0.007328 -0.006633
# 3 -0.008673 -0.012687 0.042929 -0.011613 0.011435 0.010248
# 4 0.003548 -0.009401 -0.011613 0.034574 -0.017015 0.005240
# 5 -0.004228 0.007328 0.011435 -0.017015 0.057529 0.002066
# 6 0.001149 -0.006633 0.010248 0.005240 0.002066 0.036401
#
#
# Mechanical properties :
#
#
# Convention : Reuss Voigt Hill
#
# Bulk Modulus (GPa) = 36.54115 68.52381 52.53248
# Shear Modulus (GPa) = 18.66024 29.49969 24.07997
#
# Velocity S-wave (km/s) = 2.86697 3.60473 3.25681
# Velocity P-wave (km/s) = 5.20145 6.89268 6.10590
#
# Compressibility (1/GPa) = 0.02736641
#
# Stress axis : x y z
#
# Youngs Moduli (GPa) = 72.08786 45.36396 23.29420
#
# Poissons Ratio (x) = 0.19868 0.20202
# Poissons Ratio (y) = 0.31573 0.29553
# Poissons Ratio (z) = 0.62519 0.57553
#
# Static dielectric constant tensor:
#      x y z
#    x 4.432270 -0.169190 -0.235430 
#    y -0.169190 4.359000 0.056010 
#    z -0.235430 0.056010 3.732700 
# 
# 
# High freq. dielectric constant tensor:
#      x y z
#    x 1.904730 0.005650 -0.020760 
#    y 0.005650 1.905380 0.008950 
#    z -0.020760 0.008950 1.861820 
# 
# From -- ./inp_files/34287.got.cif
#   From: 2010.06.25/outbox.cif.g09.slc.cpg/sg2_18_cif.got.tgz:34287.got - 2010.06.27 13:26:56.
