data_PCOD8007238
_publ_section_title
;
Structure prediction by ZEFSAII (Michael W. Deem and Ramdas Pophale) SiO2 
 PCOD8007238
Probable space group: P -1
;
_chemical_formula_sum "Si O2"
_cell_formula_units_Z 14
_cell_length_a 19.147311
_cell_length_b 13.006226
_cell_length_c 8.705682
_cell_angle_alpha 69.354450
_cell_angle_beta 87.839036
_cell_angle_gamma 26.924074
_cell_volume 695.812567
_symmetry_space_group_name_H-M "P -1"
_symmetry_group_IT_number 2
_symmetry_cell_setting 'triclinic'
loop_
_space_group_symop_operation_xyz
x,y,z
-x,-y,-z
loop_
_atom_site_type_symbol
_atom_site_label
_atom_site_fract_x
_atom_site_fract_y
_atom_site_fract_z
Si Si1 0.274681 0.315517 0.100181
Si Si2 0.616306 0.646530 0.535633
Si Si3 0.019002 0.390818 0.196783
Si Si4 0.226648 0.082875 0.884135
Si Si5 0.457864 0.891804 0.750781
Si Si6 0.575384 0.265915 0.623940
Si Si7 0.884660 0.438789 0.683858
O O1 0.388247 0.261559 0.077465
O O2 0.133857 0.540382 0.142023
O O3 0.435933 0.982923 0.298989
O O4 0.133183 0.488136 0.878256
O O5 0.573447 0.684159 0.697468
O O6 0.617158 0.529833 0.505398
O O7 0.829740 0.399895 0.636074
O O8 0.947558 0.564654 0.261138
O O9 0.253737 0.004338 0.382779
O O10 0.000000 0.500000 0.000000
O O11 0.115351 0.139616 0.790170
O O12 0.393104 0.880178 0.857121
O O13 0.337803 0.888398 0.134629
O O14 0.267792 0.247486 0.537254
O O15 0.500000 0.500000 0.500000
#
# Coordination Sequence:
#
# PCOD8007238 Si02
#       7
#     2   2   2   2   2   2   2
#     4   9  14  30  51  81 104 136 161 213 262 312
#     4   9  17  34  52  77 109 137 166 213 264 311
#     4  10  16  30  55  76 104 130 177 214 256 299
#     4  11  19  33  56  86 104 131 177 220 256 310
#     4   9  19  28  54  86 113 126 166 219 273 303
#     4  11  22  36  55  75 102 145 184 212 251 312
#     4   9  16  29  52  78 109 134 165 209 265 312
#
# _framework density 20.120360999999999
#
# number of rings (size 3 to 8) (size 9 to 14) (size 15 to 20)
#    0.000    2.286    5.714    3.000    0.000    0.571 
#    0.000    1.429    0.000    0.857    0.000    0.000 
#    0.000    0.000    0.000    0.000    0.000    0.000 
#
# Total GULP energy -173466.519144 kJ/mol
# GULP energy per Si atom -12390.465653 kJ/mol
# Density = 2.007457 g / cm^3
# Si number density = 20.120361 Si / 1000 Ang^3
#
#
#
# Elastic Constant Matrix: (Units=GPa)
#
#
# Indices 1 2 3 4 5 6 
#
# 1 206.2844 34.9416 51.9832 -0.7484 38.0408 -13.0988
# 2 34.9416 31.0189 15.4537 -3.9876 -6.6536 -8.3826
# 3 51.9832 15.4537 42.0167 2.4324 12.0928 -1.1391
# 4 -0.7484 -3.9876 2.4324 10.5142 2.3546 -4.8089
# 5 38.0408 -6.6536 12.0928 2.3546 38.4958 -0.0213
# 6 -13.0988 -8.3826 -1.1391 -4.8089 -0.0213 35.1003
#
#
#
# Elastic Compliance Matrix: (Units=1/GPa)
#
#
# Indices 1 2 3 4 5 6 
#
# 1 0.009831 -0.009737 -0.005839 0.001109 -0.009631 0.001300
# 2 -0.009737 0.068464 -0.022159 0.031969 0.026470 0.016394
# 3 -0.005839 -0.022159 0.043100 -0.020540 -0.010348 -0.008892
# 4 0.001109 0.031969 -0.020540 0.122344 0.003412 0.024146
# 5 -0.009631 0.026470 -0.010348 0.003412 0.043112 0.002885
# 6 0.001300 0.016394 -0.008892 0.024146 0.002885 0.035911
#
#
# Mechanical properties :
#
#
# Convention : Reuss Voigt Hill
#
# Bulk Modulus (GPa) = 21.77421 53.78634 37.78027
# Shear Modulus (GPa) = 12.09071 28.61816 20.35443
#
# Velocity S-wave (km/s) = 2.45402 3.77549 3.18407
# Velocity P-wave (km/s) = 4.34455 6.76728 5.68644
#
# Compressibility (1/GPa) = 0.04592590
#
# Stress axis : x y z
#
# Youngs Moduli (GPa) = 101.72000 14.60613 23.20200
#
# Poissons Ratio (x) = 0.14222 0.13547
# Poissons Ratio (y) = 0.99048 0.51412
# Poissons Ratio (z) = 0.59390 0.32365
#
# Static dielectric constant tensor:
#      x y z
#    x 4.260300 -0.183090 0.519930 
#    y -0.183090 3.457830 0.040910 
#    z 0.519930 0.040910 3.434570 
# 
# 
# High freq. dielectric constant tensor:
#      x y z
#    x 1.806910 -0.015010 0.036300 
#    y -0.015010 1.728560 0.018000 
#    z 0.036300 0.018000 1.746170 
# 
# From -- ./inp_files/183024.got.cif
#   From: 2010.06.25/outbox.cif.g09.slc.cpg/sg2_92_cif.got.tgz:183024.got - 2010.06.27 13:26:56.
