data_PCOD8007295
_publ_section_title
;
Structure prediction by ZEFSAII (Michael W. Deem and Ramdas Pophale) SiO2 
 PCOD8007295
Probable space group: P -1
;
_chemical_formula_sum "Si O2"
_cell_formula_units_Z 12
_cell_length_a 14.936213
_cell_length_b 7.233360
_cell_length_c 13.093911
_cell_angle_alpha 50.962123
_cell_angle_beta 31.374143
_cell_angle_gamma 41.490390
_cell_volume 487.735727
_symmetry_space_group_name_H-M "P -1"
_symmetry_group_IT_number 2
_symmetry_cell_setting 'triclinic'
loop_
_space_group_symop_operation_xyz
x,y,z
-x,-y,-z
loop_
_atom_site_type_symbol
_atom_site_label
_atom_site_fract_x
_atom_site_fract_y
_atom_site_fract_z
Si Si1 0.405135 0.946743 0.795938
Si Si2 0.305011 0.529969 0.628400
Si Si3 0.513244 0.249182 0.008018
Si Si4 0.253276 0.624474 0.411850
Si Si5 0.065739 0.449058 0.337601
Si Si6 0.022923 0.965520 0.108708
O O1 0.408071 0.999518 0.897546
O O2 0.621275 0.700333 0.631650
O O3 0.331563 0.227226 0.706468
O O4 0.254408 0.837898 0.958352
O O5 0.500000 0.500000 0.500000
O O6 0.272439 0.654048 0.503347
O O7 0.110998 0.735746 0.811718
O O8 0.307253 0.294666 0.144691
O O9 0.331059 0.809212 0.215426
O O10 0.500000 0.500000 0.000000
O O11 0.021577 0.729470 0.568145
O O12 0.000000 0.500000 0.500000
O O13 0.959226 0.750097 0.281868
O O14 0.000000 0.000000 0.000000
#
# Coordination Sequence:
#
# PCOD8007295 Si02
#       6
#     2   2   2   2   2   2
#     4  11  21  44  69  96 138 175 221 276 334 398
#     4  12  27  43  65 100 138 177 230 277 333 402
#     4  10  20  40  71 100 134 176 222 272 333 400
#     4  11  22  44  70 103 135 177 223 276 335 397
#     4  12  21  41  76 100 130 180 226 270 337 398
#     4  12  25  44  69  97 133 179 228 281 336 396
#
# _framework density 24.603489
#
# number of rings (size 3 to 8) (size 9 to 14) (size 15 to 20)
#    0.000    0.667    6.667    4.000    0.000    0.000 
#    0.000    5.833    0.000    0.000    0.000    0.000 
#    0.000    0.000    0.000    0.000    0.000    0.000 
#
# Total GULP energy -148828.239721 kJ/mol
# GULP energy per Si atom -12402.353310 kJ/mol
# Density = 2.454749 g / cm^3
# Si number density = 24.603489 Si / 1000 Ang^3
#
#
#
# Elastic Constant Matrix: (Units=GPa)
#
#
# Indices 1 2 3 4 5 6 
#
# 1 199.7210 7.1881 77.8155 13.2018 8.6361 7.8051
# 2 7.1881 22.1629 18.7146 8.6582 7.2497 4.9967
# 3 77.8155 18.7146 155.8277 5.5707 -10.8942 3.4246
# 4 13.2018 8.6582 5.5707 25.0475 -1.5522 -2.0614
# 5 8.6361 7.2497 -10.8942 -1.5522 69.5282 0.7211
# 6 7.8051 4.9967 3.4246 -2.0614 0.7211 27.4949
#
#
#
# Elastic Compliance Matrix: (Units=1/GPa)
#
#
# Indices 1 2 3 4 5 6 
#
# 1 0.006816 0.003901 -0.003795 -0.004418 -0.001921 -0.002452
# 2 0.003901 0.068016 -0.009575 -0.025171 -0.009494 -0.013914
# 3 -0.003795 -0.009575 0.009507 0.003532 0.003019 0.001819
# 4 -0.004418 -0.025171 0.003532 0.051213 0.004776 0.009103
# 5 -0.001921 -0.009494 0.003019 0.004776 0.016172 0.001829
# 6 -0.002452 -0.013914 0.001819 0.009103 0.001829 0.040003
#
#
# Mechanical properties :
#
#
# Convention : Reuss Voigt Hill
#
# Bulk Modulus (GPa) = 15.29003 65.01644 40.15324
# Shear Modulus (GPa) = 21.50857 42.68034 32.09446
#
# Velocity S-wave (km/s) = 2.95991 4.16952 3.61566
# Velocity P-wave (km/s) = 4.23196 7.04720 5.81259
#
# Compressibility (1/GPa) = 0.06540209
#
# Stress axis : x y z
#
# Youngs Moduli (GPa) = 146.71392 14.70235 105.18542
#
# Poissons Ratio (x) = -0.05735 0.39914
# Poissons Ratio (y) = -0.57228 1.00712
# Poissons Ratio (z) = 0.55673 0.14077
#
# Static dielectric constant tensor:
#      x y z
#    x 4.741190 -0.375790 0.176240 
#    y -0.375790 4.222150 -0.139220 
#    z 0.176240 -0.139220 4.789260 
# 
# 
# High freq. dielectric constant tensor:
#      x y z
#    x 1.995150 -0.012690 0.000020 
#    y -0.012690 1.958950 -0.005480 
#    z 0.000020 -0.005480 1.997680 
# 
# From -- ./inp_files/525493.got.cif
#   From: 2010.06.25/outbox.cif.g09.slc.cpg/sg2_263_cif.got.tgz:525493.got - 2010.06.27 13:26:56.
