data_PCOD8007342
_publ_section_title
;
Structure prediction by ZEFSAII (Michael W. Deem and Ramdas Pophale) SiO2 
 PCOD8007342
Probable space group: P -1
;
_chemical_formula_sum "Si O2"
_cell_formula_units_Z 12
_cell_length_a 8.788890
_cell_length_b 15.720051
_cell_length_c 10.641988
_cell_angle_alpha 25.273913
_cell_angle_beta 121.823849
_cell_angle_gamma 112.331469
_cell_volume 514.010753
_symmetry_space_group_name_H-M "P -1"
_symmetry_group_IT_number 2
_symmetry_cell_setting 'triclinic'
loop_
_space_group_symop_operation_xyz
x,y,z
-x,-y,-z
loop_
_atom_site_type_symbol
_atom_site_label
_atom_site_fract_x
_atom_site_fract_y
_atom_site_fract_z
Si Si1 0.187894 0.436519 0.586704
Si Si2 0.037340 0.776373 0.374461
Si Si3 0.385434 0.406771 0.946990
Si Si4 0.183630 0.764756 0.959623
Si Si5 0.787227 0.412445 0.064572
Si Si6 0.784575 0.819475 0.636503
O O1 0.358147 0.327995 0.898113
O O2 0.000000 0.500000 0.500000
O O3 0.148461 0.293131 0.648159
O O4 0.253246 0.622644 0.300339
O O5 0.222139 0.618135 0.610332
O O6 0.066846 0.767948 0.550599
O O7 0.000000 0.000000 0.000000
O O8 0.585383 0.449148 0.995010
O O9 0.369546 0.224323 0.278852
O O10 0.234575 0.646348 0.008303
O O11 0.959867 0.833951 0.778771
O O12 0.278713 0.955954 0.757359
O O13 0.844395 0.630348 0.813594
#
# Coordination Sequence:
#
# PCOD8007342 Si02
#       6
#     2   2   2   2   2   2
#     4  10  20  41  60  90 127 166 212 258 312 383
#     4  10  21  37  66  95 121 168 217 256 308 383
#     4  10  22  43  65  90 134 166 207 268 321 374
#     4  11  22  37  67  94 126 170 214 263 317 374
#     4  11  23  42  65  98 130 163 216 267 318 377
#     4  10  21  39  65  93 125 170 215 259 312 383
#
# _framework density 23.345815999999999
#
# number of rings (size 3 to 8) (size 9 to 14) (size 15 to 20)
#    0.000    1.667    5.000    2.500    2.333    2.667 
#    3.000    0.833    0.000    0.000    0.000    0.000 
#    0.000    0.000    0.000    0.000    0.000    0.000 
#
# Total GULP energy -148694.253386 kJ/mol
# GULP energy per Si atom -12391.187782 kJ/mol
# Density = 2.329268 g / cm^3
# Si number density = 23.345816 Si / 1000 Ang^3
#
#
#
# Elastic Constant Matrix: (Units=GPa)
#
#
# Indices 1 2 3 4 5 6 
#
# 1 33.6732 9.4316 37.5244 -3.7346 -20.9813 -2.6659
# 2 9.4316 93.2273 56.6829 -3.2528 -12.1810 4.0299
# 3 37.5244 56.6829 177.4169 -21.0509 -47.1548 -2.4402
# 4 -3.7346 -3.2528 -21.0509 33.5743 2.0084 -8.3147
# 5 -20.9813 -12.1810 -47.1548 2.0084 30.8727 4.7761
# 6 -2.6659 4.0299 -2.4402 -8.3147 4.7761 37.4806
#
#
#
# Elastic Compliance Matrix: (Units=1/GPa)
#
#
# Indices 1 2 3 4 5 6 
#
# 1 0.052476 0.000450 -0.002477 0.002418 0.031901 -0.000006
# 2 0.000450 0.013638 -0.005252 -0.002318 -0.001866 -0.002053
# 3 -0.002477 -0.005252 0.012570 0.006384 0.014917 0.000722
# 4 0.002418 -0.002318 0.006384 0.035343 0.006975 0.007789
# 5 0.031901 -0.001866 0.014917 0.006975 0.076400 -0.004747
# 6 -0.000006 -0.002053 0.000722 0.007789 -0.004747 0.029281
#
#
# Mechanical properties :
#
#
# Convention : Reuss Voigt Hill
#
# Bulk Modulus (GPa) = 15.59410 56.84392 36.21901
# Shear Modulus (GPa) = 19.55862 33.76409 26.66136
#
# Velocity S-wave (km/s) = 2.89758 3.80710 3.38304
# Velocity P-wave (km/s) = 4.22951 6.61263 5.55048
#
# Compressibility (1/GPa) = 0.06412683
#
# Stress axis : x y z
#
# Youngs Moduli (GPa) = 19.05626 73.32441 79.55173
#
# Poissons Ratio (x) = -0.03299 0.19706
# Poissons Ratio (y) = -0.00857 0.41778
# Poissons Ratio (z) = 0.04721 0.38508
#
# Static dielectric constant tensor:
#      x y z
#    x 3.984930 0.107360 -0.354990 
#    y 0.107360 4.870080 0.084610 
#    z -0.354990 0.084610 4.325010 
# 
# 
# High freq. dielectric constant tensor:
#      x y z
#    x 1.903980 0.000650 -0.034630 
#    y 0.000650 1.935040 0.000190 
#    z -0.034630 0.000190 1.905810 
# 
# From -- ./inp_files/151723.got.cif
#   From: 2010.06.25/outbox.cif.g09.slc.cpg/sg2_76_cif.got.tgz:151723.got - 2010.06.27 13:26:56.
