data_PCOD8007987
_publ_section_title
;
Structure prediction by ZEFSAII (Michael W. Deem and Ramdas Pophale) SiO2 
 PCOD8007987
Probable space group: P -1
;
_chemical_formula_sum "Si O2"
_cell_formula_units_Z 16
_cell_length_a 14.297526
_cell_length_b 9.636230
_cell_length_c 5.360114
_cell_angle_alpha 78.185090
_cell_angle_beta 88.822428
_cell_angle_gamma 111.553788
_cell_volume 668.563704
_symmetry_space_group_name_H-M "P -1"
_symmetry_group_IT_number 2
_symmetry_cell_setting 'triclinic'
loop_
_space_group_symop_operation_xyz
x,y,z
-x,-y,-z
loop_
_atom_site_type_symbol
_atom_site_label
_atom_site_fract_x
_atom_site_fract_y
_atom_site_fract_z
Si Si1 0.140425 0.469476 0.330283
Si Si2 0.434538 0.459609 0.767094
Si Si3 0.126725 0.929321 0.377224
Si Si4 0.435025 0.157730 0.849490
Si Si5 0.350322 0.982149 0.414474
Si Si6 0.647833 0.334395 0.566635
Si Si7 0.012236 0.629619 0.217754
Si Si8 0.953207 0.832211 0.785453
O O1 0.258870 0.566660 0.299379
O O2 0.078971 0.540751 0.109328
O O3 0.120439 0.290151 0.365181
O O4 0.080612 0.489396 0.573466
O O5 0.500000 0.500000 0.500000
O O6 0.374838 0.273654 0.840469
O O7 0.362847 0.556459 0.700057
O O8 0.500000 0.500000 0.000000
O O9 0.245212 0.004340 0.398646
O O10 0.096475 0.048739 0.162545
O O11 0.098398 0.763814 0.321159
O O12 0.065594 0.922594 0.639208
O O13 0.408981 0.065265 0.626715
O O14 0.553068 0.268927 0.784653
O O15 0.415284 0.049388 0.133757
O O16 0.331790 0.804695 0.511448
O O17 0.956568 0.718748 0.038385
#
# Coordination Sequence:
#
# PCOD8007987 Si02
#       8
#     2   2   2   2   2   2   2   2
#     4  10  22  40  64  98 132 169 231 273 351 411
#     4  10  23  46  71  98 135 179 226 289 346 404
#     4  10  23  40  66  94 137 170 236 270 352 402
#     4  11  26  47  71  99 146 180 241 284 349 413
#     4  12  26  46  71 107 137 190 232 294 341 424
#     4  11  24  46  70 101 141 184 233 293 353 412
#     4  10  20  42  62  96 132 173 219 288 340 413
#     4  10  22  41  66  96 133 179 222 286 339 419
#
# _framework density 23.931902000000001
#
# number of rings (size 3 to 8) (size 9 to 14) (size 15 to 20)
#    0.000    1.500    1.250    3.000    3.500    3.000 
#    9.000    0.000    0.000    0.000    0.000    0.000 
#    0.000    0.000    0.000    0.000    0.000    0.000 
#
# Total GULP energy -198229.042177 kJ/mol
# GULP energy per Si atom -12389.315136 kJ/mol
# Density = 2.387743 g / cm^3
# Si number density = 23.931902 Si / 1000 Ang^3
#
#
#
# Elastic Constant Matrix: (Units=GPa)
#
#
# Indices 1 2 3 4 5 6 
#
# 1 124.3423 26.3115 24.8322 -17.6068 6.1447 11.2114
# 2 26.3115 111.1240 24.0575 -21.5950 3.1960 -10.4595
# 3 24.8322 24.0575 93.5159 -3.0501 10.2576 2.7019
# 4 -17.6068 -21.5950 -3.0501 27.7156 -11.5444 8.0764
# 5 6.1447 3.1960 10.2576 -11.5444 29.0179 -11.5283
# 6 11.2114 -10.4595 2.7019 8.0764 -11.5283 49.8024
#
#
#
# Elastic Compliance Matrix: (Units=1/GPa)
#
#
# Indices 1 2 3 4 5 6 
#
# 1 0.009844 -0.001000 -0.002045 0.006172 -0.000125 -0.003345
# 2 -0.001000 0.011841 -0.003061 0.009521 0.004744 0.002432
# 3 -0.002045 -0.003061 0.012588 -0.004358 -0.006031 -0.001555
# 4 0.006172 0.009521 -0.004358 0.056405 0.020183 -0.003629
# 5 -0.000125 0.004744 -0.006031 0.020183 0.047755 0.009133
# 6 -0.003345 0.002432 -0.001555 -0.003629 0.009133 0.024130
#
#
# Mechanical properties :
#
#
# Convention : Reuss Voigt Hill
#
# Bulk Modulus (GPa) = 45.32705 53.26495 49.29600
# Shear Modulus (GPa) = 27.45305 38.22593 32.83949
#
# Velocity S-wave (km/s) = 3.39061 4.00093 3.70835
# Velocity P-wave (km/s) = 5.85742 6.60670 6.24331
#
# Compressibility (1/GPa) = 0.02206188
#
# Stress axis : x y z
#
# Youngs Moduli (GPa) = 101.58402 84.45152 79.43991
#
# Poissons Ratio (x) = 0.08444 0.16246
# Poissons Ratio (y) = 0.10157 0.24314
# Poissons Ratio (z) = 0.20775 0.25848
#
# Static dielectric constant tensor:
#      x y z
#    x 4.377970 -0.527570 0.286470 
#    y -0.527570 5.351600 -0.229310 
#    z 0.286470 -0.229310 4.201940 
# 
# 
# High freq. dielectric constant tensor:
#      x y z
#    x 1.939340 -0.019170 0.016860 
#    y -0.019170 1.977440 -0.012450 
#    z 0.016860 -0.012450 1.932260 
# 
# From -- ./inp_files/90110.got.cif
#   From: 2010.06.25/outbox.cif.g09.slc.cpg/sg2_46_cif.got.tgz:90110.got - 2010.06.27 13:26:56.
