data_PCOD8007135
_publ_section_title
;
Structure prediction by ZEFSAII (Michael W. Deem and Ramdas Pophale) SiO2 
 PCOD8007135
Probable space group: P -1
;
_chemical_formula_sum "Si O2"
_cell_formula_units_Z 14
_cell_length_a 27.563585
_cell_length_b 5.298285
_cell_length_c 11.471781
_cell_angle_alpha 109.800779
_cell_angle_beta 156.401715
_cell_angle_gamma 67.057206
_cell_volume 616.844133
_symmetry_space_group_name_H-M "P -1"
_symmetry_group_IT_number 2
_symmetry_cell_setting 'triclinic'
loop_
_space_group_symop_operation_xyz
x,y,z
-x,-y,-z
loop_
_atom_site_type_symbol
_atom_site_label
_atom_site_fract_x
_atom_site_fract_y
_atom_site_fract_z
Si Si1 0.578637 0.340297 0.473839
Si Si2 0.200140 0.728716 0.646823
Si Si3 0.603624 0.172437 0.744415
Si Si4 0.375339 0.243431 0.861811
Si Si5 0.187195 0.564745 0.110170
Si Si6 0.046837 0.082815 0.738668
Si Si7 0.274978 0.722655 0.564478
O O1 0.650257 0.160108 0.710206
O O2 0.461767 0.529998 0.307839
O O3 0.672527 0.497852 0.640819
O O4 0.514570 0.174211 0.211925
O O5 0.272125 0.407636 0.751556
O O6 0.065594 0.745177 0.406429
O O7 0.191041 0.841292 0.511148
O O8 0.275389 0.914708 0.920353
O O9 0.500000 0.000000 0.500000
O O10 0.347491 0.952849 0.717332
O O11 0.628609 0.558849 0.229713
O O12 0.141569 0.281847 0.957695
O O13 0.186218 0.660874 0.256851
O O14 0.105305 0.807008 0.892963
O O15 0.000000 0.000000 0.500000
#
# Coordination Sequence:
#
# PCOD8007135 Si02
#       7
#     2   2   2   2   2   2   2
#     4  10  23  38  64  97 135 166 220 266 325 389
#     4   9  23  41  68  94 132 171 221 268 320 386
#     4  10  20  40  67  96 126 172 216 269 323 381
#     4   9  21  41  65 100 126 174 210 273 326 374
#     4  12  28  44  67 100 131 176 216 266 326 391
#     4  12  28  47  66  95 133 175 218 268 328 381
#     4  10  22  43  66 100 129 170 221 263 331 380
#
# _framework density 22.696172000000001
#
# number of rings (size 3 to 8) (size 9 to 14) (size 15 to 20)
#    0.857    0.857    0.000    3.000    6.000    2.286 
#    0.000    0.000    0.000    0.000    0.000    0.000 
#    0.000    0.000    0.000    0.000    0.000    0.000 
#
# Total GULP energy -173470.440437 kJ/mol
# GULP energy per Si atom -12390.745745 kJ/mol
# Density = 2.264451 g / cm^3
# Si number density = 22.696172 Si / 1000 Ang^3
#
#
#
# Elastic Constant Matrix: (Units=GPa)
#
#
# Indices 1 2 3 4 5 6 
#
# 1 114.8362 26.3185 50.6110 1.9122 -25.3180 15.9767
# 2 26.3185 93.6357 28.3731 23.0530 -13.4389 15.9814
# 3 50.6110 28.3731 103.7074 21.6826 -21.0204 -0.8123
# 4 1.9122 23.0530 21.6826 44.4828 0.3632 3.8194
# 5 -25.3180 -13.4389 -21.0204 0.3632 53.3600 -1.5055
# 6 15.9767 15.9814 -0.8123 3.8194 -1.5055 23.6414
#
#
#
# Elastic Compliance Matrix: (Units=1/GPa)
#
#
# Indices 1 2 3 4 5 6 
#
# 1 0.013868 -0.000668 -0.006763 0.003838 0.003452 -0.009553
# 2 -0.000668 0.014730 -0.002054 -0.005895 0.002385 -0.008472
# 3 -0.006763 -0.002054 0.015552 -0.006915 0.002667 0.007780
# 4 0.003838 -0.005895 -0.006915 0.029083 -0.002691 -0.003716
# 5 0.003452 0.002385 0.002667 -0.002691 0.021991 -0.002018
# 6 -0.009553 -0.008472 0.007780 -0.003716 -0.002018 0.055221
#
#
# Mechanical properties :
#
#
# Convention : Reuss Voigt Hill
#
# Bulk Modulus (GPa) = 39.71418 58.08716 48.90067
# Shear Modulus (GPa) = 28.12040 38.08863 33.10451
#
# Velocity S-wave (km/s) = 3.52375 4.10102 3.82330
# Velocity P-wave (km/s) = 5.83883 6.93350 6.40958
#
# Compressibility (1/GPa) = 0.02517992
#
# Stress axis : x y z
#
# Youngs Moduli (GPa) = 72.10959 67.89058 64.29978
#
# Poissons Ratio (x) = 0.04533 0.43484
# Poissons Ratio (y) = 0.04815 0.13210
# Poissons Ratio (z) = 0.48765 0.13947
#
# Static dielectric constant tensor:
#      x y z
#    x 4.385580 -0.146770 -0.249500 
#    y -0.146770 3.911650 -0.002570 
#    z -0.249500 -0.002570 4.110230 
# 
# 
# High freq. dielectric constant tensor:
#      x y z
#    x 1.906240 -0.001580 -0.012860 
#    y -0.001580 1.876230 0.010340 
#    z -0.012860 0.010340 1.892650 
# 
# From -- ./inp_files/77596.got.cif
#   From: 2010.06.25/outbox.cif.g09.slc.cpg/sg2_39_cif.got.tgz:77596.got - 2010.06.27 13:26:56.
