data_PCOD8007228
_publ_section_title
;
Structure prediction by ZEFSAII (Michael W. Deem and Ramdas Pophale) SiO2 
 PCOD8007228
Probable space group: P -1
;
_chemical_formula_sum "Si O2"
_cell_formula_units_Z 12
_cell_length_a 18.980231
_cell_length_b 18.028511
_cell_length_c 11.036725
_cell_angle_alpha 30.729180
_cell_angle_beta 159.195701
_cell_angle_gamma 157.972680
_cell_volume 502.387236
_symmetry_space_group_name_H-M "P -1"
_symmetry_group_IT_number 2
_symmetry_cell_setting 'triclinic'
loop_
_space_group_symop_operation_xyz
x,y,z
-x,-y,-z
loop_
_atom_site_type_symbol
_atom_site_label
_atom_site_fract_x
_atom_site_fract_y
_atom_site_fract_z
Si Si1 0.959598 0.137378 0.686483
Si Si2 0.355414 0.969859 0.186965
Si Si3 0.788622 0.619721 0.738007
Si Si4 0.846961 0.364687 0.326199
Si Si5 0.175163 0.387260 0.467427
Si Si6 0.618358 0.214173 0.737136
O O1 0.986017 0.282249 0.623310
O O2 0.171833 0.262005 0.741891
O O3 0.651170 0.983704 0.356541
O O4 0.000000 0.000000 0.000000
O O5 0.348065 0.827790 0.286000
O O6 0.500000 0.000000 0.500000
O O7 0.527597 0.184200 0.100039
O O8 0.034094 0.844940 0.868394
O O9 0.500000 0.500000 0.500000
O O10 0.759702 0.643279 0.516844
O O11 0.865343 0.489554 0.071221
O O12 0.000000 0.500000 0.500000
O O13 0.399323 0.619320 0.534975
O O14 0.872531 0.303033 0.105463
#
# Coordination Sequence:
#
# PCOD8007228 Si02
#       6
#     2   2   2   2   2   2
#     4  11  24  42  69 105 138 179 232 288 348 419
#     4  10  20  40  69 100 136 185 229 280 353 417
#     4  11  25  45  68 106 140 187 237 294 349 416
#     4  11  23  43  70 102 145 186 229 293 355 418
#     4  10  21  42  69  93 137 183 230 283 350 416
#     4   9  20  39  67  98 129 176 232 280 347 409
#
# _framework density 23.885957999999999
#
# number of rings (size 3 to 8) (size 9 to 14) (size 15 to 20)
#    0.000    1.667    1.667    3.500    0.000    5.333 
#    6.000    0.000    0.000    0.000    0.000    0.000 
#    0.000    0.000    0.000    0.000    0.000    0.000 
#
# Total GULP energy -148716.884082 kJ/mol
# GULP energy per Si atom -12393.073673 kJ/mol
# Density = 2.383159 g / cm^3
# Si number density = 23.885958 Si / 1000 Ang^3
#
#
#
# Elastic Constant Matrix: (Units=GPa)
#
#
# Indices 1 2 3 4 5 6 
#
# 1 114.4333 67.9555 36.7968 1.7654 -14.3086 10.6232
# 2 67.9555 161.1307 33.3709 12.7482 -7.6351 11.9972
# 3 36.7968 33.3709 48.5307 0.0135 1.6213 -1.8503
# 4 1.7654 12.7482 0.0135 53.1574 5.3936 -3.1296
# 5 -14.3086 -7.6351 1.6213 5.3936 32.4817 4.0190
# 6 10.6232 11.9972 -1.8503 -3.1296 4.0190 50.7649
#
#
#
# Elastic Compliance Matrix: (Units=1/GPa)
#
#
# Indices 1 2 3 4 5 6 
#
# 1 0.015120 -0.003907 -0.009119 -0.000422 0.006654 -0.003126
# 2 -0.003907 0.008870 -0.003235 -0.002203 0.001092 -0.001619
# 3 -0.009119 -0.003235 0.030154 0.002062 -0.007178 0.004467
# 4 -0.000422 -0.002203 0.002062 0.019933 -0.004396 0.002261
# 5 0.006654 0.001092 -0.007178 -0.004396 0.035682 -0.005008
# 6 -0.003126 -0.001619 0.004467 0.002261 -0.005008 0.021434
#
#
# Mechanical properties :
#
#
# Convention : Reuss Voigt Hill
#
# Bulk Modulus (GPa) = 46.24827 66.70454 56.47641
# Shear Modulus (GPa) = 29.25317 39.67891 34.46604
#
# Velocity S-wave (km/s) = 3.50337 4.08018 3.80273
# Velocity P-wave (km/s) = 5.98072 7.08407 6.55565
#
# Compressibility (1/GPa) = 0.02162243
#
# Stress axis : x y z
#
# Youngs Moduli (GPa) = 66.13926 112.73700 33.16335
#
# Poissons Ratio (x) = 0.44041 0.30242
# Poissons Ratio (y) = 0.25837 0.10728
# Poissons Ratio (z) = 0.60313 0.36470
#
# Static dielectric constant tensor:
#      x y z
#    x 4.056760 0.209760 -0.049660 
#    y 0.209760 5.172060 0.403860 
#    z -0.049660 0.403860 4.139060 
# 
# 
# High freq. dielectric constant tensor:
#      x y z
#    x 1.936160 0.014380 -0.013260 
#    y 0.014380 1.980470 0.018420 
#    z -0.013260 0.018420 1.915260 
# 
# From -- ./inp_files/472732.got.cif
#   From: 2010.06.25/outbox.cif.g09.slc.cpg/sg2_237_cif.got.tgz:472732.got - 2010.06.27 13:26:56.
