data_PCOD8007743
_publ_section_title
;
Structure prediction by ZEFSAII (Michael W. Deem and Ramdas Pophale) SiO2 
 PCOD8007743
Probable space group: P -1
;
_chemical_formula_sum "Si O2"
_cell_formula_units_Z 12
_cell_length_a 7.694098
_cell_length_b 9.319047
_cell_length_c 11.233785
_cell_angle_alpha 128.788917
_cell_angle_beta 120.895916
_cell_angle_gamma 72.505665
_cell_volume 538.482968
_symmetry_space_group_name_H-M "P -1"
_symmetry_group_IT_number 2
_symmetry_cell_setting 'triclinic'
loop_
_space_group_symop_operation_xyz
x,y,z
-x,-y,-z
loop_
_atom_site_type_symbol
_atom_site_label
_atom_site_fract_x
_atom_site_fract_y
_atom_site_fract_z
Si Si1 0.707267 0.403100 0.013871
Si Si2 0.477165 0.054633 0.792022
Si Si3 0.150522 0.840009 0.446519
Si Si4 0.122803 0.285666 0.907631
Si Si5 0.169795 0.155306 0.115719
Si Si6 0.969978 0.515033 0.637111
O O1 0.648214 0.188569 0.860309
O O2 0.500000 0.500000 0.000000
O O3 0.832783 0.498032 0.997749
O O4 0.818631 0.436288 0.196559
O O5 0.306100 0.160296 0.859833
O O6 0.377185 0.927380 0.586297
O O7 0.606090 0.925398 0.858486
O O8 0.093577 0.770501 0.258005
O O9 0.124861 0.677545 0.449805
O O10 0.000000 0.000000 0.500000
O O11 0.101178 0.261696 0.028011
O O12 0.175634 0.313238 0.301334
O O13 0.000000 0.000000 0.000000
O O14 0.000000 0.500000 0.500000
#
# Coordination Sequence:
#
# PCOD8007743 Si02
#       6
#     2   2   2   2   2   2
#     4   9  19  40  66  96 121 172 216 255 322 376
#     4  10  20  41  67  98 127 168 214 258 325 386
#     4   9  21  40  68  94 125 168 214 261 327 366
#     4   9  21  41  69  90 130 166 218 265 314 378
#     4  12  25  41  65 100 129 173 215 260 323 384
#     4  11  25  43  63  92 136 170 211 265 322 379
#
# _framework density 22.284828000000001
#
# number of rings (size 3 to 8) (size 9 to 14) (size 15 to 20)
#    0.000    2.000    1.667    1.500    4.667    6.000 
#    0.000    2.500    0.000    0.000    0.000    0.000 
#    0.000    0.000    0.000    0.000    0.000    0.000 
#
# Total GULP energy -148712.943748 kJ/mol
# GULP energy per Si atom -12392.745312 kJ/mol
# Density = 2.223411 g / cm^3
# Si number density = 22.284828 Si / 1000 Ang^3
#
#
#
# Elastic Constant Matrix: (Units=GPa)
#
#
# Indices 1 2 3 4 5 6 
#
# 1 59.1562 38.0732 62.5604 -5.6807 -0.9471 20.5409
# 2 38.0732 148.5096 78.4906 2.7917 3.4950 14.2948
# 3 62.5604 78.4906 172.9497 1.5738 18.5714 25.2053
# 4 -5.6807 2.7917 1.5738 46.7455 0.3816 0.5129
# 5 -0.9471 3.4950 18.5714 0.3816 44.5841 -3.3603
# 6 20.5409 14.2948 25.2053 0.5129 -3.3603 37.8158
#
#
#
# Elastic Compliance Matrix: (Units=1/GPa)
#
#
# Indices 1 2 3 4 5 6 
#
# 1 0.032833 -0.002462 -0.009779 0.004543 0.004166 -0.010077
# 2 -0.002462 0.009107 -0.003331 -0.000738 0.000641 0.000182
# 3 -0.009779 -0.003331 0.011597 -0.001323 -0.004885 -0.001575
# 4 0.004543 -0.000738 -0.001323 0.022047 0.000398 -0.001571
# 5 0.004166 0.000641 -0.004885 0.000398 0.024721 0.002942
# 6 -0.010077 0.000182 -0.001575 -0.001571 0.002942 0.033181
#
#
# Mechanical properties :
#
#
# Convention : Reuss Voigt Hill
#
# Bulk Modulus (GPa) = 44.65879 82.09599 63.37739
# Shear Modulus (GPa) = 29.05382 39.26184 34.15783
#
# Velocity S-wave (km/s) = 3.61466 4.20196 3.91933
# Velocity P-wave (km/s) = 6.12410 7.77569 6.99878
#
# Compressibility (1/GPa) = 0.02239201
#
# Stress axis : x y z
#
# Youngs Moduli (GPa) = 30.45717 109.81133 86.22813
#
# Poissons Ratio (x) = 0.27040 0.84323
# Poissons Ratio (y) = 0.07500 0.28721
# Poissons Ratio (z) = 0.29784 0.36577
#
# Static dielectric constant tensor:
#      x y z
#    x 4.095040 0.164810 0.642810 
#    y 0.164810 4.780410 0.412800 
#    z 0.642810 0.412800 4.740990 
# 
# 
# High freq. dielectric constant tensor:
#      x y z
#    x 1.859950 -0.019010 0.015070 
#    y -0.019010 1.907260 0.011050 
#    z 0.015070 0.011050 1.880510 
# 
# From -- ./inp_files/149279.got.cif
#   From: 2010.06.25/outbox.cif.g09.slc.cpg/sg2_75_cif.got.tgz:149279.got - 2010.06.27 13:26:56.
