data_PCOD8007775
_publ_section_title
;
Structure prediction by ZEFSAII (Michael W. Deem and Ramdas Pophale) SiO2 
 PCOD8007775
Probable space group: P -1
;
_chemical_formula_sum "Si O2"
_cell_formula_units_Z 14
_cell_length_a 18.413770
_cell_length_b 12.488553
_cell_length_c 11.640428
_cell_angle_alpha 36.096909
_cell_angle_beta 29.019415
_cell_angle_gamma 27.381733
_cell_volume 591.230053
_symmetry_space_group_name_H-M "P -1"
_symmetry_group_IT_number 2
_symmetry_cell_setting 'triclinic'
loop_
_space_group_symop_operation_xyz
x,y,z
-x,-y,-z
loop_
_atom_site_type_symbol
_atom_site_label
_atom_site_fract_x
_atom_site_fract_y
_atom_site_fract_z
Si Si1 0.812509 0.500039 0.227109
Si Si2 0.685099 0.951902 0.729646
Si Si3 0.424419 0.657439 0.640460
Si Si4 0.736509 0.958154 0.297807
Si Si5 0.141643 0.053997 0.279791
Si Si6 0.160214 0.531579 0.052904
Si Si7 0.396704 0.002173 0.802639
O O1 0.659765 0.445718 0.497696
O O2 0.852397 0.504339 0.034086
O O3 0.687104 0.746215 0.252005
O O4 0.017079 0.319466 0.167357
O O5 0.820349 0.951434 0.634507
O O6 0.627710 0.138909 0.551368
O O7 0.803697 0.688893 0.741502
O O8 0.500000 0.000000 0.000000
O O9 0.334686 0.536644 0.830421
O O10 0.337640 0.792037 0.765405
O O11 0.702835 0.992193 0.179421
O O12 0.624366 0.867212 0.584121
O O13 0.964270 0.765704 0.172390
O O14 0.345569 0.889732 0.068485
O O15 0.000000 0.000000 0.500000
#
# Coordination Sequence:
#
# PCOD8007775 Si02
#       7
#     2   2   2   2   2   2   2
#     4  11  21  42  68  98 127 177 233 276 337 395
#     4  12  25  42  67 105 138 172 226 291 341 393
#     4  11  25  43  65 102 138 178 227 279 339 410
#     4  10  22  40  66  96 134 184 224 265 341 422
#     4  12  24  39  70 107 130 166 232 292 331 393
#     4  12  22  41  72  94 137 182 225 277 345 400
#     4  10  20  41  68  93 132 175 225 279 335 402
#
# _framework density 23.679447
#
# number of rings (size 3 to 8) (size 9 to 14) (size 15 to 20)
#    0.000    0.857    4.286    3.857    2.000    0.571 
#    0.000    0.000    3.143    3.429    0.000    0.000 
#    0.000    0.000    0.000    0.000    0.000    0.000 
#
# Total GULP energy -173528.352736 kJ/mol
# GULP energy per Si atom -12394.882338 kJ/mol
# Density = 2.362555 g / cm^3
# Si number density = 23.679447 Si / 1000 Ang^3
#
#
#
# Elastic Constant Matrix: (Units=GPa)
#
#
# Indices 1 2 3 4 5 6 
#
# 1 119.8463 10.8727 23.5890 0.8613 -17.1827 8.4518
# 2 10.8727 30.6977 -8.2992 18.3211 -1.5044 8.7412
# 3 23.5890 -8.2992 66.7617 5.0421 -8.5909 6.0331
# 4 0.8613 18.3211 5.0421 38.1025 -0.4364 -10.3385
# 5 -17.1827 -1.5044 -8.5909 -0.4364 39.9149 7.6066
# 6 8.4518 8.7412 6.0331 -10.3385 7.6066 32.9306
#
#
#
# Elastic Compliance Matrix: (Units=1/GPa)
#
#
# Indices 1 2 3 4 5 6 
#
# 1 0.010267 -0.007447 -0.004548 0.004199 0.003056 0.000787
# 2 -0.007447 0.094538 0.025601 -0.062310 0.014881 -0.050873
# 3 -0.004548 0.025601 0.023869 -0.020175 0.007361 -0.018035
# 4 0.004199 -0.062310 -0.020175 0.070639 -0.012540 0.044232
# 5 0.003056 0.014881 0.007361 -0.012540 0.031681 -0.017338
# 6 0.000787 -0.050873 -0.018035 0.044232 -0.017338 0.064864
#
#
# Mechanical properties :
#
#
# Convention : Reuss Voigt Hill
#
# Bulk Modulus (GPa) = 6.41491 29.95895 18.18693
# Shear Modulus (GPa) = 15.59538 34.93250 25.26394
#
# Velocity S-wave (km/s) = 2.56911 3.84503 3.26991
# Velocity P-wave (km/s) = 3.39343 5.69137 4.68546
#
# Compressibility (1/GPa) = 0.15588673
#
# Stress axis : x y z
#
# Youngs Moduli (GPa) = 97.39618 10.57777 41.89534
#
# Poissons Ratio (x) = 0.07877 0.19056
# Poissons Ratio (y) = 0.72528 -1.07258
# Poissons Ratio (z) = 0.44300 -0.27081
#
# Static dielectric constant tensor:
#      x y z
#    x 4.893230 -0.246910 -0.031440 
#    y -0.246910 4.759960 0.041840 
#    z -0.031440 0.041840 4.835610 
# 
# 
# High freq. dielectric constant tensor:
#      x y z
#    x 1.954600 0.004980 -0.025600 
#    y 0.004980 1.923080 0.011380 
#    z -0.025600 0.011380 1.947110 
# 
# From -- ./inp_files/174130.got.cif
#   From: 2010.06.25/outbox.cif.g09.slc.cpg/sg2_88_cif.got.tgz:174130.got - 2010.06.27 13:26:56.
