data_PCOD8007738
_publ_section_title
;
Structure prediction by ZEFSAII (Michael W. Deem and Ramdas Pophale) SiO2 
 PCOD8007738
Probable space group: P -1
;
_chemical_formula_sum "Si O2"
_cell_formula_units_Z 16
_cell_length_a 11.293133
_cell_length_b 8.267947
_cell_length_c 15.233031
_cell_angle_alpha 131.710652
_cell_angle_beta 40.524560
_cell_angle_gamma 125.738624
_cell_volume 680.867103
_symmetry_space_group_name_H-M "P -1"
_symmetry_group_IT_number 2
_symmetry_cell_setting 'triclinic'
loop_
_space_group_symop_operation_xyz
x,y,z
-x,-y,-z
loop_
_atom_site_type_symbol
_atom_site_label
_atom_site_fract_x
_atom_site_fract_y
_atom_site_fract_z
Si Si1 0.787931 0.154266 0.897324
Si Si2 0.919323 0.193130 0.023462
Si Si3 0.182869 0.290210 0.052622
Si Si4 0.558835 0.239345 0.759833
Si Si5 0.586081 0.686964 0.818623
Si Si6 0.398902 0.780864 0.651646
Si Si7 0.694777 0.630015 0.543869
Si Si8 0.897880 0.268634 0.687986
O O1 0.905648 0.184418 0.752901
O O2 0.722413 0.893777 0.857396
O O3 0.906559 0.256895 0.951285
O O4 0.618380 0.286663 0.026511
O O5 0.745518 0.248526 0.196895
O O6 0.108468 0.323679 0.006511
O O7 0.930107 0.934821 0.928189
O O8 0.131666 0.479657 0.211290
O O9 0.403376 0.298699 0.936164
O O10 0.638311 0.455471 0.737452
O O11 0.722342 0.144707 0.686845
O O12 0.453305 0.038463 0.686879
O O13 0.596490 0.687991 0.708307
O O14 0.590014 0.709264 0.548588
O O15 0.313865 0.633458 0.563288
O O16 0.906820 0.755960 0.474735
#
# Coordination Sequence:
#
# PCOD8007738 Si02
#       8
#     2   2   2   2   2   2   2   2
#     4  11  24  40  67 102 129 170 225 276 319 381
#     4  10  20  41  67  96 134 168 224 269 327 385
#     4  10  21  38  65  99 127 176 210 274 328 384
#     4  11  24  42  67  98 132 174 220 272 328 385
#     4  11  24  42  66  97 132 175 220 272 325 389
#     4  10  22  43  68  94 133 180 212 265 334 395
#     4  11  24  45  67  95 135 177 218 263 333 396
#     4  12  24  41  69  98 135 172 221 267 333 390
#
# _framework density 23.499445999999999
#
# number of rings (size 3 to 8) (size 9 to 14) (size 15 to 20)
#    0.000    1.250    3.750    1.875    5.250    3.500 
#    4.500    1.250    0.000    0.000    0.000    0.000 
#    0.000    0.000    0.000    0.000    0.000    0.000 
#
# Total GULP energy -198381.210876 kJ/mol
# GULP energy per Si atom -12398.825680 kJ/mol
# Density = 2.344596 g / cm^3
# Si number density = 23.499446 Si / 1000 Ang^3
#
#
#
# Elastic Constant Matrix: (Units=GPa)
#
#
# Indices 1 2 3 4 5 6 
#
# 1 95.8975 6.4527 9.3178 -11.1581 -0.3484 15.1268
# 2 6.4527 57.7130 11.9367 -2.9335 -2.4490 10.4058
# 3 9.3178 11.9367 67.5844 -4.9807 -2.4229 5.9533
# 4 -11.1581 -2.9335 -4.9807 24.0396 9.0837 -1.2900
# 5 -0.3484 -2.4490 -2.4229 9.0837 36.2461 1.7093
# 6 15.1268 10.4058 5.9533 -1.2900 1.7093 32.9341
#
#
#
# Elastic Compliance Matrix: (Units=1/GPa)
#
#
# Indices 1 2 3 4 5 6 
#
# 1 0.011945 -0.000018 -0.000831 0.005508 -0.001084 -0.005058
# 2 -0.000018 0.018991 -0.002751 0.001027 0.001102 -0.005512
# 3 -0.000831 -0.002751 0.015714 0.002322 0.000346 -0.001517
# 4 0.005508 0.001027 0.002322 0.049271 -0.012036 -0.000720
# 5 -0.001084 0.001102 0.000346 -0.012036 0.030786 -0.001982
# 6 -0.005058 -0.005512 -0.001517 -0.000720 -0.001982 0.034777
#
#
# Mechanical properties :
#
#
# Convention : Reuss Voigt Hill
#
# Bulk Modulus (GPa) = 25.34847 30.73434 28.04141
# Shear Modulus (GPa) = 27.49780 31.54314 29.52047
#
# Velocity S-wave (km/s) = 3.42445 3.66771 3.54816
# Velocity P-wave (km/s) = 5.14258 5.57165 5.36140
#
# Compressibility (1/GPa) = 0.03945011
#
# Stress axis : x y z
#
# Youngs Moduli (GPa) = 83.71994 52.65701 63.63797
#
# Poissons Ratio (x) = 0.00092 0.05289
# Poissons Ratio (y) = 0.00147 0.17507
# Poissons Ratio (z) = 0.06958 0.14486
#
# Static dielectric constant tensor:
#      x y z
#    x 4.201060 0.281240 -0.108490 
#    y 0.281240 4.356550 0.374920 
#    z -0.108490 0.374920 3.972890 
# 
# 
# High freq. dielectric constant tensor:
#      x y z
#    x 1.920670 0.017580 -0.010260 
#    y 0.017580 1.940030 0.026370 
#    z -0.010260 0.026370 1.909050 
# 
# From -- ./inp_files/238803.got.cif
#   From: 2010.06.25/outbox.cif.g09.slc.cpg/sg2_120_cif.got.tgz:238803.got - 2010.06.27 13:26:56.
