data_PCOD8007833
_publ_section_title
;
Structure prediction by ZEFSAII (Michael W. Deem and Ramdas Pophale) SiO2 
 PCOD8007833
Probable space group: P -1
;
_chemical_formula_sum "Si O2"
_cell_formula_units_Z 16
_cell_length_a 9.193563
_cell_length_b 13.613552
_cell_length_c 14.473895
_cell_angle_alpha 139.369350
_cell_angle_beta 49.654435
_cell_angle_gamma 101.133077
_cell_volume 718.621294
_symmetry_space_group_name_H-M "P -1"
_symmetry_group_IT_number 2
_symmetry_cell_setting 'triclinic'
loop_
_space_group_symop_operation_xyz
x,y,z
-x,-y,-z
loop_
_atom_site_type_symbol
_atom_site_label
_atom_site_fract_x
_atom_site_fract_y
_atom_site_fract_z
Si Si1 0.414065 0.196497 0.787687
Si Si2 0.871417 0.202346 0.296365
Si Si3 0.255498 0.023436 0.345440
Si Si4 0.480030 0.418135 0.354783
Si Si5 0.264446 0.966765 0.624451
Si Si6 0.796975 0.247028 0.931227
Si Si7 0.755254 0.413614 0.878350
Si Si8 0.379334 0.904160 0.818624
O O1 0.494309 0.177577 0.634243
O O2 0.642170 0.108771 0.699370
O O3 0.302706 0.082064 0.767317
O O4 0.211957 0.423341 0.043340
O O5 0.757294 0.423308 0.491777
O O6 0.831456 0.142182 0.368675
O O7 0.729746 0.166114 0.256314
O O8 0.150050 0.100409 0.092736
O O9 0.429379 0.079361 0.294553
O O10 0.981600 0.210156 0.602588
O O11 0.277395 0.889564 0.160339
O O12 0.500000 0.500000 0.500000
O O13 0.483030 0.241698 0.256808
O O14 0.694668 0.346867 0.143863
O O15 0.080460 0.117381 0.732263
O O16 0.726635 0.398578 0.988813
O O17 0.500000 0.500000 0.000000
#
# Coordination Sequence:
#
# PCOD8007833 Si02
#       8
#     2   2   2   2   2   2   2   2
#     4  11  24  42  67 103 139 176 227 286 340 412
#     4  10  20  41  69  91 135 182 219 279 346 396
#     4  12  25  44  68 100 143 180 229 280 339 419
#     4  10  23  41  66  99 130 175 230 279 330 404
#     4  11  22  42  70 100 138 179 228 285 346 402
#     4  12  24  44  72  98 136 186 229 282 348 413
#     4  12  25  45  72 101 141 186 224 281 351 411
#     4  10  22  41  65  97 133 180 224 281 336 396
#
# _framework density 22.264856000000002
#
# number of rings (size 3 to 8) (size 9 to 14) (size 15 to 20)
#    0.000    1.000    5.000    1.875    0.000    4.000 
#    0.000    0.625    0.000    0.000    0.000    0.000 
#    0.000    0.000    0.000    0.000    0.000    0.000 
#
# Total GULP energy -198253.585663 kJ/mol
# GULP energy per Si atom -12390.849104 kJ/mol
# Density = 2.221418 g / cm^3
# Si number density = 22.264856 Si / 1000 Ang^3
#
#
#
# Elastic Constant Matrix: (Units=GPa)
#
#
# Indices 1 2 3 4 5 6 
#
# 1 76.5228 22.1105 30.8758 5.9440 -9.4203 -9.3743
# 2 22.1105 112.4523 62.1812 9.6664 -18.8797 -17.9755
# 3 30.8758 62.1812 114.7850 15.5935 -7.5588 -6.8476
# 4 5.9440 9.6664 15.5935 47.7522 -9.2618 -6.3071
# 5 -9.4203 -18.8797 -7.5588 -9.2618 30.7482 -0.0011
# 6 -9.3743 -17.9755 -6.8476 -6.3071 -0.0011 29.7699
#
#
#
# Elastic Compliance Matrix: (Units=1/GPa)
#
#
# Indices 1 2 3 4 5 6 
#
# 1 0.015557 0.000542 -0.004023 0.000693 0.004319 0.004448
# 2 0.000542 0.015724 -0.007891 0.002071 0.008505 0.008289
# 3 -0.004023 -0.007891 0.014114 -0.003705 -0.003724 -0.003570
# 4 0.000693 0.002071 -0.003705 0.023904 0.007773 0.005681
# 5 0.004319 0.008505 -0.003724 0.007773 0.040494 0.007287
# 6 0.004448 0.008289 -0.003570 0.005681 0.007287 0.040379
#
#
# Mechanical properties :
#
#
# Convention : Reuss Voigt Hill
#
# Bulk Modulus (GPa) = 44.14524 59.34391 51.74457
# Shear Modulus (GPa) = 27.70612 34.22689 30.96650
#
# Velocity S-wave (km/s) = 3.53142 3.92505 3.73342
# Velocity P-wave (km/s) = 6.04138 6.87407 6.47113
#
# Compressibility (1/GPa) = 0.02265250
#
# Stress axis : x y z
#
# Youngs Moduli (GPa) = 64.27879 63.59617 70.85378
#
# Poissons Ratio (x) = -0.03447 0.28502
# Poissons Ratio (y) = -0.03484 0.55908
# Poissons Ratio (z) = 0.25857 0.50181
#
# Static dielectric constant tensor:
#      x y z
#    x 3.859280 -0.231040 -0.018440 
#    y -0.231040 4.300650 0.414750 
#    z -0.018440 0.414750 4.160670 
# 
# 
# High freq. dielectric constant tensor:
#      x y z
#    x 1.855390 -0.019830 -0.005640 
#    y -0.019830 1.886630 0.015160 
#    z -0.005640 0.015160 1.877010 
# 
# From -- ./inp_files/505558.got.cif
#   From: 2010.06.25/outbox.cif.g09.slc.cpg/sg2_253_cif.got.tgz:505558.got - 2010.06.27 13:26:56.
