data_PCOD8007712
_publ_section_title
;
Structure prediction by ZEFSAII (Michael W. Deem and Ramdas Pophale) SiO2 
 PCOD8007712
Probable space group: P -1
;
_chemical_formula_sum "Si O2"
_cell_formula_units_Z 14
_cell_length_a 20.332994
_cell_length_b 6.141894
_cell_length_c 6.344581
_cell_angle_alpha 75.500242
_cell_angle_beta 112.993138
_cell_angle_gamma 123.452608
_cell_volume 607.919784
_symmetry_space_group_name_H-M "P -1"
_symmetry_group_IT_number 2
_symmetry_cell_setting 'triclinic'
loop_
_space_group_symop_operation_xyz
x,y,z
-x,-y,-z
loop_
_atom_site_type_symbol
_atom_site_label
_atom_site_fract_x
_atom_site_fract_y
_atom_site_fract_z
Si Si1 0.058309 0.162318 0.222469
Si Si2 0.556961 0.823871 0.783472
Si Si3 0.943512 0.235147 0.375846
Si Si4 0.682072 0.838245 0.643542
Si Si5 0.619159 0.545398 0.236066
Si Si6 0.672604 0.358425 0.981932
Si Si7 0.811004 0.309662 0.948667
O O1 0.003395 0.236846 0.274038
O O2 0.089333 0.002949 0.441719
O O3 0.138205 0.412981 0.168029
O O4 0.000000 0.000000 0.000000
O O5 0.601348 0.857390 0.604791
O O6 0.457319 0.679887 0.667469
O O7 0.582219 0.643151 0.986951
O O8 0.587478 0.098638 0.870923
O O9 0.865610 0.222331 0.168624
O O10 0.000000 0.500000 0.500000
O O11 0.679138 0.791812 0.399241
O O12 0.685268 0.597234 0.801849
O O13 0.763940 0.102810 0.752972
O O14 0.668331 0.420822 0.210000
O O15 0.748977 0.313540 0.043951
#
# Coordination Sequence:
#
# PCOD8007712 Si02
#       7
#     2   2   2   2   2   2   2
#     4  11  25  47  74 102 128 174 229 269 338 401
#     4   9  20  40  65  93 132 172 228 279 316 392
#     4  11  25  47  73 103 128 174 227 274 332 403
#     4  10  23  41  60  99 135 175 219 270 340 389
#     4  10  20  41  67  92 129 180 224 270 327 394
#     4  10  23  41  59  99 133 172 221 270 333 391
#     4  11  25  47  65  98 149 168 218 286 329 403
#
# _framework density 23.029356
#
# number of rings (size 3 to 8) (size 9 to 14) (size 15 to 20)
#    0.000    1.714    1.429    1.286    2.000    2.857 
#   20.571    0.000    0.000    0.000    0.000    0.000 
#    0.000    0.000    0.000    0.000    0.000    0.000 
#
# Total GULP energy -173595.036284 kJ/mol
# GULP energy per Si atom -12399.645449 kJ/mol
# Density = 2.297694 g / cm^3
# Si number density = 23.029356 Si / 1000 Ang^3
#
#
#
# Elastic Constant Matrix: (Units=GPa)
#
#
# Indices 1 2 3 4 5 6 
#
# 1 110.1848 65.0165 66.8305 13.5364 -1.1410 -5.5785
# 2 65.0165 149.5213 45.6929 29.7627 -8.5351 7.0325
# 3 66.8305 45.6929 105.8259 30.1837 -12.0849 -4.4493
# 4 13.5364 29.7627 30.1837 44.3258 -10.3828 -7.3371
# 5 -1.1410 -8.5351 -12.0849 -10.3828 32.7228 8.5801
# 6 -5.5785 7.0325 -4.4493 -7.3371 8.5801 38.0981
#
#
#
# Elastic Compliance Matrix: (Units=1/GPa)
#
#
# Indices 1 2 3 4 5 6 
#
# 1 0.019377 -0.006637 -0.011418 0.006042 -0.004650 0.004940
# 2 -0.006637 0.010748 0.001442 -0.006391 0.002264 -0.004528
# 3 -0.011418 0.001442 0.019301 -0.009977 0.004635 -0.002649
# 4 0.006042 -0.006391 -0.009977 0.033787 0.003866 0.006535
# 5 -0.004650 0.002264 0.004635 0.003866 0.036004 -0.007921
# 6 0.004940 -0.004528 -0.002649 0.006535 -0.007921 0.030540
#
#
# Mechanical properties :
#
#
# Convention : Reuss Voigt Hill
#
# Bulk Modulus (GPa) = 61.73088 80.06797 70.89942
# Shear Modulus (GPa) = 26.54170 35.56215 31.05192
#
# Velocity S-wave (km/s) = 3.39856 3.93391 3.67599
# Velocity P-wave (km/s) = 6.50106 7.44832 6.99075
#
# Compressibility (1/GPa) = 0.01619935
#
# Stress axis : x y z
#
# Youngs Moduli (GPa) = 51.60810 93.04339 51.81045
#
# Poissons Ratio (x) = 0.61753 0.59156
# Poissons Ratio (y) = 0.34252 -0.07469
# Poissons Ratio (z) = 0.58925 -0.13414
#
# Static dielectric constant tensor:
#      x y z
#    x 4.347450 -0.002080 -0.241770 
#    y -0.002080 4.393290 0.146010 
#    z -0.241770 0.146010 4.194500 
# 
# 
# High freq. dielectric constant tensor:
#      x y z
#    x 1.912700 -0.008390 -0.011540 
#    y -0.008390 1.927470 0.004960 
#    z -0.011540 0.004960 1.903410 
# 
# From -- ./inp_files/6639.got.cif
#   From: 2010.06.25/outbox.cif.g09.slc.cpg/sg2_4_cif.got.tgz:6639.got - 2010.06.27 13:26:56.
