data_PCOD8007570
_publ_section_title
;
Structure prediction by ZEFSAII (Michael W. Deem and Ramdas Pophale) SiO2 
 PCOD8007570
Probable space group: P -1
;
_chemical_formula_sum "Si O2"
_cell_formula_units_Z 16
_cell_length_a 9.330936
_cell_length_b 11.499573
_cell_length_c 19.901512
_cell_angle_alpha 43.770298
_cell_angle_beta 106.868490
_cell_angle_gamma 139.925209
_cell_volume 768.436839
_symmetry_space_group_name_H-M "P -1"
_symmetry_group_IT_number 2
_symmetry_cell_setting 'triclinic'
loop_
_space_group_symop_operation_xyz
x,y,z
-x,-y,-z
loop_
_atom_site_type_symbol
_atom_site_label
_atom_site_fract_x
_atom_site_fract_y
_atom_site_fract_z
Si Si1 0.468183 0.302766 0.120733
Si Si2 0.244088 0.750915 0.876787
Si Si3 0.901287 0.614765 0.294423
Si Si4 0.543389 0.712606 0.718876
Si Si5 0.050520 0.103022 0.539488
Si Si6 0.697003 0.228334 0.542463
Si Si7 0.809353 0.105125 0.318054
Si Si8 0.184981 0.559218 0.301450
O O1 0.674632 0.352246 0.102269
O O2 0.508664 0.385765 0.169940
O O3 0.500000 0.500000 0.000000
O O4 0.156346 0.949760 0.221003
O O5 0.112158 0.754066 0.803324
O O6 0.503269 0.080070 0.813027
O O7 0.000000 0.500000 0.000000
O O8 0.747870 0.594189 0.230252
O O9 0.687135 0.365748 0.428307
O O10 0.985929 0.521429 0.310478
O O11 0.613292 0.972419 0.607211
O O12 0.781314 0.834322 0.662687
O O13 0.177319 0.410086 0.422190
O O14 0.251150 0.152991 0.580159
O O15 0.000000 0.000000 0.500000
O O16 0.000000 0.500000 0.500000
O O17 0.475881 0.066546 0.636042
O O18 0.064753 0.382108 0.287889
#
# Coordination Sequence:
#
# PCOD8007570 Si02
#       8
#     2   2   2   2   2   2   2   2
#     4  11  26  45  63  93 125 162 228 270 304 373
#     4  11  25  44  64  89 121 172 220 255 314 373
#     4  11  20  38  70  93 124 168 207 260 322 378
#     4  12  22  41  68  94 128 169 209 261 321 382
#     4  10  23  39  62 102 134 157 202 258 321 389
#     4  12  20  38  68 100 123 163 210 252 323 397
#     4  11  23  42  61  94 132 160 205 259 318 379
#     4  10  20  41  65  91 128 165 200 260 315 381
#
# _framework density 20.821491000000002
#
# number of rings (size 3 to 8) (size 9 to 14) (size 15 to 20)
#    0.000    1.000    5.000    2.625    1.750    1.500 
#    6.750    0.000    0.000    0.000    0.000    0.000 
#    0.000    0.000    0.000    0.000    0.000    0.000 
#
# Total GULP energy -198340.173952 kJ/mol
# GULP energy per Si atom -12396.260872 kJ/mol
# Density = 2.077410 g / cm^3
# Si number density = 20.821491 Si / 1000 Ang^3
#
#
#
# Elastic Constant Matrix: (Units=GPa)
#
#
# Indices 1 2 3 4 5 6 
#
# 1 86.0574 24.1525 35.0606 7.2018 -11.2442 9.0581
# 2 24.1525 95.0001 36.8766 24.9174 -9.0320 13.8849
# 3 35.0606 36.8766 122.9197 29.3907 -11.3729 6.6502
# 4 7.2018 24.9174 29.3907 32.3688 3.0353 -2.5796
# 5 -11.2442 -9.0320 -11.3729 3.0353 38.4233 6.9653
# 6 9.0581 13.8849 6.6502 -2.5796 6.9653 22.4916
#
#
#
# Elastic Compliance Matrix: (Units=1/GPa)
#
#
# Indices 1 2 3 4 5 6 
#
# 1 0.014295 -0.001211 -0.002957 -0.000374 0.004037 -0.005428
# 2 -0.001211 0.017673 0.000251 -0.015460 0.007755 -0.014672
# 3 -0.002957 0.000251 0.012446 -0.011723 0.004796 -0.005474
# 4 -0.000374 -0.015460 -0.011723 0.057011 -0.016197 0.024716
# 5 0.004037 0.007755 0.004796 -0.016197 0.035477 -0.020676
# 6 -0.005428 -0.014672 -0.005474 0.024716 -0.020676 0.066561
#
#
# Mechanical properties :
#
#
# Convention : Reuss Voigt Hill
#
# Bulk Modulus (GPa) = 27.33725 55.12851 41.23288
# Shear Modulus (GPa) = 22.37217 32.51591 27.44404
#
# Velocity S-wave (km/s) = 3.28147 3.95606 3.63445
# Velocity P-wave (km/s) = 5.24550 6.88487 6.12032
#
# Compressibility (1/GPa) = 0.03658012
#
# Stress axis : x y z
#
# Youngs Moduli (GPa) = 69.95437 56.58219 80.34450
#
# Poissons Ratio (x) = 0.06853 0.23762
# Poissons Ratio (y) = 0.08472 -0.02019
# Poissons Ratio (z) = 0.20689 -0.01422
#
# Static dielectric constant tensor:
#      x y z
#    x 4.116590 0.339050 0.214010 
#    y 0.339050 4.412260 0.143160 
#    z 0.214010 0.143160 3.904090 
# 
# 
# High freq. dielectric constant tensor:
#      x y z
#    x 1.816420 0.005490 0.000640 
#    y 0.005490 1.821030 0.009830 
#    z 0.000640 0.009830 1.804260 
# 
# From -- ./inp_files/260989.got.cif
#   From: 2010.06.25/outbox.cif.g09.slc.cpg/sg2_131_cif.got.tgz:260989.got - 2010.06.27 13:26:56.
