data_PCOD8007480
_publ_section_title
;
Structure prediction by ZEFSAII (Michael W. Deem and Ramdas Pophale) SiO2 
 PCOD8007480
Probable space group: P -1
;
_chemical_formula_sum "Si O2"
_cell_formula_units_Z 14
_cell_length_a 17.037022
_cell_length_b 11.167735
_cell_length_c 8.305855
_cell_angle_alpha 136.138940
_cell_angle_beta 136.292939
_cell_angle_gamma 38.920139
_cell_volume 638.575638
_symmetry_space_group_name_H-M "P -1"
_symmetry_group_IT_number 2
_symmetry_cell_setting 'triclinic'
loop_
_space_group_symop_operation_xyz
x,y,z
-x,-y,-z
loop_
_atom_site_type_symbol
_atom_site_label
_atom_site_fract_x
_atom_site_fract_y
_atom_site_fract_z
Si Si1 0.411422 0.183794 0.430481
Si Si2 0.145457 0.828139 0.114396
Si Si3 0.737086 0.951700 0.145410
Si Si4 0.967993 0.389959 0.712278
Si Si5 0.858940 0.184314 0.528779
Si Si6 0.770564 0.578022 0.344918
Si Si7 0.339330 0.988276 0.565891
O O1 0.335011 0.378461 0.624267
O O2 0.500000 0.000000 0.500000
O O3 0.513076 0.183098 0.450745
O O4 0.298882 0.154306 0.148886
O O5 0.138402 0.779815 0.242681
O O6 0.241211 0.912073 0.302659
O O7 0.208909 0.610107 0.910033
O O8 0.000000 0.000000 0.000000
O O9 0.637746 0.012150 0.208324
O O10 0.889109 0.816861 0.313955
O O11 0.737145 0.149875 0.270063
O O12 0.846975 0.370604 0.590100
O O13 0.912380 0.511543 0.579201
O O14 0.000000 0.500000 0.000000
O O15 0.000000 0.000000 0.500000
O O16 0.720079 0.781714 0.363577
#
# Coordination Sequence:
#
# PCOD8007480 Si02
#       7
#     2   2   2   2   2   2   2
#     4  10  22  40  64  91 123 170 214 256 311 371
#     4  11  24  40  63  96 129 162 208 262 319 374
#     4  10  20  41  64  89 124 165 209 262 315 370
#     4  11  22  36  61  93 124 162 205 253 318 375
#     4   9  21  38  58  88 124 161 200 252 311 374
#     4  11  24  40  64  96 127 166 208 260 320 369
#     4  10  24  42  65  91 127 170 213 260 308 374
#
# _framework density 21.923794000000001
#
# number of rings (size 3 to 8) (size 9 to 14) (size 15 to 20)
#    0.000    1.714    1.429    3.000    4.000    5.143 
#    0.000    1.429    0.000    9.429    0.000    0.000 
#    0.000    0.000    0.000    0.000    0.000    0.000 
#
# Total GULP energy -173439.261571 kJ/mol
# GULP energy per Si atom -12388.518684 kJ/mol
# Density = 2.187389 g / cm^3
# Si number density = 21.923794 Si / 1000 Ang^3
#
#
#
# Elastic Constant Matrix: (Units=GPa)
#
#
# Indices 1 2 3 4 5 6 
#
# 1 137.3026 27.8665 50.9816 17.2553 -5.1557 -14.8635
# 2 27.8665 63.2436 30.9319 11.1451 0.1008 -5.4071
# 3 50.9816 30.9319 120.3606 23.7515 -9.9256 -9.3571
# 4 17.2553 11.1451 23.7515 39.2055 -6.4676 -1.6571
# 5 -5.1557 0.1008 -9.9256 -6.4676 38.9554 7.7106
# 6 -14.8635 -5.4071 -9.3571 -1.6571 7.7106 32.2541
#
#
#
# Elastic Compliance Matrix: (Units=1/GPa)
#
#
# Indices 1 2 3 4 5 6 
#
# 1 0.009311 -0.002144 -0.002848 -0.001695 -0.000385 0.003110
# 2 -0.002144 0.019072 -0.003523 -0.002603 -0.001964 0.001523
# 3 -0.002848 -0.003523 0.011488 -0.004395 0.001670 0.000804
# 4 -0.001695 -0.002603 -0.004395 0.030245 0.004062 -0.001910
# 5 -0.000385 -0.001964 0.001670 0.004062 0.028013 -0.006510
# 6 0.003110 0.001523 0.000804 -0.001910 -0.006510 0.034384
#
#
# Mechanical properties :
#
#
# Convention : Reuss Voigt Hill
#
# Bulk Modulus (GPa) = 43.78389 60.05188 51.91788
# Shear Modulus (GPa) = 31.81530 36.15810 33.98670
#
# Velocity S-wave (km/s) = 3.81356 4.06552 3.94155
# Velocity P-wave (km/s) = 6.27737 7.03481 6.66685
#
# Compressibility (1/GPa) = 0.02283945
#
# Stress axis : x y z
#
# Youngs Moduli (GPa) = 107.39672 52.43320 87.04889
#
# Poissons Ratio (x) = 0.11244 0.24795
# Poissons Ratio (y) = 0.23030 0.30667
# Poissons Ratio (z) = 0.30591 0.18472
#
# Static dielectric constant tensor:
#      x y z
#    x 4.993610 -0.133220 0.207520 
#    y -0.133220 4.713190 0.311960 
#    z 0.207520 0.311960 4.110570 
# 
# 
# High freq. dielectric constant tensor:
#      x y z
#    x 1.876800 -0.006150 -0.011670 
#    y -0.006150 1.850410 0.005090 
#    z -0.011670 0.005090 1.864200 
# 
# From -- ./inp_files/332574.got.cif
#   From: 2010.06.25/outbox.cif.g09.slc.cpg/sg2_167_cif.got.tgz:332574.got - 2010.06.27 13:26:56.
