data_PCOD8007831
_publ_section_title
;
Structure prediction by ZEFSAII (Michael W. Deem and Ramdas Pophale) SiO2 
 PCOD8007831
Probable space group: P -1
;
_chemical_formula_sum "Si O2"
_cell_formula_units_Z 16
_cell_length_a 9.341399
_cell_length_b 14.660584
_cell_length_c 11.767637
_cell_angle_alpha 147.795671
_cell_angle_beta 64.572441
_cell_angle_gamma 99.796914
_cell_volume 710.475044
_symmetry_space_group_name_H-M "P -1"
_symmetry_group_IT_number 2
_symmetry_cell_setting 'triclinic'
loop_
_space_group_symop_operation_xyz
x,y,z
-x,-y,-z
loop_
_atom_site_type_symbol
_atom_site_label
_atom_site_fract_x
_atom_site_fract_y
_atom_site_fract_z
Si Si1 0.707705 0.503890 0.803547
Si Si2 0.314873 0.503409 0.544739
Si Si3 0.769078 0.738053 0.853813
Si Si4 0.491212 0.906123 0.580942
Si Si5 0.900936 0.220685 0.262659
Si Si6 0.786161 0.612671 0.307705
Si Si7 0.892198 0.330623 0.779219
Si Si8 0.369240 0.826235 0.303211
O O1 0.796999 0.633753 0.855853
O O2 0.766797 0.308432 0.505897
O O3 0.765059 0.474643 0.883270
O O4 0.500229 0.624098 0.996464
O O5 0.500000 0.500000 0.500000
O O6 0.337983 0.344134 0.276061
O O7 0.195645 0.708221 0.749942
O O8 0.233297 0.457355 0.635594
O O9 0.952286 0.697237 0.690530
O O10 0.661302 0.957868 0.143054
O O11 0.602851 0.739320 0.449494
O O12 0.408491 0.832409 0.429807
O O13 0.611564 0.005095 0.593084
O O14 0.000000 0.000000 0.000000
O O15 0.909792 0.729112 0.393698
O O16 0.877863 0.426441 0.006692
O O17 0.827332 0.160649 0.631436
#
# Coordination Sequence:
#
# PCOD8007831 Si02
#       8
#     2   2   2   2   2   2   2   2
#     4  10  20  41  69  91 129 171 228 271 328 385
#     4  11  26  47  69  95 136 184 219 272 346 403
#     4  10  23  43  68  95 133 175 224 278 325 399
#     4  10  23  41  66 100 133 171 224 283 322 395
#     4  11  25  43  70 101 127 174 233 281 322 393
#     4  11  25  42  63  97 140 178 217 265 347 406
#     4  11  23  39  66  95 130 182 217 272 333 406
#     4  10  22  40  66  99 130 173 226 275 327 384
#
# _framework density 22.520142
#
# number of rings (size 3 to 8) (size 9 to 14) (size 15 to 20)
#    0.000    1.500    1.250    3.375    8.750    1.000 
#    2.250    0.000    0.000    0.000    0.000    0.000 
#    0.000    0.000    0.000    0.000    0.000    0.000 
#
# Total GULP energy -198373.275036 kJ/mol
# GULP energy per Si atom -12398.329690 kJ/mol
# Density = 2.246888 g / cm^3
# Si number density = 22.520142 Si / 1000 Ang^3
#
#
#
# Elastic Constant Matrix: (Units=GPa)
#
#
# Indices 1 2 3 4 5 6 
#
# 1 117.6095 30.0195 27.0264 -2.0092 9.0710 13.6611
# 2 30.0195 97.5705 31.6128 -16.4536 -0.3185 -6.2461
# 3 27.0264 31.6128 109.9148 1.2332 -2.3666 -5.0533
# 4 -2.0092 -16.4536 1.2332 30.0002 -2.2349 -5.6135
# 5 9.0710 -0.3185 -2.3666 -2.2349 28.5304 4.9157
# 6 13.6611 -6.2461 -5.0533 -5.6135 4.9157 39.5027
#
#
#
# Elastic Compliance Matrix: (Units=1/GPa)
#
#
# Indices 1 2 3 4 5 6 
#
# 1 0.010448 -0.003230 -0.001878 -0.002015 -0.002933 -0.004286
# 2 -0.003230 0.013915 -0.003099 0.008357 0.000891 0.003997
# 3 -0.001878 -0.003099 0.010547 -0.001973 0.001095 0.001092
# 4 -0.002015 0.008357 -0.001973 0.039365 0.002438 0.007056
# 5 -0.002933 0.000891 0.001095 0.002438 0.036780 -0.002935
# 6 -0.004286 0.003997 0.001092 0.007056 -0.002935 0.028937
#
#
# Mechanical properties :
#
#
# Convention : Reuss Voigt Hill
#
# Bulk Modulus (GPa) = 54.06207 55.82358 54.94283
# Shear Modulus (GPa) = 30.75607 35.36906 33.06256
#
# Velocity S-wave (km/s) = 3.69957 3.96732 3.83578
# Velocity P-wave (km/s) = 6.50440 6.76966 6.63836
#
# Compressibility (1/GPa) = 0.01849726
#
# Stress axis : x y z
#
# Youngs Moduli (GPa) = 95.70995 71.86590 94.81584
#
# Poissons Ratio (x) = 0.23212 0.17803
# Poissons Ratio (y) = 0.30914 0.29380
# Poissons Ratio (z) = 0.17971 0.22269
#
# Static dielectric constant tensor:
#      x y z
#    x 4.081620 0.244490 -0.012900 
#    y 0.244490 4.353590 -0.134630 
#    z -0.012900 -0.134630 3.927530 
# 
# 
# High freq. dielectric constant tensor:
#      x y z
#    x 1.883620 0.013950 0.000340 
#    y 0.013950 1.902260 -0.008540 
#    z 0.000340 -0.008540 1.873330 
# 
# From -- ./inp_files/399955.got.cif
#   From: 2010.06.25/outbox.cif.g09.slc.cpg/sg2_200_cif.got.tgz:399955.got - 2010.06.27 13:26:56.
