data_PCOD8007172
_publ_section_title
;
Structure prediction by ZEFSAII (Michael W. Deem and Ramdas Pophale) SiO2 
 PCOD8007172
Probable space group: P -1
;
_chemical_formula_sum "Si O2"
_cell_formula_units_Z 16
_cell_length_a 9.125525
_cell_length_b 11.765415
_cell_length_c 25.989674
_cell_angle_alpha 32.153319
_cell_angle_beta 27.437165
_cell_angle_gamma 38.062672
_cell_volume 676.867633
_symmetry_space_group_name_H-M "P -1"
_symmetry_group_IT_number 2
_symmetry_cell_setting 'triclinic'
loop_
_space_group_symop_operation_xyz
x,y,z
-x,-y,-z
loop_
_atom_site_type_symbol
_atom_site_label
_atom_site_fract_x
_atom_site_fract_y
_atom_site_fract_z
Si Si1 0.074558 0.849949 0.781651
Si Si2 0.211397 0.070254 0.860687
Si Si3 0.772409 0.584827 0.645319
Si Si4 0.935632 0.859502 0.234540
Si Si5 0.744831 0.455236 0.323919
Si Si6 0.793318 0.218801 0.496015
Si Si7 0.715564 0.685045 0.870136
Si Si8 0.713003 0.804715 0.479174
O O1 0.428376 0.710590 0.722698
O O2 0.811018 0.715134 0.889379
O O3 0.009625 0.925256 0.832366
O O4 0.028108 0.075584 0.677037
O O5 0.009163 0.091948 0.861817
O O6 0.339921 0.289639 0.752568
O O7 0.527501 0.898632 0.821189
O O8 0.000000 0.000000 0.000000
O O9 0.819224 0.604820 0.561528
O O10 0.806531 0.339420 0.748993
O O11 0.071190 0.703572 0.523099
O O12 0.578304 0.800866 0.374621
O O13 0.887089 0.399719 0.357391
O O14 0.457311 0.311941 0.468255
O O15 0.960147 0.368991 0.241587
O O16 0.000000 0.000000 0.500000
O O17 0.500000 0.500000 0.000000
O O18 0.500000 0.000000 0.500000
#
# Coordination Sequence:
#
# PCOD8007172 Si02
#       8
#     2   2   2   2   2   2   2   2
#     4  11  25  45  71 111 145 188 241 302 369 437
#     4  12  29  49  74 103 141 198 261 302 352 442
#     4  11  23  39  65 107 158 181 229 291 365 437
#     4  12  26  44  72 111 145 191 236 299 381 428
#     4  12  23  46  73 107 150 187 247 299 366 433
#     4  12  22  40  70 111 154 190 229 301 368 445
#     4  12  27  49  80  98 137 202 255 299 363 434
#     4  10  20  40  68 108 150 189 224 301 369 431
#
# _framework density 23.638297999999999
#
# number of rings (size 3 to 8) (size 9 to 14) (size 15 to 20)
#    0.000    0.500    7.500    1.875    3.500    0.500 
#    0.000    1.250    2.750    0.000    0.000    0.000 
#    0.000    0.000    0.000    0.000    0.000    0.000 
#
# Total GULP energy -198283.011186 kJ/mol
# GULP energy per Si atom -12392.688199 kJ/mol
# Density = 2.358450 g / cm^3
# Si number density = 23.638298 Si / 1000 Ang^3
#
#
#
# Elastic Constant Matrix: (Units=GPa)
#
#
# Indices 1 2 3 4 5 6 
#
# 1 143.3494 45.0057 45.5225 -9.0701 1.7825 10.2370
# 2 45.0057 118.6233 31.4385 -28.8656 6.3478 -8.3857
# 3 45.5225 31.4385 87.6259 -21.7885 -6.5766 9.1218
# 4 -9.0701 -28.8656 -21.7885 27.5025 6.7053 4.9303
# 5 1.7825 6.3478 -6.5766 6.7053 49.1136 -5.8883
# 6 10.2370 -8.3857 9.1218 4.9303 -5.8883 40.9822
#
#
#
# Elastic Compliance Matrix: (Units=1/GPa)
#
#
# Indices 1 2 3 4 5 6 
#
# 1 0.009306 -0.003345 -0.004363 -0.003555 -0.000201 -0.001639
# 2 -0.003345 0.013221 -0.000127 0.013186 -0.003222 0.001520
# 3 -0.004363 -0.000127 0.017411 0.012946 0.000219 -0.004338
# 4 -0.003555 0.013186 0.012946 0.063061 -0.009439 -0.008238
# 5 -0.000201 -0.003222 0.000219 -0.009439 0.022548 0.003717
# 6 -0.001639 0.001520 -0.004338 -0.008238 0.003717 0.027612
#
#
# Mechanical properties :
#
#
# Convention : Reuss Voigt Hill
#
# Bulk Modulus (GPa) = 41.20525 65.94801 53.57663
# Shear Modulus (GPa) = 28.26132 38.69511 33.47821
#
# Velocity S-wave (km/s) = 3.46146 4.05033 3.76742
# Velocity P-wave (km/s) = 5.78316 7.05925 6.45283
#
# Compressibility (1/GPa) = 0.02426875
#
# Stress axis : x y z
#
# Youngs Moduli (GPa) = 107.45512 75.63577 57.43333
#
# Poissons Ratio (x) = 0.25298 0.25059
# Poissons Ratio (y) = 0.35940 0.00731
# Poissons Ratio (z) = 0.46884 0.00963
#
# Static dielectric constant tensor:
#      x y z
#    x 4.854920 0.009420 0.046730 
#    y 0.009420 4.468560 -0.162020 
#    z 0.046730 -0.162020 3.944770 
# 
# 
# High freq. dielectric constant tensor:
#      x y z
#    x 1.956780 0.010490 0.001970 
#    y 0.010490 1.948300 -0.018150 
#    z 0.001970 -0.018150 1.902730 
# 
# From -- ./inp_files/617025.got.cif
#   From: 2010.06.25/outbox.cif.g09.slc.cpg/sg2_309_cif.got.tgz:617025.got - 2010.06.27 13:26:56.
