data_PCOD8007124
_publ_section_title
;
Structure prediction by ZEFSAII (Michael W. Deem and Ramdas Pophale) SiO2 
 PCOD8007124
Probable space group: P -1
;
_chemical_formula_sum "Si O2"
_cell_formula_units_Z 16
_cell_length_a 14.072727
_cell_length_b 16.741905
_cell_length_c 23.155165
_cell_angle_alpha 22.366828
_cell_angle_beta 159.201387
_cell_angle_gamma 147.295312
_cell_volume 726.359974
_symmetry_space_group_name_H-M "P -1"
_symmetry_group_IT_number 2
_symmetry_cell_setting 'triclinic'
loop_
_space_group_symop_operation_xyz
x,y,z
-x,-y,-z
loop_
_atom_site_type_symbol
_atom_site_label
_atom_site_fract_x
_atom_site_fract_y
_atom_site_fract_z
Si Si1 0.938012 0.905819 0.589741
Si Si2 0.724017 0.350712 0.189417
Si Si3 0.758756 0.453580 0.635605
Si Si4 0.517526 0.614710 0.792531
Si Si5 0.314516 0.508175 0.265139
Si Si6 0.039445 0.290530 0.624934
Si Si7 0.025660 0.151924 0.074739
Si Si8 0.613115 0.351196 0.911137
O O1 0.813085 0.693745 0.652077
O O2 0.194789 0.848984 0.816596
O O3 0.000000 0.000000 0.500000
O O4 0.724253 0.099177 0.368442
O O5 0.035787 0.377953 0.359244
O O6 0.500000 0.500000 0.000000
O O7 0.646103 0.407353 0.040764
O O8 0.500000 0.500000 0.500000
O O9 0.635519 0.452646 0.501538
O O10 0.936738 0.229771 0.907192
O O11 0.553411 0.547719 0.790636
O O12 0.667096 0.811985 0.761675
O O13 0.192766 0.684340 0.573938
O O14 0.261397 0.551539 0.138426
O O15 0.170664 0.716716 0.077437
O O16 0.348012 0.259481 0.798529
O O17 0.000000 0.500000 0.500000
O O18 0.992900 0.094140 0.769646
#
# Coordination Sequence:
#
# PCOD8007124 Si02
#       8
#     2   2   2   2   2   2   2   2
#     4  12  23  44  73  96 134 185 230 280 339 415
#     4  11  25  43  69 103 137 176 234 289 340 413
#     4   9  21  42  67  98 134 178 229 280 346 408
#     4  10  21  45  64  93 137 182 221 275 354 403
#     4  11  24  40  67 101 132 169 229 292 330 397
#     4  10  24  39  64  94 135 176 218 273 340 411
#     4  10  20  40  67  94 129 177 229 274 336 410
#     4  11  24  42  65 101 133 174 236 277 341 402
#
# _framework density 22.027646000000001
#
# number of rings (size 3 to 8) (size 9 to 14) (size 15 to 20)
#    0.000    1.500    2.500    2.250    7.000    1.500 
#    9.000    0.625    0.000    0.000    0.000    0.000 
#    0.000    0.000    0.000    0.000    0.000    0.000 
#
# Total GULP energy -198270.926109 kJ/mol
# GULP energy per Si atom -12391.932882 kJ/mol
# Density = 2.197751 g / cm^3
# Si number density = 22.027646 Si / 1000 Ang^3
#
#
#
# Elastic Constant Matrix: (Units=GPa)
#
#
# Indices 1 2 3 4 5 6 
#
# 1 83.7400 24.9251 38.7995 2.8626 -17.7037 -3.4466
# 2 24.9251 116.9463 77.2589 3.4224 -7.8492 6.8123
# 3 38.7995 77.2589 142.1039 9.3642 -16.5555 -2.3374
# 4 2.8626 3.4224 9.3642 59.6333 -2.4569 -1.0615
# 5 -17.7037 -7.8492 -16.5555 -2.4569 38.8607 -2.6650
# 6 -3.4466 6.8123 -2.3374 -1.0615 -2.6650 20.9199
#
#
#
# Elastic Compliance Matrix: (Units=1/GPa)
#
#
# Indices 1 2 3 4 5 6 
#
# 1 0.014869 -0.001196 -0.002708 0.000069 0.005606 0.003254
# 2 -0.001196 0.014054 -0.007581 0.000284 -0.001314 -0.005773
# 3 -0.002708 -0.007581 0.012349 -0.001198 0.002673 0.003682
# 4 0.000069 0.000284 -0.001198 0.016980 0.000702 0.000736
# 5 0.005606 -0.001314 0.002673 0.000702 0.029579 0.005454
# 6 0.003254 -0.005773 0.003682 0.000736 0.005454 0.051361
#
#
# Mechanical properties :
#
#
# Convention : Reuss Voigt Hill
#
# Bulk Modulus (GPa) = 54.63522 69.41748 62.02635
# Shear Modulus (GPa) = 29.71566 37.33655 33.52610
#
# Velocity S-wave (km/s) = 3.67688 4.12149 3.90552
# Velocity P-wave (km/s) = 6.54850 7.36418 6.96828
#
# Compressibility (1/GPa) = 0.01830321
#
# Stress axis : x y z
#
# Youngs Moduli (GPa) = 67.25427 71.15433 80.97801
#
# Poissons Ratio (x) = 0.08507 0.21925
# Poissons Ratio (y) = 0.08041 0.61391
# Poissons Ratio (z) = 0.18210 0.53943
#
# Static dielectric constant tensor:
#      x y z
#    x 3.693030 0.047250 -0.142090 
#    y 0.047250 4.217500 0.490810 
#    z -0.142090 0.490810 4.654630 
# 
# 
# High freq. dielectric constant tensor:
#      x y z
#    x 1.832970 0.006520 -0.012840 
#    y 0.006520 1.868890 0.016910 
#    z -0.012840 0.016910 1.887840 
# 
# From -- ./inp_files/612195.got.cif
#   From: 2010.06.25/outbox.cif.g09.slc.cpg/sg2_307_cif.got.tgz:612195.got - 2010.06.27 13:26:56.
