data_PCOD8007535
_publ_section_title
;
Structure prediction by ZEFSAII (Michael W. Deem and Ramdas Pophale) SiO2 
 PCOD8007535
Probable space group: P -1
;
_chemical_formula_sum "Si O2"
_cell_formula_units_Z 16
_cell_length_a 9.263995
_cell_length_b 14.317207
_cell_length_c 15.337100
_cell_angle_alpha 39.013127
_cell_angle_beta 57.769559
_cell_angle_gamma 86.995875
_cell_volume 794.445018
_symmetry_space_group_name_H-M "P -1"
_symmetry_group_IT_number 2
_symmetry_cell_setting 'triclinic'
loop_
_space_group_symop_operation_xyz
x,y,z
-x,-y,-z
loop_
_atom_site_type_symbol
_atom_site_label
_atom_site_fract_x
_atom_site_fract_y
_atom_site_fract_z
Si Si1 0.009706 0.671258 0.563019
Si Si2 0.334643 0.655221 0.569448
Si Si3 0.551362 0.239977 0.973062
Si Si4 0.991756 0.796795 0.983245
Si Si5 0.490797 0.009044 0.599544
Si Si6 0.823655 0.005141 0.597370
Si Si7 0.267133 0.980181 0.919561
Si Si8 0.791596 0.985761 0.886369
O O1 0.153609 0.612388 0.587780
O O2 0.007008 0.770703 0.578112
O O3 0.755772 0.472429 0.759526
O O4 0.117474 0.819352 0.338163
O O5 0.373432 0.768975 0.564686
O O6 0.577782 0.796286 0.335503
O O7 0.239952 0.438719 0.786150
O O8 0.473628 0.204779 0.922018
O O9 0.323189 0.158324 0.159318
O O10 0.599938 0.096887 0.085350
O O11 0.951516 0.935678 0.854581
O O12 0.218873 0.852635 0.827801
O O13 0.026131 0.834831 0.049102
O O14 0.627818 0.946578 0.635783
O O15 0.500000 0.000000 0.500000
O O16 0.000000 0.000000 0.500000
O O17 0.212034 0.972344 0.042698
#
# Coordination Sequence:
#
# PCOD8007535 Si02
#       8
#     2   2   2   2   2   2   2   2
#     4  10  21  40  64  87 123 161 198 246 302 351
#     4  10  20  41  65  84 122 165 197 241 303 365
#     4  11  21  40  62  90 121 160 202 248 294 360
#     4  11  23  42  61  88 127 160 196 248 306 353
#     4  10  22  39  64  88 119 159 200 244 303 362
#     4  10  21  40  63  90 119 156 201 248 298 358
#     4  11  21  41  64  86 123 164 202 241 303 358
#     4  11  25  37  61  97 122 152 207 257 285 350
#
# _framework density 20.139844
#
# number of rings (size 3 to 8) (size 9 to 14) (size 15 to 20)
#    0.000    1.500    6.250    0.750    3.500    5.000 
#    0.000    0.000    0.000    0.000    0.000    0.000 
#    0.000    0.000    0.000    0.000    0.000    0.000 
#
# Total GULP energy -198282.527838 kJ/mol
# GULP energy per Si atom -12392.657990 kJ/mol
# Density = 2.009400 g / cm^3
# Si number density = 20.139844 Si / 1000 Ang^3
#
#
#
# Elastic Constant Matrix: (Units=GPa)
#
#
# Indices 1 2 3 4 5 6 
#
# 1 72.4600 29.3133 20.4263 -1.5666 -1.9670 11.1152
# 2 29.3133 81.4038 54.0531 -1.2400 1.5418 18.1430
# 3 20.4263 54.0531 97.4479 -13.4085 -6.7645 5.9004
# 4 -1.5666 -1.2400 -13.4085 29.4268 9.5005 -5.7022
# 5 -1.9670 1.5418 -6.7645 9.5005 27.0140 2.9931
# 6 11.1152 18.1430 5.9004 -5.7022 2.9931 40.5395
#
#
#
# Elastic Compliance Matrix: (Units=1/GPa)
#
#
# Indices 1 2 3 4 5 6 
#
# 1 0.016398 -0.005181 -0.000371 -0.000567 0.001855 -0.002340
# 2 -0.005181 0.024645 -0.013061 -0.006197 -0.001940 -0.008437
# 3 -0.000371 -0.013061 0.018580 0.008044 0.002074 0.004221
# 4 -0.000567 -0.006197 0.008044 0.043605 -0.013998 0.008925
# 5 0.001855 -0.001940 0.002074 -0.013998 0.043272 -0.005106
# 6 -0.002340 -0.008437 0.004221 0.008925 -0.005106 0.030103
#
#
# Mechanical properties :
#
#
# Convention : Reuss Voigt Hill
#
# Bulk Modulus (GPa) = 44.64773 50.98857 47.81815
# Shear Modulus (GPa) = 22.59429 29.23065 25.91247
#
# Velocity S-wave (km/s) = 3.35307 3.81384 3.59085
# Velocity P-wave (km/s) = 6.09981 6.69074 6.40210
#
# Compressibility (1/GPa) = 0.02239756
#
# Stress axis : x y z
#
# Youngs Moduli (GPa) = 60.98196 40.57546 53.82210
#
# Poissons Ratio (x) = 0.21021 0.01997
# Poissons Ratio (y) = 0.31593 0.70298
# Poissons Ratio (z) = 0.02263 0.52996
#
# Static dielectric constant tensor:
#      x y z
#    x 3.856210 0.228940 -0.085370 
#    y 0.228940 3.659660 -0.125660 
#    z -0.085370 -0.125660 3.450870 
# 
# 
# High freq. dielectric constant tensor:
#      x y z
#    x 1.795250 0.019250 -0.006730 
#    y 0.019250 1.782500 -0.006310 
#    z -0.006730 -0.006310 1.770300 
# 
# From -- ./inp_files/217434.got.cif
#   From: 2010.06.25/outbox.cif.g09.slc.cpg/sg2_109_cif.got.tgz:217434.got - 2010.06.27 13:26:56.
