data_PCOD8007935
_publ_section_title
;
Structure prediction by ZEFSAII (Michael W. Deem and Ramdas Pophale) SiO2 
 PCOD8007935
Probable space group: P -1
;
_chemical_formula_sum "Si O2"
_cell_formula_units_Z 16
_cell_length_a 11.669559
_cell_length_b 21.812628
_cell_length_c 17.675657
_cell_angle_alpha 161.993939
_cell_angle_beta 30.273334
_cell_angle_gamma 148.619584
_cell_volume 685.815569
_symmetry_space_group_name_H-M "P -1"
_symmetry_group_IT_number 2
_symmetry_cell_setting 'triclinic'
loop_
_space_group_symop_operation_xyz
x,y,z
-x,-y,-z
loop_
_atom_site_type_symbol
_atom_site_label
_atom_site_fract_x
_atom_site_fract_y
_atom_site_fract_z
Si Si1 0.769488 0.024200 0.240709
Si Si2 0.367090 0.779065 0.703544
Si Si3 0.152807 0.306515 0.084123
Si Si4 0.927230 0.370516 0.814777
Si Si5 0.716382 0.863767 0.919838
Si Si6 0.571342 0.609671 0.244509
Si Si7 0.575841 0.549661 0.430327
Si Si8 0.713444 0.910499 0.391054
O O1 0.558037 0.104130 0.494156
O O2 0.021024 0.171886 0.285867
O O3 0.780641 0.804904 0.009864
O O4 0.715830 0.006353 0.160699
O O5 0.515110 0.694537 0.456515
O O6 0.490885 0.744711 0.672176
O O7 0.103531 0.650578 0.708136
O O8 0.363282 0.015152 0.964710
O O9 0.159528 0.171314 0.847154
O O10 0.335573 0.520207 0.226576
O O11 0.147428 0.408071 0.677900
O O12 0.847406 0.133654 0.599879
O O13 0.715028 0.435446 0.969642
O O14 0.000000 0.500000 0.000000
O O15 0.540303 0.652128 0.787489
O O16 0.730407 0.781425 0.304987
O O17 0.500000 0.500000 0.500000
#
# Coordination Sequence:
#
# PCOD8007935 Si02
#       8
#     2   2   2   2   2   2   2   2
#     4  10  20  41  73 100 141 181 226 285 356 418
#     4  11  25  46  71 105 141 183 238 288 347 424
#     4  11  25  43  72 111 147 175 233 303 360 413
#     4  12  28  50  70 101 143 192 244 281 341 432
#     4  10  23  44  71 103 136 189 235 284 348 421
#     4  12  25  45  75 105 140 190 235 287 356 427
#     4  12  29  46  72  99 142 190 237 291 347 417
#     4  12  26  44  72 108 145 185 227 299 358 409
#
# _framework density 23.329888
#
# number of rings (size 3 to 8) (size 9 to 14) (size 15 to 20)
#    0.000    0.750    3.750    2.625    7.000    2.000 
#    0.000    0.000    0.000    0.000    0.000    0.000 
#    0.000    0.000    0.000    0.000    0.000    0.000 
#
# Total GULP energy -198450.508579 kJ/mol
# GULP energy per Si atom -12403.156786 kJ/mol
# Density = 2.327679 g / cm^3
# Si number density = 23.329888 Si / 1000 Ang^3
#
#
#
# Elastic Constant Matrix: (Units=GPa)
#
#
# Indices 1 2 3 4 5 6 
#
# 1 84.1181 27.6017 20.1682 -5.3975 -9.3227 -21.3611
# 2 27.6017 133.3126 25.7570 0.4648 -5.6094 -5.2587
# 3 20.1682 25.7570 37.1552 1.6314 -6.9962 -9.4949
# 4 -5.3975 0.4648 1.6314 42.3987 8.8864 -0.0344
# 5 -9.3227 -5.6094 -6.9962 8.8864 28.8948 -0.7125
# 6 -21.3611 -5.2587 -9.4949 -0.0344 -0.7125 42.2525
#
#
#
# Elastic Compliance Matrix: (Units=1/GPa)
#
#
# Indices 1 2 3 4 5 6 
#
# 1 0.015890 -0.001921 -0.005040 0.001569 0.003216 0.006717
# 2 -0.001921 0.008898 -0.005440 -0.000090 -0.000209 -0.001090
# 3 -0.005040 -0.005440 0.036235 -0.003500 0.007292 0.005038
# 4 0.001569 -0.000090 -0.003500 0.025650 -0.008250 -0.000123
# 5 0.003216 -0.000209 0.007292 -0.008250 0.040005 0.003907
# 6 0.006717 -0.001090 0.005038 -0.000123 0.003907 0.028125
#
#
# Mechanical properties :
#
#
# Convention : Reuss Voigt Hill
#
# Bulk Modulus (GPa) = 27.60796 44.62664 36.11730
# Shear Modulus (GPa) = 26.08526 34.77979 30.43253
#
# Velocity S-wave (km/s) = 3.34744 3.86525 3.61563
# Velocity P-wave (km/s) = 5.17686 6.25222 5.73978
#
# Compressibility (1/GPa) = 0.03622144
#
# Stress axis : x y z
#
# Youngs Moduli (GPa) = 62.93358 112.37865 27.59765
#
# Poissons Ratio (x) = 0.21591 0.13909
# Poissons Ratio (y) = 0.12091 0.15012
# Poissons Ratio (z) = 0.31718 0.61130
#
# Static dielectric constant tensor:
#      x y z
#    x 4.108670 0.091350 -0.260390 
#    y 0.091350 4.580550 -0.067920 
#    z -0.260390 -0.067920 4.099410 
# 
# 
# High freq. dielectric constant tensor:
#      x y z
#    x 1.911490 -0.007920 -0.016220 
#    y -0.007920 1.943680 -0.005610 
#    z -0.016220 -0.005610 1.913730 
# 
# From -- ./inp_files/570781.got.cif
#   From: 2010.06.25/outbox.cif.g09.slc.cpg/sg2_286_cif.got.tgz:570781.got - 2010.06.27 13:26:56.
