data_PCOD8007147
_publ_section_title
;
Structure prediction by ZEFSAII (Michael W. Deem and Ramdas Pophale) SiO2 
 PCOD8007147
Probable space group: P -1
;
_chemical_formula_sum "Si O2"
_cell_formula_units_Z 16
_cell_length_a 9.218022
_cell_length_b 22.998510
_cell_length_c 8.273227
_cell_angle_alpha 148.085941
_cell_angle_beta 123.010910
_cell_angle_gamma 48.172754
_cell_volume 689.909308
_symmetry_space_group_name_H-M "P -1"
_symmetry_group_IT_number 2
_symmetry_cell_setting 'triclinic'
loop_
_space_group_symop_operation_xyz
x,y,z
-x,-y,-z
loop_
_atom_site_type_symbol
_atom_site_label
_atom_site_fract_x
_atom_site_fract_y
_atom_site_fract_z
Si Si1 0.786020 0.796932 0.393297
Si Si2 0.140795 0.827714 0.819730
Si Si3 0.608000 0.552744 0.078682
Si Si4 0.165797 0.066250 0.530110
Si Si5 0.986366 0.510873 0.826496
Si Si6 0.589399 0.060116 0.314314
Si Si7 0.709838 0.413985 0.491365
Si Si8 0.254490 0.800021 0.460942
O O1 0.713336 0.892744 0.423959
O O2 0.591491 0.822729 0.435922
O O3 0.934690 0.827774 0.662315
O O4 0.878482 0.655681 0.053519
O O5 0.244897 0.729480 0.798181
O O6 0.266017 0.795733 0.653515
O O7 0.121209 0.958073 0.175753
O O8 0.439977 0.682658 0.220974
O O9 0.796431 0.558819 0.289029
O O10 0.500000 0.500000 0.000000
O O11 0.717070 0.455135 0.775077
O O12 0.952260 0.187929 0.697484
O O13 0.272109 0.035389 0.692375
O O14 0.863761 0.437094 0.527301
O O15 0.000000 0.500000 0.000000
O O16 0.728914 0.087115 0.345575
O O17 0.500000 0.000000 0.000000
O O18 0.500000 0.500000 0.500000
#
# Coordination Sequence:
#
# PCOD8007147 Si02
#       8
#     2   2   2   2   2   2   2   2
#     4  11  21  42  69  94 131 174 218 278 328 401
#     4  11  22  43  68  92 135 175 224 266 331 413
#     4  11  20  42  67  97 131 170 221 275 341 385
#     4  11  25  43  64  99 128 179 219 265 338 412
#     4  10  20  40  67  98 131 175 226 266 331 401
#     4  12  25  42  63  96 132 167 217 277 337 388
#     4  11  24  41  65  99 131 182 230 270 325 400
#     4  11  23  41  66  94 132 170 215 277 332 393
#
# _framework density 23.191454
#
# number of rings (size 3 to 8) (size 9 to 14) (size 15 to 20)
#    0.000    1.000    3.750    6.000    3.500    0.000 
#    0.000    0.625    0.000    0.000    0.000    0.000 
#    0.000    0.000    0.000    0.000    0.000    0.000 
#
# Total GULP energy -198254.841633 kJ/mol
# GULP energy per Si atom -12390.927602 kJ/mol
# Density = 2.313867 g / cm^3
# Si number density = 23.191454 Si / 1000 Ang^3
#
#
#
# Elastic Constant Matrix: (Units=GPa)
#
#
# Indices 1 2 3 4 5 6 
#
# 1 159.5620 47.8123 17.0071 5.8291 14.4655 -4.4203
# 2 47.8123 141.3486 24.4975 14.8742 11.7923 4.4165
# 3 17.0071 24.4975 45.8439 14.2475 4.4287 7.7220
# 4 5.8291 14.8742 14.2475 33.5735 -2.4409 -0.0060
# 5 14.4655 11.7923 4.4287 -2.4409 26.7173 17.3183
# 6 -4.4203 4.4165 7.7220 -0.0060 17.3183 39.9755
#
#
#
# Elastic Compliance Matrix: (Units=1/GPa)
#
#
# Indices 1 2 3 4 5 6 
#
# 1 0.007643 -0.001913 -0.001904 -0.000066 -0.005433 0.003778
# 2 -0.001913 0.008734 -0.003017 -0.002475 -0.003003 0.000707
# 3 -0.001904 -0.003017 0.028221 -0.010290 0.000278 -0.005450
# 4 -0.000066 -0.002475 -0.010290 0.035728 0.006443 -0.000532
# 5 -0.005433 -0.003003 0.000278 0.006443 0.059021 -0.025891
# 6 0.003778 0.000707 -0.005450 -0.000532 -0.025891 0.037624
#
#
# Mechanical properties :
#
#
# Convention : Reuss Voigt Hill
#
# Bulk Modulus (GPa) = 32.33232 58.37647 45.35439
# Shear Modulus (GPa) = 24.88192 37.21578 31.04885
#
# Velocity S-wave (km/s) = 3.27906 4.01024 3.66294
# Velocity P-wave (km/s) = 5.32053 6.83146 6.12278
#
# Compressibility (1/GPa) = 0.03092880
#
# Stress axis : x y z
#
# Youngs Moduli (GPa) = 130.83897 114.49970 35.43484
#
# Poissons Ratio (x) = 0.21906 0.06747
# Poissons Ratio (y) = 0.25032 0.10691
# Poissons Ratio (z) = 0.24914 0.34545
#
# Static dielectric constant tensor:
#      x y z
#    x 6.836370 -1.009740 0.737940 
#    y -1.009740 4.275860 0.038770 
#    z 0.737940 0.038770 3.987030 
# 
# 
# High freq. dielectric constant tensor:
#      x y z
#    x 1.941860 -0.005350 0.015320 
#    y -0.005350 1.919730 0.025240 
#    z 0.015320 0.025240 1.880180 
# 
# From -- ./inp_files/226811.got.cif
#   From: 2010.06.25/outbox.cif.g09.slc.cpg/sg2_114_cif.got.tgz:226811.got - 2010.06.27 13:26:56.
