data_PCOD8007449
_publ_section_title
;
Structure prediction by ZEFSAII (Michael W. Deem and Ramdas Pophale) SiO2 
 PCOD8007449
Probable space group: P -1
;
_chemical_formula_sum "Si O2"
_cell_formula_units_Z 16
_cell_length_a 17.019368
_cell_length_b 8.203720
_cell_length_c 13.064076
_cell_angle_alpha 104.528895
_cell_angle_beta 42.006636
_cell_angle_gamma 71.357502
_cell_volume 737.673388
_symmetry_space_group_name_H-M "P -1"
_symmetry_group_IT_number 2
_symmetry_cell_setting 'triclinic'
loop_
_space_group_symop_operation_xyz
x,y,z
-x,-y,-z
loop_
_atom_site_type_symbol
_atom_site_label
_atom_site_fract_x
_atom_site_fract_y
_atom_site_fract_z
Si Si1 0.357681 0.694121 0.971036
Si Si2 0.993787 0.705749 0.525146
Si Si3 0.451362 0.996992 0.213116
Si Si4 0.724136 0.912269 0.391990
Si Si5 0.378827 0.369061 0.195783
Si Si6 0.198405 0.500417 0.105602
Si Si7 0.134341 0.553312 0.945672
Si Si8 0.425674 0.491174 0.668303
O O1 0.301914 0.564572 0.024296
O O2 0.198185 0.006030 0.202176
O O3 0.548127 0.527856 0.823085
O O4 0.396951 0.668317 0.808150
O O5 0.000000 0.500000 0.500000
O O6 0.166599 0.610165 0.397447
O O7 0.007918 0.723465 0.392001
O O8 0.318132 0.071119 0.443787
O O9 0.377449 0.256729 0.282337
O O10 0.471151 0.855920 0.071497
O O11 0.659526 0.792500 0.026301
O O12 0.755253 0.699152 0.273472
O O13 0.556793 0.196407 0.541418
O O14 0.912677 0.811139 0.178027
O O15 0.156005 0.478315 0.031557
O O16 0.225324 0.634349 0.853742
O O17 0.500000 0.500000 0.500000
#
# Coordination Sequence:
#
# PCOD8007449 Si02
#       8
#     2   2   2   2   2   2   2   2
#     4  11  23  43  62  96 124 173 212 250 334 375
#     4  11  24  41  62  96 131 167 215 262 315 376
#     4  10  20  41  63  93 128 165 214 257 316 372
#     4  11  23  43  68  95 123 172 215 262 318 376
#     4  10  24  39  62  96 128 170 208 265 310 377
#     4  10  22  41  65  94 130 168 208 266 316 384
#     4  10  24  42  68  98 122 167 219 260 320 374
#     4  11  26  46  66  93 132 166 210 271 316 379
#
# _framework density 21.689814999999999
#
# number of rings (size 3 to 8) (size 9 to 14) (size 15 to 20)
#    0.000    1.500    2.500    3.000    5.250    5.500 
#    2.250    0.000    0.000    0.000    0.000    0.000 
#    0.000    0.000    0.000    0.000    0.000    0.000 
#
# Total GULP energy -198317.189598 kJ/mol
# GULP energy per Si atom -12394.824350 kJ/mol
# Density = 2.164045 g / cm^3
# Si number density = 21.689815 Si / 1000 Ang^3
#
#
#
# Elastic Constant Matrix: (Units=GPa)
#
#
# Indices 1 2 3 4 5 6 
#
# 1 121.6472 11.3219 42.9932 -17.4530 -1.2399 5.6902
# 2 11.3219 61.6706 26.9961 -22.2544 11.8627 -19.0189
# 3 42.9932 26.9961 121.9131 -17.6424 15.0330 -4.0141
# 4 -17.4530 -22.2544 -17.6424 39.0117 -9.4478 6.2641
# 5 -1.2399 11.8627 15.0330 -9.4478 34.7036 -9.0966
# 6 5.6902 -19.0189 -4.0141 6.2641 -9.0966 22.7557
#
#
#
# Elastic Compliance Matrix: (Units=1/GPa)
#
#
# Indices 1 2 3 4 5 6 
#
# 1 0.010191 -0.000655 -0.003274 0.003823 0.002020 -0.003918
# 2 -0.000655 0.028032 -0.003778 0.010828 0.000231 0.020038
# 3 -0.003274 -0.003778 0.010688 0.000629 -0.003852 -0.002167
# 4 0.003823 0.010828 0.000629 0.035100 0.005961 0.000925
# 5 0.002020 0.000231 -0.003852 0.005961 0.035087 0.011394
# 6 -0.003918 0.020038 -0.002167 0.000925 0.011394 0.065590
#
#
# Mechanical properties :
#
#
# Convention : Reuss Voigt Hill
#
# Bulk Modulus (GPa) = 29.85327 51.98370 40.91849
# Shear Modulus (GPa) = 23.66682 34.22218 28.94450
#
# Velocity S-wave (km/s) = 3.30684 3.97646 3.65701
# Velocity P-wave (km/s) = 5.32671 6.71579 6.06118
#
# Compressibility (1/GPa) = 0.03349717
#
# Stress axis : x y z
#
# Youngs Moduli (GPa) = 98.12722 35.67408 93.56039
#
# Poissons Ratio (x) = 0.02337 0.30628
# Poissons Ratio (y) = 0.06429 0.35348
# Poissons Ratio (z) = 0.32123 0.13478
#
# Static dielectric constant tensor:
#      x y z
#    x 4.219210 -0.132690 0.109030 
#    y -0.132690 3.712090 -0.208520 
#    z 0.109030 -0.208520 4.199770 
# 
# 
# High freq. dielectric constant tensor:
#      x y z
#    x 1.862830 -0.006690 0.002770 
#    y -0.006690 1.831420 -0.016370 
#    z 0.002770 -0.016370 1.861820 
# 
# From -- ./inp_files/447785.got.cif
#   From: 2010.06.25/outbox.cif.g09.slc.cpg/sg2_224_cif.got.tgz:447785.got - 2010.06.27 13:26:56.
