data_PCOD8007884
_publ_section_title
;
Structure prediction by ZEFSAII (Michael W. Deem and Ramdas Pophale) SiO2 
 PCOD8007884
Probable space group: P -1
;
_chemical_formula_sum "Si O2"
_cell_formula_units_Z 16
_cell_length_a 12.762891
_cell_length_b 8.446985
_cell_length_c 18.261852
_cell_angle_alpha 44.667074
_cell_angle_beta 133.569897
_cell_angle_gamma 147.461276
_cell_volume 723.183886
_symmetry_space_group_name_H-M "P -1"
_symmetry_group_IT_number 2
_symmetry_cell_setting 'triclinic'
loop_
_space_group_symop_operation_xyz
x,y,z
-x,-y,-z
loop_
_atom_site_type_symbol
_atom_site_label
_atom_site_fract_x
_atom_site_fract_y
_atom_site_fract_z
Si Si1 0.437947 0.611591 0.993910
Si Si2 0.507082 0.247121 0.383952
Si Si3 0.318297 0.793413 0.640359
Si Si4 0.237403 0.238671 0.163997
Si Si5 0.364307 0.300598 0.433241
Si Si6 0.758199 0.353178 0.735055
Si Si7 0.094268 0.432348 0.796378
Si Si8 0.782320 0.306529 0.927211
O O1 0.275321 0.610528 0.882762
O O2 0.624064 0.959821 0.999220
O O3 0.500000 0.500000 0.000000
O O4 0.354179 0.379641 0.097552
O O5 0.682749 0.414972 0.351410
O O6 0.308992 0.100634 0.290993
O O7 0.517145 0.441023 0.390511
O O8 0.500000 0.000000 0.500000
O O9 0.167629 0.579057 0.703004
O O10 0.246762 0.941633 0.513177
O O11 0.544670 0.070491 0.688273
O O12 0.275149 0.502457 0.141957
O O13 0.006353 0.925813 0.138242
O O14 0.500000 0.500000 0.500000
O O15 0.212341 0.346148 0.335750
O O16 0.773317 0.251242 0.854574
O O17 0.939871 0.457895 0.739141
O O18 0.000000 0.500000 0.000000
#
# Coordination Sequence:
#
# PCOD8007884 Si02
#       8
#     2   2   2   2   2   2   2   2
#     4  12  25  46  72 100 139 188 235 289 357 421
#     4  10  20  41  70  97 136 183 231 288 347 408
#     4  10  21  42  69  99 137 188 236 288 347 410
#     4  12  24  42  68 102 142 182 234 289 349 412
#     4   9  20  39  70  98 135 187 230 290 355 410
#     4  11  21  42  68  97 143 181 236 292 344 414
#     4  12  24  42  71 104 139 186 237 285 349 425
#     4  12  25  44  67 101 143 182 235 291 352 420
#
# _framework density 22.124388
#
# number of rings (size 3 to 8) (size 9 to 14) (size 15 to 20)
#    0.000    1.000    3.750    3.750    0.000    0.500 
#    0.000    5.000    5.500    0.000    0.000    0.000 
#    0.000    0.000    0.000    0.000    0.000    0.000 
#
# Total GULP energy -198253.937895 kJ/mol
# GULP energy per Si atom -12390.871118 kJ/mol
# Density = 2.207403 g / cm^3
# Si number density = 22.124388 Si / 1000 Ang^3
#
#
#
# Elastic Constant Matrix: (Units=GPa)
#
#
# Indices 1 2 3 4 5 6 
#
# 1 192.9556 49.2339 52.6565 -10.3684 -12.9192 5.5404
# 2 49.2339 109.8079 33.4015 -14.2119 1.3062 6.4710
# 3 52.6565 33.4015 116.7982 -7.7111 -7.5441 11.3568
# 4 -10.3684 -14.2119 -7.7111 20.5902 1.6513 -2.5960
# 5 -12.9192 1.3062 -7.5441 1.6513 44.9285 -4.1301
# 6 5.5404 6.4710 11.3568 -2.5960 -4.1301 33.1108
#
#
#
# Elastic Compliance Matrix: (Units=1/GPa)
#
#
# Indices 1 2 3 4 5 6 
#
# 1 0.006469 -0.002166 -0.002173 0.000868 0.001559 0.000349
# 2 -0.002166 0.011536 -0.001927 0.006159 -0.001595 -0.000947
# 3 -0.002173 -0.001927 0.010481 0.001094 0.000907 -0.002656
# 4 0.000868 0.006159 0.001094 0.054079 -0.001520 0.002326
# 5 0.001559 -0.001595 0.000907 -0.001520 0.023191 0.002514
# 6 0.000349 -0.000947 -0.002656 0.002326 0.002514 0.031735
#
#
# Mechanical properties :
#
#
# Convention : Reuss Voigt Hill
#
# Bulk Modulus (GPa) = 62.67770 76.68283 69.68026
# Shear Modulus (GPa) = 32.18684 38.67722 35.43203
#
# Velocity S-wave (km/s) = 3.81834 4.18565 4.00621
# Velocity P-wave (km/s) = 6.91598 7.62199 7.27755
#
# Compressibility (1/GPa) = 0.01595464
#
# Stress axis : x y z
#
# Youngs Moduli (GPa) = 154.57715 86.68455 95.40666
#
# Poissons Ratio (x) = 0.18779 0.20732
# Poissons Ratio (y) = 0.33488 0.18382
# Poissons Ratio (z) = 0.33589 0.16701
#
# Static dielectric constant tensor:
#      x y z
#    x 8.187880 -1.722460 10.259100 
#    y -1.722460 4.404320 -4.250070 
#    z 10.259100 -4.250070 35.037870 
# 
# 
# High freq. dielectric constant tensor:
#      x y z
#    x 1.897010 -0.010340 -0.004300 
#    y -0.010340 1.829880 0.001290 
#    z -0.004300 0.001290 1.889490 
# 
# From -- ./inp_files/566555.got.cif
#   From: 2010.06.25/outbox.cif.g09.slc.cpg/sg2_284_cif.got.tgz:566555.got - 2010.06.27 13:26:56.
