data_PCOD8007643
_publ_section_title
;
Structure prediction by ZEFSAII (Michael W. Deem and Ramdas Pophale) SiO2 
 PCOD8007643
Probable space group: P -1
;
_chemical_formula_sum "Si O2"
_cell_formula_units_Z 10
_cell_length_a 11.080193
_cell_length_b 9.074652
_cell_length_c 11.482949
_cell_angle_alpha 138.497529
_cell_angle_beta 42.420594
_cell_angle_gamma 143.140057
_cell_volume 429.979734
_symmetry_space_group_name_H-M "P -1"
_symmetry_group_IT_number 2
_symmetry_cell_setting 'triclinic'
loop_
_space_group_symop_operation_xyz
x,y,z
-x,-y,-z
loop_
_atom_site_type_symbol
_atom_site_label
_atom_site_fract_x
_atom_site_fract_y
_atom_site_fract_z
Si Si1 0.941643 0.435616 0.180764
Si Si2 0.275786 0.332029 0.195452
Si Si3 0.743470 0.105984 0.910954
Si Si4 0.253574 0.766293 0.561089
Si Si5 0.758103 0.765278 0.103641
O O1 0.788086 0.369504 0.361915
O O2 0.112523 0.752879 0.224175
O O3 0.797778 0.319117 0.099894
O O4 0.077404 0.305962 0.020525
O O5 0.170589 0.512146 0.381835
O O6 0.522361 0.545401 0.184877
O O7 0.201537 0.107017 0.213118
O O8 0.254786 0.206985 0.010213
O O9 0.500000 0.000000 0.000000
O O10 0.500000 0.000000 0.500000
O O11 0.141162 0.934482 0.733927
#
# Coordination Sequence:
#
# PCOD8007643 Si02
#       5
#     2   2   2   2   2
#     4  11  23  41  68  92 126 173 207 261 318 372
#     4  10  21  39  67  92 126 171 201 262 322 363
#     4  11  23  42  66  90 129 172 212 252 320 381
#     4  10  22  38  64 100 126 156 215 266 310 372
#     4  10  20  41  66  93 128 161 213 263 310 372
#
# _framework density 23.256910999999999
#
# number of rings (size 3 to 8) (size 9 to 14) (size 15 to 20)
#    0.000    1.600    4.000    0.600    0.000    1.600 
#    0.000    1.000    0.000    0.000    0.000    0.000 
#    0.000    0.000    0.000    0.000    0.000    0.000 
#
# Total GULP energy -123898.262581 kJ/mol
# GULP energy per Si atom -12389.826258 kJ/mol
# Density = 2.320398 g / cm^3
# Si number density = 23.256911 Si / 1000 Ang^3
#
#
#
# Elastic Constant Matrix: (Units=GPa)
#
#
# Indices 1 2 3 4 5 6 
#
# 1 57.6201 28.1853 9.0915 6.3908 -3.1461 -6.4470
# 2 28.1853 178.7132 59.1319 -3.6866 0.7512 -36.8041
# 3 9.0915 59.1319 102.0829 15.9377 5.1696 -5.0728
# 4 6.3908 -3.6866 15.9377 52.7083 -1.4005 9.7123
# 5 -3.1461 0.7512 5.1696 -1.4005 29.7392 1.5362
# 6 -6.4470 -36.8041 -5.0728 9.7123 1.5362 30.1834
#
#
#
# Elastic Compliance Matrix: (Units=1/GPa)
#
#
# Indices 1 2 3 4 5 6 
#
# 1 0.019317 -0.002961 0.000424 -0.002891 0.001835 0.001424
# 2 -0.002961 0.009877 -0.005036 0.000658 -0.000192 0.010363
# 3 0.000424 -0.005036 0.013298 -0.004041 -0.002206 -0.002402
# 4 -0.002891 0.000658 -0.004041 0.022055 0.001815 -0.007683
# 5 0.001835 -0.000192 -0.002206 0.001815 0.034425 -0.002549
# 6 0.001424 0.010363 -0.002402 -0.007683 -0.002549 0.048270
#
#
# Mechanical properties :
#
#
# Convention : Reuss Voigt Hill
#
# Bulk Modulus (GPa) = 36.56732 59.02597 47.79664
# Shear Modulus (GPa) = 29.15403 38.66003 33.90703
#
# Velocity S-wave (km/s) = 3.54441 4.08156 3.82243
# Velocity P-wave (km/s) = 5.70156 6.90270 6.33068
#
# Compressibility (1/GPa) = 0.02734682
#
# Stress axis : x y z
#
# Youngs Moduli (GPa) = 51.76885 101.24198 75.19711
#
# Poissons Ratio (x) = 0.29977 -0.03188
# Poissons Ratio (y) = 0.15328 0.37868
# Poissons Ratio (z) = -0.02195 0.50984
#
# Static dielectric constant tensor:
#      x y z
#    x 4.033590 0.128900 -0.009890 
#    y 0.128900 5.037960 -0.027830 
#    z -0.009890 -0.027830 4.469790 
# 
# 
# High freq. dielectric constant tensor:
#      x y z
#    x 1.904500 0.014810 -0.008990 
#    y 0.014810 1.963110 0.002010 
#    z -0.008990 0.002010 1.903020 
# 
# From -- ./inp_files/162314.got.cif
#   From: 2010.06.25/outbox.cif.g09.slc.cpg/sg2_82_cif.got.tgz:162314.got - 2010.06.27 13:26:56.
