data_PCOD8007144
_publ_section_title
;
Structure prediction by ZEFSAII (Michael W. Deem and Ramdas Pophale) SiO2 
 PCOD8007144
Probable space group: P -1
;
_chemical_formula_sum "Si O2"
_cell_formula_units_Z 14
_cell_length_a 10.248194
_cell_length_b 20.512084
_cell_length_c 9.112484
_cell_angle_alpha 28.425976
_cell_angle_beta 46.923707
_cell_angle_gamma 48.886691
_cell_volume 657.067944
_symmetry_space_group_name_H-M "P -1"
_symmetry_group_IT_number 2
_symmetry_cell_setting 'triclinic'
loop_
_space_group_symop_operation_xyz
x,y,z
-x,-y,-z
loop_
_atom_site_type_symbol
_atom_site_label
_atom_site_fract_x
_atom_site_fract_y
_atom_site_fract_z
Si Si1 0.266670 0.665895 0.698089
Si Si2 0.420385 0.507873 0.384269
Si Si3 0.979044 0.487577 0.367970
Si Si4 0.829253 0.958339 0.632674
Si Si5 0.414357 0.759915 0.697705
Si Si6 0.066114 0.948801 0.208491
Si Si7 0.802458 0.797680 0.238316
O O1 0.447097 0.584571 0.647484
O O2 0.304747 0.707704 0.751510
O O3 0.203297 0.804188 0.377373
O O4 0.108902 0.572620 0.009321
O O5 0.500000 0.500000 0.500000
O O6 0.226021 0.456886 0.635411
O O7 0.389410 0.667306 0.041080
O O8 0.030698 0.323671 0.614894
O O9 0.000000 0.500000 0.500000
O O10 0.891111 0.920888 0.492774
O O11 0.659719 0.081396 0.519867
O O12 0.779617 0.827382 0.020885
O O13 0.000000 0.000000 0.500000
O O14 0.624385 0.742975 0.534632
O O15 0.170317 0.062649 0.976424
O O16 0.000000 0.000000 0.000000
#
# Coordination Sequence:
#
# PCOD8007144 Si02
#       7
#     2   2   2   2   2   2   2
#     4  12  25  46  71 104 140 183 243 285 343 430
#     4  12  28  44  70 106 145 184 230 296 357 412
#     4  12  24  45  77 103 138 185 239 288 351 416
#     4  10  20  40  67  97 130 177 233 278 342 412
#     4  12  22  45  70 104 135 179 243 291 342 422
#     4  11  26  44  66  99 142 184 228 288 353 418
#     4  11  23  43  73 102 132 184 235 292 348 412
#
# _framework density 21.306777
#
# number of rings (size 3 to 8) (size 9 to 14) (size 15 to 20)
#    0.000    0.571    5.714    4.286    4.000    1.714 
#    0.000    0.714    0.000    0.000    0.000    0.000 
#    0.000    0.000    0.000    0.000    0.000    0.000 
#
# Total GULP energy -173644.908130 kJ/mol
# GULP energy per Si atom -12403.207724 kJ/mol
# Density = 2.125828 g / cm^3
# Si number density = 21.306777 Si / 1000 Ang^3
#
#
#
# Elastic Constant Matrix: (Units=GPa)
#
#
# Indices 1 2 3 4 5 6 
#
# 1 108.1252 31.2921 49.1929 6.6094 17.2300 -16.5181
# 2 31.2921 105.2403 34.7264 -2.5802 -2.3786 -27.5593
# 3 49.1929 34.7264 114.7305 -7.3922 6.5465 -10.0832
# 4 6.6094 -2.5802 -7.3922 40.0677 -3.6083 0.7990
# 5 17.2300 -2.3786 6.5465 -3.6083 41.7599 6.9370
# 6 -16.5181 -27.5593 -10.0832 0.7990 6.9370 32.4614
#
#
#
# Elastic Compliance Matrix: (Units=1/GPa)
#
#
# Indices 1 2 3 4 5 6 
#
# 1 0.014085 -0.001177 -0.005040 -0.004031 -0.006446 0.006079
# 2 -0.001177 0.013317 -0.002637 0.000373 0.000051 0.009867
# 3 -0.005040 -0.002637 0.011710 0.002901 0.000570 -0.001360
# 4 -0.004031 0.000373 0.002901 0.026580 0.003912 -0.002324
# 5 -0.006446 0.000051 0.000570 0.003912 0.028390 -0.009223
# 6 0.006079 0.009867 -0.001360 -0.002324 -0.009223 0.043882
#
#
# Mechanical properties :
#
#
# Convention : Reuss Voigt Hill
#
# Bulk Modulus (GPa) = 46.72647 62.05764 54.39206
# Shear Modulus (GPa) = 30.71094 37.05012 33.88053
#
# Velocity S-wave (km/s) = 3.80066 4.17452 3.99197
# Velocity P-wave (km/s) = 6.42168 7.24048 6.84333
#
# Compressibility (1/GPa) = 0.02140115
#
# Stress axis : x y z
#
# Youngs Moduli (GPa) = 70.99894 75.09363 85.39428
#
# Poissons Ratio (x) = 0.08842 0.43042
# Poissons Ratio (y) = 0.08360 0.22523
# Poissons Ratio (z) = 0.35786 0.19806
#
# Static dielectric constant tensor:
#      x y z
#    x 3.658980 -0.048500 0.122170 
#    y -0.048500 4.966500 0.022600 
#    z 0.122170 0.022600 4.470600 
# 
# 
# High freq. dielectric constant tensor:
#      x y z
#    x 1.809630 -0.018520 0.004140 
#    y -0.018520 1.848970 -0.001710 
#    z 0.004140 -0.001710 1.851600 
# 
# From -- ./inp_files/214020.got.cif
#   From: 2010.06.25/outbox.cif.g09.slc.cpg/sg2_108_cif.got.tgz:214020.got - 2010.06.27 13:26:56.
