data_PCOD8007261
_publ_section_title
;
Structure prediction by ZEFSAII (Michael W. Deem and Ramdas Pophale) SiO2 
 PCOD8007261
Probable space group: P -1
;
_chemical_formula_sum "Si O2"
_cell_formula_units_Z 16
_cell_length_a 8.771513
_cell_length_b 9.041016
_cell_length_c 16.633792
_cell_angle_alpha 102.171510
_cell_angle_beta 42.694013
_cell_angle_gamma 126.075165
_cell_volume 661.011296
_symmetry_space_group_name_H-M "P -1"
_symmetry_group_IT_number 2
_symmetry_cell_setting 'triclinic'
loop_
_space_group_symop_operation_xyz
x,y,z
-x,-y,-z
loop_
_atom_site_type_symbol
_atom_site_label
_atom_site_fract_x
_atom_site_fract_y
_atom_site_fract_z
Si Si1 0.034953 0.398464 0.801293
Si Si2 0.914695 0.774494 0.086539
Si Si3 0.227163 0.421794 0.040905
Si Si4 0.563375 0.995370 0.880745
Si Si5 0.839054 0.306222 0.485503
Si Si6 0.524112 0.331942 0.462132
Si Si7 0.770723 0.013409 0.244853
Si Si8 0.965663 0.916539 0.676877
O O1 0.299430 0.611140 0.683161
O O2 0.163815 0.344027 0.813176
O O3 0.802816 0.410358 0.935766
O O4 0.857197 0.229121 0.779741
O O5 0.824012 0.908195 0.145336
O O6 0.715134 0.618452 0.074658
O O7 0.263761 0.912805 0.941658
O O8 0.500000 0.500000 0.000000
O O9 0.921225 0.229375 0.176996
O O10 0.648112 0.863938 0.800017
O O11 0.500000 0.000000 0.000000
O O12 0.707387 0.331931 0.462049
O O13 0.577397 0.113238 0.617347
O O14 0.060422 0.267235 0.367815
O O15 0.000000 0.500000 0.500000
O O16 0.500000 0.500000 0.500000
O O17 0.201669 0.113158 0.553576
O O18 0.925983 0.031593 0.268229
#
# Coordination Sequence:
#
# PCOD8007261 Si02
#       8
#     2   2   2   2   2   2   2   2
#     4  11  21  43  67 100 139 177 235 294 346 424
#     4  11  24  44  67 101 142 184 232 292 349 430
#     4  12  27  41  67 106 142 184 233 286 364 425
#     4  10  20  40  69  98 137 184 236 280 357 417
#     4  11  26  45  70 106 140 189 242 291 355 429
#     4  11  21  43  71 101 135 186 237 292 356 417
#     4  11  22  46  69  99 141 181 234 298 355 420
#     4  11  21  44  73  99 142 190 228 294 360 416
#
# _framework density 24.205335999999999
#
# number of rings (size 3 to 8) (size 9 to 14) (size 15 to 20)
#    0.000    1.000    3.750    5.250    1.750    3.000 
#    4.500    0.625    0.000    0.000    0.000    0.000 
#    0.000    0.000    0.000    0.000    0.000    0.000 
#
# Total GULP energy -198331.241521 kJ/mol
# GULP energy per Si atom -12395.702595 kJ/mol
# Density = 2.415024 g / cm^3
# Si number density = 24.205336 Si / 1000 Ang^3
#
#
#
# Elastic Constant Matrix: (Units=GPa)
#
#
# Indices 1 2 3 4 5 6 
#
# 1 68.3183 30.6065 25.5564 6.4658 -3.3919 8.9396
# 2 30.6065 119.1686 41.9664 38.3568 0.2952 -8.5669
# 3 25.5564 41.9664 123.4954 16.7353 -5.4039 -5.2723
# 4 6.4658 38.3568 16.7353 53.2279 -20.5900 0.0487
# 5 -3.3919 0.2952 -5.4039 -20.5900 23.6287 9.5605
# 6 8.9396 -8.5669 -5.2723 0.0487 9.5605 37.4143
#
#
#
# Elastic Compliance Matrix: (Units=1/GPa)
#
#
# Indices 1 2 3 4 5 6 
#
# 1 0.021032 -0.009149 -0.002565 0.011638 0.017535 -0.011977
# 2 -0.009149 0.020308 -0.002443 -0.023753 -0.028400 0.013780
# 3 -0.002565 -0.002443 0.009632 -0.000639 0.000822 0.001201
# 4 0.011638 -0.023753 -0.000639 0.059232 0.063382 -0.024583
# 5 0.017535 -0.028400 0.000822 0.063382 0.117024 -0.040562
# 6 -0.011977 0.013780 0.001201 -0.024583 -0.040562 0.043311
#
#
# Mechanical properties :
#
#
# Convention : Reuss Voigt Hill
#
# Bulk Modulus (GPa) = 44.13367 56.36011 50.24689
# Shear Modulus (GPa) = 16.31824 37.04436 26.68130
#
# Velocity S-wave (km/s) = 2.59927 3.91630 3.32368
# Velocity P-wave (km/s) = 5.22311 6.61700 5.96094
#
# Compressibility (1/GPa) = 0.02265844
#
# Stress axis : x y z
#
# Youngs Moduli (GPa) = 47.54711 49.24148 103.81635
#
# Poissons Ratio (x) = 0.45051 0.26624
# Poissons Ratio (y) = 0.43501 0.25366
# Poissons Ratio (z) = 0.12194 0.12031
#
# Static dielectric constant tensor:
#      x y z
#    x 4.076480 0.070940 -0.154900 
#    y 0.070940 3.748140 0.343620 
#    z -0.154900 0.343620 4.716120 
# 
# 
# High freq. dielectric constant tensor:
#      x y z
#    x 1.929040 -0.014140 -0.001880 
#    y -0.014140 1.973930 0.006210 
#    z -0.001880 0.006210 1.976070 
# 
# From -- ./inp_files/382636.got.cif
#   From: 2010.06.25/outbox.cif.g09.slc.cpg/sg2_192_cif.got.tgz:382636.got - 2010.06.27 13:26:56.
