data_PCOD8007105
_publ_section_title
;
Structure prediction by ZEFSAII (Michael W. Deem and Ramdas Pophale) SiO2 
 PCOD8007105
Probable space group: P -1
;
_chemical_formula_sum "Si O2"
_cell_formula_units_Z 16
_cell_length_a 4.998049
_cell_length_b 19.693739
_cell_length_c 22.074098
_cell_angle_alpha 159.548413
_cell_angle_beta 85.115589
_cell_angle_gamma 96.798987
_cell_volume 751.773907
_symmetry_space_group_name_H-M "P -1"
_symmetry_group_IT_number 2
_symmetry_cell_setting 'triclinic'
loop_
_space_group_symop_operation_xyz
x,y,z
-x,-y,-z
loop_
_atom_site_type_symbol
_atom_site_label
_atom_site_fract_x
_atom_site_fract_y
_atom_site_fract_z
Si Si1 0.837378 0.151232 0.913361
Si Si2 0.403610 0.205536 0.156902
Si Si3 0.868984 0.305870 0.309962
Si Si4 0.104794 0.018306 0.358796
Si Si5 0.441037 0.194732 0.774432
Si Si6 0.301601 0.058047 0.911268
Si Si7 0.493084 0.600327 0.178603
Si Si8 0.044986 0.398719 0.741240
O O1 0.926106 0.038349 0.758249
O O2 0.530290 0.067335 0.863430
O O3 0.023153 0.105522 0.927425
O O4 0.853023 0.383119 0.098745
O O5 0.631417 0.360319 0.313603
O O6 0.101675 0.210766 0.190639
O O7 0.393598 0.221858 0.097810
O O8 0.500000 0.000000 0.000000
O O9 0.000000 0.500000 0.500000
O O10 0.740077 0.158446 0.240558
O O11 0.387358 0.969669 0.340227
O O12 0.870190 0.891812 0.295123
O O13 0.082813 0.249219 0.560504
O O14 0.540844 0.256050 0.756652
O O15 0.474578 0.377326 0.971418
O O16 0.266621 0.623198 0.252061
O O17 0.783098 0.657825 0.251463
#
# Coordination Sequence:
#
# PCOD8007105 Si02
#       8
#     2   2   2   2   2   2   2   2
#     4  12  24  45  63  91 133 177 218 256 314 381
#     4  10  20  40  67  92 124 166 205 245 317 374
#     4  11  22  41  68 103 134 156 201 273 323 357
#     4  12  25  43  66  91 131 169 216 272 325 376
#     4  11  22  41  68  95 125 167 212 277 335 387
#     4  11  23  42  69  89 126 175 212 250 313 384
#     4  11  22  41  68  95 125 166 218 267 340 390
#     4  12  25  43  66  92 127 173 216 270 323 383
#
# _framework density 21.282995
#
# number of rings (size 3 to 8) (size 9 to 14) (size 15 to 20)
#    0.000    0.750    2.500    7.125    0.000    5.000 
#    6.750    0.000    0.000    0.000    0.000    0.000 
#    0.000    0.000    0.000    0.000    0.000    0.000 
#
# Total GULP energy -198464.073527 kJ/mol
# GULP energy per Si atom -12404.004595 kJ/mol
# Density = 2.123455 g / cm^3
# Si number density = 21.282995 Si / 1000 Ang^3
#
#
#
# Elastic Constant Matrix: (Units=GPa)
#
#
# Indices 1 2 3 4 5 6 
#
# 1 87.3580 23.7260 11.0007 4.1437 3.2789 10.0309
# 2 23.7260 86.1658 53.2543 -0.4998 -1.3956 3.3383
# 3 11.0007 53.2543 124.0216 -17.2542 10.7237 8.6663
# 4 4.1437 -0.4998 -17.2542 14.2483 -1.0814 2.5967
# 5 3.2789 -1.3956 10.7237 -1.0814 35.5262 -5.3101
# 6 10.0309 3.3383 8.6663 2.5967 -5.3101 42.5572
#
#
#
# Elastic Compliance Matrix: (Units=1/GPa)
#
#
# Indices 1 2 3 4 5 6 
#
# 1 0.012970 -0.003773 0.000428 -0.003007 -0.002002 -0.002915
# 2 -0.003773 0.018400 -0.009455 -0.009854 0.003995 0.002471
# 3 0.000428 -0.009455 0.015416 0.018601 -0.005137 -0.004274
# 4 -0.003007 -0.009854 0.018601 0.094489 -0.004132 -0.008587
# 5 -0.002002 0.003995 -0.005137 -0.004132 0.030705 0.005288
# 6 -0.002915 0.002471 -0.004274 -0.008587 0.005288 0.026045
#
#
# Mechanical properties :
#
#
# Convention : Reuss Voigt Hill
#
# Bulk Modulus (GPa) = 47.20107 52.61193 49.90650
# Shear Modulus (GPa) = 21.67435 32.43732 27.05583
#
# Velocity S-wave (km/s) = 3.19468 3.90820 3.56932
# Velocity P-wave (km/s) = 5.98615 6.71857 6.36291
#
# Compressibility (1/GPa) = 0.02118596
#
# Stress axis : x y z
#
# Youngs Moduli (GPa) = 77.09876 54.34794 64.86833
#
# Poissons Ratio (x) = 0.20505 -0.02777
# Poissons Ratio (y) = 0.29089 0.61335
# Poissons Ratio (z) = -0.03300 0.51387
#
# Static dielectric constant tensor:
#      x y z
#    x 4.710160 -0.231360 0.194980 
#    y -0.231360 3.835450 -0.262840 
#    z 0.194980 -0.262840 3.917580 
# 
# 
# High freq. dielectric constant tensor:
#      x y z
#    x 1.858740 -0.002610 0.002630 
#    y -0.002610 1.826020 -0.015060 
#    z 0.002630 -0.015060 1.829230 
# 
# From -- ./inp_files/584085.got.cif
#   From: 2010.06.25/outbox.cif.g09.slc.cpg/sg2_293_cif.got.tgz:584085.got - 2010.06.27 13:26:56.
