data_PCOD8007700
_publ_section_title
;
Structure prediction by ZEFSAII (Michael W. Deem and Ramdas Pophale) SiO2 
 PCOD8007700
Probable space group: P -1
;
_chemical_formula_sum "Si O2"
_cell_formula_units_Z 12
_cell_length_a 8.883989
_cell_length_b 11.292734
_cell_length_c 9.756930
_cell_angle_alpha 94.483869
_cell_angle_beta 58.151346
_cell_angle_gamma 54.155141
_cell_volume 557.358202
_symmetry_space_group_name_H-M "P -1"
_symmetry_group_IT_number 2
_symmetry_cell_setting 'triclinic'
loop_
_space_group_symop_operation_xyz
x,y,z
-x,-y,-z
loop_
_atom_site_type_symbol
_atom_site_label
_atom_site_fract_x
_atom_site_fract_y
_atom_site_fract_z
Si Si1 0.276718 0.701877 0.671931
Si Si2 0.421598 0.012928 0.385241
Si Si3 0.620471 0.286818 0.067296
Si Si4 0.718495 0.170625 0.589525
Si Si5 0.181665 0.672948 0.264462
Si Si6 0.688570 0.980844 0.002948
O O1 0.500000 0.500000 0.500000
O O2 0.330622 0.729663 0.796558
O O3 0.270785 0.811931 0.576439
O O4 0.986879 0.785783 0.820903
O O5 0.471305 0.849865 0.304280
O O6 0.500000 0.000000 0.500000
O O7 0.599333 0.008326 0.204920
O O8 0.113313 0.196115 0.527317
O O9 0.322881 0.474948 0.188289
O O10 0.666054 0.129529 0.984361
O O11 0.819650 0.272920 0.884233
O O12 0.635232 0.330352 0.727463
O O13 0.000000 0.000000 0.500000
O O14 0.500000 0.000000 0.000000
#
# Coordination Sequence:
#
# PCOD8007700 Si02
#       6
#     2   2   2   2   2   2
#     4  12  24  44  69  99 127 171 228 265 314 396
#     4  11  22  39  63  94 134 167 211 269 334 378
#     4  11  23  42  69  93 131 173 225 265 316 398
#     4  10  20  41  67  89 128 173 213 258 320 390
#     4  10  21  41  65  95 124 177 222 262 319 388
#     4  12  25  42  65  98 132 169 212 272 335 378
#
# _framework density 21.530139999999999
#
# number of rings (size 3 to 8) (size 9 to 14) (size 15 to 20)
#    0.000    1.000    1.667    7.500    0.000    0.667 
#    3.000    0.833    0.000    0.000    0.000    0.000 
#    0.000    0.000    0.000    0.000    0.000    0.000 
#
# Total GULP energy -148774.044442 kJ/mol
# GULP energy per Si atom -12397.837037 kJ/mol
# Density = 2.148114 g / cm^3
# Si number density = 21.530140 Si / 1000 Ang^3
#
#
#
# Elastic Constant Matrix: (Units=GPa)
#
#
# Indices 1 2 3 4 5 6 
#
# 1 88.9014 43.2227 19.0206 15.1393 8.2545 -4.4478
# 2 43.2227 124.3176 56.4551 -2.1259 -4.7325 -4.3041
# 3 19.0206 56.4551 113.8617 7.0066 -8.3511 -6.6028
# 4 15.1393 -2.1259 7.0066 48.2518 -9.8558 7.4597
# 5 8.2545 -4.7325 -8.3511 -9.8558 41.2065 -5.6806
# 6 -4.4478 -4.3041 -6.6028 7.4597 -5.6806 25.3453
#
#
#
# Elastic Compliance Matrix: (Units=1/GPa)
#
#
# Indices 1 2 3 4 5 6 
#
# 1 0.015760 -0.005920 0.000513 -0.006720 -0.004960 0.002760
# 2 -0.005920 0.012685 -0.005416 0.003818 0.002335 -0.000896
# 3 0.000513 -0.005416 0.011830 -0.002303 0.001575 0.003283
# 4 -0.006720 0.003818 -0.002303 0.025783 0.006483 -0.007266
# 5 -0.004960 0.002335 0.001575 0.006483 0.027993 0.004302
# 6 0.002760 -0.000896 0.003283 -0.007266 0.004302 0.043745
#
#
# Mechanical properties :
#
#
# Convention : Reuss Voigt Hill
#
# Bulk Modulus (GPa) = 53.68541 62.71971 58.20256
# Shear Modulus (GPa) = 30.18348 36.85288 33.51818
#
# Velocity S-wave (km/s) = 3.74828 4.14174 3.94991
# Velocity P-wave (km/s) = 6.61226 7.21571 6.92056
#
# Compressibility (1/GPa) = 0.01862703
#
# Stress axis : x y z
#
# Youngs Moduli (GPa) = 63.45118 78.83279 84.53058
#
# Poissons Ratio (x) = 0.46672 -0.04332
# Poissons Ratio (y) = 0.37566 0.45784
# Poissons Ratio (z) = -0.03252 0.42698
#
# Static dielectric constant tensor:
#      x y z
#    x 4.140630 0.210020 0.190410 
#    y 0.210020 4.223280 -0.121680 
#    z 0.190410 -0.121680 4.396670 
# 
# 
# High freq. dielectric constant tensor:
#      x y z
#    x 1.831080 -0.004330 0.017850 
#    y -0.004330 1.854520 -0.011280 
#    z 0.017850 -0.011280 1.854310 
# 
# From -- ./inp_files/147320.got.cif
#   From: 2010.06.25/outbox.cif.g09.slc.cpg/sg2_74_cif.got.tgz:147320.got - 2010.06.27 13:26:56.
