data_PCOD8007618
_publ_section_title
;
Structure prediction by ZEFSAII (Michael W. Deem and Ramdas Pophale) SiO2 
 PCOD8007618
Probable space group: P -1
;
_chemical_formula_sum "Si O2"
_cell_formula_units_Z 14
_cell_length_a 10.810755
_cell_length_b 12.508028
_cell_length_c 10.487885
_cell_angle_alpha 38.238681
_cell_angle_beta 127.482243
_cell_angle_gamma 134.767491
_cell_volume 618.220737
_symmetry_space_group_name_H-M "P -1"
_symmetry_group_IT_number 2
_symmetry_cell_setting 'triclinic'
loop_
_space_group_symop_operation_xyz
x,y,z
-x,-y,-z
loop_
_atom_site_type_symbol
_atom_site_label
_atom_site_fract_x
_atom_site_fract_y
_atom_site_fract_z
Si Si1 0.234990 0.132058 0.904663
Si Si2 0.397959 0.549947 0.207718
Si Si3 0.249796 0.771048 0.322177
Si Si4 0.127057 0.522719 0.244959
Si Si5 0.140046 0.971707 0.256566
Si Si6 0.812285 0.243385 0.171260
Si Si7 0.369221 0.159480 0.464808
O O1 0.390711 0.334608 0.762779
O O2 0.056950 0.093273 0.753080
O O3 0.290165 0.959197 0.080977
O O4 0.191258 0.138753 0.021995
O O5 0.312637 0.525456 0.319102
O O6 0.329075 0.336684 0.305061
O O7 0.326630 0.673304 0.960706
O O8 0.133133 0.581093 0.341473
O O9 0.147330 0.783202 0.373219
O O10 0.423874 0.763883 0.483103
O O11 0.959910 0.312577 0.311806
O O12 0.099094 0.673099 0.989611
O O13 0.286954 0.064751 0.367918
O O14 0.716323 0.009498 0.323825
#
# Coordination Sequence:
#
# PCOD8007618 Si02
#       7
#     2   2   2   2   2   2   2
#     4   9  20  41  64  91 128 168 209 258 318 369
#     4  10  22  39  64  97 123 168 210 258 321 371
#     4  10  20  41  66  89 129 171 204 262 312 378
#     4   9  21  42  65  90 130 168 213 249 330 374
#     4   9  22  40  65  97 124 170 213 257 319 375
#     4   9  21  42  61  97 126 168 202 270 312 373
#     4  12  23  38  67  96 130 162 213 266 313 370
#
# _framework density 22.645633
#
# number of rings (size 3 to 8) (size 9 to 14) (size 15 to 20)
#    1.714    0.571    1.429    0.429    2.000    5.143 
#    0.000    4.286    0.000    0.000    0.000    0.000 
#    0.000    0.000    0.000    0.000    0.000    0.000 
#
# Total GULP energy -173467.964591 kJ/mol
# GULP energy per Si atom -12390.568899 kJ/mol
# Density = 2.259409 g / cm^3
# Si number density = 22.645633 Si / 1000 Ang^3
#
#
#
# Elastic Constant Matrix: (Units=GPa)
#
#
# Indices 1 2 3 4 5 6 
#
# 1 63.3958 41.0414 15.1507 -4.9244 22.8640 2.7085
# 2 41.0414 125.7018 29.4728 7.5294 15.0380 0.6653
# 3 15.1507 29.4728 54.7385 -4.9856 16.3445 4.2479
# 4 -4.9244 7.5294 -4.9856 42.2095 3.2358 -0.9686
# 5 22.8640 15.0380 16.3445 3.2358 18.8025 -0.2477
# 6 2.7085 0.6653 4.2479 -0.9686 -0.2477 41.6681
#
#
#
# Elastic Compliance Matrix: (Units=1/GPa)
#
#
# Indices 1 2 3 4 5 6 
#
# 1 0.039073 -0.009905 0.011166 0.011497 -0.051322 -0.003558
# 2 -0.009905 0.012000 -0.007062 -0.004828 0.009432 0.001116
# 3 0.011166 -0.007062 0.030966 0.008926 -0.036434 -0.003779
# 4 0.011497 -0.004828 0.008926 0.028674 -0.022827 -0.001049
# 5 -0.051322 0.009432 -0.036434 -0.022827 0.143744 0.007223
# 6 -0.003558 0.001116 -0.003779 -0.001049 0.007223 0.024616
#
#
# Mechanical properties :
#
#
# Convention : Reuss Voigt Hill
#
# Bulk Modulus (GPa) = 14.19728 46.12956 30.16342
# Shear Modulus (GPa) = 15.91580 31.08077 23.49828
#
# Velocity S-wave (km/s) = 2.65395 3.70872 3.22475
# Velocity P-wave (km/s) = 3.95907 6.22526 5.21671
#
# Compressibility (1/GPa) = 0.07043602
#
# Stress axis : x y z
#
# Youngs Moduli (GPa) = 25.59340 83.33209 32.29393
#
# Poissons Ratio (x) = 0.82543 -0.36061
# Poissons Ratio (y) = 0.25351 0.22807
# Poissons Ratio (z) = -0.28579 0.58851
#
# Static dielectric constant tensor:
#      x y z
#    x 3.712080 0.108980 0.158360 
#    y 0.108980 3.782980 -0.009280 
#    z 0.158360 -0.009280 3.847510 
# 
# 
# High freq. dielectric constant tensor:
#      x y z
#    x 1.870100 0.016000 0.012530 
#    y 0.016000 1.885540 0.004760 
#    z 0.012530 0.004760 1.883590 
# 
# From -- ./inp_files/425149.got.cif
#   From: 2010.06.25/outbox.cif.g09.slc.cpg/sg2_213_cif.got.tgz:425149.got - 2010.06.27 13:26:56.
