data_PCOD8007893
_publ_section_title
;
Structure prediction by ZEFSAII (Michael W. Deem and Ramdas Pophale) SiO2 
 PCOD8007893
Probable space group: P -1
;
_chemical_formula_sum "Si O2"
_cell_formula_units_Z 14
_cell_length_a 8.759891
_cell_length_b 17.688490
_cell_length_c 11.996521
_cell_angle_alpha 150.453476
_cell_angle_beta 45.531218
_cell_angle_gamma 134.636098
_cell_volume 630.807563
_symmetry_space_group_name_H-M "P -1"
_symmetry_group_IT_number 2
_symmetry_cell_setting 'triclinic'
loop_
_space_group_symop_operation_xyz
x,y,z
-x,-y,-z
loop_
_atom_site_type_symbol
_atom_site_label
_atom_site_fract_x
_atom_site_fract_y
_atom_site_fract_z
Si Si1 0.111856 0.485811 0.308886
Si Si2 0.546011 0.276191 0.120891
Si Si3 0.204826 0.831383 0.945869
Si Si4 0.843683 0.614367 0.434980
Si Si5 0.923311 0.865242 0.537577
Si Si6 0.420385 0.976913 0.384384
Si Si7 0.483300 0.760798 0.504977
O O1 0.375914 0.571572 0.290966
O O2 0.000000 0.500000 0.500000
O O3 0.036484 0.297532 0.079508
O O4 0.024919 0.587173 0.391528
O O5 0.642865 0.179570 0.040301
O O6 0.709357 0.449236 0.236156
O O7 0.313245 0.298820 0.307572
O O8 0.507485 0.173783 0.896056
O O9 0.337295 0.808278 0.738630
O O10 0.162516 0.003468 0.182421
O O11 0.966160 0.731649 0.426456
O O12 0.737853 0.781793 0.435305
O O13 0.155595 0.944470 0.461318
O O14 0.500000 0.000000 0.500000
O O15 0.535016 0.135402 0.460632
#
# Coordination Sequence:
#
# PCOD8007893 Si02
#       7
#     2   2   2   2   2   2   2
#     4   9  21  38  64  97 132 157 207 276 327 374
#     4  10  21  41  68  97 129 164 220 272 321 382
#     4  10  20  41  70  99 122 168 221 278 319 371
#     4  10  21  40  71  98 121 167 222 276 322 368
#     4  12  23  40  68  95 127 174 219 260 329 385
#     4  12  27  42  60  94 142 176 211 261 325 400
#     4  11  21  41  67  93 128 168 222 269 317 379
#
# _framework density 22.193773
#
# number of rings (size 3 to 8) (size 9 to 14) (size 15 to 20)
#    0.000    1.429    2.857    2.571    2.000    2.857 
#    0.000    5.714    0.000    0.000    0.000    0.000 
#    0.000    0.000    0.000    0.000    0.000    0.000 
#
# Total GULP energy -173576.521497 kJ/mol
# GULP energy per Si atom -12398.322964 kJ/mol
# Density = 2.214326 g / cm^3
# Si number density = 22.193773 Si / 1000 Ang^3
#
#
#
# Elastic Constant Matrix: (Units=GPa)
#
#
# Indices 1 2 3 4 5 6 
#
# 1 101.0732 45.0858 26.6315 11.0719 24.1023 3.3649
# 2 45.0858 121.7156 31.6905 16.2085 11.2660 0.4064
# 3 26.6315 31.6905 53.4206 4.3906 18.2962 -6.7372
# 4 11.0719 16.2085 4.3906 26.2216 -1.4874 -0.0917
# 5 24.1023 11.2660 18.2962 -1.4874 30.9179 2.6743
# 6 3.3649 0.4064 -6.7372 -0.0917 2.6743 52.6625
#
#
#
# Elastic Compliance Matrix: (Units=1/GPa)
#
#
# Indices 1 2 3 4 5 6 
#
# 1 0.014617 -0.003537 -0.001777 -0.004212 -0.009199 -0.000674
# 2 -0.003537 0.011347 -0.005194 -0.004566 0.001530 -0.000612
# 3 -0.001777 -0.005194 0.028101 -0.001512 -0.013809 0.004447
# 4 -0.004212 -0.004566 -0.001512 0.043441 0.007951 -0.000217
# 5 -0.009199 0.001530 -0.013809 0.007951 0.047824 -0.003605
# 6 -0.000674 -0.000612 0.004447 -0.000217 -0.003605 0.019788
#
#
# Mechanical properties :
#
#
# Convention : Reuss Voigt Hill
#
# Bulk Modulus (GPa) = 30.25765 53.66943 41.96354
# Shear Modulus (GPa) = 25.36141 33.48051 29.42096
#
# Velocity S-wave (km/s) = 3.38409 3.88822 3.64488
# Velocity P-wave (km/s) = 5.37889 6.66276 6.05495
#
# Compressibility (1/GPa) = 0.03304949
#
# Stress axis : x y z
#
# Youngs Moduli (GPa) = 68.41174 88.12988 35.58617
#
# Poissons Ratio (x) = 0.31174 0.06324
# Poissons Ratio (y) = 0.24199 0.18482
# Poissons Ratio (z) = 0.12156 0.45771
#
# Static dielectric constant tensor:
#      x y z
#    x 4.016000 0.210360 0.218960 
#    y 0.210360 4.386230 0.389100 
#    z 0.218960 0.389100 3.903840 
# 
# 
# High freq. dielectric constant tensor:
#      x y z
#    x 1.868900 0.000640 0.013430 
#    y 0.000640 1.894530 0.019050 
#    z 0.013430 0.019050 1.853220 
# 
# From -- ./inp_files/239057.got.cif
#   From: 2010.06.25/outbox.cif.g09.slc.cpg/sg2_120_cif.got.tgz:239057.got - 2010.06.27 13:26:56.
