data_PCOD8007981
_publ_section_title
;
Structure prediction by ZEFSAII (Michael W. Deem and Ramdas Pophale) SiO2 
 PCOD8007981
Probable space group: P -1
;
_chemical_formula_sum "Si O2"
_cell_formula_units_Z 16
_cell_length_a 15.581011
_cell_length_b 6.137876
_cell_length_c 12.117314
_cell_angle_alpha 86.397697
_cell_angle_beta 138.733299
_cell_angle_gamma 108.554548
_cell_volume 695.180716
_symmetry_space_group_name_H-M "P -1"
_symmetry_group_IT_number 2
_symmetry_cell_setting 'triclinic'
loop_
_space_group_symop_operation_xyz
x,y,z
-x,-y,-z
loop_
_atom_site_type_symbol
_atom_site_label
_atom_site_fract_x
_atom_site_fract_y
_atom_site_fract_z
Si Si1 0.836775 0.698500 0.127457
Si Si2 0.332278 0.833716 0.249752
Si Si3 0.310020 0.981727 0.635287
Si Si4 0.535895 0.424520 0.770079
Si Si5 0.086442 0.180783 0.380550
Si Si6 0.962944 0.433036 0.094064
Si Si7 0.157646 0.531424 0.637842
Si Si8 0.401237 0.730280 0.540636
O O1 0.928960 0.630497 0.125364
O O2 0.794139 0.519002 0.195450
O O3 0.676538 0.656126 0.935961
O O4 0.925537 0.971975 0.244282
O O5 0.418502 0.706520 0.276061
O O6 0.292904 0.706193 0.336419
O O7 0.436916 0.111344 0.350995
O O8 0.187372 0.802916 0.048396
O O9 0.256044 0.808985 0.694617
O O10 0.350083 0.829618 0.590921
O O11 0.451290 0.226951 0.790140
O O12 0.186058 0.042378 0.457192
O O13 0.409362 0.486718 0.595450
O O14 0.152563 0.335801 0.548669
O O15 0.080415 0.361303 0.271735
O O16 0.000000 0.500000 0.000000
O O17 0.000000 0.500000 0.500000
#
# Coordination Sequence:
#
# PCOD8007981 Si02
#       8
#     2   2   2   2   2   2   2   2
#     4  11  25  45  69 102 132 175 224 272 336 392
#     4   9  21  37  63  91 128 180 217 264 329 387
#     4  11  25  40  68  99 129 179 220 272 332 391
#     4  10  22  42  65  96 133 171 222 273 330 392
#     4  12  24  44  70  97 132 178 222 272 334 397
#     4  11  25  41  64 101 140 168 215 277 326 395
#     4  12  24  45  71  96 133 174 226 276 328 395
#     4  10  20  42  62  91 134 173 223 266 323 394
#
# _framework density 23.015599000000002
#
# number of rings (size 3 to 8) (size 9 to 14) (size 15 to 20)
#    0.000    1.250    2.500    2.250    5.250    1.000 
#    4.500    2.500    0.000    0.000    0.000    0.000 
#    0.000    0.000    0.000    0.000    0.000    0.000 
#
# Total GULP energy -198231.228490 kJ/mol
# GULP energy per Si atom -12389.451781 kJ/mol
# Density = 2.296321 g / cm^3
# Si number density = 23.015599 Si / 1000 Ang^3
#
#
#
# Elastic Constant Matrix: (Units=GPa)
#
#
# Indices 1 2 3 4 5 6 
#
# 1 79.5982 30.4769 7.3267 -12.3429 -10.4682 15.5036
# 2 30.4769 85.5096 5.8339 -0.7005 -2.8711 16.9181
# 3 7.3267 5.8339 54.3999 -6.6791 -10.5564 -3.8636
# 4 -12.3429 -0.7005 -6.6791 46.2541 5.1145 5.3256
# 5 -10.4682 -2.8711 -10.5564 5.1145 25.4999 -10.1289
# 6 15.5036 16.9181 -3.8636 5.3256 -10.1289 23.6167
#
#
#
# Elastic Compliance Matrix: (Units=1/GPa)
#
#
# Indices 1 2 3 4 5 6 
#
# 1 0.017013 -0.004047 -0.001654 0.005174 0.001145 -0.009216
# 2 -0.004047 0.015441 -0.002993 0.000709 -0.005907 -0.011588
# 3 -0.001654 -0.002993 0.022384 -0.000181 0.013308 0.012641
# 4 0.005174 0.000709 -0.000181 0.025410 -0.008204 -0.013183
# 5 0.001145 -0.005907 0.013308 -0.008204 0.059251 0.032919
# 6 -0.009216 -0.011588 0.012641 -0.013183 0.032919 0.075853
#
#
# Mechanical properties :
#
#
# Convention : Reuss Voigt Hill
#
# Bulk Modulus (GPa) = 26.70235 34.08697 30.39466
# Shear Modulus (GPa) = 20.38958 30.79883 25.59420
#
# Velocity S-wave (km/s) = 2.97964 3.66207 3.33834
# Velocity P-wave (km/s) = 4.84404 5.72045 5.30039
#
# Compressibility (1/GPa) = 0.03744988
#
# Stress axis : x y z
#
# Youngs Moduli (GPa) = 58.77983 64.76190 44.67468
#
# Poissons Ratio (x) = 0.26206 0.07391
# Poissons Ratio (y) = 0.23785 0.13372
# Poissons Ratio (z) = 0.09724 0.19384
#
# Static dielectric constant tensor:
#      x y z
#    x 4.132340 0.329190 0.352860 
#    y 0.329190 4.082050 0.201520 
#    z 0.352860 0.201520 4.088890 
# 
# 
# High freq. dielectric constant tensor:
#      x y z
#    x 1.909180 0.012660 0.016020 
#    y 0.012660 1.913960 0.004220 
#    z 0.016020 0.004220 1.905460 
# 
# From -- ./inp_files/442010.got.cif
#   From: 2010.06.25/outbox.cif.g09.slc.cpg/sg2_222_cif.got.tgz:442010.got - 2010.06.27 13:26:56.
