data_PCOD8007901
_publ_section_title
;
Structure prediction by ZEFSAII (Michael W. Deem and Ramdas Pophale) SiO2 
 PCOD8007901
Probable space group: P -1
;
_chemical_formula_sum "Si O2"
_cell_formula_units_Z 14
_cell_length_a 8.861099
_cell_length_b 8.952789
_cell_length_c 11.682256
_cell_angle_alpha 130.133609
_cell_angle_beta 97.267847
_cell_angle_gamma 64.160484
_cell_volume 621.446603
_symmetry_space_group_name_H-M "P -1"
_symmetry_group_IT_number 2
_symmetry_cell_setting 'triclinic'
loop_
_space_group_symop_operation_xyz
x,y,z
-x,-y,-z
loop_
_atom_site_type_symbol
_atom_site_label
_atom_site_fract_x
_atom_site_fract_y
_atom_site_fract_z
Si Si1 0.246537 0.397876 0.163474
Si Si2 0.889643 0.091723 0.922368
Si Si3 0.200755 0.063691 0.843548
Si Si4 0.156609 0.295261 0.354063
Si Si5 0.071574 0.157867 0.637394
Si Si6 0.385501 0.643385 0.809700
Si Si7 0.658936 0.781953 0.451278
O O1 0.202721 0.334145 0.250698
O O2 0.414243 0.430456 0.204321
O O3 0.090328 0.626750 0.221593
O O4 0.283707 0.206956 0.978855
O O5 0.993884 0.194149 0.913213
O O6 0.894089 0.900009 0.748752
O O7 0.696209 0.259870 0.025401
O O8 0.000000 0.000000 0.000000
O O9 0.212481 0.044614 0.697117
O O10 0.293880 0.817271 0.783919
O O11 0.327666 0.216852 0.408995
O O12 0.000000 0.500000 0.500000
O O13 0.164196 0.232036 0.586646
O O14 0.000000 0.000000 0.500000
O O15 0.359086 0.430769 0.688613
O O16 0.500000 0.000000 0.500000
#
# Coordination Sequence:
#
# PCOD8007901 Si02
#       7
#     2   2   2   2   2   2   2
#     4  12  25  44  72 107 139 183 239 290 351 412
#     4  10  20  41  71 102 133 176 234 285 344 412
#     4  11  24  45  74 103 139 183 234 291 348 416
#     4  12  23  43  74 102 138 185 235 287 348 422
#     4  12  27  47  69 105 146 183 231 291 355 417
#     4  11  25  45  73 103 139 183 241 286 348 424
#     4  12  28  47  68 103 146 187 231 292 358 415
#
# _framework density 22.528084
#
# number of rings (size 3 to 8) (size 9 to 14) (size 15 to 20)
#    0.000    0.571    4.286    5.143    4.000    0.571 
#    0.000    2.143    0.000    0.000    0.000    0.000 
#    0.000    0.000    0.000    0.000    0.000    0.000 
#
# Total GULP energy -173573.711569 kJ/mol
# GULP energy per Si atom -12398.122255 kJ/mol
# Density = 2.247681 g / cm^3
# Si number density = 22.528084 Si / 1000 Ang^3
#
#
#
# Elastic Constant Matrix: (Units=GPa)
#
#
# Indices 1 2 3 4 5 6 
#
# 1 122.6825 23.2066 33.8167 6.9428 25.3322 1.3573
# 2 23.2066 113.8535 51.0936 6.8972 17.5122 -10.0348
# 3 33.8167 51.0936 139.8062 4.1975 40.2255 -2.2847
# 4 6.9428 6.8972 4.1975 42.5125 2.4580 0.1716
# 5 25.3322 17.5122 40.2255 2.4580 38.7994 8.9835
# 6 1.3573 -10.0348 -2.2847 0.1716 8.9835 35.0146
#
#
#
# Elastic Compliance Matrix: (Units=1/GPa)
#
#
# Indices 1 2 3 4 5 6 
#
# 1 0.009624 -0.000787 -0.000359 -0.001084 -0.005682 0.000841
# 2 -0.000787 0.011057 -0.003220 -0.001254 -0.001863 0.003474
# 3 -0.000359 -0.003220 0.011616 0.000058 -0.010976 0.002665
# 4 -0.001084 -0.001254 0.000058 0.023911 -0.000215 -0.000376
# 5 -0.005682 -0.001863 -0.010976 -0.000215 0.044606 -0.012473
# 6 0.000841 0.003474 0.002665 -0.000376 -0.012473 0.032898
#
#
# Mechanical properties :
#
#
# Convention : Reuss Voigt Hill
#
# Bulk Modulus (GPa) = 42.43431 65.84179 54.13805
# Shear Modulus (GPa) = 33.26664 41.14697 37.20680
#
# Velocity S-wave (km/s) = 3.84692 4.27836 4.06837
# Velocity P-wave (km/s) = 6.21360 7.32774 6.79355
#
# Compressibility (1/GPa) = 0.02356584
#
# Stress axis : x y z
#
# Youngs Moduli (GPa) = 103.90384 90.43712 86.08530
#
# Poissons Ratio (x) = 0.07115 0.03092
# Poissons Ratio (y) = 0.08174 0.27721
# Poissons Ratio (z) = 0.03732 0.29123
#
# Static dielectric constant tensor:
#      x y z
#    x 4.509400 0.178190 -0.276900 
#    y 0.178190 4.203060 -0.226100 
#    z -0.276900 -0.226100 4.421900 
# 
# 
# High freq. dielectric constant tensor:
#      x y z
#    x 1.897730 0.002670 0.008310 
#    y 0.002670 1.886460 -0.004470 
#    z 0.008310 -0.004470 1.894810 
# 
# From -- ./inp_files/158813.got.cif
#   From: 2010.06.25/outbox.cif.g09.slc.cpg/sg2_80_cif.got.tgz:158813.got - 2010.06.27 13:26:56.
