data_PCOD8007592
_publ_section_title
;
Structure prediction by ZEFSAII (Michael W. Deem and Ramdas Pophale) SiO2 
 PCOD8007592
Probable space group: P -1
;
_chemical_formula_sum "Si O2"
_cell_formula_units_Z 14
_cell_length_a 13.079170
_cell_length_b 9.290311
_cell_length_c 8.443647
_cell_angle_alpha 128.553900
_cell_angle_beta 51.668389
_cell_angle_gamma 97.992578
_cell_volume 575.884325
_symmetry_space_group_name_H-M "P -1"
_symmetry_group_IT_number 2
_symmetry_cell_setting 'triclinic'
loop_
_space_group_symop_operation_xyz
x,y,z
-x,-y,-z
loop_
_atom_site_type_symbol
_atom_site_label
_atom_site_fract_x
_atom_site_fract_y
_atom_site_fract_z
Si Si1 0.728122 0.014134 0.047232
Si Si2 0.947587 0.337626 0.999012
Si Si3 0.492097 0.133337 0.949377
Si Si4 0.931623 0.668772 0.808185
Si Si5 0.200428 0.952547 0.365861
Si Si6 0.551794 0.448028 0.591507
Si Si7 0.249256 0.527430 0.984490
O O1 0.608213 0.920394 0.114062
O O2 0.862977 0.879580 0.929419
O O3 0.774033 0.021577 0.827183
O O4 0.682011 0.231370 0.324412
O O5 0.054987 0.124229 0.681121
O O6 0.946821 0.328085 0.184259
O O7 0.000000 0.500000 0.000000
O O8 0.788338 0.416387 0.130729
O O9 0.419256 0.372071 0.227736
O O10 0.656893 0.062771 0.685380
O O11 0.500000 0.000000 0.000000
O O12 0.000000 0.500000 0.500000
O O13 0.816000 0.622522 0.989788
O O14 0.181581 0.747163 0.281786
O O15 0.500000 0.500000 0.500000
O O16 0.416664 0.426093 0.790031
#
# Coordination Sequence:
#
# PCOD8007592 Si02
#       7
#     2   2   2   2   2   2   2
#     4  11  22  41  69  96 138 169 211 281 324 383
#     4  10  22  39  66  87 121 175 219 260 319 392
#     4   9  19  34  62  95 130 167 207 263 319 388
#     4  11  26  46  61  95 134 172 218 272 334 382
#     4  10  20  41  65  97 121 168 227 260 320 392
#     4  11  20  38  67 104 128 167 224 262 326 393
#     4  10  22  42  67  93 130 170 217 273 313 400
#
# _framework density 24.31044
#
# number of rings (size 3 to 8) (size 9 to 14) (size 15 to 20)
#    0.000    1.714    4.286    2.143    4.000    1.714 
#    2.571    2.857    0.000    0.000    0.000    0.000 
#    0.000    0.000    0.000    0.000    0.000    0.000 
#
# Total GULP energy -173447.725192 kJ/mol
# GULP energy per Si atom -12389.123228 kJ/mol
# Density = 2.425511 g / cm^3
# Si number density = 24.310440 Si / 1000 Ang^3
#
#
#
# Elastic Constant Matrix: (Units=GPa)
#
#
# Indices 1 2 3 4 5 6 
#
# 1 68.3162 16.6002 10.4042 8.7577 5.7324 -8.3480
# 2 16.6002 53.2807 34.9046 19.4273 2.8538 -2.8448
# 3 10.4042 34.9046 123.6303 28.8214 5.2984 -24.8845
# 4 8.7577 19.4273 28.8214 37.3051 -2.1103 1.1994
# 5 5.7324 2.8538 5.2984 -2.1103 24.2745 11.9043
# 6 -8.3480 -2.8448 -24.8845 1.1994 11.9043 34.3858
#
#
#
# Elastic Compliance Matrix: (Units=1/GPa)
#
#
# Indices 1 2 3 4 5 6 
#
# 1 0.018061 -0.004969 0.003606 -0.005329 -0.009938 0.010210
# 2 -0.004969 0.027025 -0.005872 -0.008277 -0.000005 -0.002929
# 3 0.003606 -0.005872 0.016083 -0.011492 -0.012968 0.016920
# 4 -0.005329 -0.008277 -0.011492 0.042786 0.017152 -0.017726
# 5 -0.009938 -0.000005 -0.012968 0.017152 0.064975 -0.034891
# 6 0.010210 -0.002929 0.016920 -0.017726 -0.034891 0.056260
#
#
# Mechanical properties :
#
#
# Convention : Reuss Voigt Hill
#
# Bulk Modulus (GPa) = 21.41314 41.00502 31.20908
# Shear Modulus (GPa) = 19.59044 31.41429 25.50236
#
# Velocity S-wave (km/s) = 2.84182 3.59864 3.24239
# Velocity P-wave (km/s) = 4.42665 5.84558 5.18488
#
# Compressibility (1/GPa) = 0.04670030
#
# Stress axis : x y z
#
# Youngs Moduli (GPa) = 55.36895 37.00254 62.17595
#
# Poissons Ratio (x) = 0.18387 -0.22422
# Poissons Ratio (y) = 0.27513 0.36507
# Poissons Ratio (z) = -0.19967 0.21727
#
# Static dielectric constant tensor:
#      x y z
#    x 6.028430 0.556330 0.287100 
#    y 0.556330 4.734170 0.682080 
#    z 0.287100 0.682080 4.868700 
# 
# 
# High freq. dielectric constant tensor:
#      x y z
#    x 1.969060 0.017730 -0.005630 
#    y 0.017730 1.953150 0.024140 
#    z -0.005630 0.024140 1.957500 
# 
# From -- ./inp_files/296636.got.cif
#   From: 2010.06.25/outbox.cif.g09.slc.cpg/sg2_149_cif.got.tgz:296636.got - 2010.06.27 13:26:56.
