data_PCOD8007816
_publ_section_title
;
Structure prediction by ZEFSAII (Michael W. Deem and Ramdas Pophale) SiO2 
 PCOD8007816
Probable space group: P -1
;
_chemical_formula_sum "Si O2"
_cell_formula_units_Z 16
_cell_length_a 13.408073
_cell_length_b 9.017906
_cell_length_c 9.189282
_cell_angle_alpha 84.855084
_cell_angle_beta 142.374729
_cell_angle_gamma 110.448493
_cell_volume 600.645484
_symmetry_space_group_name_H-M "P -1"
_symmetry_group_IT_number 2
_symmetry_cell_setting 'triclinic'
loop_
_space_group_symop_operation_xyz
x,y,z
-x,-y,-z
loop_
_atom_site_type_symbol
_atom_site_label
_atom_site_fract_x
_atom_site_fract_y
_atom_site_fract_z
Si Si1 0.924221 0.030403 0.097630
Si Si2 0.683721 0.912090 0.109303
Si Si3 0.922833 0.689533 0.087897
Si Si4 0.655086 0.480964 0.578859
Si Si5 0.724241 0.194555 0.340944
Si Si6 0.707986 0.355943 0.024687
Si Si7 0.678828 0.168991 0.719796
Si Si8 0.309760 0.277195 0.623312
O O1 0.140035 0.140469 0.349867
O O2 0.825689 0.008813 0.140412
O O3 0.876761 0.844661 0.008369
O O4 0.845656 0.120442 0.881802
O O5 0.711695 0.755158 0.222977
O O6 0.729368 0.032412 0.292249
O O7 0.476390 0.853783 0.820382
O O8 0.134779 0.740151 0.366104
O O9 0.859021 0.594267 0.869469
O O10 0.795867 0.553863 0.075278
O O11 0.500000 0.500000 0.500000
O O12 0.637784 0.296736 0.563064
O O13 0.656562 0.538347 0.407563
O O14 0.784546 0.334532 0.271274
O O15 0.739360 0.246422 0.945061
O O16 0.488550 0.262438 0.782905
O O17 0.500000 0.000000 0.500000
#
# Coordination Sequence:
#
# PCOD8007816 Si02
#       8
#     2   2   2   2   2   2   2   2
#     4  12  25  41  68 105 139 180 235 290 345 403
#     4  10  22  42  69 102 143 183 231 297 332 406
#     4  11  23  40  72 105 137 184 232 283 349 421
#     4  11  23  47  74  97 143 186 229 288 347 420
#     4  10  20  41  69 101 137 187 238 272 353 413
#     4  10  22  44  71  96 142 183 228 289 343 415
#     4  11  24  43  72  99 136 185 230 291 350 407
#     4  11  23  43  71  98 139 190 228 278 353 415
#
# _framework density 26.638010999999999
#
# number of rings (size 3 to 8) (size 9 to 14) (size 15 to 20)
#    0.000    1.250    5.000    1.500    0.000    1.000 
#    2.250    5.000    0.000    0.000    0.000    0.000 
#    0.000    0.000    0.000    0.000    0.000    0.000 
#
# Total GULP energy -198217.952109 kJ/mol
# GULP energy per Si atom -12388.622007 kJ/mol
# Density = 2.657738 g / cm^3
# Si number density = 26.638011 Si / 1000 Ang^3
#
#
#
# Elastic Constant Matrix: (Units=GPa)
#
#
# Indices 1 2 3 4 5 6 
#
# 1 38.1439 19.1863 13.7858 -11.8583 6.4125 4.6264
# 2 19.1863 191.9939 53.4349 -30.8332 10.5482 3.3777
# 3 13.7858 53.4349 146.7700 -8.6242 18.2257 -6.8428
# 4 -11.8583 -30.8332 -8.6242 55.8262 10.1750 -9.3855
# 5 6.4125 10.5482 18.2257 10.1750 34.8791 -1.9048
# 6 4.6264 3.3777 -6.8428 -9.3855 -1.9048 30.3897
#
#
#
# Elastic Compliance Matrix: (Units=1/GPa)
#
#
# Indices 1 2 3 4 5 6 
#
# 1 0.030816 -0.001262 -0.001408 0.006264 -0.006558 -0.003345
# 2 -0.001262 0.006476 -0.001826 0.003342 -0.001748 -0.000016
# 3 -0.001408 -0.001826 0.008236 0.001029 -0.003664 0.002360
# 4 0.006264 0.003342 0.001029 0.023914 -0.009365 0.005705
# 5 -0.006558 -0.001748 -0.003664 -0.009365 0.035033 -0.000329
# 6 -0.003345 -0.000016 0.002360 0.005705 -0.000329 0.035690
#
#
# Mechanical properties :
#
#
# Convention : Reuss Voigt Hill
#
# Bulk Modulus (GPa) = 27.37218 61.08022 44.22620
# Shear Modulus (GPa) = 30.99092 43.58571 37.28831
#
# Velocity S-wave (km/s) = 3.41458 4.04941 3.74547
# Velocity P-wave (km/s) = 5.08367 6.69650 5.94503
#
# Compressibility (1/GPa) = 0.03653344
#
# Stress axis : x y z
#
# Youngs Moduli (GPa) = 32.45070 154.41458 121.41699
#
# Poissons Ratio (x) = 0.19494 0.17101
# Poissons Ratio (y) = 0.04097 0.22177
# Poissons Ratio (z) = 0.04570 0.28204
#
# Static dielectric constant tensor:
#      x y z
#    x 4.625490 0.527560 0.040010 
#    y 0.527560 5.442620 -0.526420 
#    z 0.040010 -0.526420 5.011300 
# 
# 
# High freq. dielectric constant tensor:
#      x y z
#    x 2.045720 0.029350 0.004620 
#    y 0.029350 2.090920 -0.018970 
#    z 0.004620 -0.018970 2.081550 
# 
# From -- ./inp_files/462173.got.cif
#   From: 2010.06.25/outbox.cif.g09.slc.cpg/sg2_232_cif.got.tgz:462173.got - 2010.06.27 13:26:56.
