data_PCOD8007530
_publ_section_title
;
Structure prediction by ZEFSAII (Michael W. Deem and Ramdas Pophale) SiO2 
 PCOD8007530
Probable space group: P -1
;
_chemical_formula_sum "Si O2"
_cell_formula_units_Z 14
_cell_length_a 19.245538
_cell_length_b 8.967769
_cell_length_c 12.153007
_cell_angle_alpha 48.340246
_cell_angle_beta 153.448882
_cell_angle_gamma 134.040097
_cell_volume 667.950624
_symmetry_space_group_name_H-M "P -1"
_symmetry_group_IT_number 2
_symmetry_cell_setting 'triclinic'
loop_
_space_group_symop_operation_xyz
x,y,z
-x,-y,-z
loop_
_atom_site_type_symbol
_atom_site_label
_atom_site_fract_x
_atom_site_fract_y
_atom_site_fract_z
Si Si1 0.945902 0.761493 0.582599
Si Si2 0.657513 0.147614 0.214620
Si Si3 0.786731 0.789417 0.574379
Si Si4 0.218315 0.554359 0.119495
Si Si5 0.353101 0.587706 0.727198
Si Si6 0.404251 0.545608 0.171634
Si Si7 0.559495 0.243221 0.469182
O O1 0.874730 0.755453 0.605991
O O2 0.810088 0.606685 0.387999
O O3 0.000000 0.000000 0.500000
O O4 0.093745 0.662650 0.838696
O O5 0.624827 0.213595 0.258779
O O6 0.799999 0.035572 0.482905
O O7 0.712744 0.358849 0.115546
O O8 0.500000 0.000000 0.000000
O O9 0.862779 0.687005 0.833211
O O10 0.594320 0.668963 0.359900
O O11 0.354196 0.548880 0.225069
O O12 0.304334 0.693025 0.275400
O O13 0.354082 0.666996 0.566059
O O14 0.500000 0.500000 0.000000
O O15 0.398128 0.314800 0.233657
O O16 0.500000 0.000000 0.500000
#
# Coordination Sequence:
#
# PCOD8007530 Si02
#       7
#     2   2   2   2   2   2   2
#     4  12  26  45  71 100 139 190 223 288 352 407
#     4  10  21  37  67  95 129 174 224 280 332 392
#     4  10  20  41  65  95 130 180 224 272 339 407
#     4  11  24  42  67 100 144 171 230 280 356 405
#     4  12  24  45  69 104 137 178 243 283 331 423
#     4  10  20  41  64  99 134 176 226 274 335 414
#     4  11  24  38  69 106 137 175 230 291 337 405
#
# _framework density 20.959631999999999
#
# number of rings (size 3 to 8) (size 9 to 14) (size 15 to 20)
#    0.000    1.143    4.286    3.857    8.000    0.000 
#    0.000    5.000    0.000    0.000    0.000    0.000 
#    0.000    0.000    0.000    0.000    0.000    0.000 
#
# Total GULP energy -173464.485059 kJ/mol
# GULP energy per Si atom -12390.320361 kJ/mol
# Density = 2.091193 g / cm^3
# Si number density = 20.959632 Si / 1000 Ang^3
#
#
#
# Elastic Constant Matrix: (Units=GPa)
#
#
# Indices 1 2 3 4 5 6 
#
# 1 136.5039 39.0512 24.8298 4.3898 -3.3680 -8.0771
# 2 39.0512 127.1451 61.8837 -22.6632 -1.6979 -9.6465
# 3 24.8298 61.8837 111.8983 -27.2610 -0.8629 -1.3536
# 4 4.3898 -22.6632 -27.2610 41.6705 -4.0972 -1.9306
# 5 -3.3680 -1.6979 -0.8629 -4.0972 31.9457 -5.8656
# 6 -8.0771 -9.6465 -1.3536 -1.9306 -5.8656 41.1575
#
#
#
# Elastic Compliance Matrix: (Units=1/GPa)
#
#
# Indices 1 2 3 4 5 6 
#
# 1 0.008405 -0.002426 -0.001214 -0.002902 0.000532 0.000981
# 2 -0.002426 0.011973 -0.005162 0.003620 0.001164 0.002496
# 3 -0.001214 -0.005162 0.013578 0.006239 0.000652 -0.000616
# 4 -0.002902 0.003620 0.006239 0.030915 0.004493 0.002575
# 5 0.000532 0.001164 0.000652 0.004493 0.032990 0.005311
# 6 0.000981 0.002496 -0.000616 0.002575 0.005311 0.025932
#
#
# Mechanical properties :
#
#
# Convention : Reuss Voigt Hill
#
# Bulk Modulus (GPa) = 61.15541 69.67517 65.41529
# Shear Modulus (GPa) = 34.04865 39.60691 36.82778
#
# Velocity S-wave (km/s) = 4.03487 4.35176 4.19630
# Velocity P-wave (km/s) = 7.13778 7.65278 7.39976
#
# Compressibility (1/GPa) = 0.01635178
#
# Stress axis : x y z
#
# Youngs Moduli (GPa) = 118.97323 83.52257 73.64667
#
# Poissons Ratio (x) = 0.20265 0.08942
# Poissons Ratio (y) = 0.28866 0.38015
# Poissons Ratio (z) = 0.14446 0.43113
#
# Static dielectric constant tensor:
#      x y z
#    x 4.173900 0.199570 -0.480680 
#    y 0.199570 4.764300 -1.298160 
#    z -0.480680 -1.298160 5.149730 
# 
# 
# High freq. dielectric constant tensor:
#      x y z
#    x 1.830880 -0.008870 -0.005640 
#    y -0.008870 1.813470 -0.042550 
#    z -0.005640 -0.042550 1.814500 
# 
# From -- ./inp_files/242758.got.cif
#   From: 2010.06.25/outbox.cif.g09.slc.cpg/sg2_122_cif.got.tgz:242758.got - 2010.06.27 13:26:56.
