data_PCOD8007224
_publ_section_title
;
Structure prediction by ZEFSAII (Michael W. Deem and Ramdas Pophale) SiO2 
 PCOD8007224
Probable space group: P -1
;
_chemical_formula_sum "Si O2"
_cell_formula_units_Z 16
_cell_length_a 13.475129
_cell_length_b 9.601508
_cell_length_c 11.669374
_cell_angle_alpha 121.013458
_cell_angle_beta 82.771605
_cell_angle_gamma 48.830755
_cell_volume 675.209721
_symmetry_space_group_name_H-M "P -1"
_symmetry_group_IT_number 2
_symmetry_cell_setting 'triclinic'
loop_
_space_group_symop_operation_xyz
x,y,z
-x,-y,-z
loop_
_atom_site_type_symbol
_atom_site_label
_atom_site_fract_x
_atom_site_fract_y
_atom_site_fract_z
Si Si1 0.691659 0.272490 0.751810
Si Si2 0.958409 0.370105 0.939081
Si Si3 0.561126 0.856934 0.231496
Si Si4 0.304800 0.721518 0.492776
Si Si5 0.585805 0.615610 0.447945
Si Si6 0.699207 0.332580 0.022147
Si Si7 0.828500 0.728647 0.535062
Si Si8 0.938071 0.296808 0.170771
O O1 0.738257 0.296999 0.634126
O O2 0.770962 0.257647 0.846295
O O3 0.787730 0.963680 0.596265
O O4 0.462647 0.580886 0.925079
O O5 0.744376 0.640650 0.031643
O O6 0.956839 0.288502 0.029004
O O7 0.000000 0.500000 0.000000
O O8 0.114667 0.068270 0.712203
O O9 0.535957 0.049488 0.397743
O O10 0.359893 0.090605 0.298631
O O11 0.615791 0.621888 0.201599
O O12 0.471439 0.626954 0.409396
O O13 0.378858 0.479170 0.463599
O O14 0.788085 0.361582 0.249924
O O15 0.862687 0.039755 0.953445
O O16 0.881448 0.546365 0.340803
O O17 0.000000 0.500000 0.500000
#
# Coordination Sequence:
#
# PCOD8007224 Si02
#       8
#     2   2   2   2   2   2   2   2
#     4  10  22  41  67  97 132 174 226 278 335 398
#     4  12  25  43  66 103 139 177 220 281 346 400
#     4  10  23  41  66  93 139 169 229 273 329 408
#     4  11  24  43  68  95 142 174 222 280 349 397
#     4  10  24  42  64 102 132 180 220 280 343 403
#     4  10  22  41  67  99 127 177 230 276 327 401
#     4  10  20  40  68  99 131 173 224 280 330 399
#     4  11  24  40  70  99 138 172 232 277 337 410
#
# _framework density 23.696342999999999
#
# number of rings (size 3 to 8) (size 9 to 14) (size 15 to 20)
#    0.000    1.500    2.500    1.500    7.000    2.000 
#    0.000    3.125    2.750    0.000    0.000    0.000 
#    0.000    0.000    0.000    0.000    0.000    0.000 
#
# Total GULP energy -198283.823496 kJ/mol
# GULP energy per Si atom -12392.738968 kJ/mol
# Density = 2.364241 g / cm^3
# Si number density = 23.696343 Si / 1000 Ang^3
#
#
#
# Elastic Constant Matrix: (Units=GPa)
#
#
# Indices 1 2 3 4 5 6 
#
# 1 63.7807 26.2612 17.5063 9.4696 -12.6912 -2.1740
# 2 26.2612 113.0755 48.7915 -8.2319 -0.1760 -10.9819
# 3 17.5063 48.7915 85.7221 8.9962 1.9884 -15.7243
# 4 9.4696 -8.2319 8.9962 50.9721 -6.7732 1.9297
# 5 -12.6912 -0.1760 1.9884 -6.7732 51.4692 9.1859
# 6 -2.1740 -10.9819 -15.7243 1.9297 9.1859 38.5747
#
#
#
# Elastic Compliance Matrix: (Units=1/GPa)
#
#
# Indices 1 2 3 4 5 6 
#
# 1 0.019188 -0.004146 -0.001639 -0.003261 0.004657 -0.001713
# 2 -0.004146 0.013160 -0.006967 0.004069 -0.000268 0.000533
# 3 -0.001639 -0.006967 0.017603 -0.004522 -0.002771 0.005986
# 4 -0.003261 0.004069 -0.004522 0.022148 0.002769 -0.002636
# 5 0.004657 -0.000268 -0.002771 0.002769 0.022184 -0.006365
# 6 -0.001713 0.000533 0.005986 -0.002636 -0.006365 0.030067
#
#
# Mechanical properties :
#
#
# Convention : Reuss Voigt Hill
#
# Bulk Modulus (GPa) = 40.90345 49.74404 45.32374
# Shear Modulus (GPa) = 31.64526 39.53783 35.59155
#
# Velocity S-wave (km/s) = 3.65834 4.08918 3.87975
# Velocity P-wave (km/s) = 5.92821 6.58279 6.26405
#
# Compressibility (1/GPa) = 0.02444781
#
# Stress axis : x y z
#
# Youngs Moduli (GPa) = 52.11594 75.98605 56.80945
#
# Poissons Ratio (x) = 0.31501 0.09311
# Poissons Ratio (y) = 0.21605 0.39579
# Poissons Ratio (z) = 0.08541 0.52940
#
# Static dielectric constant tensor:
#      x y z
#    x 4.562550 -0.084990 -0.097810 
#    y -0.084990 4.424570 0.192540 
#    z -0.097810 0.192540 4.598460 
# 
# 
# High freq. dielectric constant tensor:
#      x y z
#    x 1.938340 -0.004660 -0.002790 
#    y -0.004660 1.928980 0.020350 
#    z -0.002790 0.020350 1.951370 
# 
# From -- ./inp_files/307848.got.cif
#   From: 2010.06.25/outbox.cif.g09.slc.cpg/sg2_154_cif.got.tgz:307848.got - 2010.06.27 13:26:56.
