data_PCOD8007554
_publ_section_title
;
Structure prediction by ZEFSAII (Michael W. Deem and Ramdas Pophale) SiO2 
 PCOD8007554
Probable space group: P -1
;
_chemical_formula_sum "Si O2"
_cell_formula_units_Z 16
_cell_length_a 16.129830
_cell_length_b 8.763777
_cell_length_c 10.332951
_cell_angle_alpha 66.513400
_cell_angle_beta 144.416504
_cell_angle_gamma 112.492254
_cell_volume 774.831985
_symmetry_space_group_name_H-M "P -1"
_symmetry_group_IT_number 2
_symmetry_cell_setting 'triclinic'
loop_
_space_group_symop_operation_xyz
x,y,z
-x,-y,-z
loop_
_atom_site_type_symbol
_atom_site_label
_atom_site_fract_x
_atom_site_fract_y
_atom_site_fract_z
Si Si1 0.130651 0.546924 0.833673
Si Si2 0.379774 0.159161 0.626564
Si Si3 0.386431 0.215015 0.908056
Si Si4 0.173081 0.911491 0.138698
Si Si5 0.313836 0.797682 0.601838
Si Si6 0.823815 0.534901 0.358522
Si Si7 0.132135 0.242108 0.122795
Si Si8 0.314260 0.872655 0.055623
O O1 0.189203 0.451150 0.817384
O O2 0.978494 0.608195 0.582831
O O3 0.119468 0.420333 0.981993
O O4 0.233305 0.711735 0.940313
O O5 0.432040 0.220989 0.813518
O O6 0.265198 0.272073 0.381819
O O7 0.518403 0.158773 0.709274
O O8 0.300815 0.970719 0.602334
O O9 0.291110 0.363461 0.755612
O O10 0.525805 0.253686 0.162431
O O11 0.301386 0.035699 0.895565
O O12 0.274387 0.819897 0.394474
O O13 0.246679 0.908313 0.095001
O O14 0.162529 0.102949 0.102473
O O15 0.013809 0.813449 0.965456
O O16 0.199269 0.659694 0.565561
#
# Coordination Sequence:
#
# PCOD8007554 Si02
#       8
#     2   2   2   2   2   2   2   2
#     4  11  24  40  61  89 130 159 203 256 304 362
#     4  10  23  41  66  91 124 162 203 252 309 362
#     4  11  23  40  64  92 122 163 207 251 306 363
#     4  10  22  40  66  92 121 165 205 247 309 362
#     4  10  20  41  65  88 123 160 202 255 300 365
#     4  11  23  39  62  93 120 164 207 252 305 359
#     4  10  22  42  63  91 125 163 205 249 302 370
#     4  11  24  41  61  94 126 162 201 255 306 363
#
# _framework density 20.649636000000001
#
# number of rings (size 3 to 8) (size 9 to 14) (size 15 to 20)
#    0.000    1.500    1.250    4.125    1.750    8.000 
#    0.000    0.000    0.000    0.000    0.000    0.000 
#    0.000    0.000    0.000    0.000    0.000    0.000 
#
# Total GULP energy -198441.694687 kJ/mol
# GULP energy per Si atom -12402.605918 kJ/mol
# Density = 2.060264 g / cm^3
# Si number density = 20.649636 Si / 1000 Ang^3
#
#
#
# Elastic Constant Matrix: (Units=GPa)
#
#
# Indices 1 2 3 4 5 6 
#
# 1 126.9009 14.3829 50.4150 -0.4609 3.1417 -4.5709
# 2 14.3829 59.4823 31.1825 5.1844 9.6558 13.7549
# 3 50.4150 31.1825 105.4520 10.8844 -0.8962 -4.6824
# 4 -0.4609 5.1844 10.8844 23.1317 7.0553 5.0692
# 5 3.1417 9.6558 -0.8962 7.0553 22.1190 -2.9392
# 6 -4.5709 13.7549 -4.6824 5.0692 -2.9392 28.1745
#
#
#
# Elastic Compliance Matrix: (Units=1/GPa)
#
#
# Indices 1 2 3 4 5 6 
#
# 1 0.010038 0.000822 -0.005489 0.003760 -0.003300 -0.000706
# 2 0.000822 0.029044 -0.010874 0.008503 -0.018515 -0.019315
# 3 -0.005489 -0.010874 0.017064 -0.011433 0.011258 0.010486
# 4 0.003760 0.008503 -0.011433 0.058800 -0.025953 -0.018728
# 5 -0.003300 -0.018515 0.011258 -0.025953 0.065402 0.021867
# 6 -0.000706 -0.019315 0.010486 -0.018728 0.021867 0.052202
#
#
# Mechanical properties :
#
#
# Convention : Reuss Voigt Hill
#
# Bulk Modulus (GPa) = 39.89940 53.75510 46.82725
# Shear Modulus (GPa) = 18.38322 27.74204 23.06263
#
# Velocity S-wave (km/s) = 2.98693 3.66931 3.34556
# Velocity P-wave (km/s) = 5.59104 6.63628 6.13596
#
# Compressibility (1/GPa) = 0.02506304
#
# Stress axis : x y z
#
# Youngs Moduli (GPa) = 99.62371 34.42996 58.60200
#
# Poissons Ratio (x) = -0.02829 0.32169
# Poissons Ratio (y) = -0.08186 0.63724
# Poissons Ratio (z) = 0.54687 0.37439
#
# Static dielectric constant tensor:
#      x y z
#    x 3.616330 0.115970 0.024110 
#    y 0.115970 3.702970 0.059310 
#    z 0.024110 0.059310 3.900310 
# 
# 
# High freq. dielectric constant tensor:
#      x y z
#    x 1.803240 0.008180 0.004670 
#    y 0.008180 1.805800 0.001830 
#    z 0.004670 0.001830 1.817280 
# 
# From -- ./inp_files/205074.got.cif
#   From: 2010.06.25/outbox.cif.g09.slc.cpg/sg2_103_cif.got.tgz:205074.got - 2010.06.27 13:26:56.
