data_PCOD8007754
_publ_section_title
;
Structure prediction by ZEFSAII (Michael W. Deem and Ramdas Pophale) SiO2 
 PCOD8007754
Probable space group: P -1
;
_chemical_formula_sum "Si O2"
_cell_formula_units_Z 16
_cell_length_a 11.848620
_cell_length_b 11.286114
_cell_length_c 13.208388
_cell_angle_alpha 82.023576
_cell_angle_beta 109.023177
_cell_angle_gamma 37.412331
_cell_volume 732.022984
_symmetry_space_group_name_H-M "P -1"
_symmetry_group_IT_number 2
_symmetry_cell_setting 'triclinic'
loop_
_space_group_symop_operation_xyz
x,y,z
-x,-y,-z
loop_
_atom_site_type_symbol
_atom_site_label
_atom_site_fract_x
_atom_site_fract_y
_atom_site_fract_z
Si Si1 0.284507 0.067757 0.674216
Si Si2 0.638046 0.205154 0.129378
Si Si3 0.008581 0.817924 0.107164
Si Si4 0.869166 0.562384 0.854345
Si Si5 0.878027 0.247045 0.187714
Si Si6 0.824705 0.432606 0.342019
Si Si7 0.746683 0.736975 0.172282
Si Si8 0.302905 0.784784 0.210034
O O1 0.352617 0.871246 0.751911
O O2 0.554113 0.879977 0.724929
O O3 0.191486 0.225208 0.725840
O O4 0.049934 0.283845 0.498172
O O5 0.728264 0.258786 0.167525
O O6 0.330976 0.478900 0.965567
O O7 0.841022 0.951583 0.145045
O O8 0.094328 0.613729 0.112985
O O9 0.269079 0.670579 0.218905
O O10 0.808721 0.069427 0.946251
O O11 0.994079 0.508272 0.796091
O O12 0.000000 0.500000 0.000000
O O13 0.965337 0.224315 0.322817
O O14 0.147051 0.987721 0.232509
O O15 0.674482 0.676239 0.211495
O O16 0.615219 0.542817 0.334532
O O17 0.500000 0.000000 0.000000
#
# Coordination Sequence:
#
# PCOD8007754 Si02
#       8
#     2   2   2   2   2   2   2   2
#     4  12  27  44  66  99 137 181 211 279 341 394
#     4  10  20  42  68  97 135 171 228 272 324 388
#     4  10  20  41  68 101 127 170 230 276 322 382
#     4  12  26  41  71 100 125 174 231 276 321 392
#     4  10  22  39  68 101 129 176 223 276 317 398
#     4  12  27  43  65 102 141 173 216 273 346 396
#     4  12  25  47  71  96 130 176 230 276 321 394
#     4  10  22  39  68  97 135 171 215 280 329 389
#
# _framework density 21.857239
#
# number of rings (size 3 to 8) (size 9 to 14) (size 15 to 20)
#    0.000    1.000    3.750    2.625    5.250    2.000 
#    0.000    1.250    0.000    0.000    0.000    0.000 
#    0.000    0.000    0.000    0.000    0.000    0.000 
#
# Total GULP energy -198442.675381 kJ/mol
# GULP energy per Si atom -12402.667211 kJ/mol
# Density = 2.180749 g / cm^3
# Si number density = 21.857239 Si / 1000 Ang^3
#
#
#
# Elastic Constant Matrix: (Units=GPa)
#
#
# Indices 1 2 3 4 5 6 
#
# 1 100.4773 56.3502 33.0859 2.4270 11.3556 -11.7411
# 2 56.3502 107.2388 53.0300 15.7015 13.7496 0.2616
# 3 33.0859 53.0300 109.1157 17.4216 24.8039 -4.0964
# 4 2.4270 15.7015 17.4216 28.6643 -0.7820 7.3600
# 5 11.3556 13.7496 24.8039 -0.7820 33.8900 -1.6712
# 6 -11.7411 0.2616 -4.0964 7.3600 -1.6712 40.6935
#
#
#
# Elastic Compliance Matrix: (Units=1/GPa)
#
#
# Indices 1 2 3 4 5 6 
#
# 1 0.015076 -0.007754 -0.000807 0.002448 -0.001070 0.003832
# 2 -0.007754 0.016628 -0.004804 -0.005055 -0.000845 -0.001948
# 3 -0.000807 -0.004804 0.014983 -0.007225 -0.008802 0.002252
# 4 0.002448 -0.005055 -0.007225 0.043999 0.007156 -0.007652
# 5 -0.001070 -0.000845 -0.008802 0.007156 0.036768 -0.000974
# 6 0.003832 -0.001948 0.002252 -0.007652 -0.000974 0.027263
#
#
# Mechanical properties :
#
#
# Convention : Reuss Voigt Hill
#
# Bulk Modulus (GPa) = 50.10599 66.86269 58.48434
# Shear Modulus (GPa) = 26.58173 32.27395 29.42784
#
# Velocity S-wave (km/s) = 3.49112 3.84680 3.67327
# Velocity P-wave (km/s) = 6.26295 7.09842 6.69373
#
# Compressibility (1/GPa) = 0.01995769
#
# Stress axis : x y z
#
# Youngs Moduli (GPa) = 66.33000 60.13924 66.74214
#
# Poissons Ratio (x) = 0.46629 0.05386
# Poissons Ratio (y) = 0.51429 0.32065
# Poissons Ratio (z) = 0.05353 0.28892
#
# Static dielectric constant tensor:
#      x y z
#    x 4.311450 -0.113830 0.028280 
#    y -0.113830 4.113540 0.166890 
#    z 0.028280 0.166890 3.563510 
# 
# 
# High freq. dielectric constant tensor:
#      x y z
#    x 1.875690 -0.002790 0.006800 
#    y -0.002790 1.871800 0.016860 
#    z 0.006800 0.016860 1.822070 
# 
# From -- ./inp_files/428188.got.cif
#   From: 2010.06.25/outbox.cif.g09.slc.cpg/sg2_215_cif.got.tgz:428188.got - 2010.06.27 13:26:56.
