data_PCOD8007229
_publ_section_title
;
Structure prediction by ZEFSAII (Michael W. Deem and Ramdas Pophale) SiO2 
 PCOD8007229
Probable space group: P -1
;
_chemical_formula_sum "Si O2"
_cell_formula_units_Z 16
_cell_length_a 29.776693
_cell_length_b 18.285132
_cell_length_c 24.411264
_cell_angle_alpha 18.990591
_cell_angle_beta 10.212240
_cell_angle_gamma 18.368413
_cell_volume 726.522196
_symmetry_space_group_name_H-M "P -1"
_symmetry_group_IT_number 2
_symmetry_cell_setting 'triclinic'
loop_
_space_group_symop_operation_xyz
x,y,z
-x,-y,-z
loop_
_atom_site_type_symbol
_atom_site_label
_atom_site_fract_x
_atom_site_fract_y
_atom_site_fract_z
Si Si1 0.739132 0.258498 0.389960
Si Si2 0.129564 0.743162 0.092489
Si Si3 0.388636 0.088584 0.130117
Si Si4 0.051534 0.488974 0.688745
Si Si5 0.599933 0.395074 0.728162
Si Si6 0.335806 0.134871 0.518887
Si Si7 0.790984 0.103876 0.318092
Si Si8 0.670457 0.784911 0.290451
O O1 0.500000 0.500000 0.500000
O O2 0.750933 0.103483 0.431246
O O3 0.695761 0.119233 0.593747
O O4 0.016128 0.311784 0.030199
O O5 0.898868 0.744147 0.326908
O O6 0.348263 0.481471 0.011936
O O7 0.994353 0.842214 0.243237
O O8 0.287131 0.918812 0.761370
O O9 0.139569 0.327647 0.253735
O O10 0.605716 0.149946 0.865595
O O11 0.500000 0.000000 0.000000
O O12 0.130678 0.636629 0.538066
O O13 0.321675 0.337046 0.438314
O O14 0.906918 0.313166 0.012583
O O15 0.573554 0.584460 0.577373
O O16 0.611873 0.017643 0.236653
O O17 0.503749 0.144325 0.605666
#
# Coordination Sequence:
#
# PCOD8007229 Si02
#       8
#     2   2   2   2   2   2   2   2
#     4  12  28  47  67  95 126 175 227 272 331 391
#     4   8  15  31  62 102 134 169 210 261 313 389
#     4  12  28  49  65  91 134 172 221 282 324 386
#     4  11  20  38  70 103 135 172 216 265 322 386
#     4  11  21  38  72 103 129 174 222 261 327 388
#     4   8  15  31  62 102 136 167 210 261 316 385
#     4  10  20  40  69 102 138 169 216 268 320 385
#     4  10  21  40  71 102 132 172 219 268 322 386
#
# _framework density 22.022725999999999
#
# number of rings (size 3 to 8) (size 9 to 14) (size 15 to 20)
#    0.000    1.750    3.750    2.250    1.750    3.500 
#    0.000    1.250    0.000    0.000    0.000    0.000 
#    0.000    0.000    0.000    0.000    0.000    0.000 
#
# Total GULP energy -198279.265836 kJ/mol
# GULP energy per Si atom -12392.454115 kJ/mol
# Density = 2.197260 g / cm^3
# Si number density = 22.022726 Si / 1000 Ang^3
#
#
#
# Elastic Constant Matrix: (Units=GPa)
#
#
# Indices 1 2 3 4 5 6 
#
# 1 99.4469 22.9874 33.5203 3.4963 3.0961 24.2825
# 2 22.9874 82.2254 41.8636 8.9447 7.0287 16.8386
# 3 33.5203 41.8636 88.2898 20.1542 -1.5515 10.9489
# 4 3.4963 8.9447 20.1542 24.6511 2.6509 0.8503
# 5 3.0961 7.0287 -1.5515 2.6509 37.0519 -5.6885
# 6 24.2825 16.8386 10.9489 0.8503 -5.6885 36.0428
#
#
#
# Elastic Compliance Matrix: (Units=1/GPa)
#
#
# Indices 1 2 3 4 5 6 
#
# 1 0.013701 0.000402 -0.004991 0.002595 -0.002909 -0.008422
# 2 0.000402 0.017908 -0.008044 0.000789 -0.004896 -0.006985
# 3 -0.004991 -0.008044 0.019844 -0.013100 0.004024 0.002037
# 4 0.002595 0.000789 -0.013100 0.051117 -0.004583 -0.000067
# 5 -0.002909 -0.004896 0.004024 -0.004583 0.029862 0.007846
# 6 -0.008422 -0.006985 0.002037 -0.000067 0.007846 0.037304
#
#
# Mechanical properties :
#
#
# Convention : Reuss Voigt Hill
#
# Bulk Modulus (GPa) = 38.18741 51.85607 45.02174
# Shear Modulus (GPa) = 24.54218 30.98855 27.76536
#
# Velocity S-wave (km/s) = 3.34189 3.75522 3.55457
# Velocity P-wave (km/s) = 5.68055 6.51153 6.11018
#
# Compressibility (1/GPa) = 0.02618664
#
# Stress axis : x y z
#
# Youngs Moduli (GPa) = 72.98735 55.84174 50.39300
#
# Poissons Ratio (x) = -0.02246 0.25153
# Poissons Ratio (y) = -0.02935 0.40535
# Poissons Ratio (z) = 0.36431 0.44918
#
# Static dielectric constant tensor:
#      x y z
#    x 4.071550 0.276570 -0.070970 
#    y 0.276570 3.996210 0.318560 
#    z -0.070970 0.318560 3.666380 
# 
# 
# High freq. dielectric constant tensor:
#      x y z
#    x 1.874230 0.017780 -0.018100 
#    y 0.017780 1.851780 0.025760 
#    z -0.018100 0.025760 1.833350 
# 
# From -- ./inp_files/614546.got.cif
#   From: 2010.06.25/outbox.cif.g09.slc.cpg/sg2_308_cif.got.tgz:614546.got - 2010.06.27 13:26:56.
