data_PCOD8007783
_publ_section_title
;
Structure prediction by ZEFSAII (Michael W. Deem and Ramdas Pophale) SiO2 
 PCOD8007783
Probable space group: P -1
;
_chemical_formula_sum "Si O2"
_cell_formula_units_Z 16
_cell_length_a 9.680981
_cell_length_b 8.291508
_cell_length_c 13.804961
_cell_angle_alpha 57.645833
_cell_angle_beta 67.652184
_cell_angle_gamma 103.877316
_cell_volume 712.918785
_symmetry_space_group_name_H-M "P -1"
_symmetry_group_IT_number 2
_symmetry_cell_setting 'triclinic'
loop_
_space_group_symop_operation_xyz
x,y,z
-x,-y,-z
loop_
_atom_site_type_symbol
_atom_site_label
_atom_site_fract_x
_atom_site_fract_y
_atom_site_fract_z
Si Si1 0.518637 0.118922 0.559673
Si Si2 0.512257 0.021779 0.803652
Si Si3 0.909028 0.384514 0.350969
Si Si4 0.814031 0.935753 0.408046
Si Si5 0.454823 0.326061 0.982185
Si Si6 0.255651 0.499716 0.321489
Si Si7 0.899354 0.731646 0.916337
Si Si8 0.121289 0.697146 0.027594
O O1 0.482774 0.959598 0.715810
O O2 0.722708 0.349125 0.448956
O O3 0.363859 0.169516 0.579716
O O4 0.500000 0.000000 0.500000
O O5 0.637217 0.297390 0.694282
O O6 0.599015 0.912191 0.876284
O O7 0.315431 0.921117 0.935902
O O8 0.062348 0.460234 0.366048
O O9 0.985412 0.588264 0.187776
O O10 0.842392 0.135515 0.406304
O O11 0.787972 0.735733 0.546746
O O12 0.994297 0.053773 0.256214
O O13 0.625161 0.433586 0.829625
O O14 0.500000 0.500000 0.000000
O O15 0.275130 0.280372 0.992808
O O16 0.839439 0.487925 0.962847
O O17 0.035655 0.783175 0.949002
#
# Coordination Sequence:
#
# PCOD8007783 Si02
#       8
#     2   2   2   2   2   2   2   2
#     4  10  24  42  71  97 127 176 229 279 320 400
#     4  12  25  47  66  96 144 176 215 281 347 387
#     4  10  22  40  67  98 131 178 225 273 325 403
#     4  10  22  42  65  97 135 172 228 276 330 391
#     4  12  25  41  70 102 127 176 233 270 321 405
#     4  12  27  43  66  99 146 177 209 282 346 394
#     4  10  21  39  69  99 126 173 229 278 314 396
#     4  10  20  41  68  95 135 170 219 280 337 371
#
# _framework density 22.442948000000001
#
# number of rings (size 3 to 8) (size 9 to 14) (size 15 to 20)
#    0.000    1.250    3.750    1.500    8.750    1.000 
#    0.000    0.625    0.000    0.000    0.000    0.000 
#    0.000    0.000    0.000    0.000    0.000    0.000 
#
# Total GULP energy -198303.104195 kJ/mol
# GULP energy per Si atom -12393.944012 kJ/mol
# Density = 2.239187 g / cm^3
# Si number density = 22.442948 Si / 1000 Ang^3
#
#
#
# Elastic Constant Matrix: (Units=GPa)
#
#
# Indices 1 2 3 4 5 6 
#
# 1 106.0552 23.3855 26.9105 0.9137 -21.5308 22.8623
# 2 23.3855 47.8542 31.5168 -1.9535 2.0015 14.2713
# 3 26.9105 31.5168 128.8136 -0.7018 5.1856 11.8964
# 4 0.9137 -1.9535 -0.7018 25.0710 10.6041 -7.5250
# 5 -21.5308 2.0015 5.1856 10.6041 48.9946 -0.9487
# 6 22.8623 14.2713 11.8964 -7.5250 -0.9487 19.4335
#
#
#
# Elastic Compliance Matrix: (Units=1/GPa)
#
#
# Indices 1 2 3 4 5 6 
#
# 1 0.016949 -0.001633 -0.001590 -0.011425 0.009735 -0.021715
# 2 -0.001633 0.030706 -0.005439 -0.002736 -0.001161 -0.018415
# 3 -0.001590 -0.005439 0.009472 0.000655 -0.001616 0.000241
# 4 -0.011425 -0.002736 0.000655 0.058293 -0.016882 0.036797
# 5 0.009735 -0.001161 -0.001616 -0.016882 0.028275 -0.014768
# 6 -0.021715 -0.018415 0.000241 0.036797 -0.014768 0.103907
#
#
# Mechanical properties :
#
#
# Convention : Reuss Voigt Hill
#
# Bulk Modulus (GPa) = 25.12392 49.59429 37.35910
# Shear Modulus (GPa) = 17.97309 32.09383 25.03346
#
# Velocity S-wave (km/s) = 2.83297 3.78566 3.34342
# Velocity P-wave (km/s) = 4.68186 6.42294 5.62023
#
# Compressibility (1/GPa) = 0.03980271
#
# Stress axis : x y z
#
# Youngs Moduli (GPa) = 59.00224 32.56742 105.56908
#
# Poissons Ratio (x) = 0.05318 0.16784
# Poissons Ratio (y) = 0.09635 0.57420
# Poissons Ratio (z) = 0.09381 0.17714
#
# Static dielectric constant tensor:
#      x y z
#    x 4.673520 0.100780 -0.364370 
#    y 0.100780 3.726970 0.111100 
#    z -0.364370 0.111100 4.282020 
# 
# 
# High freq. dielectric constant tensor:
#      x y z
#    x 1.901410 0.023000 -0.010000 
#    y 0.023000 1.841140 0.004080 
#    z -0.010000 0.004080 1.900900 
# 
# From -- ./inp_files/312293.got.cif
#   From: 2010.06.25/outbox.cif.g09.slc.cpg/sg2_157_cif.got.tgz:312293.got - 2010.06.27 13:26:56.
