data_PCOD8007411
_publ_section_title
;
Structure prediction by ZEFSAII (Michael W. Deem and Ramdas Pophale) SiO2 
 PCOD8007411
Probable space group: P -1
;
_chemical_formula_sum "Si O2"
_cell_formula_units_Z 16
_cell_length_a 9.698929
_cell_length_b 17.027671
_cell_length_c 8.727217
_cell_angle_alpha 85.333846
_cell_angle_beta 136.467932
_cell_angle_gamma 119.008591
_cell_volume 775.906237
_symmetry_space_group_name_H-M "P -1"
_symmetry_group_IT_number 2
_symmetry_cell_setting 'triclinic'
loop_
_space_group_symop_operation_xyz
x,y,z
-x,-y,-z
loop_
_atom_site_type_symbol
_atom_site_label
_atom_site_fract_x
_atom_site_fract_y
_atom_site_fract_z
Si Si1 0.087946 0.553477 0.221153
Si Si2 0.987125 0.052909 0.235580
Si Si3 0.491052 0.064125 0.353205
Si Si4 0.439345 0.220456 0.384081
Si Si5 0.357181 0.263211 0.983139
Si Si6 0.774431 0.595659 0.159408
Si Si7 0.899719 0.078755 0.495429
Si Si8 0.064268 0.590596 0.636407
O O1 0.362344 0.663302 0.423174
O O2 0.884328 0.566123 0.120692
O O3 0.085142 0.467934 0.319944
O O4 0.000000 0.500000 0.000000
O O5 0.854459 0.055401 0.281084
O O6 0.208519 0.163789 0.329335
O O7 0.124926 0.005541 0.405996
O O8 0.782050 0.993266 0.942865
O O9 0.565849 0.164362 0.481779
O O10 0.697383 0.093955 0.385151
O O11 0.500000 0.000000 0.500000
O O12 0.339667 0.212169 0.134765
O O13 0.632823 0.328532 0.114929
O O14 0.248682 0.321869 0.931804
O O15 0.185351 0.180262 0.729857
O O16 0.953710 0.639263 0.449906
O O17 0.500000 0.500000 0.000000
O O18 0.000000 0.500000 0.500000
#
# Coordination Sequence:
#
# PCOD8007411 Si02
#       8
#     2   2   2   2   2   2   2   2
#     4  11  24  42  65  97 138 171 211 281 331 376
#     4  11  25  44  64 100 137 167 212 284 335 393
#     4  12  23  45  70  99 130 177 223 274 326 405
#     4  12  23  43  67  97 132 173 226 270 326 395
#     4  12  22  40  71  94 125 177 228 263 323 401
#     4  11  20  40  69  90 122 177 226 262 322 394
#     4  11  25  42  68  96 135 170 213 275 343 391
#     4  10  20  41  62  94 126 167 217 272 311 392
#
# _framework density 20.621046
#
# number of rings (size 3 to 8) (size 9 to 14) (size 15 to 20)
#    0.000    0.750    7.500    2.250    1.750    0.000 
#    0.000    5.000    0.000    0.000    0.000    0.000 
#    0.000    0.000    0.000    0.000    0.000    0.000 
#
# Total GULP energy -198284.366392 kJ/mol
# GULP energy per Si atom -12392.772899 kJ/mol
# Density = 2.057411 g / cm^3
# Si number density = 20.621046 Si / 1000 Ang^3
#
#
#
# Elastic Constant Matrix: (Units=GPa)
#
#
# Indices 1 2 3 4 5 6 
#
# 1 73.3057 38.7601 39.0856 2.7473 0.4159 8.2815
# 2 38.7601 111.8713 35.5264 -6.1252 1.1588 14.0910
# 3 39.0856 35.5264 100.2322 6.2444 -2.3445 11.2423
# 4 2.7473 -6.1252 6.2444 39.5301 6.7380 6.4731
# 5 0.4159 1.1588 -2.3445 6.7380 38.4423 0.7565
# 6 8.2815 14.0910 11.2423 6.4731 0.7565 32.9603
#
#
#
# Elastic Compliance Matrix: (Units=1/GPa)
#
#
# Indices 1 2 3 4 5 6 
#
# 1 0.019368 -0.004881 -0.005691 -0.001065 -0.000211 -0.000625
# 2 -0.004881 0.011981 -0.002147 0.003317 -0.000946 -0.003793
# 3 -0.005691 -0.002147 0.013316 -0.001964 0.001319 -0.001839
# 4 -0.001065 0.003317 -0.001964 0.028009 -0.005002 -0.005866
# 5 -0.000211 -0.000946 0.001319 -0.005002 0.026994 0.000370
# 6 -0.000625 -0.003793 -0.001839 -0.005866 0.000370 0.033889
#
#
# Mechanical properties :
#
#
# Convention : Reuss Voigt Hill
#
# Bulk Modulus (GPa) = 52.00617 56.90592 54.45604
# Shear Modulus (GPa) = 30.22915 33.65570 31.94243
#
# Velocity S-wave (km/s) = 3.83291 4.04431 3.94003
# Velocity P-wave (km/s) = 6.69798 7.03311 6.86759
#
# Compressibility (1/GPa) = 0.01922849
#
# Stress axis : x y z
#
# Youngs Moduli (GPa) = 51.63074 83.46750 75.09502
#
# Poissons Ratio (x) = 0.40738 0.42739
# Poissons Ratio (y) = 0.25199 0.16120
# Poissons Ratio (z) = 0.29384 0.17917
#
# Static dielectric constant tensor:
#      x y z
#    x 3.560280 0.096650 0.025680 
#    y 0.096650 3.934260 -0.375400 
#    z 0.025680 -0.375400 4.440040 
# 
# 
# High freq. dielectric constant tensor:
#      x y z
#    x 1.792530 0.011300 0.006900 
#    y 0.011300 1.822220 -0.002800 
#    z 0.006900 -0.002800 1.808410 
# 
# From -- ./inp_files/215237.got.cif
#   From: 2010.06.25/outbox.cif.g09.slc.cpg/sg2_108_cif.got.tgz:215237.got - 2010.06.27 13:26:56.
