data_PCOD8007859
_publ_section_title
;
Structure prediction by ZEFSAII (Michael W. Deem and Ramdas Pophale) SiO2 
 PCOD8007859
Probable space group: P -1
;
_chemical_formula_sum "Si O2"
_cell_formula_units_Z 16
_cell_length_a 16.452627
_cell_length_b 9.095754
_cell_length_c 15.363494
_cell_angle_alpha 36.765840
_cell_angle_beta 31.067367
_cell_angle_gamma 40.514679
_cell_volume 689.434541
_symmetry_space_group_name_H-M "P -1"
_symmetry_group_IT_number 2
_symmetry_cell_setting 'triclinic'
loop_
_space_group_symop_operation_xyz
x,y,z
-x,-y,-z
loop_
_atom_site_type_symbol
_atom_site_label
_atom_site_fract_x
_atom_site_fract_y
_atom_site_fract_z
Si Si1 0.259943 0.808940 0.365618
Si Si2 0.516940 0.623979 0.720718
Si Si3 0.443427 0.942049 0.286182
Si Si4 0.808792 0.987890 0.945865
Si Si5 0.662031 0.499964 0.900611
Si Si6 0.935159 0.739328 0.772707
Si Si7 0.359306 0.904658 0.565271
Si Si8 0.962588 0.171758 0.037929
O O1 0.340630 0.631472 0.295683
O O2 0.117964 0.702700 0.589264
O O3 0.405385 0.790524 0.309653
O O4 0.191694 0.090309 0.258053
O O5 0.458805 0.715900 0.634381
O O6 0.596352 0.825203 0.600604
O O7 0.364877 0.577137 0.937756
O O8 0.313830 0.217561 0.265268
O O9 0.630441 0.949785 0.109104
O O10 0.407498 0.800023 0.473762
O O11 0.922649 0.872529 0.815535
O O12 0.880241 0.845460 0.036912
O O13 0.804324 0.285544 0.826350
O O14 0.500000 0.500000 0.000000
O O15 0.893468 0.466922 0.939222
O O16 0.168735 0.934564 0.737515
O O17 0.000000 0.000000 0.000000
#
# Coordination Sequence:
#
# PCOD8007859 Si02
#       8
#     2   2   2   2   2   2   2   2
#     4  11  26  45  72 101 139 184 233 290 344 409
#     4  11  23  44  72 101 141 177 238 288 338 409
#     4  11  25  43  73 107 136 182 236 283 346 414
#     4  11  24  45  71  99 141 185 224 290 348 408
#     4  10  20  41  70 101 136 175 228 284 343 401
#     4  11  27  48  66 104 144 182 230 288 351 416
#     4  11  25  43  70 105 134 181 236 284 339 416
#     4  12  27  46  70 101 143 188 230 282 356 417
#
# _framework density 23.207425000000001
#
# number of rings (size 3 to 8) (size 9 to 14) (size 15 to 20)
#    0.000    1.000    2.500    4.125    8.750    1.500 
#    0.000    1.250    0.000    0.000    0.000    0.000 
#    0.000    0.000    0.000    0.000    0.000    0.000 
#
# Total GULP energy -198412.198445 kJ/mol
# GULP energy per Si atom -12400.762403 kJ/mol
# Density = 2.315460 g / cm^3
# Si number density = 23.207425 Si / 1000 Ang^3
#
#
#
# Elastic Constant Matrix: (Units=GPa)
#
#
# Indices 1 2 3 4 5 6 
#
# 1 113.9250 12.4913 20.0697 1.7958 7.6317 3.3768
# 2 12.4913 104.1021 14.0441 13.2837 6.6014 10.1036
# 3 20.0697 14.0441 70.9816 5.5690 13.7160 5.6108
# 4 1.7958 13.2837 5.5690 32.1443 -1.8887 9.9810
# 5 7.6317 6.6014 13.7160 -1.8887 36.3062 9.2135
# 6 3.3768 10.1036 5.6108 9.9810 9.2135 28.0671
#
#
#
# Elastic Compliance Matrix: (Units=1/GPa)
#
#
# Indices 1 2 3 4 5 6 
#
# 1 0.009331 -0.000759 -0.002317 0.000190 -0.000898 -0.000159
# 2 -0.000759 0.010568 -0.001254 -0.003590 -0.001004 -0.001856
# 3 -0.002317 -0.001254 0.016261 -0.002575 -0.005623 0.000241
# 4 0.000190 -0.003590 -0.002575 0.037788 0.007100 -0.013984
# 5 -0.000898 -0.001004 -0.005623 0.007100 0.033430 -0.011905
# 6 -0.000159 -0.001856 0.000241 -0.013984 -0.011905 0.045149
#
#
# Mechanical properties :
#
#
# Convention : Reuss Voigt Hill
#
# Bulk Modulus (GPa) = 36.36339 42.46878 39.41608
# Shear Modulus (GPa) = 29.35072 35.46377 32.40725
#
# Velocity S-wave (km/s) = 3.56014 3.91336 3.74092
# Velocity P-wave (km/s) = 5.70984 6.22564 5.97331
#
# Compressibility (1/GPa) = 0.02750019
#
# Stress axis : x y z
#
# Youngs Moduli (GPa) = 107.17014 94.62411 61.49712
#
# Poissons Ratio (x) = 0.07182 0.14249
# Poissons Ratio (y) = 0.08134 0.07711
# Poissons Ratio (z) = 0.24831 0.11865
#
# Static dielectric constant tensor:
#      x y z
#    x 4.205870 -0.002470 0.424010 
#    y -0.002470 4.638810 -0.198980 
#    z 0.424010 -0.198980 4.882670 
# 
# 
# High freq. dielectric constant tensor:
#      x y z
#    x 1.926760 0.002500 0.017050 
#    y 0.002500 1.925170 -0.000380 
#    z 0.017050 -0.000380 1.903990 
# 
# From -- ./inp_files/393190.got.cif
#   From: 2010.06.25/outbox.cif.g09.slc.cpg/sg2_197_cif.got.tgz:393190.got - 2010.06.27 13:26:56.
