data_PCOD8007114
_publ_section_title
;
Structure prediction by ZEFSAII (Michael W. Deem and Ramdas Pophale) SiO2 
 PCOD8007114
Probable space group: P -1
;
_chemical_formula_sum "Si O2"
_cell_formula_units_Z 16
_cell_length_a 12.114374
_cell_length_b 17.777581
_cell_length_c 9.360871
_cell_angle_alpha 142.710738
_cell_angle_beta 105.615742
_cell_angle_gamma 48.316772
_cell_volume 746.675171
_symmetry_space_group_name_H-M "P -1"
_symmetry_group_IT_number 2
_symmetry_cell_setting 'triclinic'
loop_
_space_group_symop_operation_xyz
x,y,z
-x,-y,-z
loop_
_atom_site_type_symbol
_atom_site_label
_atom_site_fract_x
_atom_site_fract_y
_atom_site_fract_z
Si Si1 0.882660 0.973875 0.616293
Si Si2 0.029775 0.652944 0.605346
Si Si3 0.301357 0.658199 0.352581
Si Si4 0.172509 0.796940 0.822017
Si Si5 0.114720 0.290617 0.664136
Si Si6 0.597399 0.243964 0.696609
Si Si7 0.737892 0.741937 0.766562
Si Si8 0.428246 0.140031 0.393938
O O1 0.857607 0.846633 0.425800
O O2 0.096882 0.818737 0.465286
O O3 0.790014 0.094435 0.618237
O O4 0.768286 0.150514 0.960644
O O5 0.119088 0.712594 0.755454
O O6 0.170263 0.427169 0.346527
O O7 0.980196 0.689292 0.476867
O O8 0.855427 0.770058 0.821735
O O9 0.314294 0.660189 0.533646
O O10 0.388852 0.703817 0.374803
O O11 0.425006 0.438234 0.019401
O O12 0.000000 0.000000 0.000000
O O13 0.312454 0.179201 0.539392
O O14 0.000000 0.500000 0.000000
O O15 0.558718 0.133451 0.491122
O O16 0.706311 0.700624 0.539389
O O17 0.546960 0.930633 0.054277
#
# Coordination Sequence:
#
# PCOD8007114 Si02
#       8
#     2   2   2   2   2   2   2   2
#     4  11  24  43  67  99 124 180 219 264 331 385
#     4  10  20  40  67  93 124 166 218 265 322 387
#     4  10  23  44  62  94 133 169 218 271 320 389
#     4  10  21  39  68  92 126 172 217 271 318 384
#     4  11  23  40  63  92 135 165 216 268 325 387
#     4  11  25  41  65  95 135 170 217 266 335 385
#     4   9  22  40  62  97 122 168 217 265 327 380
#     4  10  23  40  62  91 131 169 207 277 317 390
#
# _framework density 21.428328
#
# number of rings (size 3 to 8) (size 9 to 14) (size 15 to 20)
#    0.000    1.750    2.500    1.125    5.250    5.000 
#    2.250    0.000    0.000    0.000    0.000    0.000 
#    0.000    0.000    0.000    0.000    0.000    0.000 
#
# Total GULP energy -198308.244536 kJ/mol
# GULP energy per Si atom -12394.265284 kJ/mol
# Density = 2.137956 g / cm^3
# Si number density = 21.428328 Si / 1000 Ang^3
#
#
#
# Elastic Constant Matrix: (Units=GPa)
#
#
# Indices 1 2 3 4 5 6 
#
# 1 100.4916 14.1816 50.3414 -6.0476 4.6818 10.3138
# 2 14.1816 62.6207 8.4931 7.2135 0.1573 3.3403
# 3 50.3414 8.4931 99.4325 3.6175 -7.5310 5.3288
# 4 -6.0476 7.2135 3.6175 22.3185 -4.6558 -0.6968
# 5 4.6818 0.1573 -7.5310 -4.6558 35.7251 1.6028
# 6 10.3138 3.3403 5.3288 -0.6968 1.6028 34.9457
#
#
#
# Elastic Compliance Matrix: (Units=1/GPa)
#
#
# Indices 1 2 3 4 5 6 
#
# 1 0.014866 -0.002827 -0.007543 0.005519 -0.002684 -0.002734
# 2 -0.002827 0.017389 0.000200 -0.006548 -0.000474 -0.000967
# 3 -0.007543 0.000200 0.014271 -0.003693 0.003524 -0.000204
# 4 0.005519 -0.006548 -0.003693 0.050078 0.005039 0.000327
# 5 -0.002684 -0.000474 0.003524 0.005039 0.029788 -0.000966
# 6 -0.002734 -0.000967 -0.000204 0.000327 -0.000966 0.029597
#
#
# Mechanical properties :
#
#
# Convention : Reuss Voigt Hill
#
# Bulk Modulus (GPa) = 38.18625 45.39744 41.79184
# Shear Modulus (GPa) = 27.01854 31.23309 29.12582
#
# Velocity S-wave (km/s) = 3.55474 3.82194 3.69076
# Velocity P-wave (km/s) = 5.89130 6.38029 6.14066
#
# Compressibility (1/GPa) = 0.02618744
#
# Stress axis : x y z
#
# Youngs Moduli (GPa) = 67.26590 57.50664 70.07230
#
# Poissons Ratio (x) = 0.16257 0.52854
# Poissons Ratio (y) = 0.19016 -0.01402
# Poissons Ratio (z) = 0.50737 -0.01151
#
# Static dielectric constant tensor:
#      x y z
#    x 3.669450 0.010300 -0.089270 
#    y 0.010300 4.076930 -0.363380 
#    z -0.089270 -0.363380 4.270800 
# 
# 
# High freq. dielectric constant tensor:
#      x y z
#    x 1.838570 0.006250 -0.003640 
#    y 0.006250 1.836040 0.003160 
#    z -0.003640 0.003160 1.841650 
# 
# From -- ./inp_files/280129.got.cif
#   From: 2010.06.25/outbox.cif.g09.slc.cpg/sg2_141_cif.got.tgz:280129.got - 2010.06.27 13:26:56.
