data_PCOD8007326
_publ_section_title
;
Structure prediction by ZEFSAII (Michael W. Deem and Ramdas Pophale) SiO2 
 PCOD8007326
Probable space group: P -1
;
_chemical_formula_sum "Si O2"
_cell_formula_units_Z 14
_cell_length_a 14.074337
_cell_length_b 6.675892
_cell_length_c 15.972642
_cell_angle_alpha 93.591561
_cell_angle_beta 45.287518
_cell_angle_gamma 123.030068
_cell_volume 753.423646
_symmetry_space_group_name_H-M "P -1"
_symmetry_group_IT_number 2
_symmetry_cell_setting 'triclinic'
loop_
_space_group_symop_operation_xyz
x,y,z
-x,-y,-z
loop_
_atom_site_type_symbol
_atom_site_label
_atom_site_fract_x
_atom_site_fract_y
_atom_site_fract_z
Si Si1 0.467528 0.409205 0.392564
Si Si2 0.434488 0.262762 0.230632
Si Si3 0.626276 0.329625 0.435018
Si Si4 0.989349 0.362489 0.717703
Si Si5 0.656902 0.290135 0.958657
Si Si6 0.128200 0.833532 0.526626
Si Si7 0.791932 0.753575 0.761234
O O1 0.533300 0.471763 0.255891
O O2 0.615142 0.444595 0.359227
O O3 0.451829 0.621913 0.437608
O O4 0.260141 0.084975 0.520883
O O5 0.369124 0.364828 0.209333
O O6 0.248032 0.939944 0.368807
O O7 0.580730 0.264945 0.097369
O O8 0.844669 0.507144 0.316635
O O9 0.500000 0.000000 0.500000
O O10 0.846330 0.361521 0.853111
O O11 0.071827 0.554886 0.587836
O O12 0.883883 0.051366 0.747940
O O13 0.695756 0.536762 0.891932
O O14 0.500000 0.000000 0.000000
O O15 0.945285 0.775819 0.621205
#
# Coordination Sequence:
#
# PCOD8007326 Si02
#       7
#     2   2   2   2   2   2   2
#     4   9  21  35  59  87 115 148 193 247 291 341
#     4  10  20  41  56  86 127 151 195 244 295 347
#     4  11  19  38  62  87 118 151 198 246 303 338
#     4  11  21  37  62  90 117 158 197 241 297 352
#     4  11  24  40  57  87 123 166 195 231 293 368
#     4   9  20  36  55  92 113 146 196 248 288 340
#     4  11  21  38  61  86 121 157 197 240 302 349
#
# _framework density 18.581845000000001
#
# number of rings (size 3 to 8) (size 9 to 14) (size 15 to 20)
#    0.857    0.857    4.286    0.857    0.000    0.571 
#    7.714    0.714    0.000    1.714    0.000    0.000 
#    0.000    0.000    0.000    0.000    0.000    0.000 
#
# Total GULP energy -173568.789353 kJ/mol
# GULP energy per Si atom -12397.770668 kJ/mol
# Density = 1.853955 g / cm^3
# Si number density = 18.581845 Si / 1000 Ang^3
#
#
#
# Elastic Constant Matrix: (Units=GPa)
#
#
# Indices 1 2 3 4 5 6 
#
# 1 126.4658 49.6869 55.9068 18.6045 -17.1538 1.9921
# 2 49.6869 129.1743 44.5891 3.5628 12.6370 -6.2116
# 3 55.9068 44.5891 129.6640 17.9858 7.7045 -7.0625
# 4 18.6045 3.5628 17.9858 24.0194 -0.3907 6.7956
# 5 -17.1538 12.6370 7.7045 -0.3907 23.9590 6.0699
# 6 1.9921 -6.2116 -7.0625 6.7956 6.0699 27.5115
#
#
#
# Elastic Compliance Matrix: (Units=1/GPa)
#
#
# Indices 1 2 3 4 5 6 
#
# 1 0.016194 -0.006286 -0.005551 -0.005243 0.018323 -0.006764
# 2 -0.006286 0.011707 -0.000620 0.001981 -0.011720 0.005036
# 3 -0.005551 -0.000620 0.012247 -0.006981 -0.009532 0.007233
# 4 -0.005243 0.001981 -0.006981 0.054906 0.002142 -0.015000
# 5 0.018323 -0.011720 -0.009532 0.002142 0.069801 -0.022349
# 6 -0.006764 0.005036 0.007233 -0.015000 -0.022349 0.048468
#
#
# Mechanical properties :
#
#
# Convention : Reuss Voigt Hill
#
# Bulk Modulus (GPa) = 65.63506 76.18551 70.91029
# Shear Modulus (GPa) = 20.54942 30.77271 25.66107
#
# Velocity S-wave (km/s) = 3.32910 4.07389 3.72018
# Velocity P-wave (km/s) = 7.08350 7.95096 7.52973
#
# Compressibility (1/GPa) = 0.01523576
#
# Stress axis : x y z
#
# Youngs Moduli (GPa) = 61.75136 85.41551 81.65067
#
# Poissons Ratio (x) = 0.53694 0.45321
# Poissons Ratio (y) = 0.38819 0.05060
# Poissons Ratio (z) = 0.34275 0.05293
#
# Static dielectric constant tensor:
#      x y z
#    x 3.565520 -0.080410 -0.135360 
#    y -0.080410 3.374510 0.029170 
#    z -0.135360 0.029170 3.410500 
# 
# 
# High freq. dielectric constant tensor:
#      x y z
#    x 1.721730 -0.009380 -0.010140 
#    y -0.009380 1.721140 0.004360 
#    z -0.010140 0.004360 1.706240 
# 
# From -- ./inp_files/128373.got.cif
#   From: 2010.06.25/outbox.cif.g09.slc.cpg/sg2_65_cif.got.tgz:128373.got - 2010.06.27 13:26:56.
