data_PCOD8007684
_publ_section_title
;
Structure prediction by ZEFSAII (Michael W. Deem and Ramdas Pophale) SiO2 
 PCOD8007684
Probable space group: P -1
;
_chemical_formula_sum "Si O2"
_cell_formula_units_Z 16
_cell_length_a 9.472715
_cell_length_b 11.678885
_cell_length_c 19.358131
_cell_angle_alpha 46.632675
_cell_angle_beta 153.809571
_cell_angle_gamma 126.233430
_cell_volume 685.030483
_symmetry_space_group_name_H-M "P -1"
_symmetry_group_IT_number 2
_symmetry_cell_setting 'triclinic'
loop_
_space_group_symop_operation_xyz
x,y,z
-x,-y,-z
loop_
_atom_site_type_symbol
_atom_site_label
_atom_site_fract_x
_atom_site_fract_y
_atom_site_fract_z
Si Si1 0.232697 0.123890 0.740883
Si Si2 0.414539 0.717194 0.676000
Si Si3 0.521162 0.233483 0.592795
Si Si4 0.633565 0.548067 0.331442
Si Si5 0.620232 0.981137 0.848276
Si Si6 0.758186 0.465588 0.705821
Si Si7 0.252987 0.998177 0.329410
Si Si8 0.421082 0.363433 0.073489
O O1 0.420952 0.269506 0.793186
O O2 0.493994 0.022982 0.851884
O O3 0.924346 0.193861 0.531717
O O4 0.105191 0.014482 0.791676
O O5 0.551467 0.578601 0.741142
O O6 0.375715 0.636479 0.766999
O O7 0.695813 0.839860 0.756238
O O8 0.426559 0.096659 0.660051
O O9 0.757668 0.346335 0.689679
O O10 0.217311 0.353649 0.386126
O O11 0.682958 0.154001 0.628562
O O12 0.558466 0.537623 0.384528
O O13 0.000000 0.500000 0.500000
O O14 0.523750 0.806069 0.867365
O O15 0.000000 0.000000 0.000000
O O16 0.045567 0.405668 0.907416
O O17 0.500000 0.000000 0.500000
O O18 0.500000 0.500000 0.000000
#
# Coordination Sequence:
#
# PCOD8007684 Si02
#       8
#     2   2   2   2   2   2   2   2
#     4  10  22  41  73 100 131 179 237 274 332 411
#     4  10  23  41  68  97 140 184 214 282 354 396
#     4  11  22  41  78  91 131 186 233 268 345 398
#     4  10  20  41  67 100 134 168 234 281 330 405
#     4  12  24  48  69  99 137 178 229 290 332 402
#     4  11  24  42  69 103 131 183 229 282 337 401
#     4  10  21  42  66 105 136 174 226 282 332 413
#     4  12  28  43  64 102 147 171 230 286 341 407
#
# _framework density 23.356625999999999
#
# number of rings (size 3 to 8) (size 9 to 14) (size 15 to 20)
#    0.000    1.250    3.750    2.250    1.750    6.000 
#    0.000    0.625    0.000    0.000    0.000    0.000 
#    0.000    0.000    0.000    0.000    0.000    0.000 
#
# Total GULP energy -198268.010373 kJ/mol
# GULP energy per Si atom -12391.750648 kJ/mol
# Density = 2.330346 g / cm^3
# Si number density = 23.356626 Si / 1000 Ang^3
#
#
#
# Elastic Constant Matrix: (Units=GPa)
#
#
# Indices 1 2 3 4 5 6 
#
# 1 133.1008 69.4052 19.9664 -15.9625 15.8223 -11.7958
# 2 69.4052 170.7111 34.1908 -32.1570 8.1265 -4.6714
# 3 19.9664 34.1908 48.2538 -18.2064 3.3657 -2.5330
# 4 -15.9625 -32.1570 -18.2064 29.6477 1.7215 -6.7642
# 5 15.8223 8.1265 3.3657 1.7215 35.9539 -11.5902
# 6 -11.7958 -4.6714 -2.5330 -6.7642 -11.5902 46.3529
#
#
#
# Elastic Compliance Matrix: (Units=1/GPa)
#
#
# Indices 1 2 3 4 5 6 
#
# 1 0.010166 -0.003436 -0.000768 0.001842 -0.003174 0.001674
# 2 -0.003436 0.009031 -0.002390 0.006679 -0.000372 0.000787
# 3 -0.000768 -0.002390 0.028847 0.015486 -0.001596 0.003001
# 4 0.001842 0.006679 0.015486 0.053720 -0.003452 0.008964
# 5 -0.003174 -0.000372 -0.001596 -0.003452 0.031701 0.006490
# 6 0.001674 0.000787 0.003001 0.008964 0.006490 0.025174
#
#
# Mechanical properties :
#
#
# Convention : Reuss Voigt Hill
#
# Bulk Modulus (GPa) = 28.68923 66.57674 47.63299
# Shear Modulus (GPa) = 27.25604 37.62446 32.44025
#
# Velocity S-wave (km/s) = 3.41977 4.01792 3.73085
# Velocity P-wave (km/s) = 5.28232 7.07751 6.24476
#
# Compressibility (1/GPa) = 0.03485629
#
# Stress axis : x y z
#
# Youngs Moduli (GPa) = 98.36359 110.73441 34.66574
#
# Poissons Ratio (x) = 0.38044 0.02663
# Poissons Ratio (y) = 0.33794 0.08285
# Poissons Ratio (z) = 0.07555 0.26467
#
# Static dielectric constant tensor:
#      x y z
#    x 4.339620 0.037160 -0.027960 
#    y 0.037160 5.166510 -0.304310 
#    z -0.027960 -0.304310 4.289110 
# 
# 
# High freq. dielectric constant tensor:
#      x y z
#    x 1.928790 -0.000990 0.000100 
#    y -0.000990 1.939140 -0.021310 
#    z 0.000100 -0.021310 1.895860 
# 
# From -- ./inp_files/589549.got.cif
#   From: 2010.06.25/outbox.cif.g09.slc.cpg/sg2_295_cif.got.tgz:589549.got - 2010.06.27 13:26:56.
