data_PCOD8007676
_publ_section_title
;
Structure prediction by ZEFSAII (Michael W. Deem and Ramdas Pophale) SiO2 
 PCOD8007676
Probable space group: P -1
;
_chemical_formula_sum "Si O2"
_cell_formula_units_Z 14
_cell_length_a 9.716581
_cell_length_b 13.519674
_cell_length_c 17.303946
_cell_angle_alpha 24.240035
_cell_angle_beta 137.579177
_cell_angle_gamma 129.146036
_cell_volume 622.327983
_symmetry_space_group_name_H-M "P -1"
_symmetry_group_IT_number 2
_symmetry_cell_setting 'triclinic'
loop_
_space_group_symop_operation_xyz
x,y,z
-x,-y,-z
loop_
_atom_site_type_symbol
_atom_site_label
_atom_site_fract_x
_atom_site_fract_y
_atom_site_fract_z
Si Si1 0.800060 0.816569 0.732945
Si Si2 0.604597 0.964841 0.195701
Si Si3 0.306844 0.354122 0.033171
Si Si4 0.541817 0.527232 0.408000
Si Si5 0.987023 0.163089 0.455319
Si Si6 0.751796 0.434279 0.870125
Si Si7 0.767261 0.032330 0.851750
O O1 0.663566 0.818858 0.753415
O O2 0.691121 0.680036 0.718847
O O3 0.849458 0.067803 0.536156
O O4 0.007691 0.653930 0.964462
O O5 0.619677 0.792649 0.247040
O O6 0.780138 0.845419 0.413220
O O7 0.378349 0.983345 0.124473
O O8 0.623894 0.238797 0.990965
O O9 0.279985 0.169679 0.084696
O O10 0.500000 0.500000 0.000000
O O11 0.106252 0.562813 0.802485
O O12 0.500000 0.500000 0.500000
O O13 0.324255 0.518190 0.282329
O O14 0.710933 0.310386 0.597816
O O15 0.000000 0.000000 0.500000
O O16 0.000000 0.000000 0.000000
#
# Coordination Sequence:
#
# PCOD8007676 Si02
#       7
#     2   2   2   2   2   2   2
#     4  10  24  39  69 102 133 173 223 280 339 394
#     4  10  22  42  67  98 122 177 227 276 332 394
#     4  12  26  44  67 100 144 178 220 279 343 406
#     4  10  23  38  68  91 126 175 225 269 326 396
#     4  11  23  42  73  98 133 175 232 280 331 398
#     4  10  20  41  66  98 127 162 230 287 320 388
#     4  11  25  43  63  97 137 177 219 274 344 404
#
# _framework density 22.496175999999998
#
# number of rings (size 3 to 8) (size 9 to 14) (size 15 to 20)
#    0.000    1.429    0.000    5.571   14.000    0.571 
#    2.571    0.714    0.000    0.000    0.000    0.000 
#    0.000    0.000    0.000    0.000    0.000    0.000 
#
# Total GULP energy -173451.727072 kJ/mol
# GULP energy per Si atom -12389.409077 kJ/mol
# Density = 2.244497 g / cm^3
# Si number density = 22.496176 Si / 1000 Ang^3
#
#
#
# Elastic Constant Matrix: (Units=GPa)
#
#
# Indices 1 2 3 4 5 6 
#
# 1 92.3333 28.1304 14.8974 -0.2024 -16.3248 10.5534
# 2 28.1304 181.0684 30.2739 3.3936 9.7649 -7.1024
# 3 14.8974 30.2739 61.3581 -4.3830 -13.0795 -4.2190
# 4 -0.2024 3.3936 -4.3830 47.4209 -0.5992 1.8330
# 5 -16.3248 9.7649 -13.0795 -0.5992 41.1639 -2.0552
# 6 10.5534 -7.1024 -4.2190 1.8330 -2.0552 36.8179
#
#
#
# Elastic Compliance Matrix: (Units=1/GPa)
#
#
# Indices 1 2 3 4 5 6 
#
# 1 0.013094 -0.002274 -0.001215 0.000328 0.005148 -0.004060
# 2 -0.002274 0.006723 -0.003491 -0.000912 -0.003549 0.001396
# 3 -0.001215 -0.003491 0.020085 0.002101 0.006871 0.002256
# 4 0.000328 -0.000912 0.002101 0.021404 0.001275 -0.001024
# 5 0.005148 -0.003549 0.006871 0.001275 0.029389 0.000204
# 6 -0.004060 0.001396 0.002256 -0.001024 0.000204 0.028915
#
#
# Mechanical properties :
#
#
# Convention : Reuss Voigt Hill
#
# Bulk Modulus (GPa) = 38.54805 53.48478 46.01642
# Shear Modulus (GPa) = 35.15731 42.51110 38.83420
#
# Velocity S-wave (km/s) = 3.95753 4.35179 4.15933
# Velocity P-wave (km/s) = 6.16890 7.00553 6.60048
#
# Compressibility (1/GPa) = 0.02594165
#
# Stress axis : x y z
#
# Youngs Moduli (GPa) = 76.36905 148.74311 49.78829
#
# Poissons Ratio (x) = 0.33826 0.06052
# Poissons Ratio (y) = 0.17367 0.17380
# Poissons Ratio (z) = 0.09282 0.51923
#
# Static dielectric constant tensor:
#      x y z
#    x 3.871110 0.135190 -0.107370 
#    y 0.135190 5.480000 -0.553080 
#    z -0.107370 -0.553080 4.739280 
# 
# 
# High freq. dielectric constant tensor:
#      x y z
#    x 1.866080 0.009950 -0.009660 
#    y 0.009950 1.911410 -0.002870 
#    z -0.009660 -0.002870 1.895660 
# 
# From -- ./inp_files/499809.got.cif
#   From: 2010.06.25/outbox.cif.g09.slc.cpg/sg2_250_cif.got.tgz:499809.got - 2010.06.27 13:26:56.
