data_PCOD8007412
_publ_section_title
;
Structure prediction by ZEFSAII (Michael W. Deem and Ramdas Pophale) SiO2 
 PCOD8007412
Probable space group: P -1
;
_chemical_formula_sum "Si O2"
_cell_formula_units_Z 14
_cell_length_a 8.804751
_cell_length_b 10.682972
_cell_length_c 10.925874
_cell_angle_alpha 127.758684
_cell_angle_beta 42.513792
_cell_angle_gamma 105.967488
_cell_volume 518.312308
_symmetry_space_group_name_H-M "P -1"
_symmetry_group_IT_number 2
_symmetry_cell_setting 'triclinic'
loop_
_space_group_symop_operation_xyz
x,y,z
-x,-y,-z
loop_
_atom_site_type_symbol
_atom_site_label
_atom_site_fract_x
_atom_site_fract_y
_atom_site_fract_z
Si Si1 0.791663 0.966651 0.524998
Si Si2 0.634083 0.123352 0.952870
Si Si3 0.478547 0.757316 0.660160
Si Si4 0.911010 0.684980 0.113203
Si Si5 0.835443 0.419821 0.339340
Si Si6 0.539104 0.293110 0.724034
Si Si7 0.724988 0.574978 0.799338
O O1 0.558377 0.911572 0.659038
O O2 0.979619 0.807238 0.245597
O O3 0.715615 0.121743 0.571212
O O4 0.851665 0.024231 0.665512
O O5 0.700896 0.192066 0.083207
O O6 0.441855 0.269446 0.082213
O O7 0.500000 0.000000 0.000000
O O8 0.711834 0.607762 0.476448
O O9 0.350197 0.681721 0.584907
O O10 0.620718 0.743642 0.312643
O O11 0.000000 0.500000 0.000000
O O12 0.005276 0.697566 0.930559
O O13 0.996156 0.432518 0.368787
O O14 0.698171 0.406460 0.653726
O O15 0.354178 0.407989 0.001918
#
# Coordination Sequence:
#
# PCOD8007412 Si02
#       7
#     2   2   2   2   2   2   2
#     4  10  20  41  62  94 130 167 207 265 324 378
#     4   9  20  38  62  89 129 171 204 260 320 379
#     4  10  21  40  64  91 132 167 210 264 321 376
#     4  11  21  37  64  97 127 163 216 267 318 383
#     4  10  22  39  63  97 122 170 217 259 319 384
#     4   9  20  37  64  90 130 166 207 268 319 377
#     4   9  19  39  63  89 127 170 216 254 322 384
#
# _framework density 27.010743000000002
#
# number of rings (size 3 to 8) (size 9 to 14) (size 15 to 20)
#    0.000    2.286    1.429    0.429    2.000    0.571 
#    0.000   17.143    0.000    0.000    0.000    0.000 
#    0.000    0.000    0.000    0.000    0.000    0.000 
#
# Total GULP energy -173507.529335 kJ/mol
# GULP energy per Si atom -12393.394952 kJ/mol
# Density = 2.694927 g / cm^3
# Si number density = 27.010743 Si / 1000 Ang^3
#
#
#
# Elastic Constant Matrix: (Units=GPa)
#
#
# Indices 1 2 3 4 5 6 
#
# 1 157.9290 19.9307 50.7134 18.5559 34.8580 27.1553
# 2 19.9307 109.1632 44.7542 25.5600 3.4785 13.6105
# 3 50.7134 44.7542 125.9672 4.1925 17.0835 10.4907
# 4 18.5559 25.5600 4.1925 52.3645 -0.3595 0.5883
# 5 34.8580 3.4785 17.0835 -0.3595 39.1608 15.5244
# 6 27.1553 13.6105 10.4907 0.5883 15.5244 27.1893
#
#
#
# Elastic Compliance Matrix: (Units=1/GPa)
#
#
# Indices 1 2 3 4 5 6 
#
# 1 0.009799 0.001316 -0.003077 -0.003832 -0.005034 -0.006301
# 2 0.001316 0.013220 -0.004747 -0.006437 0.002623 -0.007459
# 3 -0.003077 -0.004747 0.010916 0.002485 -0.002647 0.002696
# 4 -0.003832 -0.006437 0.002485 0.023351 0.001162 0.004922
# 5 -0.005034 0.002623 -0.002647 0.001162 0.037590 -0.016752
# 6 -0.006301 -0.007459 0.002696 0.004922 -0.016752 0.055224
#
#
# Mechanical properties :
#
#
# Convention : Reuss Voigt Hill
#
# Bulk Modulus (GPa) = 47.80650 69.31733 58.56192
# Shear Modulus (GPa) = 29.39630 42.25367 35.82498
#
# Velocity S-wave (km/s) = 3.30255 3.95945 3.64582
# Velocity P-wave (km/s) = 5.68154 6.82800 6.28098
#
# Compressibility (1/GPa) = 0.02091766
#
# Stress axis : x y z
#
# Youngs Moduli (GPa) = 102.05287 75.64200 91.61023
#
# Poissons Ratio (x) = -0.09954 0.28193
# Poissons Ratio (y) = -0.13429 0.43487
# Poissons Ratio (z) = 0.31407 0.35907
#
# Static dielectric constant tensor:
#      x y z
#    x 5.612060 0.350260 0.600210 
#    y 0.350260 4.887440 -0.404400 
#    z 0.600210 -0.404400 5.679550 
# 
# 
# High freq. dielectric constant tensor:
#      x y z
#    x 2.109670 0.033530 0.034470 
#    y 0.033530 2.095820 -0.030730 
#    z 0.034470 -0.030730 2.108790 
# 
# From -- ./inp_files/391242.got.cif
#   From: 2010.06.25/outbox.cif.g09.slc.cpg/sg2_196_cif.got.tgz:391242.got - 2010.06.27 13:26:56.
