data_PCOD8007082
_publ_section_title
;
Structure prediction by ZEFSAII (Michael W. Deem and Ramdas Pophale) SiO2 
 PCOD8007082
Probable space group: P -1
;
_chemical_formula_sum "Si O2"
_cell_formula_units_Z 16
_cell_length_a 11.561900
_cell_length_b 12.335916
_cell_length_c 5.432697
_cell_angle_alpha 95.450841
_cell_angle_beta 87.290076
_cell_angle_gamma 124.357736
_cell_volume 636.748277
_symmetry_space_group_name_H-M "P -1"
_symmetry_group_IT_number 2
_symmetry_cell_setting 'triclinic'
loop_
_space_group_symop_operation_xyz
x,y,z
-x,-y,-z
loop_
_atom_site_type_symbol
_atom_site_label
_atom_site_fract_x
_atom_site_fract_y
_atom_site_fract_z
Si Si1 0.853796 0.996409 0.278105
Si Si2 0.164283 0.467296 0.848763
Si Si3 0.723263 0.114239 0.054894
Si Si4 0.652358 0.567033 0.879810
Si Si5 0.123047 0.642413 0.218998
Si Si6 0.648720 0.346418 0.520876
Si Si7 0.473776 0.078920 0.326371
Si Si8 0.824180 0.852175 0.742139
O O1 0.794468 0.910004 0.514911
O O2 0.773159 0.069450 0.275317
O O3 0.817693 0.909149 0.017374
O O4 0.018810 0.110661 0.303768
O O5 0.299638 0.590656 0.737100
O O6 0.027778 0.394262 0.663832
O O7 0.220893 0.380131 0.921432
O O8 0.110745 0.513017 0.089611
O O9 0.597185 0.130369 0.123324
O O10 0.849495 0.253689 0.972107
O O11 0.674307 0.005444 0.816879
O O12 0.639995 0.445876 0.715289
O O13 0.704368 0.693292 0.726732
O O14 0.500000 0.500000 0.000000
O O15 0.247505 0.698711 0.416804
O O16 0.495098 0.209867 0.476258
O O17 0.500000 0.000000 0.500000
#
# Coordination Sequence:
#
# PCOD8007082 Si02
#       8
#     2   2   2   2   2   2   2   2
#     4  10  24  46  79 104 143 189 247 315 365 436
#     4  10  22  41  67  99 139 179 227 291 356 440
#     4  11  23  41  66 102 139 183 228 296 367 433
#     4  11  27  47  69 100 143 193 247 304 364 435
#     4  10  20  40  67 104 139 172 226 289 364 430
#     4  11  23  43  70 101 136 189 235 292 362 442
#     4  11  24  41  64  99 141 179 230 284 358 448
#     4  10  24  50  72 109 141 188 257 308 367 427
#
# _framework density 25.127669000000001
#
# number of rings (size 3 to 8) (size 9 to 14) (size 15 to 20)
#    0.000    1.500    2.500    1.125    3.500    2.500 
#    4.500    0.000    0.000    0.000    0.000    0.000 
#    0.000    0.000    0.000    0.000    0.000    0.000 
#
# Total GULP energy -198241.350074 kJ/mol
# GULP energy per Si atom -12390.084380 kJ/mol
# Density = 2.507048 g / cm^3
# Si number density = 25.127669 Si / 1000 Ang^3
#
#
#
# Elastic Constant Matrix: (Units=GPa)
#
#
# Indices 1 2 3 4 5 6 
#
# 1 110.8462 34.5381 20.4524 -9.7230 5.6268 -3.2085
# 2 34.5381 143.0844 30.6485 -20.0329 1.2243 3.1677
# 3 20.4524 30.6485 90.8523 -19.3981 11.4845 -5.1402
# 4 -9.7230 -20.0329 -19.3981 42.0371 -5.3473 5.2222
# 5 5.6268 1.2243 11.4845 -5.3473 36.0733 -8.8131
# 6 -3.2085 3.1677 -5.1402 5.2222 -8.8131 30.5403
#
#
#
# Elastic Compliance Matrix: (Units=1/GPa)
#
#
# Indices 1 2 3 4 5 6 
#
# 1 0.010017 -0.002074 -0.001296 0.000536 -0.000824 0.000720
# 2 -0.002074 0.008337 -0.001904 0.002911 0.000660 -0.001710
# 3 -0.001296 -0.001904 0.013329 0.004463 -0.003161 0.000629
# 4 0.000536 0.002911 0.004463 0.028040 0.001619 -0.003822
# 5 -0.000824 0.000660 -0.003161 0.001619 0.031026 0.007989
# 6 0.000720 -0.001710 0.000629 -0.003822 0.007989 0.036062
#
#
# Mechanical properties :
#
#
# Convention : Reuss Voigt Hill
#
# Bulk Modulus (GPa) = 47.31592 57.34010 52.32801
# Shear Modulus (GPa) = 34.62513 39.00640 36.81577
#
# Velocity S-wave (km/s) = 3.71613 3.94423 3.83188
# Velocity P-wave (km/s) = 6.10605 6.60391 6.35986
#
# Compressibility (1/GPa) = 0.02113454
#
# Stress axis : x y z
#
# Youngs Moduli (GPa) = 99.83465 119.94399 75.02340
#
# Poissons Ratio (x) = 0.24877 0.09722
# Poissons Ratio (y) = 0.20707 0.14287
# Poissons Ratio (z) = 0.12937 0.22841
#
# Static dielectric constant tensor:
#      x y z
#    x 5.012240 0.160600 0.151130 
#    y 0.160600 4.501110 0.034250 
#    z 0.151130 0.034250 4.564100 
# 
# 
# High freq. dielectric constant tensor:
#      x y z
#    x 2.008070 0.007710 0.008620 
#    y 0.007710 2.000090 -0.010050 
#    z 0.008620 -0.010050 1.995170 
# 
# From -- ./inp_files/70601.got.cif
#   From: 2010.06.25/outbox.cif.g09.slc.cpg/sg2_36_cif.got.tgz:70601.got - 2010.06.27 13:26:56.
