data_PCOD8007276
_publ_section_title
;
Structure prediction by ZEFSAII (Michael W. Deem and Ramdas Pophale) SiO2 
 PCOD8007276
Probable space group: P -1
;
_chemical_formula_sum "Si O2"
_cell_formula_units_Z 14
_cell_length_a 12.393956
_cell_length_b 9.848027
_cell_length_c 8.945391
_cell_angle_alpha 115.219986
_cell_angle_beta 75.920656
_cell_angle_gamma 55.717033
_cell_volume 622.642620
_symmetry_space_group_name_H-M "P -1"
_symmetry_group_IT_number 2
_symmetry_cell_setting 'triclinic'
loop_
_space_group_symop_operation_xyz
x,y,z
-x,-y,-z
loop_
_atom_site_type_symbol
_atom_site_label
_atom_site_fract_x
_atom_site_fract_y
_atom_site_fract_z
Si Si1 0.661602 0.743264 0.885712
Si Si2 0.692549 0.977024 0.181620
Si Si3 0.298009 0.338960 0.484932
Si Si4 0.395935 0.460930 0.974999
Si Si5 0.985808 0.852465 0.869313
Si Si6 0.683006 0.003725 0.535899
Si Si7 0.886306 0.036701 0.675962
O O1 0.776081 0.607121 0.634176
O O2 0.620416 0.622242 0.908516
O O3 0.500000 0.000000 0.000000
O O4 0.743495 0.759675 0.998400
O O5 0.487697 0.221612 0.356188
O O6 0.755815 0.926702 0.307775
O O7 0.803515 0.976930 0.045529
O O8 0.153905 0.583991 0.734609
O O9 0.320389 0.159845 0.477702
O O10 0.486639 0.267968 0.724854
O O11 0.500000 0.500000 0.000000
O O12 0.218686 0.715337 0.099948
O O13 0.989691 0.855018 0.689358
O O14 0.000000 0.000000 0.000000
O O15 0.785145 0.007487 0.613518
O O16 0.000000 0.000000 0.500000
#
# Coordination Sequence:
#
# PCOD8007276 Si02
#       7
#     2   2   2   2   2   2   2
#     4  10  20  40  70 104 136 179 239 282 349 421
#     4  11  25  43  74 103 140 185 238 293 353 417
#     4  11  25  45  75  99 144 183 238 294 353 423
#     4  10  22  38  70  99 139 180 234 284 344 421
#     4  12  29  47  67 108 142 186 240 294 356 424
#     4  11  23  45  69 106 134 188 241 287 358 421
#     4  11  25  45  68  99 147 187 233 292 360 421
#
# _framework density 22.48481
#
# number of rings (size 3 to 8) (size 9 to 14) (size 15 to 20)
#    0.000    1.143    2.857    3.000    8.000    5.714 
#    0.000    0.000    0.000    0.000    0.000    0.000 
#    0.000    0.000    0.000    0.000    0.000    0.000 
#
# Total GULP energy -173469.645663 kJ/mol
# GULP energy per Si atom -12390.688976 kJ/mol
# Density = 2.243363 g / cm^3
# Si number density = 22.484810 Si / 1000 Ang^3
#
#
#
# Elastic Constant Matrix: (Units=GPa)
#
#
# Indices 1 2 3 4 5 6 
#
# 1 111.0584 50.4023 56.0557 5.5059 -1.4916 17.4036
# 2 50.4023 102.0611 48.4223 4.0960 -0.2890 23.3363
# 3 56.0557 48.4223 128.0036 3.9383 1.8365 9.6406
# 4 5.5059 4.0960 3.9383 57.3766 -0.4322 2.4607
# 5 -1.4916 -0.2890 1.8365 -0.4322 45.8776 -4.9212
# 6 17.4036 23.3363 9.6406 2.4607 -4.9212 35.1976
#
#
#
# Elastic Compliance Matrix: (Units=1/GPa)
#
#
# Indices 1 2 3 4 5 6 
#
# 1 0.013358 -0.003988 -0.004119 -0.000594 0.000273 -0.002753
# 2 -0.003988 0.015006 -0.003378 -0.000156 -0.000667 -0.007134
# 3 -0.004119 -0.003378 0.010811 -0.000163 -0.000454 0.001264
# 4 -0.000594 -0.000156 -0.000163 0.017542 0.000068 -0.000775
# 5 0.000273 -0.000667 -0.000454 0.000068 0.022199 0.003530
# 6 -0.002753 -0.007134 0.001264 -0.000775 0.003530 0.034704
#
#
# Mechanical properties :
#
#
# Convention : Reuss Voigt Hill
#
# Bulk Modulus (GPa) = 61.71882 72.32042 67.01962
# Shear Modulus (GPa) = 35.21310 40.10654 37.65982
#
# Velocity S-wave (km/s) = 3.96167 4.22799 4.09699
# Velocity P-wave (km/s) = 6.95954 7.48789 7.22854
#
# Compressibility (1/GPa) = 0.01620251
#
# Stress axis : x y z
#
# Youngs Moduli (GPa) = 74.86137 66.63952 92.50175
#
# Poissons Ratio (x) = 0.26578 0.38105
# Poissons Ratio (y) = 0.29858 0.31251
# Poissons Ratio (z) = 0.30838 0.22513
#
# Static dielectric constant tensor:
#      x y z
#    x 4.081580 -0.279900 -0.571340 
#    y -0.279900 3.656920 -0.338280 
#    z -0.571340 -0.338280 4.536990 
# 
# 
# High freq. dielectric constant tensor:
#      x y z
#    x 1.878510 0.015050 0.007610 
#    y 0.015050 1.884810 -0.001860 
#    z 0.007610 -0.001860 1.902540 
# 
# From -- ./inp_files/189866.got.cif
#   From: 2010.06.25/outbox.cif.g09.slc.cpg/sg2_95_cif.got.tgz:189866.got - 2010.06.27 13:26:56.
