data_PCOD8007225
_publ_section_title
;
Structure prediction by ZEFSAII (Michael W. Deem and Ramdas Pophale) SiO2 
 PCOD8007225
Probable space group: P -1
;
_chemical_formula_sum "Si O2"
_cell_formula_units_Z 16
_cell_length_a 6.977473
_cell_length_b 8.409404
_cell_length_c 17.821140
_cell_angle_alpha 117.491277
_cell_angle_beta 56.711412
_cell_angle_gamma 101.961080
_cell_volume 773.898226
_symmetry_space_group_name_H-M "P -1"
_symmetry_group_IT_number 2
_symmetry_cell_setting 'triclinic'
loop_
_space_group_symop_operation_xyz
x,y,z
-x,-y,-z
loop_
_atom_site_type_symbol
_atom_site_label
_atom_site_fract_x
_atom_site_fract_y
_atom_site_fract_z
Si Si1 0.013158 0.852216 0.751030
Si Si2 0.928511 0.784109 0.259260
Si Si3 0.929394 0.187172 0.095218
Si Si4 0.429337 0.333601 0.190037
Si Si5 0.871982 0.033649 0.610469
Si Si6 0.287630 0.466159 0.088867
Si Si7 0.422874 0.693486 0.349285
Si Si8 0.071515 0.692495 0.551720
O O1 0.738926 0.829054 0.799587
O O2 0.102830 0.812704 0.807288
O O3 0.130090 0.712997 0.632709
O O4 0.075836 0.053248 0.763392
O O5 0.133213 0.648590 0.161400
O O6 0.695769 0.683366 0.292906
O O7 0.967281 0.849743 0.348743
O O8 0.689662 0.259678 0.127552
O O9 0.133502 0.311934 0.056403
O O10 0.000000 0.000000 0.000000
O O11 0.397454 0.417041 0.133767
O O12 0.352743 0.494759 0.298601
O O13 0.855097 0.839056 0.612160
O O14 0.637926 0.151860 0.667231
O O15 0.000000 0.000000 0.500000
O O16 0.500000 0.500000 0.000000
O O17 0.296395 0.741196 0.465987
O O18 0.000000 0.500000 0.500000
#
# Coordination Sequence:
#
# PCOD8007225 Si02
#       8
#     2   2   2   2   2   2   2   2
#     4  10  25  42  67  96 136 171 221 265 332 389
#     4  11  23  42  65 101 128 166 225 275 323 394
#     4  11  27  46  67  98 133 175 222 271 334 401
#     4  11  23  45  68  93 134 176 213 273 337 390
#     4   9  21  37  64  91 131 171 209 263 324 380
#     4  11  26  43  71  97 127 171 222 278 335 389
#     4  11  21  41  68  95 133 172 216 271 325 389
#     4  10  20  40  68  99 132 177 219 262 328 395
#
# _framework density 20.674551999999998
#
# number of rings (size 3 to 8) (size 9 to 14) (size 15 to 20)
#    0.000    1.500    3.750    0.000    3.500    9.000 
#    0.000    1.875    0.000    0.000    0.000    0.000 
#    0.000    0.000    0.000    0.000    0.000    0.000 
#
# Total GULP energy -198290.085958 kJ/mol
# GULP energy per Si atom -12393.130372 kJ/mol
# Density = 2.062750 g / cm^3
# Si number density = 20.674552 Si / 1000 Ang^3
#
#
#
# Elastic Constant Matrix: (Units=GPa)
#
#
# Indices 1 2 3 4 5 6 
#
# 1 80.6002 14.4307 26.0166 0.6299 -15.3103 11.2972
# 2 14.4307 88.0261 27.2086 6.9995 -3.3027 13.5302
# 3 26.0166 27.2086 81.0963 0.3326 -2.3999 0.2346
# 4 0.6299 6.9995 0.3326 44.9583 2.3025 -7.4593
# 5 -15.3103 -3.3027 -2.3999 2.3025 34.0402 4.7675
# 6 11.2972 13.5302 0.2346 -7.4593 4.7675 22.7637
#
#
#
# Elastic Compliance Matrix: (Units=1/GPa)
#
#
# Indices 1 2 3 4 5 6 
#
# 1 0.017632 0.001430 -0.005803 -0.003000 0.009619 -0.012538
# 2 0.001430 0.015106 -0.005365 -0.004493 0.003698 -0.011880
# 3 -0.005803 -0.005365 0.015869 0.002170 -0.003178 0.007282
# 4 -0.003000 -0.004493 0.002170 0.025493 -0.005260 0.013592
# 5 0.009619 0.003698 -0.003178 -0.005260 0.036477 -0.016302
# 6 -0.012538 -0.011880 0.007282 0.013592 -0.016302 0.065006
#
#
# Mechanical properties :
#
#
# Convention : Reuss Voigt Hill
#
# Bulk Modulus (GPa) = 34.32805 42.78159 38.55482
# Shear Modulus (GPa) = 24.41784 32.49022 28.45403
#
# Velocity S-wave (km/s) = 3.44038 3.96853 3.71385
# Velocity P-wave (km/s) = 5.69400 6.46040 6.08927
#
# Compressibility (1/GPa) = 0.02913070
#
# Stress axis : x y z
#
# Youngs Moduli (GPa) = 56.71514 66.19863 63.01766
#
# Poissons Ratio (x) = -0.09465 0.36569
# Poissons Ratio (y) = -0.08109 0.33807
# Poissons Ratio (z) = 0.32912 0.35513
#
# Static dielectric constant tensor:
#      x y z
#    x 5.558480 -1.810270 1.132550 
#    y -1.810270 5.576650 -0.845870 
#    z 1.132550 -0.845870 4.522980 
# 
# 
# High freq. dielectric constant tensor:
#      x y z
#    x 1.802230 -0.003940 0.008680 
#    y -0.003940 1.818200 0.006600 
#    z 0.008680 0.006600 1.815860 
# 
# From -- ./inp_files/47430.got.cif
#   From: 2010.06.25/outbox.cif.g09.slc.cpg/sg2_24_cif.got.tgz:47430.got - 2010.06.27 13:26:56.
