data_PCOD8007478
_publ_section_title
;
Structure prediction by ZEFSAII (Michael W. Deem and Ramdas Pophale) SiO2 
 PCOD8007478
Probable space group: P -1
;
_chemical_formula_sum "Si O2"
_cell_formula_units_Z 12
_cell_length_a 14.409765
_cell_length_b 10.768490
_cell_length_c 9.432659
_cell_angle_alpha 87.345149
_cell_angle_beta 67.987262
_cell_angle_gamma 29.910361
_cell_volume 540.003648
_symmetry_space_group_name_H-M "P -1"
_symmetry_group_IT_number 2
_symmetry_cell_setting 'triclinic'
loop_
_space_group_symop_operation_xyz
x,y,z
-x,-y,-z
loop_
_atom_site_type_symbol
_atom_site_label
_atom_site_fract_x
_atom_site_fract_y
_atom_site_fract_z
Si Si1 0.977460 0.624930 0.681127
Si Si2 0.552070 0.573533 0.305448
Si Si3 0.640304 0.424878 0.755188
Si Si4 0.907254 0.239193 0.360360
Si Si5 0.946326 0.726148 0.372985
Si Si6 0.429752 0.304983 0.992003
O O1 0.029083 0.601602 0.490585
O O2 0.083255 0.626535 0.701284
O O3 0.119038 0.335075 0.657759
O O4 0.681761 0.935063 0.864178
O O5 0.538312 0.451650 0.252225
O O6 0.766122 0.323220 0.314884
O O7 0.290587 0.911213 0.513908
O O8 0.624275 0.587613 0.141621
O O9 0.782525 0.363717 0.579746
O O10 0.498196 0.664169 0.944555
O O11 0.815639 0.130768 0.758536
O O12 0.180027 0.518693 0.168528
#
# Coordination Sequence:
#
# PCOD8007478 Si02
#       6
#     2   2   2   2   2   2
#     4  10  21  39  65  90 120 163 204 250 301 359
#     4  11  24  40  63  94 124 159 202 254 302 361
#     4  11  21  42  62  90 125 162 203 246 305 365
#     4  11  22  41  64  92 122 164 203 247 310 356
#     4  10  20  41  64  89 122 161 206 247 302 362
#     4  11  21  40  64  91 125 160 203 249 306 360
#
# _framework density 22.222073999999999
#
# number of rings (size 3 to 8) (size 9 to 14) (size 15 to 20)
#    0.000    1.333    5.000    2.500    0.000    1.333 
#    3.000    0.833    0.000    0.000    0.000    0.000 
#    0.000    0.000    0.000    0.000    0.000    0.000 
#
# Total GULP energy -148732.151203 kJ/mol
# GULP energy per Si atom -12394.345934 kJ/mol
# Density = 2.217150 g / cm^3
# Si number density = 22.222074 Si / 1000 Ang^3
#
#
#
# Elastic Constant Matrix: (Units=GPa)
#
#
# Indices 1 2 3 4 5 6 
#
# 1 119.6560 37.1742 21.5141 0.8107 -9.2783 9.0919
# 2 37.1742 34.8069 16.3933 -11.4028 9.6176 -13.7515
# 3 21.5141 16.3933 109.5505 1.7226 -15.4508 7.5316
# 4 0.8107 -11.4028 1.7226 8.4338 -2.3401 4.1681
# 5 -9.2783 9.6176 -15.4508 -2.3401 30.0774 7.9061
# 6 9.0919 -13.7515 7.5316 4.1681 7.9061 19.2246
#
#
#
# Elastic Compliance Matrix: (Units=1/GPa)
#
#
# Indices 1 2 3 4 5 6 
#
# 1 -0.000610 0.023243 -0.007456 0.017340 -0.016063 0.022682
# 2 0.023243 -0.054256 0.015587 -0.031324 0.048212 -0.068944
# 3 -0.007456 0.015587 0.006373 0.012903 -0.006135 0.011904
# 4 0.017340 -0.031324 0.012903 0.129784 0.054784 -0.086330
# 5 -0.016063 0.048212 -0.006135 0.054784 0.006072 0.030112
# 6 0.022682 -0.068944 0.011904 -0.086330 0.030112 -0.006356
#
#
# Mechanical properties :
#
#
# Convention : Reuss Voigt Hill
#
# Bulk Modulus (GPa) = 70.15307 46.01961 58.08634
# Shear Modulus (GPa) = 217.28173 24.14260 120.71216
#
# Velocity S-wave (km/s) = 9.89897 3.29967 7.37826
# Velocity P-wave (km/s) = 12.73933 5.93894 9.93885
#
# Compressibility (1/GPa) = 0.01425454
#
# Stress axis : x y z
#
# Youngs Moduli (GPa) = -1640.33423 -18.43105 156.90004
#
# Poissons Ratio (x) = 0.42839 1.16984
# Poissons Ratio (y) = 38.12610 -2.44553
# Poissons Ratio (z) = -12.23026 0.28728
#
# Static dielectric constant tensor:
#      x y z
#    x 4.360570 0.306900 0.118030 
#    y 0.306900 3.598740 0.016140 
#    z 0.118030 0.016140 4.089110 
# 
# 
# High freq. dielectric constant tensor:
#      x y z
#    x 1.885550 0.015830 -0.003760 
#    y 0.015830 1.830890 -0.000340 
#    z -0.003760 -0.000340 1.889690 
# 
# From -- ./inp_files/265244.got.cif
#   From: 2010.06.25/outbox.cif.g09.slc.cpg/sg2_133_cif.got.tgz:265244.got - 2010.06.27 13:26:56.
