data_PCOD8007666
_publ_section_title
;
Structure prediction by ZEFSAII (Michael W. Deem and Ramdas Pophale) SiO2 
 PCOD8007666
Probable space group: P -1
;
_chemical_formula_sum "Si O2"
_cell_formula_units_Z 14
_cell_length_a 10.384513
_cell_length_b 15.752926
_cell_length_c 7.285773
_cell_angle_alpha 99.449020
_cell_angle_beta 60.387927
_cell_angle_gamma 144.927906
_cell_volume 522.032458
_symmetry_space_group_name_H-M "P -1"
_symmetry_group_IT_number 2
_symmetry_cell_setting 'triclinic'
loop_
_space_group_symop_operation_xyz
x,y,z
-x,-y,-z
loop_
_atom_site_type_symbol
_atom_site_label
_atom_site_fract_x
_atom_site_fract_y
_atom_site_fract_z
Si Si1 0.165211 0.797839 0.876022
Si Si2 0.448033 0.435210 0.712005
Si Si3 0.285960 0.692770 0.923229
Si Si4 0.582113 0.926754 0.375723
Si Si5 0.144037 0.238023 0.304161
Si Si6 0.652485 0.815599 0.026294
Si Si7 0.746744 0.820595 0.433275
O O1 0.220118 0.762803 0.999455
O O2 0.262709 0.786493 0.629052
O O3 0.356748 0.981656 0.813821
O O4 0.833829 0.659473 0.034780
O O5 0.500000 0.500000 0.500000
O O6 0.722199 0.599611 0.704558
O O7 0.405539 0.311117 0.669611
O O8 0.538133 0.795951 0.632434
O O9 0.375488 0.710332 0.070816
O O10 0.000000 0.500000 0.000000
O O11 0.633152 0.851617 0.254440
O O12 0.810545 0.075496 0.421321
O O13 0.188921 0.207243 0.448121
O O14 0.328950 0.280031 0.025391
O O15 0.947410 0.990708 0.780744
#
# Coordination Sequence:
#
# PCOD8007666 Si02
#       7
#     2   2   2   2   2   2   2
#     4  11  23  44  62  95 139 164 214 265 328 384
#     4  10  21  42  66  95 123 166 221 270 314 372
#     4  11  23  42  68  96 128 166 220 279 317 371
#     4  11  24  41  62  98 136 175 206 262 332 395
#     4  10  21  39  67  93 130 169 219 267 317 381
#     4  11  21  41  66  94 124 173 224 260 315 387
#     4  10  20  41  66  96 119 169 225 268 308 378
#
# _framework density 26.818256000000002
#
# number of rings (size 3 to 8) (size 9 to 14) (size 15 to 20)
#    0.000    1.429    1.429    6.429    0.000    1.143 
#   15.429    2.857    0.000    0.000    0.000    0.000 
#    0.000    0.000    0.000    0.000    0.000    0.000 
#
# Total GULP energy -173530.975197 kJ/mol
# GULP energy per Si atom -12395.069657 kJ/mol
# Density = 2.675722 g / cm^3
# Si number density = 26.818256 Si / 1000 Ang^3
#
#
#
# Elastic Constant Matrix: (Units=GPa)
#
#
# Indices 1 2 3 4 5 6 
#
# 1 91.0510 33.2323 -14.5824 3.3765 -39.6946 -9.7981
# 2 33.2323 177.4382 30.3648 8.8097 -18.7038 -2.0674
# 3 -14.5824 30.3648 113.0938 3.1643 -17.8531 6.6339
# 4 3.3765 8.8097 3.1643 39.0131 -0.8590 -2.7350
# 5 -39.6946 -18.7038 -17.8531 -0.8590 35.2137 8.6521
# 6 -9.7981 -2.0674 6.6339 -2.7350 8.6521 48.4651
#
#
#
# Elastic Compliance Matrix: (Units=1/GPa)
#
#
# Indices 1 2 3 4 5 6 
#
# 1 0.031227 -0.003547 0.011462 -0.002140 0.039719 -0.002619
# 2 -0.003547 0.006586 -0.002498 -0.001006 -0.001835 0.000176
# 3 0.011462 -0.002498 0.014326 -0.001391 0.019643 -0.003335
# 4 -0.002140 -0.001006 -0.001391 0.026208 -0.003458 0.001811
# 5 0.039719 -0.001835 0.019643 -0.003458 0.084534 -0.010023
# 6 -0.002619 0.000176 -0.003335 0.001811 -0.010023 0.022460
#
#
# Mechanical properties :
#
#
# Convention : Reuss Voigt Hill
#
# Bulk Modulus (GPa) = 15.87966 53.29028 34.58497
# Shear Modulus (GPa) = 25.57577 46.70958 36.14268
#
# Velocity S-wave (km/s) = 3.09151 4.17791 3.67507
# Velocity P-wave (km/s) = 4.32172 6.57170 5.56168
#
# Compressibility (1/GPa) = 0.06297362
#
# Stress axis : x y z
#
# Youngs Moduli (GPa) = 32.02391 151.83346 69.80199
#
# Poissons Ratio (x) = 0.53862 -0.80009
# Poissons Ratio (y) = 0.11360 0.17434
# Poissons Ratio (z) = -0.36707 0.37922
#
# Static dielectric constant tensor:
#      x y z
#    x 5.642300 -0.357520 0.163490 
#    y -0.357520 5.253790 0.110110 
#    z 0.163490 0.110110 4.841530 
# 
# 
# High freq. dielectric constant tensor:
#      x y z
#    x 2.111510 -0.016220 0.015370 
#    y -0.016220 2.068320 0.005730 
#    z 0.015370 0.005730 2.077060 
# 
# From -- ./inp_files/279592.got.cif
#   From: 2010.06.25/outbox.cif.g09.slc.cpg/sg2_140_cif.got.tgz:279592.got - 2010.06.27 13:26:56.
