data_PCOD8007153
_publ_section_title
;
Structure prediction by ZEFSAII (Michael W. Deem and Ramdas Pophale) SiO2 
 PCOD8007153
Probable space group: P -1
;
_chemical_formula_sum "Si O2"
_cell_formula_units_Z 16
_cell_length_a 19.973392
_cell_length_b 16.832385
_cell_length_c 6.104972
_cell_angle_alpha 80.709636
_cell_angle_beta 102.187271
_cell_angle_gamma 159.137607
_cell_volume 710.674554
_symmetry_space_group_name_H-M "P -1"
_symmetry_group_IT_number 2
_symmetry_cell_setting 'triclinic'
loop_
_space_group_symop_operation_xyz
x,y,z
-x,-y,-z
loop_
_atom_site_type_symbol
_atom_site_label
_atom_site_fract_x
_atom_site_fract_y
_atom_site_fract_z
Si Si1 0.801765 0.662505 0.949557
Si Si2 0.256475 0.785941 0.265791
Si Si3 0.086885 0.348324 0.324250
Si Si4 0.508197 0.416649 0.138420
Si Si5 0.849443 0.996650 0.662681
Si Si6 0.209510 0.226864 0.458120
Si Si7 0.673799 0.288092 0.370351
Si Si8 0.080055 0.477245 0.946935
O O1 0.830594 0.629570 0.789043
O O2 0.806780 0.754961 0.802852
O O3 0.595609 0.443256 0.026403
O O4 0.962011 0.830475 0.169228
O O5 0.268090 0.737705 0.498578
O O6 0.090769 0.669333 0.241638
O O7 0.452030 0.049802 0.264569
O O8 0.214206 0.692280 0.053049
O O9 0.273923 0.585983 0.474903
O O10 0.920012 0.141686 0.474023
O O11 0.996550 0.323082 0.135515
O O12 0.641835 0.565304 0.378024
O O13 0.304507 0.152518 0.185829
O O14 0.500000 0.500000 0.000000
O O15 0.736661 0.807514 0.521235
O O16 0.000000 0.000000 0.500000
O O17 0.792703 0.436329 0.167304
#
# Coordination Sequence:
#
# PCOD8007153 Si02
#       8
#     2   2   2   2   2   2   2   2
#     4  12  24  44  65  93 129 175 221 285 335 395
#     4   9  20  38  71 101 126 165 223 273 310 379
#     4  11  25  42  63  89 144 183 210 266 342 405
#     4  12  26  41  71 101 120 166 234 289 333 397
#     4  12  25  44  66  94 131 171 223 283 341 395
#     4  12  22  42  71  94 123 163 226 284 340 393
#     4  10  20  41  66 100 132 173 217 266 322 388
#     4  10  20  40  67  99 131 173 217 265 325 389
#
# _framework density 22.513819000000002
#
# number of rings (size 3 to 8) (size 9 to 14) (size 15 to 20)
#    0.000    1.000    3.750    3.000    0.000    0.000 
#    0.000   12.500    0.000    0.000    0.000    0.000 
#    0.000    0.000    0.000    0.000    0.000    0.000 
#
# Total GULP energy -198263.363463 kJ/mol
# GULP energy per Si atom -12391.460216 kJ/mol
# Density = 2.246258 g / cm^3
# Si number density = 22.513819 Si / 1000 Ang^3
#
#
#
# Elastic Constant Matrix: (Units=GPa)
#
#
# Indices 1 2 3 4 5 6 
#
# 1 65.6123 52.0706 14.1504 -11.3814 -19.9657 0.6721
# 2 52.0706 129.9324 50.8427 -18.4877 -0.7174 13.0455
# 3 14.1504 50.8427 91.8990 -14.3005 -0.4864 0.7822
# 4 -11.3814 -18.4877 -14.3005 38.3979 5.9806 -4.8600
# 5 -19.9657 -0.7174 -0.4864 5.9806 33.0590 -7.5649
# 6 0.6721 13.0455 0.7822 -4.8600 -7.5649 35.5631
#
#
#
# Elastic Compliance Matrix: (Units=1/GPa)
#
#
# Indices 1 2 3 4 5 6 
#
# 1 0.033730 -0.015615 0.003741 0.001695 0.022053 0.009931
# 2 -0.015615 0.017787 -0.007112 0.002021 -0.011396 -0.008221
# 3 0.003741 -0.007112 0.014722 0.003184 0.002472 0.003176
# 4 0.001695 0.002021 0.003184 0.029584 -0.003685 0.002416
# 5 0.022053 -0.011396 0.002472 -0.003685 0.047047 0.013214
# 6 0.009931 -0.008221 0.003176 0.002416 0.013214 0.034018
#
#
# Mechanical properties :
#
#
# Convention : Reuss Voigt Hill
#
# Bulk Modulus (GPa) = 35.37757 57.95233 46.66495
# Shear Modulus (GPa) = 22.29333 32.76267 27.52800
#
# Velocity S-wave (km/s) = 3.15017 3.81888 3.50053
# Velocity P-wave (km/s) = 5.38324 6.72620 6.09184
#
# Compressibility (1/GPa) = 0.02826650
#
# Stress axis : x y z
#
# Youngs Moduli (GPa) = 29.64758 56.21989 67.92683
#
# Poissons Ratio (x) = 0.87790 -0.25414
# Poissons Ratio (y) = 0.46296 0.48310
# Poissons Ratio (z) = -0.11092 0.39984
#
# Static dielectric constant tensor:
#      x y z
#    x 4.280450 -0.076280 -0.494140 
#    y -0.076280 4.192530 0.145370 
#    z -0.494140 0.145370 5.075780 
# 
# 
# High freq. dielectric constant tensor:
#      x y z
#    x 1.875070 0.003790 -0.004750 
#    y 0.003790 1.881820 -0.003690 
#    z -0.004750 -0.003690 1.902740 
# 
# From -- ./inp_files/53405.got.cif
#   From: 2010.06.25/outbox.cif.g09.slc.cpg/sg2_27_cif.got.tgz:53405.got - 2010.06.27 13:26:56.
