data_PCOD8007014
_publ_section_title
;
Structure prediction by ZEFSAII (Michael W. Deem and Ramdas Pophale) SiO2 
 PCOD8007014
Probable space group: P -1
;
_chemical_formula_sum "Si O2"
_cell_formula_units_Z 16
_cell_length_a 21.100474
_cell_length_b 8.532570
_cell_length_c 26.718466
_cell_angle_alpha 40.121609
_cell_angle_beta 18.410762
_cell_angle_gamma 31.386191
_cell_volume 760.634175
_symmetry_space_group_name_H-M "P -1"
_symmetry_group_IT_number 2
_symmetry_cell_setting 'triclinic'
loop_
_space_group_symop_operation_xyz
x,y,z
-x,-y,-z
loop_
_atom_site_type_symbol
_atom_site_label
_atom_site_fract_x
_atom_site_fract_y
_atom_site_fract_z
Si Si1 0.500164 0.959273 0.069002
Si Si2 0.699518 0.162046 0.408150
Si Si3 0.945836 0.307732 0.385577
Si Si4 0.230839 0.803450 0.146615
Si Si5 0.156612 0.117663 0.734547
Si Si6 0.871256 0.337075 0.641076
Si Si7 0.483564 0.828405 0.659551
Si Si8 0.348099 0.678148 0.894322
O O1 0.605702 0.621688 0.089347
O O2 0.200137 0.204955 0.250830
O O3 0.500000 0.000000 0.000000
O O4 0.706117 0.978618 0.934144
O O5 0.500000 0.500000 0.500000
O O6 0.674051 0.150195 0.369618
O O7 0.630653 0.959029 0.534714
O O8 0.999811 0.001027 0.231513
O O9 0.895227 0.561565 0.320682
O O10 0.707445 0.466191 0.564146
O O11 0.984231 0.007815 0.407298
O O12 0.132780 0.701094 0.287895
O O13 0.500000 0.500000 0.000000
O O14 0.302228 0.017391 0.702247
O O15 0.903458 0.143364 0.925692
O O16 0.584234 0.584645 0.774281
O O17 0.000000 0.500000 0.500000
O O18 0.315913 0.870788 0.822348
#
# Coordination Sequence:
#
# PCOD8007014 Si02
#       8
#     2   2   2   2   2   2   2   2
#     4  11  20  38  70  89 122 169 217 266 316 385
#     4  11  26  41  66  98 132 171 221 269 326 388
#     4  10  20  40  66  93 120 169 224 254 319 386
#     4  12  23  39  65  97 127 166 217 270 326 384
#     4  11  22  44  69  87 130 176 221 261 309 394
#     4  11  23  38  65  94 137 161 200 279 337 374
#     4  11  25  41  67  93 131 174 217 263 319 394
#     4  11  22  42  64  98 124 165 220 264 319 390
#
# _framework density 21.035079
#
# number of rings (size 3 to 8) (size 9 to 14) (size 15 to 20)
#    0.000    1.000    3.750    4.875    5.250    3.000 
#    0.000    0.625    0.000    0.000    0.000    0.000 
#    0.000    0.000    0.000    0.000    0.000    0.000 
#
# Total GULP energy -198267.844726 kJ/mol
# GULP energy per Si atom -12391.740295 kJ/mol
# Density = 2.098720 g / cm^3
# Si number density = 21.035079 Si / 1000 Ang^3
#
#
#
# Elastic Constant Matrix: (Units=GPa)
#
#
# Indices 1 2 3 4 5 6 
#
# 1 63.7503 31.1222 19.5728 -4.6568 -9.8631 1.3574
# 2 31.1222 90.1505 46.1493 1.0465 -1.2618 14.1697
# 3 19.5728 46.1493 123.1655 -4.7612 -4.1201 14.0658
# 4 -4.6568 1.0465 -4.7612 43.2719 2.2766 0.9653
# 5 -9.8631 -1.2618 -4.1201 2.2766 43.7883 -1.8004
# 6 1.3574 14.1697 14.0658 0.9653 -1.8004 26.7704
#
#
#
# Elastic Compliance Matrix: (Units=1/GPa)
#
#
# Indices 1 2 3 4 5 6 
#
# 1 0.020082 -0.007053 -0.000707 0.001955 0.004288 0.003304
# 2 -0.007053 0.016849 -0.004597 -0.001443 -0.001716 -0.006209
# 3 -0.000707 -0.004597 0.010358 0.001215 0.000497 -0.002984
# 4 0.001955 -0.001443 0.001215 0.023547 -0.000747 -0.000873
# 5 0.004288 -0.001716 0.000497 -0.000747 0.023924 0.002066
# 6 0.003304 -0.006209 -0.002984 -0.000873 0.002066 0.042212
#
#
# Mechanical properties :
#
#
# Convention : Reuss Voigt Hill
#
# Bulk Modulus (GPa) = 44.29397 52.30611 48.30004
# Shear Modulus (GPa) = 29.54880 34.78093 32.16487
#
# Velocity S-wave (km/s) = 3.75205 4.07070 3.91462
# Velocity P-wave (km/s) = 6.31454 6.85670 6.59120
#
# Compressibility (1/GPa) = 0.02257644
#
# Stress axis : x y z
#
# Youngs Moduli (GPa) = 49.79507 59.35023 96.54199
#
# Poissons Ratio (x) = 0.41860 0.06826
# Poissons Ratio (y) = 0.35121 0.44376
# Poissons Ratio (z) = 0.03521 0.27281
#
# Static dielectric constant tensor:
#      x y z
#    x -1.591200 -2.986010 2.017320 
#    y -2.986010 2.015420 1.182670 
#    z 2.017320 1.182670 3.523190 
# 
# 
# High freq. dielectric constant tensor:
#      x y z
#    x 1.817130 0.001620 -0.007940 
#    y 0.001620 1.812520 0.000690 
#    z -0.007940 0.000690 1.844930 
# 
# From -- ./inp_files/620688.got.cif
#   From: 2010.06.25/outbox.cif.g09.slc.cpg/sg2_311_cif.got.tgz:620688.got - 2010.06.27 13:26:56.
