data_PCOD8007662
_publ_section_title
;
Structure prediction by ZEFSAII (Michael W. Deem and Ramdas Pophale) SiO2 
 PCOD8007662
Probable space group: P -1
;
_chemical_formula_sum "Si O2"
_cell_formula_units_Z 16
_cell_length_a 11.008186
_cell_length_b 14.408631
_cell_length_c 14.841515
_cell_angle_alpha 41.112642
_cell_angle_beta 64.454265
_cell_angle_gamma 33.936404
_cell_volume 733.831393
_symmetry_space_group_name_H-M "P -1"
_symmetry_group_IT_number 2
_symmetry_cell_setting 'triclinic'
loop_
_space_group_symop_operation_xyz
x,y,z
-x,-y,-z
loop_
_atom_site_type_symbol
_atom_site_label
_atom_site_fract_x
_atom_site_fract_y
_atom_site_fract_z
Si Si1 0.000925 0.124534 0.170160
Si Si2 0.537199 0.704915 0.370952
Si Si3 0.523993 0.224334 0.454455
Si Si4 0.083190 0.108484 0.577990
Si Si5 0.211683 0.431562 0.988428
Si Si6 0.577540 0.973330 0.093092
Si Si7 0.130148 0.587753 0.173277
Si Si8 0.504542 0.077911 0.321597
O O1 0.915903 0.303673 0.148087
O O2 0.308839 0.844676 0.281038
O O3 0.877545 0.082903 0.255254
O O4 0.903646 0.267199 0.000763
O O5 0.491962 0.700525 0.493715
O O6 0.541444 0.870864 0.244700
O O7 0.787952 0.416536 0.454322
O O8 0.306534 0.496343 0.263543
O O9 0.805363 0.990678 0.488288
O O10 0.446809 0.130105 0.547876
O O11 0.237629 0.077122 0.614733
O O12 0.430437 0.205410 0.156333
O O13 0.000000 0.500000 0.000000
O O14 0.374822 0.279152 0.956041
O O15 0.859894 0.780611 0.156595
O O16 0.500000 0.000000 0.000000
O O17 0.271344 0.321025 0.286476
#
# Coordination Sequence:
#
# PCOD8007662 Si02
#       8
#     2   2   2   2   2   2   2   2
#     4  11  24  47  62  95 140 177 225 273 321 410
#     4  12  24  43  70  97 135 170 230 281 324 399
#     4  11  23  43  68 102 132 168 229 282 327 400
#     4  11  26  43  68  95 135 189 214 267 349 384
#     4  11  21  39  67  96 132 170 220 278 333 385
#     4  12  21  38  67 102 128 168 215 280 341 380
#     4  10  22  38  65  96 130 169 220 272 333 392
#     4  10  20  41  66  95 134 168 220 281 324 400
#
# _framework density 21.803373000000001
#
# number of rings (size 3 to 8) (size 9 to 14) (size 15 to 20)
#    0.000    1.000    3.750    4.125    1.750    7.000 
#    2.250    0.625    0.000    0.000    0.000    0.000 
#    0.000    0.000    0.000    0.000    0.000    0.000 
#
# Total GULP energy -198356.537525 kJ/mol
# GULP energy per Si atom -12397.283595 kJ/mol
# Density = 2.175375 g / cm^3
# Si number density = 21.803373 Si / 1000 Ang^3
#
#
#
# Elastic Constant Matrix: (Units=GPa)
#
#
# Indices 1 2 3 4 5 6 
#
# 1 37.8194 21.8967 26.4844 -2.6920 -6.0075 -5.8207
# 2 21.8967 135.0355 31.3949 -13.1855 19.8894 -2.7444
# 3 26.4844 31.3949 74.6496 -5.4434 18.4686 1.3212
# 4 -2.6920 -13.1855 -5.4434 36.7834 -3.1567 7.2447
# 5 -6.0075 19.8894 18.4686 -3.1567 36.7336 6.6333
# 6 -5.8207 -2.7444 1.3212 7.2447 6.6333 25.9089
#
#
#
# Elastic Compliance Matrix: (Units=1/GPa)
#
#
# Indices 1 2 3 4 5 6 
#
# 1 0.047473 -0.006064 -0.019316 -0.001129 0.019519 0.006326
# 2 -0.006064 0.009558 -0.000237 0.002333 -0.005943 0.000532
# 3 -0.019316 -0.000237 0.024101 0.001243 -0.014645 -0.002192
# 4 -0.001129 0.002333 0.001243 0.030086 0.002144 -0.009032
# 5 0.019519 -0.005943 -0.014645 0.002144 0.042438 -0.006962
# 6 0.006326 0.000532 -0.002192 -0.009032 -0.006962 0.044494
#
#
# Mechanical properties :
#
#
# Convention : Reuss Voigt Hill
#
# Bulk Modulus (GPa) = 33.44678 45.22850 39.33764
# Shear Modulus (GPa) = 19.27901 31.06707 25.17304
#
# Velocity S-wave (km/s) = 2.97681 3.77885 3.40155
# Velocity P-wave (km/s) = 5.21428 6.31098 5.78866
#
# Compressibility (1/GPa) = 0.02989824
#
# Stress axis : x y z
#
# Youngs Moduli (GPa) = 21.06479 104.62649 41.49151
#
# Poissons Ratio (x) = 0.63443 0.80143
# Poissons Ratio (y) = 0.12773 0.00985
# Poissons Ratio (z) = 0.40688 0.02483
#
# Static dielectric constant tensor:
#      x y z
#    x 4.046020 -0.438280 -0.023050 
#    y -0.438280 5.192330 0.423430 
#    z -0.023050 0.423430 4.426310 
# 
# 
# High freq. dielectric constant tensor:
#      x y z
#    x 1.841100 -0.001710 0.017510 
#    y -0.001710 1.865120 -0.005450 
#    z 0.017510 -0.005450 1.859300 
# 
# From -- ./inp_files/257950.got.cif
#   From: 2010.06.25/outbox.cif.g09.slc.cpg/sg2_129_cif.got.tgz:257950.got - 2010.06.27 13:26:56.
