data_PCOD8007599
_publ_section_title
;
Structure prediction by ZEFSAII (Michael W. Deem and Ramdas Pophale) SiO2 
 PCOD8007599
Probable space group: P -1
;
_chemical_formula_sum "Si O2"
_cell_formula_units_Z 16
_cell_length_a 31.288039
_cell_length_b 5.891828
_cell_length_c 11.990273
_cell_angle_alpha 71.669628
_cell_angle_beta 25.385091
_cell_angle_gamma 57.550161
_cell_volume 705.524600
_symmetry_space_group_name_H-M "P -1"
_symmetry_group_IT_number 2
_symmetry_cell_setting 'triclinic'
loop_
_space_group_symop_operation_xyz
x,y,z
-x,-y,-z
loop_
_atom_site_type_symbol
_atom_site_label
_atom_site_fract_x
_atom_site_fract_y
_atom_site_fract_z
Si Si1 0.554387 0.261928 0.257236
Si Si2 0.922150 0.059857 0.344622
Si Si3 0.899794 0.851262 0.205234
Si Si4 0.357613 0.621600 0.329062
Si Si5 0.052294 0.145038 0.430957
Si Si6 0.676143 0.118796 0.209390
Si Si7 0.561243 0.860504 0.627918
Si Si8 0.656340 0.560744 0.839473
O O1 0.663624 0.040011 0.123842
O O2 0.428357 0.525027 0.579396
O O3 0.516565 0.077621 0.310764
O O4 0.603540 0.387746 0.036456
O O5 0.793749 0.417379 0.594277
O O6 0.888846 0.900478 0.357606
O O7 0.950818 0.924745 0.421423
O O8 0.047393 0.998663 0.009926
O O9 0.757324 0.011260 0.464781
O O10 0.000000 0.500000 0.000000
O O11 0.353839 0.488457 0.476582
O O12 0.325069 0.480399 0.330581
O O13 0.500000 0.500000 0.000000
O O14 0.000000 0.500000 0.500000
O O15 0.000000 0.000000 0.500000
O O16 0.189646 0.958069 0.080945
O O17 0.658848 0.930685 0.367482
O O18 0.450049 0.080914 0.944827
#
# Coordination Sequence:
#
# PCOD8007599 Si02
#       8
#     2   2   2   2   2   2   2   2
#     4  10  20  41  65  98 134 175 233 285 354 430
#     4  10  24  48  69 100 140 189 256 296 368 450
#     4  10  25  46  73  98 137 196 244 307 370 447
#     4  11  23  41  65 103 138 172 239 296 374 426
#     4  12  30  49  74 106 150 201 250 311 371 445
#     4  10  24  43  65  98 138 183 238 286 362 431
#     4  11  23  38  69 102 141 180 220 308 365 437
#     4  10  21  41  66  96 131 180 227 287 359 435
#
# _framework density 22.678160999999999
#
# number of rings (size 3 to 8) (size 9 to 14) (size 15 to 20)
#    0.000    1.500    2.500    0.750    7.000    1.000 
#    2.250    0.000    0.000    0.000    0.000    0.000 
#    0.000    0.000    0.000    0.000    0.000    0.000 
#
# Total GULP energy -198212.482092 kJ/mol
# GULP energy per Si atom -12388.280131 kJ/mol
# Density = 2.262654 g / cm^3
# Si number density = 22.678161 Si / 1000 Ang^3
#
#
#
# Elastic Constant Matrix: (Units=GPa)
#
#
# Indices 1 2 3 4 5 6 
#
# 1 114.6970 37.5826 45.0261 3.0385 -10.5043 -11.4443
# 2 37.5826 73.8140 31.2465 14.3872 -9.8309 -8.1827
# 3 45.0261 31.2465 130.9405 -0.6699 -22.1168 -2.9969
# 4 3.0385 14.3872 -0.6699 32.6754 -0.6239 -1.3874
# 5 -10.5043 -9.8309 -22.1168 -0.6239 38.0178 -1.7026
# 6 -11.4443 -8.1827 -2.9969 -1.3874 -1.7026 32.6935
#
#
#
# Elastic Compliance Matrix: (Units=1/GPa)
#
#
# Indices 1 2 3 4 5 6 
#
# 1 0.011583 -0.004557 -0.002731 0.001000 0.000572 0.002736
# 2 -0.004557 0.019095 -0.002603 -0.007880 0.002157 0.002723
# 3 -0.002731 -0.002603 0.009933 0.001670 0.004360 -0.000399
# 4 0.001000 -0.007880 0.001670 0.034009 -0.000233 -0.000038
# 5 0.000572 0.002157 0.004360 -0.000233 0.029672 0.002675
# 6 0.002736 0.002723 -0.000399 -0.000038 0.002675 0.032328
#
#
# Mechanical properties :
#
#
# Convention : Reuss Voigt Hill
#
# Bulk Modulus (GPa) = 48.01154 60.79578 54.40366
# Shear Modulus (GPa) = 30.61007 34.38376 32.49692
#
# Velocity S-wave (km/s) = 3.67789 3.89802 3.78955
# Velocity P-wave (km/s) = 6.26519 6.86481 6.57185
#
# Compressibility (1/GPa) = 0.02082833
#
# Stress axis : x y z
#
# Youngs Moduli (GPa) = 86.33512 52.37017 100.67054
#
# Poissons Ratio (x) = 0.23864 0.27495
# Poissons Ratio (y) = 0.39341 0.26209
# Poissons Ratio (z) = 0.23580 0.13634
#
# Static dielectric constant tensor:
#      x y z
#    x 4.354960 -0.124700 -0.109230 
#    y -0.124700 4.003420 0.002900 
#    z -0.109230 0.002900 4.412970 
# 
# 
# High freq. dielectric constant tensor:
#      x y z
#    x 1.895670 -0.009710 0.000050 
#    y -0.009710 1.877250 -0.006330 
#    z 0.000050 -0.006330 1.907910 
# 
# From -- ./inp_files/71668.got.cif
#   From: 2010.06.25/outbox.cif.g09.slc.cpg/sg2_36_cif.got.tgz:71668.got - 2010.06.27 13:26:56.
