data_PCOD8007176
_publ_section_title
;
Structure prediction by ZEFSAII (Michael W. Deem and Ramdas Pophale) SiO2 
 PCOD8007176
Probable space group: P -1
;
_chemical_formula_sum "Si O2"
_cell_formula_units_Z 16
_cell_length_a 8.718656
_cell_length_b 19.836363
_cell_length_c 8.606230
_cell_angle_alpha 117.898279
_cell_angle_beta 131.008675
_cell_angle_gamma 40.830217
_cell_volume 733.119638
_symmetry_space_group_name_H-M "P -1"
_symmetry_group_IT_number 2
_symmetry_cell_setting 'triclinic'
loop_
_space_group_symop_operation_xyz
x,y,z
-x,-y,-z
loop_
_atom_site_type_symbol
_atom_site_label
_atom_site_fract_x
_atom_site_fract_y
_atom_site_fract_z
Si Si1 0.726809 0.240288 0.075763
Si Si2 0.381016 0.051135 0.784071
Si Si3 0.350495 0.905492 0.473821
Si Si4 0.166342 0.796707 0.254467
Si Si5 0.832981 0.802810 0.472327
Si Si6 0.304849 0.455152 0.167997
Si Si7 0.168361 0.938288 0.894926
Si Si8 0.700831 0.371074 0.616836
O O1 0.478720 0.362468 0.060834
O O2 0.669248 0.181477 0.086428
O O3 0.008054 0.207378 0.283386
O O4 0.767509 0.212511 0.892898
O O5 0.250575 0.104804 0.589242
O O6 0.160888 0.116435 0.845875
O O7 0.475918 0.938781 0.706414
O O8 0.625909 0.044900 0.988340
O O9 0.309815 0.836372 0.466258
O O10 0.553950 0.835101 0.386580
O O11 0.048453 0.012190 0.336081
O O12 0.290285 0.690635 0.302461
O O13 0.024582 0.698159 0.383795
O O14 0.433496 0.416282 0.385266
O O15 0.319491 0.540679 0.223767
O O16 0.000000 0.500000 0.000000
O O17 0.000000 0.000000 0.000000
#
# Coordination Sequence:
#
# PCOD8007176 Si02
#       8
#     2   2   2   2   2   2   2   2
#     4  11  23  42  65 101 126 169 219 262 320 377
#     4  11  23  40  59  87 131 179 215 260 305 364
#     4  12  23  40  63  94 131 180 219 249 314 377
#     4  11  25  41  61  96 139 164 206 273 321 375
#     4  10  20  40  68  87 127 176 217 259 300 388
#     4  10  23  44  78  91 118 166 219 262 321 394
#     4  12  22  39  66  92 129 176 225 254 295 390
#     4   9  23  47  65  99 126 157 214 271 322 378
#
# _framework density 21.824539999999999
#
# number of rings (size 3 to 8) (size 9 to 14) (size 15 to 20)
#    0.000    1.250    3.750    1.500    5.250    1.000 
#    4.500    0.625    0.000    0.000    0.000    0.000 
#    0.000    0.000    0.000    0.000    0.000    0.000 
#
# Total GULP energy -198329.801048 kJ/mol
# GULP energy per Si atom -12395.612565 kJ/mol
# Density = 2.177487 g / cm^3
# Si number density = 21.824540 Si / 1000 Ang^3
#
#
#
# Elastic Constant Matrix: (Units=GPa)
#
#
# Indices 1 2 3 4 5 6 
#
# 1 127.6859 61.9902 58.2777 0.0132 23.4611 10.6263
# 2 61.9902 113.6795 43.6884 6.4386 16.0401 14.5314
# 3 58.2777 43.6884 65.5230 -4.1988 17.5323 -5.1563
# 4 0.0132 6.4386 -4.1988 30.3409 5.6463 5.8827
# 5 23.4611 16.0401 17.5323 5.6463 34.9385 -6.6437
# 6 10.6263 14.5314 -5.1563 5.8827 -6.6437 39.0389
#
#
#
# Elastic Compliance Matrix: (Units=1/GPa)
#
#
# Indices 1 2 3 4 5 6 
#
# 1 0.015663 -0.002962 -0.011025 0.001090 -0.004868 -0.005610
# 2 -0.002962 0.014121 -0.006940 -0.002646 -0.001580 -0.005237
# 3 -0.011025 -0.006940 0.031934 0.005179 -0.004709 0.008221
# 4 0.001090 -0.002646 0.005179 0.037071 -0.009206 -0.005780
# 5 -0.004868 -0.001580 -0.004709 -0.009206 0.038212 0.009181
# 6 -0.005610 -0.005237 0.008221 -0.005780 0.009181 0.032611
#
#
# Mechanical properties :
#
#
# Convention : Reuss Voigt Hill
#
# Bulk Modulus (GPa) = 50.34277 70.53344 60.43810
# Shear Modulus (GPa) = 22.92651 30.39245 26.65948
#
# Velocity S-wave (km/s) = 3.24465 3.73578 3.49884
# Velocity P-wave (km/s) = 6.09542 7.14119 6.63893
#
# Compressibility (1/GPa) = 0.01986383
#
# Stress axis : x y z
#
# Youngs Moduli (GPa) = 63.84505 70.81592 31.31428
#
# Poissons Ratio (x) = 0.20973 0.34525
# Poissons Ratio (y) = 0.18909 0.21733
# Poissons Ratio (z) = 0.70391 0.49148
#
# Static dielectric constant tensor:
#      x y z
#    x 4.957090 0.503150 0.461560 
#    y 0.503150 4.451900 0.127240 
#    z 0.461560 0.127240 3.973130 
# 
# 
# High freq. dielectric constant tensor:
#      x y z
#    x 1.855270 0.001480 0.012850 
#    y 0.001480 1.853960 0.005510 
#    z 0.012850 0.005510 1.861900 
# 
# From -- ./inp_files/223896.got.cif
#   From: 2010.06.25/outbox.cif.g09.slc.cpg/sg2_112_cif.got.tgz:223896.got - 2010.06.27 13:26:56.
