data_PCOD8007011
_publ_section_title
;
Structure prediction by ZEFSAII (Michael W. Deem and Ramdas Pophale) SiO2 
 PCOD8007011
Probable space group: P -1
;
_chemical_formula_sum "Si O2"
_cell_formula_units_Z 14
_cell_length_a 6.468611
_cell_length_b 11.337706
_cell_length_c 11.149344
_cell_angle_alpha 53.434424
_cell_angle_beta 68.082183
_cell_angle_gamma 69.973777
_cell_volume 601.311666
_symmetry_space_group_name_H-M "P -1"
_symmetry_group_IT_number 2
_symmetry_cell_setting 'triclinic'
loop_
_space_group_symop_operation_xyz
x,y,z
-x,-y,-z
loop_
_atom_site_type_symbol
_atom_site_label
_atom_site_fract_x
_atom_site_fract_y
_atom_site_fract_z
Si Si1 0.510290 0.875500 0.744166
Si Si2 0.106083 0.352766 0.921327
Si Si3 0.362629 0.414826 0.484467
Si Si4 0.066563 0.683484 0.260235
Si Si5 0.321114 0.848421 0.547001
Si Si6 0.042938 0.315567 0.225046
Si Si7 0.569247 0.143899 0.957615
O O1 0.347617 0.885851 0.659261
O O2 0.689394 0.722192 0.787061
O O3 0.643995 0.016443 0.627607
O O4 0.382591 0.883374 0.894308
O O5 0.369290 0.283324 0.898509
O O6 0.951616 0.291105 0.893768
O O7 0.077485 0.528298 0.790274
O O8 0.994748 0.320334 0.090388
O O9 0.500000 0.500000 0.500000
O O10 0.217417 0.530125 0.357798
O O11 0.522875 0.303393 0.433534
O O12 0.189610 0.312534 0.641152
O O13 0.206481 0.817294 0.183365
O O14 0.066481 0.815712 0.608833
O O15 0.500000 0.000000 0.000000
#
# Coordination Sequence:
#
# PCOD8007011 Si02
#       7
#     2   2   2   2   2   2   2
#     4  10  24  41  62  97 127 175 214 264 327 384
#     4  10  22  40  65  96 124 167 220 271 328 384
#     4  11  25  42  67  98 132 172 220 271 326 388
#     4  11  23  42  65  95 127 174 217 266 330 382
#     4  11  22  41  64  92 133 168 218 266 322 394
#     4  10  20  40  66  92 127 165 214 271 323 388
#     4  11  25  44  65  96 135 173 220 272 323 392
#
# _framework density 23.282435
#
# number of rings (size 3 to 8) (size 9 to 14) (size 15 to 20)
#    0.000    1.429    0.000    4.714    4.000    1.714 
#   10.286    5.714    0.000    0.000    0.000    0.000 
#    0.000    0.000    0.000    0.000    0.000    0.000 
#
# Total GULP energy -173491.668682 kJ/mol
# GULP energy per Si atom -12392.262049 kJ/mol
# Density = 2.322944 g / cm^3
# Si number density = 23.282435 Si / 1000 Ang^3
#
#
#
# Elastic Constant Matrix: (Units=GPa)
#
#
# Indices 1 2 3 4 5 6 
#
# 1 77.5849 11.8707 30.1961 5.3929 -22.0285 9.6944
# 2 11.8707 61.2748 5.7321 3.1964 -14.9196 10.2791
# 3 30.1961 5.7321 90.4937 -5.5809 -20.7289 9.7388
# 4 5.3929 3.1964 -5.5809 28.1871 7.1345 0.9256
# 5 -22.0285 -14.9196 -20.7289 7.1345 58.0956 -5.0567
# 6 9.6944 10.2791 9.7388 0.9256 -5.0567 26.3416
#
#
#
# Elastic Compliance Matrix: (Units=1/GPa)
#
#
# Indices 1 2 3 4 5 6 
#
# 1 0.016905 -0.000858 -0.004432 -0.005171 0.004973 -0.003112
# 2 -0.000858 0.018718 0.000635 -0.002767 0.004503 -0.006262
# 3 -0.004432 0.000635 0.013637 0.002896 0.002711 -0.003240
# 4 -0.005171 -0.002767 0.002896 0.039020 -0.006491 -0.000705
# 5 0.004973 0.004503 0.002711 -0.006491 0.022008 -0.000137
# 6 -0.003112 -0.006262 -0.003240 -0.000705 -0.000137 0.042748
#
#
# Mechanical properties :
#
#
# Convention : Reuss Voigt Hill
#
# Bulk Modulus (GPa) = 25.02983 36.10569 30.56776
# Shear Modulus (GPa) = 28.46382 34.62849 31.54615
#
# Velocity S-wave (km/s) = 3.50028 3.86077 3.68494
# Velocity P-wave (km/s) = 5.20671 5.95108 5.59130
#
# Compressibility (1/GPa) = 0.03995233
#
# Stress axis : x y z
#
# Youngs Moduli (GPa) = 59.15291 53.42479 73.32836
#
# Poissons Ratio (x) = 0.04583 0.32496
# Poissons Ratio (y) = 0.05075 -0.04659
# Poissons Ratio (z) = 0.26214 -0.03394
#
# Static dielectric constant tensor:
#      x y z
#    x 4.167020 0.052420 -0.069920 
#    y 0.052420 4.023070 -0.031760 
#    z -0.069920 -0.031760 4.352940 
# 
# 
# High freq. dielectric constant tensor:
#      x y z
#    x 1.921010 0.000740 -0.001670 
#    y 0.000740 1.905880 -0.003650 
#    z -0.001670 -0.003650 1.935130 
# 
# From -- ./inp_files/67578.got.cif
#   From: 2010.06.25/outbox.cif.g09.slc.cpg/sg2_34_cif.got.tgz:67578.got - 2010.06.27 13:26:56.
