data_PCOD8007504
_publ_section_title
;
Structure prediction by ZEFSAII (Michael W. Deem and Ramdas Pophale) SiO2 
 PCOD8007504
Probable space group: P -1
;
_chemical_formula_sum "Si O2"
_cell_formula_units_Z 16
_cell_length_a 9.815618
_cell_length_b 7.569541
_cell_length_c 11.646742
_cell_angle_alpha 116.646097
_cell_angle_beta 80.475904
_cell_angle_gamma 110.596103
_cell_volume 723.977606
_symmetry_space_group_name_H-M "P -1"
_symmetry_group_IT_number 2
_symmetry_cell_setting 'triclinic'
loop_
_space_group_symop_operation_xyz
x,y,z
-x,-y,-z
loop_
_atom_site_type_symbol
_atom_site_label
_atom_site_fract_x
_atom_site_fract_y
_atom_site_fract_z
Si Si1 0.597031 0.403970 0.112511
Si Si2 0.081546 0.393874 0.873526
Si Si3 0.554601 0.794358 0.129776
Si Si4 0.921784 0.484270 0.336049
Si Si5 0.579596 0.388399 0.369391
Si Si6 0.578045 0.032171 0.620925
Si Si7 0.884279 0.107369 0.506509
Si Si8 0.147760 0.979175 0.767533
O O1 0.764519 0.425278 0.109777
O O2 0.604426 0.594604 0.084148
O O3 0.533218 0.414732 0.251860
O O4 0.509982 0.202054 0.989095
O O5 0.020253 0.381523 0.749297
O O6 0.075022 0.162671 0.853995
O O7 0.000000 0.500000 0.000000
O O8 0.439717 0.777387 0.245647
O O9 0.703591 0.988589 0.172847
O O10 0.754593 0.465265 0.386004
O O11 0.950687 0.259439 0.260162
O O12 0.034292 0.644436 0.454771
O O13 0.500000 0.500000 0.500000
O O14 0.510769 0.148353 0.334657
O O15 0.500000 0.000000 0.500000
O O16 0.747971 0.057226 0.597453
O O17 0.812485 0.005130 0.367912
O O18 0.000000 0.000000 0.500000
#
# Coordination Sequence:
#
# PCOD8007504 Si02
#       8
#     2   2   2   2   2   2   2   2
#     4   9  22  39  66  93 130 172 223 281 336 402
#     4  10  23  42  65  94 134 177 221 275 347 411
#     4  10  20  41  64  92 129 172 226 278 337 393
#     4  11  23  43  67  99 135 179 221 282 346 406
#     4  11  22  40  66 100 133 171 227 285 340 403
#     4  12  23  39  68  98 129 176 230 275 336 409
#     4  12  24  41  67 100 138 180 224 283 354 404
#     4  11  22  43  68  93 135 178 225 286 340 404
#
# _framework density 22.10013
#
# number of rings (size 3 to 8) (size 9 to 14) (size 15 to 20)
#    0.000    1.250    3.750    1.875    3.500    1.000 
#    0.000    1.250    0.000    0.000    0.000    0.000 
#    0.000    0.000    0.000    0.000    0.000    0.000 
#
# Total GULP energy -198212.869878 kJ/mol
# GULP energy per Si atom -12388.304367 kJ/mol
# Density = 2.204983 g / cm^3
# Si number density = 22.100130 Si / 1000 Ang^3
#
#
#
# Elastic Constant Matrix: (Units=GPa)
#
#
# Indices 1 2 3 4 5 6 
#
# 1 69.7265 29.1027 42.2148 7.8106 -15.0740 7.6806
# 2 29.1027 99.5622 24.3234 8.6203 -6.5839 0.9075
# 3 42.2148 24.3234 143.1510 6.4013 -6.2694 10.1287
# 4 7.8106 8.6203 6.4013 33.7148 1.6697 -0.0721
# 5 -15.0740 -6.5839 -6.2694 1.6697 45.1788 3.9671
# 6 7.6806 0.9075 10.1287 -0.0721 3.9671 32.4363
#
#
#
# Elastic Compliance Matrix: (Units=1/GPa)
#
#
# Indices 1 2 3 4 5 6 
#
# 1 0.021228 -0.004297 -0.004816 -0.003225 0.006274 -0.004177
# 2 -0.004297 0.011629 -0.000681 -0.001855 0.000158 0.000881
# 3 -0.004816 -0.000681 0.008626 -0.000333 -0.000366 -0.001490
# 4 -0.003225 -0.001855 -0.000333 0.031079 -0.002656 0.001313
# 5 0.006274 0.000158 -0.000366 -0.002656 0.024685 -0.004401
# 6 -0.004177 0.000881 -0.001490 0.001313 -0.004401 0.032801
#
#
# Mechanical properties :
#
#
# Convention : Reuss Voigt Hill
#
# Bulk Modulus (GPa) = 45.66967 55.96906 50.81936
# Shear Modulus (GPa) = 31.86050 36.71925 34.28987
#
# Velocity S-wave (km/s) = 3.80102 4.08057 3.94327
# Velocity P-wave (km/s) = 6.32245 6.89794 6.61645
#
# Compressibility (1/GPa) = 0.02189637
#
# Stress axis : x y z
#
# Youngs Moduli (GPa) = 47.10668 85.98932 115.93094
#
# Poissons Ratio (x) = 0.36946 0.55827
# Poissons Ratio (y) = 0.20240 0.07900
# Poissons Ratio (z) = 0.22685 0.05860
#
# Static dielectric constant tensor:
#      x y z
#    x 4.273430 -0.948150 -0.181320 
#    y -0.948150 10.024990 3.767820 
#    z -0.181320 3.767820 6.147270 
# 
# 
# High freq. dielectric constant tensor:
#      x y z
#    x 1.861460 -0.005450 0.010460 
#    y -0.005450 1.864250 0.015030 
#    z 0.010460 0.015030 1.878060 
# 
# From -- ./inp_files/383184.got.cif
#   From: 2010.06.25/outbox.cif.g09.slc.cpg/sg2_192_cif.got.tgz:383184.got - 2010.06.27 13:26:56.
