data_PCOD8007904
_publ_section_title
;
Structure prediction by ZEFSAII (Michael W. Deem and Ramdas Pophale) SiO2 
 PCOD8007904
Probable space group: P -1
;
_chemical_formula_sum "Si O2"
_cell_formula_units_Z 14
_cell_length_a 7.381318
_cell_length_b 13.908316
_cell_length_c 8.809443
_cell_angle_alpha 88.309215
_cell_angle_beta 77.134979
_cell_angle_gamma 40.508340
_cell_volume 558.582604
_symmetry_space_group_name_H-M "P -1"
_symmetry_group_IT_number 2
_symmetry_cell_setting 'triclinic'
loop_
_space_group_symop_operation_xyz
x,y,z
-x,-y,-z
loop_
_atom_site_type_symbol
_atom_site_label
_atom_site_fract_x
_atom_site_fract_y
_atom_site_fract_z
Si Si1 0.817170 0.516753 0.194510
Si Si2 0.559070 0.677349 0.948597
Si Si3 0.072081 0.687556 0.594917
Si Si4 0.739388 0.731150 0.404827
Si Si5 0.204622 0.997054 0.047506
Si Si6 0.465800 0.026143 0.782552
Si Si7 0.638601 0.257054 0.330820
O O1 0.801074 0.628615 0.269157
O O2 0.152904 0.371263 0.082679
O O3 0.757562 0.454074 0.321133
O O4 0.583551 0.597550 0.094499
O O5 0.554307 0.628671 0.785136
O O6 0.259238 0.862650 0.999477
O O7 0.034376 0.645376 0.444775
O O8 0.299191 0.686947 0.553592
O O9 0.748654 0.846733 0.703984
O O10 0.613960 0.881161 0.356105
O O11 0.509799 0.776593 0.564939
O O12 0.951234 0.105191 0.212515
O O13 0.489306 0.916884 0.091514
O O14 0.198384 0.064306 0.890365
#
# Coordination Sequence:
#
# PCOD8007904 Si02
#       7
#     2   2   2   2   2   2   2
#     4  11  24  43  73  95 142 191 227 273 349 417
#     4  11  22  44  69 102 137 188 232 279 341 415
#     4  11  24  43  68 101 142 180 229 283 344 412
#     4  12  24  47  70 103 141 186 223 286 350 409
#     4  10  20  41  71 105 136 175 234 290 338 403
#     4  10  21  41  71 101 137 183 232 279 342 406
#     4  11  26  42  74 105 140 175 233 292 346 397
#
# _framework density 25.063437
#
# number of rings (size 3 to 8) (size 9 to 14) (size 15 to 20)
#    0.000    1.143    4.286    1.286    0.000    3.429 
#    2.571    0.000    0.000    0.000    0.000    0.000 
#    0.000    0.000    0.000    0.000    0.000    0.000 
#
# Total GULP energy -173440.223256 kJ/mol
# GULP energy per Si atom -12388.587375 kJ/mol
# Density = 2.500639 g / cm^3
# Si number density = 25.063437 Si / 1000 Ang^3
#
#
#
# Elastic Constant Matrix: (Units=GPa)
#
#
# Indices 1 2 3 4 5 6 
#
# 1 125.3932 23.0176 48.9481 -25.5610 10.9581 7.5637
# 2 23.0176 102.3405 52.8037 -33.0735 -6.6499 10.8889
# 3 48.9481 52.8037 126.2823 -33.0896 8.2028 0.8820
# 4 -25.5610 -33.0735 -33.0896 51.5365 -2.3697 3.5735
# 5 10.9581 -6.6499 8.2028 -2.3697 29.0815 2.8700
# 6 7.5637 10.8889 0.8820 3.5735 2.8700 23.2936
#
#
#
# Elastic Compliance Matrix: (Units=1/GPa)
#
#
# Indices 1 2 3 4 5 6 
#
# 1 0.010243 0.000823 -0.003170 0.003749 -0.002086 -0.003909
# 2 0.000823 0.016659 -0.005386 0.008643 0.006710 -0.010003
# 3 -0.003170 -0.005386 0.012255 0.002456 -0.003605 0.003150
# 4 0.003749 0.008643 0.002456 0.029247 0.003265 -0.010240
# 5 -0.002086 0.006710 -0.003605 0.003265 0.038739 -0.007596
# 6 -0.003909 -0.010003 0.003150 -0.010240 -0.007596 0.051263
#
#
# Mechanical properties :
#
#
# Convention : Reuss Voigt Hill
#
# Bulk Modulus (GPa) = 42.20705 67.06163 54.63434
# Shear Modulus (GPa) = 27.50763 36.06543 31.78653
#
# Velocity S-wave (km/s) = 3.31648 3.79749 3.56510
# Velocity P-wave (km/s) = 5.61623 6.78548 6.22835
#
# Compressibility (1/GPa) = 0.02369272
#
# Stress axis : x y z
#
# Youngs Moduli (GPa) = 97.62422 60.02915 81.59884
#
# Poissons Ratio (x) = -0.04943 0.25863
# Poissons Ratio (y) = -0.08039 0.43950
# Poissons Ratio (z) = 0.30943 0.32332
#
# Static dielectric constant tensor:
#      x y z
#    x 5.089670 -0.051740 0.338640 
#    y -0.051740 4.385020 -0.116770 
#    z 0.338640 -0.116770 4.623260 
# 
# 
# High freq. dielectric constant tensor:
#      x y z
#    x 2.002760 -0.006640 0.014030 
#    y -0.006640 1.989330 0.004200 
#    z 0.014030 0.004200 2.006450 
# 
# From -- ./inp_files/206796.got.cif
#   From: 2010.06.25/outbox.cif.g09.slc.cpg/sg2_104_cif.got.tgz:206796.got - 2010.06.27 13:26:56.
