data_PCOD8007184
_publ_section_title
;
Structure prediction by ZEFSAII (Michael W. Deem and Ramdas Pophale) SiO2 
 PCOD8007184
Probable space group: P -1
;
_chemical_formula_sum "Si O2"
_cell_formula_units_Z 14
_cell_length_a 9.645916
_cell_length_b 11.386830
_cell_length_c 7.877366
_cell_angle_alpha 99.288619
_cell_angle_beta 51.134746
_cell_angle_gamma 85.166277
_cell_volume 645.175244
_symmetry_space_group_name_H-M "P -1"
_symmetry_group_IT_number 2
_symmetry_cell_setting 'triclinic'
loop_
_space_group_symop_operation_xyz
x,y,z
-x,-y,-z
loop_
_atom_site_type_symbol
_atom_site_label
_atom_site_fract_x
_atom_site_fract_y
_atom_site_fract_z
Si Si1 0.298025 0.711728 0.913593
Si Si2 0.025515 0.132062 0.978861
Si Si3 0.045071 0.541733 0.159942
Si Si4 0.657171 0.693489 0.472646
Si Si5 0.560036 0.119939 0.913666
Si Si6 0.747845 0.712972 0.011774
Si Si7 0.351841 0.049913 0.480012
O O1 0.491062 0.639143 0.661959
O O2 0.166950 0.771900 0.874709
O O3 0.203891 0.615905 0.057913
O O4 0.307126 0.824441 0.057657
O O5 0.131646 0.185536 0.057536
O O6 0.150659 0.120016 0.713290
O O7 0.000000 0.000000 0.000000
O O8 0.848898 0.622201 0.396291
O O9 0.126181 0.418322 0.177464
O O10 0.000000 0.500000 0.000000
O O11 0.665805 0.696171 0.260020
O O12 0.592490 0.834638 0.629560
O O13 0.401629 0.237841 0.005856
O O14 0.667217 0.063745 0.647015
O O15 0.500000 0.000000 0.000000
O O16 0.500000 0.000000 0.500000
#
# Coordination Sequence:
#
# PCOD8007184 Si02
#       7
#     2   2   2   2   2   2   2
#     4  12  23  38  67  98 124 169 214 261 325 374
#     4  11  21  37  63  96 123 163 218 254 312 393
#     4  10  21  44  64  92 128 165 222 264 306 377
#     4  10  20  40  68  91 126 165 218 260 312 376
#     4  12  24  38  64  99 132 165 208 269 324 377
#     4  10  22  43  65  87 131 171 205 273 310 367
#     4  11  19  40  64  89 131 167 201 263 319 373
#
# _framework density 21.699529999999999
#
# number of rings (size 3 to 8) (size 9 to 14) (size 15 to 20)
#    0.000    1.143    8.571    1.714    0.000    3.429 
#    0.000    0.714    0.000    0.000    0.000    0.000 
#    0.000    0.000    0.000    0.000    0.000    0.000 
#
# Total GULP energy -173436.110755 kJ/mol
# GULP energy per Si atom -12388.293625 kJ/mol
# Density = 2.165014 g / cm^3
# Si number density = 21.699530 Si / 1000 Ang^3
#
#
#
# Elastic Constant Matrix: (Units=GPa)
#
#
# Indices 1 2 3 4 5 6 
#
# 1 57.9720 14.8972 26.9091 0.0193 -15.9851 5.4609
# 2 14.8972 115.4315 23.8702 8.5417 -19.7284 -3.5695
# 3 26.9091 23.8702 74.8960 6.5025 -35.3052 1.8968
# 4 0.0193 8.5417 6.5025 31.9109 1.5627 -10.0723
# 5 -15.9851 -19.7284 -35.3052 1.5627 35.9515 8.0394
# 6 5.4609 -3.5695 1.8968 -10.0723 8.0394 49.2839
#
#
#
# Elastic Compliance Matrix: (Units=1/GPa)
#
#
# Indices 1 2 3 4 5 6 
#
# 1 0.021448 -0.001024 -0.005174 0.000158 0.004549 -0.002961
# 2 -0.001024 0.009906 -0.000043 -0.003104 0.005220 -0.000653
# 3 -0.005174 -0.000043 0.030079 -0.009880 0.029295 -0.007385
# 4 0.000158 -0.003104 -0.009880 0.038232 -0.015335 0.010453
# 5 0.004549 0.005220 0.029295 -0.015335 0.065508 -0.015073
# 6 -0.002961 -0.000653 -0.007385 0.010453 -0.015073 0.025451
#
#
# Mechanical properties :
#
#
# Convention : Reuss Voigt Hill
#
# Bulk Modulus (GPa) = 20.42866 42.18360 31.30613
# Shear Modulus (GPa) = 22.78735 35.60411 29.19573
#
# Velocity S-wave (km/s) = 3.24409 4.05505 3.67202
# Velocity P-wave (km/s) = 4.84427 6.43480 5.69533
#
# Compressibility (1/GPa) = 0.04895085
#
# Stress axis : x y z
#
# Youngs Moduli (GPa) = 46.62522 100.95219 33.24625
#
# Poissons Ratio (x) = 0.10336 0.17201
# Poissons Ratio (y) = 0.04774 0.00142
# Poissons Ratio (z) = 0.24124 0.00431
#
# Static dielectric constant tensor:
#      x y z
#    x 3.775690 0.070010 -0.193740 
#    y 0.070010 4.607580 0.242870 
#    z -0.193740 0.242870 3.996170 
# 
# 
# High freq. dielectric constant tensor:
#      x y z
#    x 1.835860 0.001070 -0.019590 
#    y 0.001070 1.866520 0.017320 
#    z -0.019590 0.017320 1.836650 
# 
# From -- ./inp_files/179722.got.cif
#   From: 2010.06.25/outbox.cif.g09.slc.cpg/sg2_90_cif.got.tgz:179722.got - 2010.06.27 13:26:56.
