data_PCOD8007590
_publ_section_title
;
Structure prediction by ZEFSAII (Michael W. Deem and Ramdas Pophale) SiO2 
 PCOD8007590
Probable space group: P -1
;
_chemical_formula_sum "Si O2"
_cell_formula_units_Z 14
_cell_length_a 9.107400
_cell_length_b 12.850147
_cell_length_c 15.219399
_cell_angle_alpha 27.409799
_cell_angle_beta 61.760469
_cell_angle_gamma 52.035768
_cell_volume 633.255026
_symmetry_space_group_name_H-M "P -1"
_symmetry_group_IT_number 2
_symmetry_cell_setting 'triclinic'
loop_
_space_group_symop_operation_xyz
x,y,z
-x,-y,-z
loop_
_atom_site_type_symbol
_atom_site_label
_atom_site_fract_x
_atom_site_fract_y
_atom_site_fract_z
Si Si1 0.076636 0.885685 0.157120
Si Si2 0.298964 0.171047 0.882216
Si Si3 0.581921 0.639059 0.603916
Si Si4 0.684292 0.966492 0.218103
Si Si5 0.546128 0.462961 0.117004
Si Si6 0.041346 0.732956 0.792714
Si Si7 0.201179 0.703424 0.586880
O O1 0.230330 0.591037 0.319306
O O2 0.890374 0.910440 0.241455
O O3 0.164446 0.058242 0.044462
O O4 0.000000 0.000000 0.000000
O O5 0.305791 0.166036 0.778405
O O6 0.210949 0.475565 0.694546
O O7 0.500000 0.000000 0.000000
O O8 0.582412 0.893611 0.378727
O O9 0.558525 0.663536 0.699195
O O10 0.408028 0.611633 0.635354
O O11 0.541026 0.262194 0.017050
O O12 0.771766 0.306629 0.179664
O O13 0.500000 0.500000 0.000000
O O14 0.057053 0.736480 0.680813
O O15 0.875844 0.022733 0.649037
O O16 0.000000 0.500000 0.000000
#
# Coordination Sequence:
#
# PCOD8007590 Si02
#       7
#     2   2   2   2   2   2   2
#     4  10  20  41  65  95 138 175 210 270 341 391
#     4  11  20  41  68  97 136 174 218 277 331 398
#     4  11  21  44  68  95 136 169 226 275 332 406
#     4  11  24  42  67  98 135 179 215 277 341 392
#     4  11  24  45  67  93 131 177 223 278 335 390
#     4  10  22  45  65  94 133 175 223 274 325 395
#     4  10  22  40  70  99 130 175 222 272 333 394
#
# _framework density 22.107997999999998
#
# number of rings (size 3 to 8) (size 9 to 14) (size 15 to 20)
#    0.000    1.429    4.286    2.143    0.000    2.286 
#   10.286    0.000    0.000    0.000    0.000    0.000 
#    0.000    0.000    0.000    0.000    0.000    0.000 
#
# Total GULP energy -173482.663986 kJ/mol
# GULP energy per Si atom -12391.618856 kJ/mol
# Density = 2.205768 g / cm^3
# Si number density = 22.107998 Si / 1000 Ang^3
#
#
#
# Elastic Constant Matrix: (Units=GPa)
#
#
# Indices 1 2 3 4 5 6 
#
# 1 95.7329 34.7448 44.3089 -0.0829 -0.9684 2.6749
# 2 34.7448 83.2198 45.5112 1.4128 1.0199 10.4960
# 3 44.3089 45.5112 115.0372 9.6778 1.1973 0.1871
# 4 -0.0829 1.4128 9.6778 52.5225 -11.9281 3.4210
# 5 -0.9684 1.0199 1.1973 -11.9281 36.6826 -1.8821
# 6 2.6749 10.4960 0.1871 3.4210 -1.8821 29.5160
#
#
#
# Elastic Compliance Matrix: (Units=1/GPa)
#
#
# Indices 1 2 3 4 5 6 
#
# 1 0.013556 -0.003547 -0.003916 0.001049 0.000925 -0.000005
# 2 -0.003547 0.017248 -0.005514 0.000834 -0.000425 -0.005901
# 3 -0.003916 -0.005514 0.012607 -0.002586 -0.001076 0.002467
# 4 0.001049 0.000834 -0.002586 0.021210 0.006863 -0.002396
# 5 0.000925 -0.000425 -0.001076 0.006863 0.029624 0.001168
# 6 -0.000005 -0.005901 0.002467 -0.002396 0.001168 0.036315
#
#
# Mechanical properties :
#
#
# Convention : Reuss Voigt Hill
#
# Bulk Modulus (GPa) = 57.27984 60.34663 58.81324
# Shear Modulus (GPa) = 30.80119 35.03922 32.92020
#
# Velocity S-wave (km/s) = 3.73663 3.98541 3.86302
# Velocity P-wave (km/s) = 6.67697 6.96660 6.82332
#
# Compressibility (1/GPa) = 0.01745815
#
# Stress axis : x y z
#
# Youngs Moduli (GPa) = 73.76918 57.97883 79.31939
#
# Poissons Ratio (x) = 0.20562 0.31062
# Poissons Ratio (y) = 0.26162 0.43734
# Poissons Ratio (z) = 0.28888 0.31968
#
# Static dielectric constant tensor:
#      x y z
#    x -2.485290 1.552450 2.390390 
#    y 1.552450 3.415440 -0.652030 
#    z 2.390390 -0.652030 3.321830 
# 
# 
# High freq. dielectric constant tensor:
#      x y z
#    x 1.865380 -0.017010 0.005020 
#    y -0.017010 1.859130 -0.004060 
#    z 0.005020 -0.004060 1.886760 
# 
# From -- ./inp_files/271724.got.cif
#   From: 2010.06.25/outbox.cif.g09.slc.cpg/sg2_136_cif.got.tgz:271724.got - 2010.06.27 13:26:56.
