data_PCOD8007265
_publ_section_title
;
Structure prediction by ZEFSAII (Michael W. Deem and Ramdas Pophale) SiO2 
 PCOD8007265
Probable space group: P -1
;
_chemical_formula_sum "Si O2"
_cell_formula_units_Z 16
_cell_length_a 12.833459
_cell_length_b 13.219139
_cell_length_c 10.768861
_cell_angle_alpha 34.153545
_cell_angle_beta 109.584695
_cell_angle_gamma 131.069406
_cell_volume 672.955296
_symmetry_space_group_name_H-M "P -1"
_symmetry_group_IT_number 2
_symmetry_cell_setting 'triclinic'
loop_
_space_group_symop_operation_xyz
x,y,z
-x,-y,-z
loop_
_atom_site_type_symbol
_atom_site_label
_atom_site_fract_x
_atom_site_fract_y
_atom_site_fract_z
Si Si1 0.483071 0.960436 0.891435
Si Si2 0.610556 0.587557 0.838027
Si Si3 0.868317 0.172985 0.346631
Si Si4 0.211781 0.595813 0.565847
Si Si5 0.671696 0.269308 0.259455
Si Si6 0.445889 0.368352 0.747878
Si Si7 0.136523 0.676449 0.054045
Si Si8 0.124795 0.844550 0.148998
O O1 0.510519 0.785624 0.049227
O O2 0.309727 0.822177 0.925920
O O3 0.500000 0.000000 0.000000
O O4 0.620039 0.248798 0.591581
O O5 0.528677 0.565315 0.698632
O O6 0.777271 0.881325 0.630494
O O7 0.500000 0.500000 0.000000
O O8 0.650755 0.423172 0.011601
O O9 0.751089 0.205238 0.278806
O O10 0.926640 0.248857 0.147954
O O11 0.016016 0.364232 0.308142
O O12 0.224048 0.566447 0.745057
O O13 0.166493 0.752830 0.368201
O O14 0.057330 0.299540 0.758251
O O15 0.500000 0.000000 0.500000
O O16 0.500000 0.500000 0.500000
O O17 0.252380 0.157409 0.888259
O O18 0.140918 0.758724 0.110581
#
# Coordination Sequence:
#
# PCOD8007265 Si02
#       8
#     2   2   2   2   2   2   2   2
#     4  11  22  40  69 101 128 177 234 285 343 421
#     4  12  27  43  68 108 143 182 234 289 347 423
#     4  11  25  42  70  99 139 182 232 285 347 418
#     4  10  21  36  68  99 129 172 230 281 338 411
#     4  12  22  43  69  98 138 186 226 280 351 410
#     4  11  24  44  68  99 141 181 230 291 351 410
#     4  11  21  43  68 102 133 182 233 282 349 417
#     4  10  20  40  69  99 132 175 235 282 345 412
#
# _framework density 23.775727
#
# number of rings (size 3 to 8) (size 9 to 14) (size 15 to 20)
#    0.000    1.000    5.000    3.750    0.000    0.000 
#    2.250    3.125    0.000    2.250    0.000    0.000 
#    0.000    0.000    0.000    0.000    0.000    0.000 
#
# Total GULP energy -198230.076178 kJ/mol
# GULP energy per Si atom -12389.379761 kJ/mol
# Density = 2.372161 g / cm^3
# Si number density = 23.775727 Si / 1000 Ang^3
#
#
#
# Elastic Constant Matrix: (Units=GPa)
#
#
# Indices 1 2 3 4 5 6 
#
# 1 66.3784 18.7355 20.7699 -9.1484 -13.6329 11.7589
# 2 18.7355 155.0540 44.5365 -3.8629 -23.0089 9.9161
# 3 20.7699 44.5365 127.3772 -24.4821 -24.5251 14.1004
# 4 -9.1484 -3.8629 -24.4821 55.7880 7.9716 -18.5907
# 5 -13.6329 -23.0089 -24.5251 7.9716 34.0665 -3.4126
# 6 11.7589 9.9161 14.1004 -18.5907 -3.4126 32.8235
#
#
#
# Elastic Compliance Matrix: (Units=1/GPa)
#
#
# Indices 1 2 3 4 5 6 
#
# 1 0.017580 -0.000710 -0.001046 -0.000096 0.005311 -0.005136
# 2 -0.000710 0.007724 -0.001981 -0.001554 0.003698 -0.001724
# 3 -0.001046 -0.001981 0.010390 0.003157 0.004865 -0.001196
# 4 -0.000096 -0.001554 0.003157 0.023720 -0.003138 0.012256
# 5 0.005311 0.003698 0.004865 -0.003138 0.037919 -0.002944
# 6 -0.005136 -0.001724 -0.001196 0.012256 -0.002944 0.039976
#
#
# Mechanical properties :
#
#
# Convention : Reuss Voigt Hill
#
# Bulk Modulus (GPa) = 35.43354 57.43259 46.43306
# Shear Modulus (GPa) = 32.42787 42.18677 37.30732
#
# Velocity S-wave (km/s) = 3.69712 4.21689 3.96553
# Velocity P-wave (km/s) = 5.75851 6.92228 6.36704
#
# Compressibility (1/GPa) = 0.02822185
#
# Stress axis : x y z
#
# Youngs Moduli (GPa) = 56.88229 129.46042 96.24946
#
# Poissons Ratio (x) = 0.09187 0.10065
# Poissons Ratio (y) = 0.04037 0.19065
# Poissons Ratio (z) = 0.05948 0.25644
#
# Static dielectric constant tensor:
#      x y z
#    x 4.292870 0.071260 -0.780930 
#    y 0.071260 4.870940 -0.025140 
#    z -0.780930 -0.025140 4.717900 
# 
# 
# High freq. dielectric constant tensor:
#      x y z
#    x 1.911680 0.007330 -0.036930 
#    y 0.007330 1.973550 -0.002350 
#    z -0.036930 -0.002350 1.936520 
# 
# From -- ./inp_files/455417.got.cif
#   From: 2010.06.25/outbox.cif.g09.slc.cpg/sg2_228_cif.got.tgz:455417.got - 2010.06.27 13:26:56.
