data_PCOD8007913
_publ_section_title
;
Structure prediction by ZEFSAII (Michael W. Deem and Ramdas Pophale) SiO2 
 PCOD8007913
Probable space group: P -1
;
_chemical_formula_sum "Si O2"
_cell_formula_units_Z 16
_cell_length_a 8.881882
_cell_length_b 20.187247
_cell_length_c 9.906139
_cell_angle_alpha 119.128627
_cell_angle_beta 57.005995
_cell_angle_gamma 149.951146
_cell_volume 745.462296
_symmetry_space_group_name_H-M "P -1"
_symmetry_group_IT_number 2
_symmetry_cell_setting 'triclinic'
loop_
_space_group_symop_operation_xyz
x,y,z
-x,-y,-z
loop_
_atom_site_type_symbol
_atom_site_label
_atom_site_fract_x
_atom_site_fract_y
_atom_site_fract_z
Si Si1 0.557178 0.185879 0.862381
Si Si2 0.107773 0.121584 0.549799
Si Si3 0.787192 0.046315 0.362869
Si Si4 0.653758 0.633212 0.052506
Si Si5 0.672026 0.729081 0.859760
Si Si6 0.728231 0.113423 0.893646
Si Si7 0.725814 0.387253 0.623633
Si Si8 0.938095 0.537555 0.188968
O O1 0.536795 0.104171 0.883601
O O2 0.923266 0.332150 0.794435
O O3 0.350803 0.085446 0.735920
O O4 0.404699 0.207806 0.024627
O O5 0.477281 0.245890 0.531162
O O6 0.049519 0.127384 0.430307
O O7 0.899536 0.103999 0.726524
O O8 0.000000 0.000000 0.500000
O O9 0.975959 0.152950 0.253406
O O10 0.500000 0.000000 0.500000
O O11 0.623561 0.671173 0.968600
O O12 0.500000 0.500000 0.000000
O O13 0.482094 0.612092 0.241528
O O14 0.018899 0.747729 0.015073
O O15 0.436868 0.600948 0.745220
O O16 0.500000 0.000000 0.000000
O O17 0.000000 0.500000 0.500000
O O18 0.874093 0.410425 0.713669
O O19 0.000000 0.500000 0.000000
#
# Coordination Sequence:
#
# PCOD8007913 Si02
#       8
#     2   2   2   2   2   2   2   2
#     4  11  22  43  71  92 135 176 225 277 327 400
#     4  11  26  44  64  94 138 177 217 273 340 401
#     4  12  25  45  65  99 138 174 227 276 332 396
#     4  11  24  43  65  99 137 171 224 272 337 400
#     4  11  24  43  73  98 128 184 226 271 335 404
#     4  11  25  41  64  99 132 174 224 278 331 393
#     4  11  23  44  66 100 133 171 222 277 333 395
#     4  10  20  41  71  97 128 172 231 270 327 402
#
# _framework density 21.463191999999999
#
# number of rings (size 3 to 8) (size 9 to 14) (size 15 to 20)
#    0.000    1.000    3.750    3.375    5.250    1.000 
#    2.250    0.625    0.000    0.000    0.000    0.000 
#    0.000    0.000    0.000    0.000    0.000    0.000 
#
# Total GULP energy -198235.735314 kJ/mol
# GULP energy per Si atom -12389.733457 kJ/mol
# Density = 2.141434 g / cm^3
# Si number density = 21.463192 Si / 1000 Ang^3
#
#
#
# Elastic Constant Matrix: (Units=GPa)
#
#
# Indices 1 2 3 4 5 6 
#
# 1 91.4717 44.1775 42.8913 -2.2725 9.9023 -4.5849
# 2 44.1775 203.6229 83.6324 2.0631 2.2250 -2.5348
# 3 42.8913 83.6324 89.5269 -4.1363 11.8432 -1.1907
# 4 -2.2725 2.0631 -4.1363 44.4835 8.0741 7.5380
# 5 9.9023 2.2250 11.8432 8.0741 30.6562 6.2283
# 6 -4.5849 -2.5348 -1.1907 7.5380 6.2283 41.6848
#
#
#
# Elastic Compliance Matrix: (Units=1/GPa)
#
#
# Indices 1 2 3 4 5 6 
#
# 1 0.014405 -0.000671 -0.005860 0.000440 -0.002805 0.001716
# 2 -0.000671 0.008292 -0.007917 -0.001730 0.003118 0.000051
# 3 -0.005860 -0.007917 0.022473 0.003457 -0.007115 -0.000046
# 4 0.000440 -0.001730 0.003457 0.024780 -0.007195 -0.003364
# 5 -0.002805 0.003118 -0.007115 -0.007195 0.038926 -0.004837
# 6 0.001716 0.000051 -0.000046 -0.003364 -0.004837 0.025511
#
#
# Mechanical properties :
#
#
# Convention : Reuss Voigt Hill
#
# Bulk Modulus (GPa) = 61.44508 80.66933 71.05720
# Shear Modulus (GPa) = 29.63693 37.62626 33.63160
#
# Velocity S-wave (km/s) = 3.71998 4.19150 3.96276
# Velocity P-wave (km/s) = 6.86595 7.81610 7.35638
#
# Compressibility (1/GPa) = 0.01627470
#
# Stress axis : x y z
#
# Youngs Moduli (GPa) = 69.42123 120.59558 44.49721
#
# Poissons Ratio (x) = 0.08088 0.26078
# Poissons Ratio (y) = 0.04656 0.35227
# Poissons Ratio (z) = 0.40684 0.95471
#
# Static dielectric constant tensor:
#      x y z
#    x 3.582320 0.125280 0.089510 
#    y 0.125280 4.500010 0.199150 
#    z 0.089510 0.199150 4.328920 
# 
# 
# High freq. dielectric constant tensor:
#      x y z
#    x 1.832620 0.007200 0.017160 
#    y 0.007200 1.874730 0.010490 
#    z 0.017160 0.010490 1.834040 
# 
# From -- ./inp_files/223788.got.cif
#   From: 2010.06.25/outbox.cif.g09.slc.cpg/sg2_112_cif.got.tgz:223788.got - 2010.06.27 13:26:56.
