data_PCOD8007332
_publ_section_title
;
Structure prediction by ZEFSAII (Michael W. Deem and Ramdas Pophale) SiO2 
 PCOD8007332
Probable space group: P -1
;
_chemical_formula_sum "Si O2"
_cell_formula_units_Z 12
_cell_length_a 14.461880
_cell_length_b 6.506671
_cell_length_c 7.034192
_cell_angle_alpha 112.270016
_cell_angle_beta 89.748439
_cell_angle_gamma 72.824936
_cell_volume 580.135638
_symmetry_space_group_name_H-M "P -1"
_symmetry_group_IT_number 2
_symmetry_cell_setting 'triclinic'
loop_
_space_group_symop_operation_xyz
x,y,z
-x,-y,-z
loop_
_atom_site_type_symbol
_atom_site_label
_atom_site_fract_x
_atom_site_fract_y
_atom_site_fract_z
Si Si1 0.456901 0.463173 0.687891
Si Si2 0.220050 0.685097 0.266392
Si Si3 0.054649 0.488432 0.190352
Si Si4 0.890352 0.793083 0.558509
Si Si5 0.297600 0.328125 0.448141
Si Si6 0.383547 0.815641 0.124655
O O1 0.500000 0.500000 0.500000
O O2 0.368604 0.354305 0.625263
O O3 0.536370 0.272755 0.743705
O O4 0.425762 0.716709 0.883254
O O5 0.154842 0.530340 0.143109
O O6 0.281443 0.561479 0.405525
O O7 0.294783 0.710731 0.115787
O O8 0.146824 0.939010 0.408786
O O9 0.083374 0.246043 0.228137
O O10 0.987776 0.684948 0.399016
O O11 0.000000 0.500000 0.000000
O O12 0.805723 0.677664 0.468429
O O13 0.345591 0.097648 0.235041
#
# Coordination Sequence:
#
# PCOD8007332 Si02
#       6
#     2   2   2   2   2   2
#     4  11  22  41  63  88 118 161 199 243 303 346
#     4  10  20  41  59  85 123 153 194 245 291 351
#     4  10  21  37  61  89 114 156 196 236 296 349
#     4   9  21  40  58  86 123 151 192 245 287 350
#     4  10  21  41  62  87 124 158 194 246 298 346
#     4  10  23  41  60  90 121 154 203 247 287 358
#
# _framework density 20.684819999999998
#
# number of rings (size 3 to 8) (size 9 to 14) (size 15 to 20)
#    0.000    2.000    1.667    1.000    2.333    1.333 
#   12.000    0.000    0.000    0.000    0.000    0.000 
#    0.000    0.000    0.000    0.000    0.000    0.000 
#
# Total GULP energy -148736.330927 kJ/mol
# GULP energy per Si atom -12394.694244 kJ/mol
# Density = 2.063774 g / cm^3
# Si number density = 20.684820 Si / 1000 Ang^3
#
#
#
# Elastic Constant Matrix: (Units=GPa)
#
#
# Indices 1 2 3 4 5 6 
#
# 1 96.9151 18.7149 43.0113 -10.8118 18.3465 -10.8395
# 2 18.7149 131.4353 40.9277 -8.6315 3.2215 -15.6186
# 3 43.0113 40.9277 110.5287 -11.7180 14.0575 -2.7267
# 4 -10.8118 -8.6315 -11.7180 20.3061 -1.8938 -1.9207
# 5 18.3465 3.2215 14.0575 -1.8938 28.5354 1.0089
# 6 -10.8395 -15.6186 -2.7267 -1.9207 1.0089 28.2645
#
#
#
# Elastic Compliance Matrix: (Units=1/GPa)
#
#
# Indices 1 2 3 4 5 6 
#
# 1 0.014817 0.000501 -0.004280 0.005534 -0.007326 0.006184
# 2 0.000501 0.009356 -0.003254 0.002883 0.000231 0.005236
# 3 -0.004280 -0.003254 0.012559 0.003144 -0.002791 -0.001915
# 4 0.005534 0.002883 0.003144 0.055790 -0.002008 0.007881
# 5 -0.007326 0.000231 -0.002791 -0.002008 0.041131 -0.004556
# 6 0.006184 0.005236 -0.001915 0.007881 -0.004556 0.041158
#
#
# Mechanical properties :
#
#
# Convention : Reuss Voigt Hill
#
# Bulk Modulus (GPa) = 44.12073 60.46522 52.29298
# Shear Modulus (GPa) = 25.45389 31.16956 28.31173
#
# Velocity S-wave (km/s) = 3.51174 3.88607 3.70364
# Velocity P-wave (km/s) = 6.14975 7.03068 6.60492
#
# Compressibility (1/GPa) = 0.02266508
#
# Stress axis : x y z
#
# Youngs Moduli (GPa) = 67.49010 106.88244 79.62350
#
# Poissons Ratio (x) = -0.05354 0.34083
# Poissons Ratio (y) = -0.03381 0.25909
# Poissons Ratio (z) = 0.28889 0.34779
#
# Static dielectric constant tensor:
#      x y z
#    x 4.166810 -0.173460 -0.008360 
#    y -0.173460 3.803900 -0.162640 
#    z -0.008360 -0.162640 3.558080 
# 
# 
# High freq. dielectric constant tensor:
#      x y z
#    x 1.835570 -0.015150 -0.000790 
#    y -0.015150 1.808650 -0.011900 
#    z -0.000790 -0.011900 1.779520 
# 
# From -- ./inp_files/3053.got.cif
#   From: 2010.06.25/outbox.cif.g09.slc.cpg/sg2_2_cif.got.tgz:3053.got - 2010.06.27 13:26:56.
