data_PCOD8007301
_publ_section_title
;
Structure prediction by ZEFSAII (Michael W. Deem and Ramdas Pophale) SiO2 
 PCOD8007301
Probable space group: P -1
;
_chemical_formula_sum "Si O2"
_cell_formula_units_Z 14
_cell_length_a 8.318966
_cell_length_b 17.037578
_cell_length_c 19.542857
_cell_angle_alpha 22.781665
_cell_angle_beta 139.131494
_cell_angle_gamma 127.030969
_cell_volume 650.637696
_symmetry_space_group_name_H-M "P -1"
_symmetry_group_IT_number 2
_symmetry_cell_setting 'triclinic'
loop_
_space_group_symop_operation_xyz
x,y,z
-x,-y,-z
loop_
_atom_site_type_symbol
_atom_site_label
_atom_site_fract_x
_atom_site_fract_y
_atom_site_fract_z
Si Si1 0.603545 0.740224 0.982926
Si Si2 0.043736 0.655981 0.660097
Si Si3 0.104498 0.765325 0.188109
Si Si4 0.199161 0.044322 0.384316
Si Si5 0.282658 0.598119 0.102914
Si Si6 0.752865 0.838680 0.546953
Si Si7 0.611648 0.459714 0.664237
O O1 0.475661 0.978907 0.716606
O O2 0.701581 0.564535 0.094202
O O3 0.392784 0.701963 0.994716
O O4 0.848875 0.709102 0.136522
O O5 0.010746 0.710087 0.686916
O O6 0.773371 0.623279 0.575983
O O7 0.097497 0.853476 0.480104
O O8 0.302301 0.591365 0.443749
O O9 0.264839 0.744308 0.184691
O O10 0.000000 0.000000 0.000000
O O11 0.152598 0.064059 0.435523
O O12 0.500000 0.000000 0.500000
O O13 0.033638 0.267815 0.111669
O O14 0.365002 0.340676 0.321875
O O15 0.371739 0.635474 0.177629
#
# Coordination Sequence:
#
# PCOD8007301 Si02
#       7
#     2   2   2   2   2   2   2
#     4  11  24  43  71  97 133 175 213 269 328 387
#     4  10  22  43  66  93 133 175 216 263 325 380
#     4  10  20  40  71  96 123 172 215 258 335 388
#     4  12  26  41  67  98 132 176 225 268 323 382
#     4  11  24  45  64  97 139 167 221 272 319 387
#     4  11  24  44  66  96 134 179 215 270 317 384
#     4   9  22  42  65  94 133 166 211 274 319 388
#
# _framework density 21.517351000000001
#
# number of rings (size 3 to 8) (size 9 to 14) (size 15 to 20)
#    0.000    1.429    1.429    3.429    6.000    1.143 
#    2.571    0.714    0.000    0.000    0.000    0.000 
#    0.000    0.000    0.000    0.000    0.000    0.000 
#
# Total GULP energy -173537.840322 kJ/mol
# GULP energy per Si atom -12395.560023 kJ/mol
# Density = 2.146838 g / cm^3
# Si number density = 21.517351 Si / 1000 Ang^3
#
#
#
# Elastic Constant Matrix: (Units=GPa)
#
#
# Indices 1 2 3 4 5 6 
#
# 1 89.6183 37.6820 63.0871 0.6434 13.6683 -15.5754
# 2 37.6820 81.0584 56.9789 1.8258 5.2601 -13.7304
# 3 63.0871 56.9789 162.5497 4.9408 6.3732 -2.1028
# 4 0.6434 1.8258 4.9408 43.3341 -4.8836 1.3073
# 5 13.6683 5.2601 6.3732 -4.8836 36.9067 -7.8159
# 6 -15.5754 -13.7304 -2.1028 1.3073 -7.8159 39.3871
#
#
#
# Elastic Compliance Matrix: (Units=1/GPa)
#
#
# Indices 1 2 3 4 5 6 
#
# 1 0.017964 -0.003347 -0.005568 -0.000110 -0.004211 0.004808
# 2 -0.003347 0.018235 -0.005043 -0.000233 0.000513 0.004874
# 3 -0.005568 -0.005043 0.010050 -0.000723 0.000240 -0.003352
# 4 -0.000110 -0.000233 -0.000723 0.023546 0.003251 -0.000300
# 5 -0.004211 0.000513 0.000240 0.003251 0.029892 0.004350
# 6 0.004808 0.004874 -0.003352 -0.000300 0.004350 0.029683
#
#
# Mechanical properties :
#
#
# Convention : Reuss Voigt Hill
#
# Bulk Modulus (GPa) = 54.54641 72.08026 63.31334
# Shear Modulus (GPa) = 30.60030 35.62413 33.11222
#
# Velocity S-wave (km/s) = 3.77519 4.07332 3.92709
# Velocity P-wave (km/s) = 6.66392 7.46284 7.07467
#
# Compressibility (1/GPa) = 0.01833301
#
# Stress axis : x y z
#
# Youngs Moduli (GPa) = 55.66675 54.83937 99.50268
#
# Poissons Ratio (x) = 0.18354 0.55405
# Poissons Ratio (y) = 0.18631 0.50180
# Poissons Ratio (z) = 0.30996 0.27656
#
# Static dielectric constant tensor:
#      x y z
#    x 3.912600 -0.226360 0.246600 
#    y -0.226360 4.170320 -0.121830 
#    z 0.246600 -0.121830 3.958470 
# 
# 
# High freq. dielectric constant tensor:
#      x y z
#    x 1.843730 -0.010860 0.018910 
#    y -0.010860 1.845160 -0.003000 
#    z 0.018910 -0.003000 1.845930 
# 
# From -- ./inp_files/293523.got.cif
#   From: 2010.06.25/outbox.cif.g09.slc.cpg/sg2_147_cif.got.tgz:293523.got - 2010.06.27 13:26:56.
