data_PCOD8007886
_publ_section_title
;
Structure prediction by ZEFSAII (Michael W. Deem and Ramdas Pophale) SiO2 
 PCOD8007886
Probable space group: P -1
;
_chemical_formula_sum "Si O2"
_cell_formula_units_Z 16
_cell_length_a 11.779793
_cell_length_b 22.605178
_cell_length_c 17.079607
_cell_angle_alpha 159.654755
_cell_angle_beta 41.190523
_cell_angle_gamma 149.816358
_cell_volume 750.019831
_symmetry_space_group_name_H-M "P -1"
_symmetry_group_IT_number 2
_symmetry_cell_setting 'triclinic'
loop_
_space_group_symop_operation_xyz
x,y,z
-x,-y,-z
loop_
_atom_site_type_symbol
_atom_site_label
_atom_site_fract_x
_atom_site_fract_y
_atom_site_fract_z
Si Si1 0.843977 0.463797 0.254974
Si Si2 0.748071 0.773615 0.161116
Si Si3 0.165012 0.161468 0.328854
Si Si4 0.007526 0.149418 0.116394
Si Si5 0.569805 0.077368 0.224204
Si Si6 0.471503 0.709096 0.355241
Si Si7 0.627536 0.228772 0.668245
Si Si8 0.653360 0.358599 0.386105
O O1 0.778697 0.609845 0.443699
O O2 0.851558 0.458457 0.339501
O O3 0.087575 0.572586 0.220497
O O4 0.642205 0.200743 0.001770
O O5 0.707146 0.773537 0.276501
O O6 0.512991 0.693647 0.139879
O O7 0.751524 0.577679 0.891364
O O8 0.994130 0.037496 0.339496
O O9 0.412218 0.238346 0.315187
O O10 0.016589 0.957809 0.087507
O O11 0.802420 0.151710 0.233921
O O12 0.257637 0.422977 0.335029
O O13 0.000000 0.000000 0.000000
O O14 0.496711 0.198388 0.459507
O O15 0.613875 0.164688 0.219727
O O16 0.412682 0.828241 0.475357
O O17 0.500000 0.000000 0.500000
#
# Coordination Sequence:
#
# PCOD8007886 Si02
#       8
#     2   2   2   2   2   2   2   2
#     4  12  23  42  67  98 142 180 226 287 349 408
#     4   9  21  41  71  92 131 185 221 289 343 402
#     4  12  24  45  68 101 143 176 237 279 351 417
#     4  12  25  43  69  98 140 184 225 284 351 406
#     4  12  26  43  66 106 140 180 234 286 344 417
#     4   9  21  43  66  94 133 173 233 278 344 402
#     4  10  20  41  70  98 125 181 232 275 346 406
#     4  12  26  43  67 103 139 188 226 281 349 415
#
# _framework density 21.33277
#
# number of rings (size 3 to 8) (size 9 to 14) (size 15 to 20)
#    0.750    0.250    3.750    3.375    1.750    0.000 
#    0.000    6.250    0.000    0.000    0.000    0.000 
#    0.000    0.000    0.000    0.000    0.000    0.000 
#
# Total GULP energy -198248.489051 kJ/mol
# GULP energy per Si atom -12390.530566 kJ/mol
# Density = 2.128422 g / cm^3
# Si number density = 21.332770 Si / 1000 Ang^3
#
#
#
# Elastic Constant Matrix: (Units=GPa)
#
#
# Indices 1 2 3 4 5 6 
#
# 1 93.9660 36.9735 21.1602 7.5969 -12.7949 -6.2452
# 2 36.9735 112.2058 35.8230 17.6237 -14.0413 -10.6115
# 3 21.1602 35.8230 93.6908 2.5047 -5.5143 -14.2371
# 4 7.5969 17.6237 2.5047 33.7193 -2.8233 -5.1887
# 5 -12.7949 -14.0413 -5.5143 -2.8233 32.2207 4.8506
# 6 -6.2452 -10.6115 -14.2371 -5.1887 4.8506 33.3793
#
#
#
# Elastic Compliance Matrix: (Units=1/GPa)
#
#
# Indices 1 2 3 4 5 6 
#
# 1 0.012745 -0.003190 -0.001417 -0.000795 0.003335 0.000158
# 2 -0.003190 0.012343 -0.003602 -0.005130 0.002961 0.000563
# 3 -0.001417 -0.003602 0.012976 0.001892 -0.000420 0.004480
# 4 -0.000795 -0.005130 0.001892 0.033019 0.000040 0.004154
# 5 0.003335 0.002961 -0.000420 0.000040 0.034119 -0.003566
# 6 0.000158 0.000563 0.004480 0.004154 -0.003566 0.033242
#
#
# Mechanical properties :
#
#
# Convention : Reuss Voigt Hill
#
# Bulk Modulus (GPa) = 46.19826 54.19733 50.19779
# Shear Modulus (GPa) = 30.84923 33.59093 32.22008
#
# Velocity S-wave (km/s) = 3.80688 3.97245 3.89055
# Velocity P-wave (km/s) = 6.40517 6.81919 6.61542
#
# Compressibility (1/GPa) = 0.02164584
#
# Stress axis : x y z
#
# Youngs Moduli (GPa) = 78.45930 81.01795 77.06481
#
# Poissons Ratio (x) = 0.25846 0.10922
# Poissons Ratio (y) = 0.25030 0.27758
# Poissons Ratio (z) = 0.11120 0.29182
#
# Static dielectric constant tensor:
#      x y z
#    x 3.940450 -0.098440 -0.145490 
#    y -0.098440 3.898530 0.054650 
#    z -0.145490 0.054650 3.807260 
# 
# 
# High freq. dielectric constant tensor:
#      x y z
#    x 1.827550 -0.010260 -0.022910 
#    y -0.010260 1.842100 0.010220 
#    z -0.022910 0.010220 1.829960 
# 
# From -- ./inp_files/570977.got.cif
#   From: 2010.06.25/outbox.cif.g09.slc.cpg/sg2_286_cif.got.tgz:570977.got - 2010.06.27 13:26:56.
