data_PCOD8007849
_publ_section_title
;
Structure prediction by ZEFSAII (Michael W. Deem and Ramdas Pophale) SiO2 
 PCOD8007849
Probable space group: P -1
;
_chemical_formula_sum "Si O2"
_cell_formula_units_Z 16
_cell_length_a 16.076551
_cell_length_b 11.374644
_cell_length_c 7.878122
_cell_angle_alpha 38.637963
_cell_angle_beta 80.057168
_cell_angle_gamma 62.138540
_cell_volume 745.401405
_symmetry_space_group_name_H-M "P -1"
_symmetry_group_IT_number 2
_symmetry_cell_setting 'triclinic'
loop_
_space_group_symop_operation_xyz
x,y,z
-x,-y,-z
loop_
_atom_site_type_symbol
_atom_site_label
_atom_site_fract_x
_atom_site_fract_y
_atom_site_fract_z
Si Si1 0.276273 0.041812 0.884051
Si Si2 0.312165 0.604292 0.271604
Si Si3 0.077915 0.379446 0.758312
Si Si4 0.084399 0.023617 0.363092
Si Si5 0.759536 0.035720 0.364531
Si Si6 0.811160 0.424953 0.368649
Si Si7 0.569612 0.850022 0.396522
Si Si8 0.642295 0.843537 0.748826
O O1 0.193541 0.188570 0.887234
O O2 0.369275 0.071338 0.823475
O O3 0.217414 0.120669 0.634030
O O4 0.326587 0.772751 0.194159
O O5 0.232948 0.563234 0.441019
O O6 0.414093 0.368333 0.460250
O O7 0.274017 0.717973 0.969831
O O8 0.091783 0.554652 0.664788
O O9 0.000000 0.500000 0.500000
O O10 0.033772 0.255555 0.015998
O O11 0.143268 0.056599 0.454012
O O12 0.154425 0.812944 0.456271
O O13 0.000000 0.000000 0.500000
O O14 0.674535 0.023810 0.512732
O O15 0.729778 0.614936 0.058519
O O16 0.611158 0.788255 0.643612
O O17 0.452519 0.042814 0.218596
#
# Coordination Sequence:
#
# PCOD8007849 Si02
#       8
#     2   2   2   2   2   2   2   2
#     4   9  21  43  64  94 130 167 219 262 317 386
#     4  10  21  39  68  88 130 176 210 258 324 377
#     4  12  27  44  68  94 130 171 218 272 327 393
#     4  12  27  44  66  98 128 167 224 270 326 391
#     4   9  21  42  64  90 133 169 209 272 314 381
#     4  12  25  44  67  95 131 175 210 275 326 380
#     4  10  20  41  69  97 130 178 216 261 322 386
#     4  10  22  41  67  98 136 169 218 267 324 380
#
# _framework density 21.464946000000001
#
# number of rings (size 3 to 8) (size 9 to 14) (size 15 to 20)
#    0.750    0.750    3.750    0.750    3.500    4.000 
#    2.250    0.625    0.000    0.000    0.000    0.000 
#    0.000    0.000    0.000    0.000    0.000    0.000 
#
# Total GULP energy -198273.547646 kJ/mol
# GULP energy per Si atom -12392.096728 kJ/mol
# Density = 2.141609 g / cm^3
# Si number density = 21.464946 Si / 1000 Ang^3
#
#
#
# Elastic Constant Matrix: (Units=GPa)
#
#
# Indices 1 2 3 4 5 6 
#
# 1 75.5152 5.6196 25.2645 13.6353 -11.4515 -0.3186
# 2 5.6196 42.0772 5.7229 -5.9902 -11.7326 -4.5667
# 3 25.2645 5.7229 116.2545 7.8986 -17.4951 1.9915
# 4 13.6353 -5.9902 7.8986 26.6953 -3.2684 -4.5660
# 5 -11.4515 -11.7326 -17.4951 -3.2684 32.3982 9.0765
# 6 -0.3186 -4.5667 1.9915 -4.5660 9.0765 31.9804
#
#
#
# Elastic Compliance Matrix: (Units=1/GPa)
#
#
# Indices 1 2 3 4 5 6 
#
# 1 0.016138 -0.002258 -0.002298 -0.008015 0.003436 -0.002138
# 2 -0.002258 0.028350 -0.000130 0.009176 0.009589 0.002622
# 3 -0.002298 -0.000130 0.010014 -0.001599 0.005038 -0.002323
# 4 -0.008015 0.009176 -0.001599 0.045589 0.002205 0.007213
# 5 0.003436 0.009589 0.005038 0.002205 0.041394 -0.010344
# 6 -0.002138 0.002622 -0.002323 0.007213 -0.010344 0.035732
#
#
# Mechanical properties :
#
#
# Convention : Reuss Voigt Hill
#
# Bulk Modulus (GPa) = 22.15778 34.11788 28.13783
# Shear Modulus (GPa) = 24.79756 31.36413 28.08084
#
# Velocity S-wave (km/s) = 3.40260 3.82668 3.62085
# Velocity P-wave (km/s) = 5.07760 5.95432 5.53335
#
# Compressibility (1/GPa) = 0.04513088
#
# Stress axis : x y z
#
# Youngs Moduli (GPa) = 61.96411 35.27370 99.85854
#
# Poissons Ratio (x) = 0.07964 0.22945
# Poissons Ratio (y) = 0.13990 0.01300
# Poissons Ratio (z) = 0.14238 0.00459
#
# Static dielectric constant tensor:
#      x y z
#    x 3.978520 0.105150 -0.541160 
#    y 0.105150 3.912930 -0.061540 
#    z -0.541160 -0.061540 4.113370 
# 
# 
# High freq. dielectric constant tensor:
#      x y z
#    x 1.827490 0.003410 -0.021040 
#    y 0.003410 1.841950 0.004450 
#    z -0.021040 0.004450 1.846710 
# 
# From -- ./inp_files/306073.got.cif
#   From: 2010.06.25/outbox.cif.g09.slc.cpg/sg2_154_cif.got.tgz:306073.got - 2010.06.27 13:26:56.
