data_PCOD8007549
_publ_section_title
;
Structure prediction by ZEFSAII (Michael W. Deem and Ramdas Pophale) SiO2 
 PCOD8007549
Probable space group: P -1
;
_chemical_formula_sum "Si O2"
_cell_formula_units_Z 14
_cell_length_a 10.565403
_cell_length_b 8.547938
_cell_length_c 13.779343
_cell_angle_alpha 73.357587
_cell_angle_beta 29.655703
_cell_angle_gamma 79.019139
_cell_volume 585.448833
_symmetry_space_group_name_H-M "P -1"
_symmetry_group_IT_number 2
_symmetry_cell_setting 'triclinic'
loop_
_space_group_symop_operation_xyz
x,y,z
-x,-y,-z
loop_
_atom_site_type_symbol
_atom_site_label
_atom_site_fract_x
_atom_site_fract_y
_atom_site_fract_z
Si Si1 0.064131 0.565134 0.100911
Si Si2 0.928187 0.246039 0.139869
Si Si3 0.845955 0.283202 0.612624
Si Si4 0.626617 0.607818 0.715902
Si Si5 0.424806 0.061353 0.827206
Si Si6 0.580198 0.910716 0.560982
Si Si7 0.070631 0.803158 0.209479
O O1 0.928391 0.654679 0.262454
O O2 0.924055 0.382654 0.202906
O O3 0.086276 0.675825 0.970256
O O4 0.349654 0.553062 0.957594
O O5 0.657512 0.116918 0.356265
O O6 0.198932 0.174148 0.972699
O O7 0.725420 0.445591 0.633259
O O8 0.688273 0.128096 0.693887
O O9 0.837022 0.260698 0.738784
O O10 0.150413 0.305254 0.374712
O O11 0.598718 0.729423 0.623809
O O12 0.500451 0.042269 0.668020
O O13 0.328059 0.881651 0.966910
O O14 0.878068 0.947145 0.318387
#
# Coordination Sequence:
#
# PCOD8007549 Si02
#       7
#     2   2   2   2   2   2   2
#     4  10  20  41  65  88 119 158 208 255 296 353
#     4  10  21  40  66  87 118 166 202 249 305 351
#     4  10  22  38  64  91 123 158 206 248 301 360
#     4   9  18  41  61  88 116 161 203 249 294 353
#     4  12  22  42  61  92 127 164 193 248 309 368
#     4  10  23  41  63  91 125 159 204 249 301 361
#     4  11  24  40  60  94 125 160 201 249 304 360
#
# _framework density 23.913277999999998
#
# number of rings (size 3 to 8) (size 9 to 14) (size 15 to 20)
#    0.000    1.714    4.286    0.857    0.000    4.000 
#    2.571    2.857    0.000    0.000    0.000    0.000 
#    0.000    0.000    0.000    0.000    0.000    0.000 
#
# Total GULP energy -173470.236321 kJ/mol
# GULP energy per Si atom -12390.731166 kJ/mol
# Density = 2.385885 g / cm^3
# Si number density = 23.913278 Si / 1000 Ang^3
#
#
#
# Elastic Constant Matrix: (Units=GPa)
#
#
# Indices 1 2 3 4 5 6 
#
# 1 111.5938 49.0271 30.1173 2.1084 -19.1005 28.7178
# 2 49.0271 76.3890 15.7867 6.4735 -7.5794 36.7145
# 3 30.1173 15.7867 85.6638 -2.2883 -17.8375 28.7944
# 4 2.1084 6.4735 -2.2883 30.0572 10.7559 -7.4366
# 5 -19.1005 -7.5794 -17.8375 10.7559 32.8119 0.2763
# 6 28.7178 36.7145 28.7944 -7.4366 0.2763 54.6593
#
#
#
# Elastic Compliance Matrix: (Units=1/GPa)
#
#
# Indices 1 2 3 4 5 6 
#
# 1 0.014172 -0.006618 -0.001546 -0.002765 0.006809 -0.002597
# 2 -0.006618 0.028262 0.005877 -0.014079 0.010659 -0.020571
# 3 -0.001546 0.005877 0.018346 -0.007913 0.013142 -0.013942
# 4 -0.002765 -0.014079 -0.007913 0.050649 -0.025953 0.022100
# 5 0.006809 0.010659 0.013142 -0.025953 0.052735 -0.021458
# 6 -0.002597 -0.020571 -0.013942 0.022100 -0.021458 0.043937
#
#
# Mechanical properties :
#
#
# Convention : Reuss Voigt Hill
#
# Bulk Modulus (GPa) = 17.79232 51.50098 34.64665
# Shear Modulus (GPa) = 21.60667 35.42006 28.51336
#
# Velocity S-wave (km/s) = 3.00916 3.85280 3.45681
# Velocity P-wave (km/s) = 4.41926 6.43237 5.51839
#
# Compressibility (1/GPa) = 0.05620403
#
# Stress axis : x y z
#
# Youngs Moduli (GPa) = 70.56269 35.38346 54.50834
#
# Poissons Ratio (x) = 0.23417 0.08428
# Poissons Ratio (y) = 0.46699 -0.32032
# Poissons Ratio (z) = 0.10910 -0.20793
#
# Static dielectric constant tensor:
#      x y z
#    x 4.393650 -0.104360 -0.500750 
#    y -0.104360 4.425770 -0.162660 
#    z -0.500750 -0.162660 4.733150 
# 
# 
# High freq. dielectric constant tensor:
#      x y z
#    x 1.950090 -0.014540 -0.024190 
#    y -0.014540 1.958420 -0.005980 
#    z -0.024190 -0.005980 1.946010 
# 
# From -- ./inp_files/253420.got.cif
#   From: 2010.06.25/outbox.cif.g09.slc.cpg/sg2_127_cif.got.tgz:253420.got - 2010.06.27 13:26:56.
