data_PCOD8007158
_publ_section_title
;
Structure prediction by ZEFSAII (Michael W. Deem and Ramdas Pophale) SiO2 
 PCOD8007158
Probable space group: P -1
;
_chemical_formula_sum "Si O2"
_cell_formula_units_Z 16
_cell_length_a 8.740847
_cell_length_b 14.354620
_cell_length_c 11.721794
_cell_angle_alpha 30.229986
_cell_angle_beta 93.541887
_cell_angle_gamma 84.305735
_cell_volume 704.167352
_symmetry_space_group_name_H-M "P -1"
_symmetry_group_IT_number 2
_symmetry_cell_setting 'triclinic'
loop_
_space_group_symop_operation_xyz
x,y,z
-x,-y,-z
loop_
_atom_site_type_symbol
_atom_site_label
_atom_site_fract_x
_atom_site_fract_y
_atom_site_fract_z
Si Si1 0.052527 0.186636 0.337648
Si Si2 0.585735 0.995788 0.388900
Si Si3 0.921215 0.453431 0.660177
Si Si4 0.882362 0.936617 0.979000
Si Si5 0.564190 0.624264 0.133075
Si Si6 0.427386 0.800723 0.398108
Si Si7 0.364894 0.264067 0.733013
Si Si8 0.909908 0.509086 0.159344
O O1 0.228048 0.123780 0.469585
O O2 0.926174 0.321793 0.278605
O O3 0.051445 0.315931 0.090112
O O4 0.000000 0.000000 0.500000
O O5 0.493403 0.900698 0.396126
O O6 0.500000 0.000000 0.500000
O O7 0.568692 0.214723 0.115443
O O8 0.728707 0.526575 0.552628
O O9 0.000000 0.500000 0.500000
O O10 0.962863 0.562826 0.655997
O O11 0.998517 0.222381 0.930566
O O12 0.767889 0.112320 0.711578
O O13 0.766149 0.848767 0.140978
O O14 0.000000 0.000000 0.000000
O O15 0.518320 0.427238 0.334708
O O16 0.562667 0.699801 0.181975
O O17 0.734522 0.594262 0.113786
O O18 0.495808 0.849513 0.227961
#
# Coordination Sequence:
#
# PCOD8007158 Si02
#       8
#     2   2   2   2   2   2   2   2
#     4  11  28  49  76 104 137 183 248 305 355 415
#     4  12  27  50  72 104 144 192 246 298 348 428
#     4  10  20  40  68 100 143 182 228 281 358 425
#     4  11  23  40  70 106 143 192 237 283 359 430
#     4  12  25  45  77 102 143 195 235 290 366 434
#     4  12  27  46  72 106 149 191 235 298 362 424
#     4  11  23  47  68 108 153 181 237 301 354 438
#     4  11  23  47  72 105 144 182 236 304 355 421
#
# _framework density 22.721869999999999
#
# number of rings (size 3 to 8) (size 9 to 14) (size 15 to 20)
#    0.000    0.750    5.000    2.250    3.500    3.500 
#    2.250    0.000    0.000    0.000    0.000    0.000 
#    0.000    0.000    0.000    0.000    0.000    0.000 
#
# Total GULP energy -198394.178247 kJ/mol
# GULP energy per Si atom -12399.636140 kJ/mol
# Density = 2.267015 g / cm^3
# Si number density = 22.721870 Si / 1000 Ang^3
#
#
#
# Elastic Constant Matrix: (Units=GPa)
#
#
# Indices 1 2 3 4 5 6 
#
# 1 49.6229 25.9669 21.5981 -2.0551 15.0893 6.7619
# 2 25.9669 149.6720 48.0234 1.6124 -4.0480 0.0528
# 3 21.5981 48.0234 118.1508 3.0027 5.7309 14.0278
# 4 -2.0551 1.6124 3.0027 35.3128 8.1900 -5.0620
# 5 15.0893 -4.0480 5.7309 8.1900 44.0528 -1.5481
# 6 6.7619 0.0528 14.0278 -5.0620 -1.5481 36.8195
#
#
#
# Elastic Compliance Matrix: (Units=1/GPa)
#
#
# Indices 1 2 3 4 5 6 
#
# 1 0.027247 -0.004287 -0.002361 0.003788 -0.010265 -0.004009
# 2 -0.004287 0.008475 -0.003010 -0.000764 0.002849 0.001937
# 3 -0.002361 -0.003010 0.010642 -0.001279 -0.000749 -0.003824
# 4 0.003788 -0.000764 -0.001279 0.030795 -0.006795 0.003741
# 5 -0.010265 0.002849 -0.000749 -0.006795 0.027923 0.002406
# 6 -0.004009 0.001937 -0.003824 0.003741 0.002406 0.029965
#
#
# Mechanical properties :
#
#
# Convention : Reuss Voigt Hill
#
# Bulk Modulus (GPa) = 36.96978 56.51361 46.74169
# Shear Modulus (GPa) = 30.60378 38.02751 34.31564
#
# Velocity S-wave (km/s) = 3.67398 4.09541 3.89041
# Velocity P-wave (km/s) = 5.85691 6.87671 6.38719
#
# Compressibility (1/GPa) = 0.02704912
#
# Stress axis : x y z
#
# Youngs Moduli (GPa) = 36.70099 117.98936 93.97104
#
# Poissons Ratio (x) = 0.50578 0.22185
# Poissons Ratio (y) = 0.15733 0.28285
# Poissons Ratio (z) = 0.08665 0.35514
#
# Static dielectric constant tensor:
#      x y z
#    x 3.972440 -0.333640 0.519960 
#    y -0.333640 4.298470 -0.162980 
#    z 0.519960 -0.162980 4.899200 
# 
# 
# High freq. dielectric constant tensor:
#      x y z
#    x 1.885810 -0.009640 0.017710 
#    y -0.009640 1.905060 -0.005180 
#    z 0.017710 -0.005180 1.914720 
# 
# From -- ./inp_files/398202.got.cif
#   From: 2010.06.25/outbox.cif.g09.slc.cpg/sg2_200_cif.got.tgz:398202.got - 2010.06.27 13:26:56.
