data_PCOD8007971
_publ_section_title
;
Structure prediction by ZEFSAII (Michael W. Deem and Ramdas Pophale) SiO2 
 PCOD8007971
Probable space group: P -1
;
_chemical_formula_sum "Si O2"
_cell_formula_units_Z 14
_cell_length_a 14.497890
_cell_length_b 11.453033
_cell_length_c 17.723264
_cell_angle_alpha 30.764813
_cell_angle_beta 32.247829
_cell_angle_gamma 28.660208
_cell_volume 669.577455
_symmetry_space_group_name_H-M "P -1"
_symmetry_group_IT_number 2
_symmetry_cell_setting 'triclinic'
loop_
_space_group_symop_operation_xyz
x,y,z
-x,-y,-z
loop_
_atom_site_type_symbol
_atom_site_label
_atom_site_fract_x
_atom_site_fract_y
_atom_site_fract_z
Si Si1 0.075204 0.875924 0.187725
Si Si2 0.686684 0.864086 0.160192
Si Si3 0.089984 0.079707 0.567291
Si Si4 0.620771 0.714218 0.749499
Si Si5 0.324614 0.023722 0.658775
Si Si6 0.423827 0.482290 0.644094
Si Si7 0.208499 0.518443 0.559446
O O1 0.225622 0.613477 0.176173
O O2 0.084556 0.800283 0.312058
O O3 0.836816 0.023735 0.244963
O O4 0.137368 0.093255 0.014030
O O5 0.605742 0.771118 0.196805
O O6 0.792339 0.610691 0.287822
O O7 0.489075 0.151730 0.168793
O O8 0.257323 0.148708 0.436260
O O9 0.995822 0.191593 0.486011
O O10 0.204210 0.754024 0.666027
O O11 0.433129 0.799536 0.774400
O O12 0.203278 0.329149 0.604650
O O13 0.500000 0.000000 0.500000
O O14 0.500000 0.500000 0.500000
O O15 0.599159 0.444718 0.601603
#
# Coordination Sequence:
#
# PCOD8007971 Si02
#       7
#     2   2   2   2   2   2   2
#     4  12  24  39  62  93 128 151 198 256 305 352
#     4  10  24  43  59  89 127 162 192 253 306 348
#     4  12  21  38  66  91 112 161 208 246 291 356
#     4  11  21  39  61  90 122 161 200 242 301 368
#     4  11  19  35  60  89 122 155 198 244 302 356
#     4  10  20  42  62  85 122 158 207 243 288 364
#     4  10  21  37  63  88 114 159 208 238 292 360
#
# _framework density 20.908708000000001
#
# number of rings (size 3 to 8) (size 9 to 14) (size 15 to 20)
#    0.000    1.143    7.143    1.714    0.000    5.143 
#    2.571    0.714    0.000    0.000    0.000    0.000 
#    0.000    0.000    0.000    0.000    0.000    0.000 
#
# Total GULP energy -173495.654085 kJ/mol
# GULP energy per Si atom -12392.546720 kJ/mol
# Density = 2.086112 g / cm^3
# Si number density = 20.908708 Si / 1000 Ang^3
#
#
#
# Elastic Constant Matrix: (Units=GPa)
#
#
# Indices 1 2 3 4 5 6 
#
# 1 71.9470 21.1738 42.9895 -1.4516 -16.8070 -12.4654
# 2 21.1738 72.7081 22.3745 3.6820 -7.2201 -8.0379
# 3 42.9895 22.3745 125.3707 6.4627 -32.1192 -0.5783
# 4 -1.4516 3.6820 6.4627 15.8838 -0.1206 -2.3810
# 5 -16.8070 -7.2201 -32.1192 -0.1206 32.6027 -0.8849
# 6 -12.4654 -8.0379 -0.5783 -2.3810 -0.8849 33.0554
#
#
#
# Elastic Compliance Matrix: (Units=1/GPa)
#
#
# Indices 1 2 3 4 5 6 
#
# 1 0.020733 -0.003334 -0.005601 0.006102 0.004657 0.007474
# 2 -0.003334 0.015595 -0.001359 -0.003018 0.000447 0.002306
# 3 -0.005601 -0.001359 0.012819 -0.005698 0.009355 -0.002379
# 4 0.006102 -0.003018 -0.005698 0.067450 -0.002717 0.006253
# 5 0.004657 0.000447 0.009355 -0.002717 0.042459 0.002969
# 6 0.007474 0.002306 -0.002379 0.006253 0.002969 0.034120
#
#
# Mechanical properties :
#
#
# Convention : Reuss Voigt Hill
#
# Bulk Modulus (GPa) = 35.01702 49.23350 42.12526
# Shear Modulus (GPa) = 22.39299 28.54090 25.46694
#
# Velocity S-wave (km/s) = 3.27615 3.69863 3.49378
# Velocity P-wave (km/s) = 5.57627 6.46822 6.03873
#
# Compressibility (1/GPa) = 0.02855754
#
# Stress axis : x y z
#
# Youngs Moduli (GPa) = 48.23161 64.12307 78.00944
#
# Poissons Ratio (x) = 0.21382 0.43696
# Poissons Ratio (y) = 0.16083 0.10602
# Poissons Ratio (z) = 0.27016 0.08714
#
# Static dielectric constant tensor:
#      x y z
#    x 4.250780 0.187820 -0.386810 
#    y 0.187820 3.782670 0.035200 
#    z -0.386810 0.035200 3.579920 
# 
# 
# High freq. dielectric constant tensor:
#      x y z
#    x 1.818000 0.003550 -0.021660 
#    y 0.003550 1.814030 0.004590 
#    z -0.021660 0.004590 1.792770 
# 
# From -- ./inp_files/272949.got.cif
#   From: 2010.06.25/outbox.cif.g09.slc.cpg/sg2_137_cif.got.tgz:272949.got - 2010.06.27 13:26:56.
