data_PCOD8007497
_publ_section_title
;
Structure prediction by ZEFSAII (Michael W. Deem and Ramdas Pophale) SiO2 
 PCOD8007497
Probable space group: P -1
;
_chemical_formula_sum "Si O2"
_cell_formula_units_Z 16
_cell_length_a 18.010454
_cell_length_b 21.848537
_cell_length_c 11.417318
_cell_angle_alpha 148.854095
_cell_angle_beta 148.133264
_cell_angle_gamma 19.029570
_cell_volume 735.828424
_symmetry_space_group_name_H-M "P -1"
_symmetry_group_IT_number 2
_symmetry_cell_setting 'triclinic'
loop_
_space_group_symop_operation_xyz
x,y,z
-x,-y,-z
loop_
_atom_site_type_symbol
_atom_site_label
_atom_site_fract_x
_atom_site_fract_y
_atom_site_fract_z
Si Si1 0.402274 0.661366 0.496618
Si Si2 0.348151 0.949751 0.984668
Si Si3 0.981254 0.250079 0.188578
Si Si4 0.755092 0.172120 0.700173
Si Si5 0.124417 0.727315 0.425140
Si Si6 0.650527 0.683734 0.470096
Si Si7 0.251753 0.165486 0.001101
Si Si8 0.390137 0.032595 0.527224
O O1 0.292084 0.759719 0.384790
O O2 0.240530 0.674777 0.367732
O O3 0.668831 0.435499 0.470635
O O4 0.415067 0.768060 0.772179
O O5 0.241740 0.056897 0.892747
O O6 0.580098 0.875879 0.195116
O O7 0.159400 0.100770 0.079201
O O8 0.837054 0.464379 0.311573
O O9 0.809937 0.253409 0.981551
O O10 0.119814 0.179606 0.381444
O O11 0.531057 0.259786 0.596972
O O12 0.976940 0.936610 0.618873
O O13 0.960530 0.719460 0.184615
O O14 0.788803 0.687395 0.739357
O O15 0.524229 0.829044 0.427827
O O16 0.500000 0.000000 0.000000
O O17 0.500000 0.000000 0.500000
#
# Coordination Sequence:
#
# PCOD8007497 Si02
#       8
#     2   2   2   2   2   2   2   2
#     4  11  23  41  66 104 123 172 224 268 335 385
#     4  10  20  41  64  91 135 160 217 275 314 389
#     4  11  24  42  66  91 130 182 213 265 321 387
#     4  12  23  44  65  96 137 166 219 276 328 387
#     4  11  23  39  67  97 131 172 211 272 332 385
#     4  11  25  42  65  96 130 175 219 263 331 391
#     4  11  21  41  66  96 133 168 211 274 333 385
#     4   9  23  42  60  92 125 167 219 263 312 384
#
# _framework density 21.744198999999998
#
# number of rings (size 3 to 8) (size 9 to 14) (size 15 to 20)
#    0.000    1.250    3.750    1.500    1.750    7.000 
#    4.500    1.250    0.000    0.000    0.000    0.000 
#    0.000    0.000    0.000    0.000    0.000    0.000 
#
# Total GULP energy -198396.963273 kJ/mol
# GULP energy per Si atom -12399.810205 kJ/mol
# Density = 2.169471 g / cm^3
# Si number density = 21.744199 Si / 1000 Ang^3
#
#
#
# Elastic Constant Matrix: (Units=GPa)
#
#
# Indices 1 2 3 4 5 6 
#
# 1 28.9769 5.9814 10.1423 6.9192 8.8149 -5.2443
# 2 5.9814 123.2369 59.1581 9.0778 2.0574 -0.2930
# 3 10.1423 59.1581 124.9667 -3.3958 17.3321 -1.4848
# 4 6.9192 9.0778 -3.3958 35.5532 -3.3444 7.1447
# 5 8.8149 2.0574 17.3321 -3.3444 28.0444 -1.4992
# 6 -5.2443 -0.2930 -1.4848 7.1447 -1.4992 17.3002
#
#
#
# Elastic Compliance Matrix: (Units=1/GPa)
#
#
# Indices 1 2 3 4 5 6 
#
# 1 0.046204 0.000040 -0.001994 -0.014227 -0.014001 0.018498
# 2 0.000040 0.011026 -0.005621 -0.003408 0.002317 0.001325
# 3 -0.001994 -0.005621 0.011707 0.002643 -0.005950 -0.001302
# 4 -0.014227 -0.003408 0.002643 0.036362 0.006430 -0.018603
# 5 -0.014001 0.002317 -0.005950 0.006430 0.044143 -0.003546
# 6 0.018498 0.001325 -0.001302 -0.018603 -0.003546 0.070696
#
#
# Mechanical properties :
#
#
# Convention : Reuss Voigt Hill
#
# Bulk Modulus (GPa) = 18.59171 47.52712 33.05941
# Shear Modulus (GPa) = 19.74584 29.63947 24.69265
#
# Velocity S-wave (km/s) = 3.01673 3.69602 3.37352
# Velocity P-wave (km/s) = 4.55005 6.33395 5.51461
#
# Compressibility (1/GPa) = 0.05378742
#
# Stress axis : x y z
#
# Youngs Moduli (GPa) = 21.64307 90.69084 85.42140
#
# Poissons Ratio (x) = -0.00366 0.17033
# Poissons Ratio (y) = -0.00087 0.48018
# Poissons Ratio (z) = 0.04316 0.50980
#
# Static dielectric constant tensor:
#      x y z
#    x 3.770710 0.074330 0.174820 
#    y 0.074330 4.090160 -0.317340 
#    z 0.174820 -0.317340 4.620410 
# 
# 
# High freq. dielectric constant tensor:
#      x y z
#    x 1.840630 0.001310 0.014510 
#    y 0.001310 1.850150 -0.010140 
#    z 0.014510 -0.010140 1.870440 
# 
# From -- ./inp_files/427579.got.cif
#   From: 2010.06.25/outbox.cif.g09.slc.cpg/sg2_214_cif.got.tgz:427579.got - 2010.06.27 13:26:56.
