data_PCOD8007652
_publ_section_title
;
Structure prediction by ZEFSAII (Michael W. Deem and Ramdas Pophale) SiO2 
 PCOD8007652
Probable space group: P -1
;
_chemical_formula_sum "Si O2"
_cell_formula_units_Z 14
_cell_length_a 11.956878
_cell_length_b 8.462894
_cell_length_c 11.746387
_cell_angle_alpha 99.687487
_cell_angle_beta 97.871217
_cell_angle_gamma 34.784323
_cell_volume 668.420221
_symmetry_space_group_name_H-M "P -1"
_symmetry_group_IT_number 2
_symmetry_cell_setting 'triclinic'
loop_
_space_group_symop_operation_xyz
x,y,z
-x,-y,-z
loop_
_atom_site_type_symbol
_atom_site_label
_atom_site_fract_x
_atom_site_fract_y
_atom_site_fract_z
Si Si1 0.576629 0.003551 0.399884
Si Si2 0.200751 0.505084 0.792921
Si Si3 0.988993 0.017116 0.326006
Si Si4 0.871934 0.716779 0.907195
Si Si5 0.717492 0.571290 0.776698
Si Si6 0.518048 0.791688 0.998523
Si Si7 0.717541 0.176739 0.494983
O O1 0.398988 0.295626 0.342784
O O2 0.718603 0.982874 0.456636
O O3 0.500000 0.000000 0.500000
O O4 0.690463 0.752309 0.300890
O O5 0.152658 0.717626 0.741387
O O6 0.330959 0.415908 0.904431
O O7 0.997866 0.671623 0.831745
O O8 0.846407 0.114532 0.412263
O O9 0.081201 0.759900 0.241938
O O10 0.170562 0.915785 0.382642
O O11 0.768793 0.695268 0.821264
O O12 0.696152 0.029138 0.974907
O O13 0.000000 0.500000 0.000000
O O14 0.591725 0.634581 0.869247
O O15 0.500000 0.000000 0.000000
O O16 0.500000 0.500000 0.500000
#
# Coordination Sequence:
#
# PCOD8007652 Si02
#       7
#     2   2   2   2   2   2   2
#     4  12  25  42  74  99 131 179 226 277 333 392
#     4  12  24  42  67 102 131 169 230 278 321 404
#     4  11  27  42  68  99 136 182 221 271 340 398
#     4  11  20  40  72  95 127 179 224 273 330 390
#     4  11  22  45  66  97 138 173 220 271 343 398
#     4  10  20  41  66  94 134 168 219 276 329 391
#     4  11  24  48  66  93 142 181 221 274 335 394
#
# _framework density 20.944908000000002
#
# number of rings (size 3 to 8) (size 9 to 14) (size 15 to 20)
#    0.000    0.857    7.143    1.714    4.000    2.286 
#    0.000    0.714    0.000    0.000    0.000    0.000 
#    0.000    0.000    0.000    0.000    0.000    0.000 
#
# Total GULP energy -173588.268607 kJ/mol
# GULP energy per Si atom -12399.162043 kJ/mol
# Density = 2.089724 g / cm^3
# Si number density = 20.944908 Si / 1000 Ang^3
#
#
#
# Elastic Constant Matrix: (Units=GPa)
#
#
# Indices 1 2 3 4 5 6 
#
# 1 83.6516 26.4052 32.8434 -8.2913 -12.1683 -15.5038
# 2 26.4052 120.2552 39.3971 0.8178 -10.2859 -7.6638
# 3 32.8434 39.3971 109.3304 -7.8444 -13.7768 -7.4920
# 4 -8.2913 0.8178 -7.8444 42.4292 -7.0112 -8.2811
# 5 -12.1683 -10.2859 -13.7768 -7.0112 23.5069 -0.8393
# 6 -15.5038 -7.6638 -7.4920 -8.2811 -0.8393 38.7365
#
#
#
# Elastic Compliance Matrix: (Units=1/GPa)
#
#
# Indices 1 2 3 4 5 6 
#
# 1 0.016539 -0.001710 -0.002408 0.005600 0.008329 0.007193
# 2 -0.001710 0.009793 -0.002825 -0.000670 0.001566 0.000597
# 3 -0.002408 -0.002825 0.011891 0.002978 0.005429 0.001531
# 4 0.005600 -0.000670 0.002978 0.029242 0.013402 0.009227
# 5 0.008329 0.001566 0.005429 0.013402 0.055029 0.008751
# 6 0.007193 0.000597 0.001531 0.009227 0.008751 0.031271
#
#
# Mechanical properties :
#
#
# Convention : Reuss Voigt Hill
#
# Bulk Modulus (GPa) = 41.08947 56.72542 48.90744
# Shear Modulus (GPa) = 28.44721 35.24062 31.84392
#
# Velocity S-wave (km/s) = 3.68936 4.10633 3.90342
# Velocity P-wave (km/s) = 6.14890 7.04447 6.61186
#
# Compressibility (1/GPa) = 0.02433714
#
# Stress axis : x y z
#
# Youngs Moduli (GPa) = 60.46165 102.11136 84.09890
#
# Poissons Ratio (x) = 0.17461 0.20251
# Poissons Ratio (y) = 0.10339 0.23759
# Poissons Ratio (z) = 0.14559 0.28847
#
# Static dielectric constant tensor:
#      x y z
#    x 3.772580 -0.259960 -0.130310 
#    y -0.259960 4.042270 0.268740 
#    z -0.130310 0.268740 4.245990 
# 
# 
# High freq. dielectric constant tensor:
#      x y z
#    x 1.806400 -0.017020 -0.008120 
#    y -0.017020 1.830510 0.003100 
#    z -0.008120 0.003100 1.833020 
# 
# From -- ./inp_files/77267.got.cif
#   From: 2010.06.25/outbox.cif.g09.slc.cpg/sg2_39_cif.got.tgz:77267.got - 2010.06.27 13:26:56.
