data_PCOD8007953
_publ_section_title
;
Structure prediction by ZEFSAII (Michael W. Deem and Ramdas Pophale) SiO2 
 PCOD8007953
Probable space group: P -1
;
_chemical_formula_sum "Si O2"
_cell_formula_units_Z 16
_cell_length_a 13.472199
_cell_length_b 14.561007
_cell_length_c 8.976407
_cell_angle_alpha 39.059962
_cell_angle_beta 111.950499
_cell_angle_gamma 127.272362
_cell_volume 866.494587
_symmetry_space_group_name_H-M "P -1"
_symmetry_group_IT_number 2
_symmetry_cell_setting 'triclinic'
loop_
_space_group_symop_operation_xyz
x,y,z
-x,-y,-z
loop_
_atom_site_type_symbol
_atom_site_label
_atom_site_fract_x
_atom_site_fract_y
_atom_site_fract_z
Si Si1 0.354231 0.223280 0.294781
Si Si2 0.032098 0.137451 0.717825
Si Si3 0.369922 0.532863 0.762928
Si Si4 0.820886 0.489572 0.526514
Si Si5 0.895616 0.292312 0.014654
Si Si6 0.875793 0.947949 0.402115
Si Si7 0.802345 0.131669 0.472624
Si Si8 0.835872 0.429849 0.289217
O O1 0.487370 0.303063 0.354204
O O2 0.247857 0.185979 0.403704
O O3 0.325689 0.049264 0.414959
O O4 0.364440 0.355634 0.007933
O O5 0.088670 0.324227 0.584961
O O6 0.127778 0.139767 0.646415
O O7 0.902191 0.079199 0.634360
O O8 0.000000 0.000000 0.000000
O O9 0.314509 0.536021 0.563856
O O10 0.281492 0.543144 0.828450
O O11 0.884970 0.470809 0.436207
O O12 0.807060 0.345780 0.814189
O O13 0.852973 0.263592 0.197242
O O14 0.874350 0.118521 0.148796
O O15 0.044779 0.442204 0.907695
O O16 0.000000 0.000000 0.500000
O O17 0.781914 0.229207 0.473214
#
# Coordination Sequence:
#
# PCOD8007953 Si02
#       8
#     2   2   2   2   2   2   2   2
#     4  10  20  42  59  85 115 150 203 236 279 344
#     4  12  23  35  57  90 120 147 190 242 293 344
#     4   9  22  38  62  79 118 160 191 234 283 346
#     4  10  23  36  55  87 117 154 189 232 296 337
#     4  11  20  36  56  88 122 146 189 239 297 341
#     4  11  22  37  61  88 115 152 190 245 291 337
#     4  11  23  34  59  89 115 147 191 245 285 343
#     4  10  21  36  56  84 119 152 187 231 288 347
#
# _framework density 18.465204
#
# number of rings (size 3 to 8) (size 9 to 14) (size 15 to 20)
#    0.750    0.750    3.750    3.000    1.750    0.500 
#    0.000    3.125    0.000    1.500    0.000    0.000 
#    0.000    0.000    0.000    0.000    0.000    0.000 
#
# Total GULP energy -198332.069271 kJ/mol
# GULP energy per Si atom -12395.754329 kJ/mol
# Density = 1.842318 g / cm^3
# Si number density = 18.465204 Si / 1000 Ang^3
#
#
#
# Elastic Constant Matrix: (Units=GPa)
#
#
# Indices 1 2 3 4 5 6 
#
# 1 59.0903 37.7424 26.9558 -0.0958 -0.0353 7.4629
# 2 37.7424 104.7782 52.1899 -9.1240 -9.1101 -6.6092
# 3 26.9558 52.1899 115.6488 4.5159 15.1350 9.4807
# 4 -0.0958 -9.1240 4.5159 28.6800 4.2529 5.4103
# 5 -0.0353 -9.1101 15.1350 4.2529 22.5887 -1.5815
# 6 7.4629 -6.6092 9.4807 5.4103 -1.5815 51.3650
#
#
#
# Elastic Compliance Matrix: (Units=1/GPa)
#
#
# Indices 1 2 3 4 5 6 
#
# 1 0.023356 -0.008719 -0.000701 -0.001311 -0.003068 -0.004342
# 2 -0.008719 0.018941 -0.008832 0.004455 0.013073 0.005267
# 3 -0.000701 -0.008832 0.014970 -0.002434 -0.013412 -0.003954
# 4 -0.001311 0.004455 -0.002434 0.037785 -0.003890 -0.002887
# 5 -0.003068 0.013073 -0.013412 -0.003890 0.059736 0.006852
# 6 -0.004342 0.005267 -0.003954 -0.002887 0.006852 0.022022
#
#
# Mechanical properties :
#
#
# Convention : Reuss Voigt Hill
#
# Bulk Modulus (GPa) = 48.15973 57.03259 52.59616
# Shear Modulus (GPa) = 22.70297 31.36868 27.03582
#
# Velocity S-wave (km/s) = 3.51023 4.12612 3.83057
# Velocity P-wave (km/s) = 6.52433 7.32485 6.93615
#
# Compressibility (1/GPa) = 0.02076424
#
# Stress axis : x y z
#
# Youngs Moduli (GPa) = 42.81467 52.79631 66.79911
#
# Poissons Ratio (x) = 0.46034 0.04679
# Poissons Ratio (y) = 0.37331 0.58996
# Poissons Ratio (z) = 0.02999 0.46629
#
# Static dielectric constant tensor:
#      x y z
#    x 2.641410 1.037600 -0.355430 
#    y 1.037600 1.514810 0.848310 
#    z -0.355430 0.848310 2.958260 
# 
# 
# High freq. dielectric constant tensor:
#      x y z
#    x 1.699970 -0.008920 0.018330 
#    y -0.008920 1.716560 -0.003690 
#    z 0.018330 -0.003690 1.715960 
# 
# From -- ./inp_files/312395.got.cif
#   From: 2010.06.25/outbox.cif.g09.slc.cpg/sg2_157_cif.got.tgz:312395.got - 2010.06.27 13:26:56.
