data_PCOD8007661
_publ_section_title
;
Structure prediction by ZEFSAII (Michael W. Deem and Ramdas Pophale) SiO2 
 PCOD8007661
Probable space group: P -1
;
_chemical_formula_sum "Si O2"
_cell_formula_units_Z 16
_cell_length_a 9.520653
_cell_length_b 19.073741
_cell_length_c 8.644241
_cell_angle_alpha 60.062990
_cell_angle_beta 99.576908
_cell_angle_gamma 143.722932
_cell_volume 714.600369
_symmetry_space_group_name_H-M "P -1"
_symmetry_group_IT_number 2
_symmetry_cell_setting 'triclinic'
loop_
_space_group_symop_operation_xyz
x,y,z
-x,-y,-z
loop_
_atom_site_type_symbol
_atom_site_label
_atom_site_fract_x
_atom_site_fract_y
_atom_site_fract_z
Si Si1 0.829875 0.804049 0.086869
Si Si2 0.648446 0.869387 0.115995
Si Si3 0.993246 0.642704 0.969253
Si Si4 0.582911 0.883759 0.739780
Si Si5 0.191729 0.356474 0.555818
Si Si6 0.443396 0.307490 0.149689
Si Si7 0.052619 0.220818 0.354203
Si Si8 0.925548 0.372020 0.653161
O O1 0.640867 0.767576 0.207255
O O2 0.942986 0.778351 0.218113
O O3 0.665039 0.702912 0.015419
O O4 0.093401 0.983307 0.896880
O O5 0.394704 0.783996 0.251589
O O6 0.674817 0.919412 0.894092
O O7 0.271244 0.755659 0.812607
O O8 0.954777 0.720536 0.855890
O O9 0.987906 0.618246 0.174896
O O10 0.757206 0.477666 0.028619
O O11 0.615145 0.815858 0.727487
O O12 0.765279 0.039962 0.521507
O O13 0.500000 0.500000 0.500000
O O14 0.142390 0.316264 0.412136
O O15 0.060557 0.380341 0.540184
O O16 0.283142 0.265996 0.312549
O O17 0.000000 0.500000 0.500000
#
# Coordination Sequence:
#
# PCOD8007661 Si02
#       8
#     2   2   2   2   2   2   2   2
#     4  10  20  41  66  95 131 175 217 268 327 383
#     4   9  20  41  68  94 132 171 222 273 320 391
#     4  11  24  45  67  95 137 171 221 280 335 398
#     4  10  22  43  67  99 135 176 221 272 333 395
#     4  12  24  40  67  98 134 174 221 274 328 396
#     4  11  23  41  69  97 134 182 222 268 330 398
#     4  12  24  43  64 103 136 174 222 272 335 396
#     4  11  25  46  68  98 126 172 228 274 332 400
#
# _framework density 22.390138
#
# number of rings (size 3 to 8) (size 9 to 14) (size 15 to 20)
#    0.000    1.250    1.250    4.500    0.000    3.500 
#    6.750    0.000    0.000    0.000    0.000    0.000 
#    0.000    0.000    0.000    0.000    0.000    0.000 
#
# Total GULP energy -198418.425750 kJ/mol
# GULP energy per Si atom -12401.151609 kJ/mol
# Density = 2.233918 g / cm^3
# Si number density = 22.390138 Si / 1000 Ang^3
#
#
#
# Elastic Constant Matrix: (Units=GPa)
#
#
# Indices 1 2 3 4 5 6 
#
# 1 161.6997 60.7628 42.9975 -5.7711 -18.4848 -10.0673
# 2 60.7628 128.7326 41.5696 -17.5095 -15.8460 9.0698
# 3 42.9975 41.5696 89.7104 -13.8799 5.0606 -6.2749
# 4 -5.7711 -17.5095 -13.8799 28.5796 1.1140 -1.3833
# 5 -18.4848 -15.8460 5.0606 1.1140 41.9806 -4.8665
# 6 -10.0673 9.0698 -6.2749 -1.3833 -4.8665 37.8878
#
#
#
# Elastic Compliance Matrix: (Units=1/GPa)
#
#
# Indices 1 2 3 4 5 6 
#
# 1 0.008655 -0.003154 -0.002916 -0.001589 0.003355 0.002945
# 2 -0.003154 0.011647 -0.003618 0.004450 0.002898 -0.003691
# 3 -0.002916 -0.003618 0.015392 0.004949 -0.004375 0.002259
# 4 -0.001589 0.004450 0.004949 0.039857 -0.000592 0.000711
# 5 0.003355 0.002898 -0.004375 -0.000592 0.027277 0.002955
# 6 0.002945 -0.003691 0.002259 0.000711 0.002955 0.028840
#
#
# Mechanical properties :
#
#
# Convention : Reuss Voigt Hill
#
# Bulk Modulus (GPa) = 61.28535 74.53360 67.90948
# Shear Modulus (GPa) = 31.95208 37.34378 34.64793
#
# Velocity S-wave (km/s) = 3.78174 4.08838 3.93805
# Velocity P-wave (km/s) = 6.81908 7.45972 7.14658
#
# Compressibility (1/GPa) = 0.01631711
#
# Stress axis : x y z
#
# Youngs Moduli (GPa) = 115.53728 85.85650 64.96967
#
# Poissons Ratio (x) = 0.27082 0.18944
# Poissons Ratio (y) = 0.36445 0.23508
# Poissons Ratio (z) = 0.33689 0.31066
#
# Static dielectric constant tensor:
#      x y z
#    x 4.451200 0.028660 0.152430 
#    y 0.028660 3.999470 -0.117700 
#    z 0.152430 -0.117700 3.956020 
# 
# 
# High freq. dielectric constant tensor:
#      x y z
#    x 1.893420 0.004710 0.006820 
#    y 0.004710 1.887760 -0.011180 
#    z 0.006820 -0.011180 1.872230 
# 
# From -- ./inp_files/217114.got.cif
#   From: 2010.06.25/outbox.cif.g09.slc.cpg/sg2_109_cif.got.tgz:217114.got - 2010.06.27 13:26:56.
