data_PCOD8007316
_publ_section_title
;
Structure prediction by ZEFSAII (Michael W. Deem and Ramdas Pophale) SiO2 
 PCOD8007316
Probable space group: P -1
;
_chemical_formula_sum "Si O2"
_cell_formula_units_Z 16
_cell_length_a 9.104790
_cell_length_b 19.173394
_cell_length_c 12.123181
_cell_angle_alpha 42.816215
_cell_angle_beta 36.887625
_cell_angle_gamma 37.007942
_cell_volume 737.827581
_symmetry_space_group_name_H-M "P -1"
_symmetry_group_IT_number 2
_symmetry_cell_setting 'triclinic'
loop_
_space_group_symop_operation_xyz
x,y,z
-x,-y,-z
loop_
_atom_site_type_symbol
_atom_site_label
_atom_site_fract_x
_atom_site_fract_y
_atom_site_fract_z
Si Si1 0.237701 0.500879 0.600178
Si Si2 0.757413 0.329165 0.946321
Si Si3 0.835814 0.708513 0.454339
Si Si4 0.046737 0.938565 0.870375
Si Si5 0.567251 0.325370 0.416652
Si Si6 0.835776 0.431916 0.994169
Si Si7 0.369921 0.021767 0.734146
Si Si8 0.003087 0.931842 0.469014
O O1 0.500000 0.500000 0.500000
O O2 0.328331 0.424682 0.522744
O O3 0.985624 0.633685 0.561784
O O4 0.111961 0.445586 0.827647
O O5 0.770786 0.203514 0.096604
O O6 0.899509 0.352004 0.939434
O O7 0.431568 0.434165 0.011916
O O8 0.924436 0.328891 0.738606
O O9 0.589078 0.684574 0.587416
O O10 0.690076 0.847361 0.413285
O O11 0.249290 0.976216 0.764160
O O12 0.939179 0.008041 0.739567
O O13 0.766365 0.976152 0.068183
O O14 0.793710 0.363819 0.200226
O O15 0.732240 0.203296 0.527679
O O16 0.709676 0.931545 0.638818
O O17 0.000000 0.000000 0.500000
#
# Coordination Sequence:
#
# PCOD8007316 Si02
#       8
#     2   2   2   2   2   2   2   2
#     4  12  28  44  68 102 135 177 217 285 341 394
#     4  10  20  40  73  99 126 177 230 277 320 404
#     4  11  21  46  72  94 138 173 234 270 337 406
#     4  10  24  44  69  99 136 181 228 280 342 394
#     4  12  25  45  67 102 135 178 225 277 331 407
#     4  11  23  41  69  98 131 176 225 269 336 396
#     4  10  24  45  68 101 133 187 224 282 338 401
#     4  12  25  42  67 101 140 178 229 277 334 402
#
# _framework density 21.685283999999999
#
# number of rings (size 3 to 8) (size 9 to 14) (size 15 to 20)
#    0.000    1.000    3.750    3.000    3.500    3.000 
#    4.500    0.000    0.000    0.000    0.000    0.000 
#    0.000    0.000    0.000    0.000    0.000    0.000 
#
# Total GULP energy -198477.168995 kJ/mol
# GULP energy per Si atom -12404.823062 kJ/mol
# Density = 2.163593 g / cm^3
# Si number density = 21.685284 Si / 1000 Ang^3
#
#
#
# Elastic Constant Matrix: (Units=GPa)
#
#
# Indices 1 2 3 4 5 6 
#
# 1 95.4246 39.4579 48.9767 -14.9161 -6.7508 -9.5107
# 2 39.4579 76.3283 19.8001 -23.3126 -4.1061 0.4054
# 3 48.9767 19.8001 135.9753 -21.1763 -8.5417 -4.2620
# 4 -14.9161 -23.3126 -21.1763 29.5917 -5.4622 1.6876
# 5 -6.7508 -4.1061 -8.5417 -5.4622 42.9242 -2.0717
# 6 -9.5107 0.4054 -4.2620 1.6876 -2.0717 25.1435
#
#
#
# Elastic Compliance Matrix: (Units=1/GPa)
#
#
# Indices 1 2 3 4 5 6 
#
# 1 0.016568 -0.007684 -0.004803 -0.001277 0.001030 0.005747
# 2 -0.007684 0.021359 0.002103 0.015224 0.003013 -0.003668
# 3 -0.004803 0.002103 0.009969 0.006814 0.002276 -0.000431
# 4 -0.001277 0.015224 0.006814 0.051830 0.009096 -0.002303
# 5 0.001030 0.003013 0.002276 0.009096 0.025464 0.002214
# 6 0.005747 -0.003668 -0.000431 -0.002303 0.002214 0.042269
#
#
# Mechanical properties :
#
#
# Convention : Reuss Voigt Hill
#
# Bulk Modulus (GPa) = 36.86223 58.24419 47.55321
# Shear Modulus (GPa) = 25.34605 32.83144 29.08874
#
# Velocity S-wave (km/s) = 3.42250 3.89523 3.66649
# Velocity P-wave (km/s) = 5.71434 6.86641 6.31669
#
# Compressibility (1/GPa) = 0.02712804
#
# Stress axis : x y z
#
# Youngs Moduli (GPa) = 60.35785 46.81759 100.31495
#
# Poissons Ratio (x) = 0.35975 0.48178
# Poissons Ratio (y) = 0.46379 -0.21093
# Poissons Ratio (z) = 0.28988 -0.09844
#
# Static dielectric constant tensor:
#      x y z
#    x 2.799730 0.969540 -1.070490 
#    y 0.969540 3.207300 0.937810 
#    z -1.070490 0.937810 3.000960 
# 
# 
# High freq. dielectric constant tensor:
#      x y z
#    x 1.833410 0.007210 -0.005730 
#    y 0.007210 1.861100 0.001150 
#    z -0.005730 0.001150 1.872470 
# 
# From -- ./inp_files/278743.got.cif
#   From: 2010.06.25/outbox.cif.g09.slc.cpg/sg2_140_cif.got.tgz:278743.got - 2010.06.27 13:26:56.
