data_PCOD8007443
_publ_section_title
;
Structure prediction by ZEFSAII (Michael W. Deem and Ramdas Pophale) SiO2 
 PCOD8007443
Probable space group: P -1
;
_chemical_formula_sum "Si O2"
_cell_formula_units_Z 16
_cell_length_a 7.297705
_cell_length_b 8.744527
_cell_length_c 16.023543
_cell_angle_alpha 67.245842
_cell_angle_beta 58.052170
_cell_angle_gamma 51.844341
_cell_volume 679.517728
_symmetry_space_group_name_H-M "P -1"
_symmetry_group_IT_number 2
_symmetry_cell_setting 'triclinic'
loop_
_space_group_symop_operation_xyz
x,y,z
-x,-y,-z
loop_
_atom_site_type_symbol
_atom_site_label
_atom_site_fract_x
_atom_site_fract_y
_atom_site_fract_z
Si Si1 0.293706 0.923597 0.537883
Si Si2 0.761787 0.962140 0.655188
Si Si3 0.999144 0.524508 0.714179
Si Si4 0.502317 0.734321 0.021322
Si Si5 0.468872 0.082249 0.868263
Si Si6 0.498939 0.492632 0.402166
Si Si7 0.014641 0.329921 0.585458
Si Si8 0.115816 0.643158 0.069513
O O1 0.363694 0.917811 0.424748
O O2 0.268689 0.114386 0.549825
O O3 0.483599 0.713268 0.579296
O O4 0.020950 0.951373 0.611636
O O5 0.819943 0.743099 0.676180
O O6 0.562821 0.074699 0.753551
O O7 0.030318 0.369072 0.669966
O O8 0.863925 0.492757 0.830338
O O9 0.267170 0.490974 0.689488
O O10 0.442552 0.802824 0.117692
O O11 0.249660 0.760594 0.036396
O O12 0.733104 0.507589 0.010656
O O13 0.582886 0.865542 0.922635
O O14 0.165602 0.196850 0.922865
O O15 0.500000 0.500000 0.500000
O O16 0.242851 0.665257 0.382610
O O17 0.000000 0.500000 0.500000
#
# Coordination Sequence:
#
# PCOD8007443 Si02
#       8
#     2   2   2   2   2   2   2   2
#     4  10  23  40  63  92 134 175 216 258 317 376
#     4  10  20  41  63  92 133 169 208 268 310 377
#     4  11  24  42  61  96 130 167 219 266 317 385
#     4  10  24  46  66  97 129 158 213 274 322 392
#     4  11  23  42  72  94 126 169 211 261 328 390
#     4  11  23  42  64  89 130 179 214 267 321 376
#     4  12  23  42  62  91 132 171 224 269 308 375
#     4  11  24  43  69  95 127 166 208 268 335 382
#
# _framework density 23.546111
#
# number of rings (size 3 to 8) (size 9 to 14) (size 15 to 20)
#    0.000    1.250    3.750    2.250    5.250    0.500 
#    2.250    0.000    0.000    0.000    0.000    0.000 
#    0.000    0.000    0.000    0.000    0.000    0.000 
#
# Total GULP energy -198413.620629 kJ/mol
# GULP energy per Si atom -12400.851289 kJ/mol
# Density = 2.349252 g / cm^3
# Si number density = 23.546111 Si / 1000 Ang^3
#
#
#
# Elastic Constant Matrix: (Units=GPa)
#
#
# Indices 1 2 3 4 5 6 
#
# 1 76.2832 37.5010 14.7908 17.9362 6.2229 11.2233
# 2 37.5010 136.7665 26.3327 24.2182 9.1450 8.5426
# 3 14.7908 26.3327 75.6300 8.6109 -0.6734 16.3927
# 4 17.9362 24.2182 8.6109 24.0691 2.6263 3.1331
# 5 6.2229 9.1450 -0.6734 2.6263 23.1276 1.7331
# 6 11.2233 8.5426 16.3927 3.1331 1.7331 43.1875
#
#
#
# Elastic Compliance Matrix: (Units=1/GPa)
#
#
# Indices 1 2 3 4 5 6 
#
# 1 0.017380 -0.002603 -0.000811 -0.009403 -0.002385 -0.002916
# 2 -0.002603 0.009826 -0.002182 -0.006918 -0.002475 0.000162
# 3 -0.000811 -0.002182 0.015547 -0.002327 0.002186 -0.005178
# 4 -0.009403 -0.006918 -0.002327 0.056399 -0.001256 0.000654
# 5 -0.002385 -0.002475 0.002186 -0.001256 0.045173 -0.001442
# 6 -0.002916 0.000162 -0.005178 0.000654 -0.001442 0.025856
#
#
# Mechanical properties :
#
#
# Convention : Reuss Voigt Hill
#
# Bulk Modulus (GPa) = 31.68413 49.54763 40.61588
# Shear Modulus (GPa) = 26.05608 32.08052 29.06830
#
# Velocity S-wave (km/s) = 3.33017 3.69515 3.51739
# Velocity P-wave (km/s) = 5.31715 6.26849 5.81232
#
# Compressibility (1/GPa) = 0.03156155
#
# Stress axis : x y z
#
# Youngs Moduli (GPa) = 57.53637 101.77307 64.32020
#
# Poissons Ratio (x) = 0.26489 0.05219
# Poissons Ratio (y) = 0.14976 0.14032
# Poissons Ratio (z) = 0.04669 0.22203
#
# Static dielectric constant tensor:
#      x y z
#    x 11.892890 -0.692350 0.677580 
#    y -0.692350 4.820470 -0.074090 
#    z 0.677580 -0.074090 4.110620 
# 
# 
# High freq. dielectric constant tensor:
#      x y z
#    x 1.931680 0.008150 -0.016660 
#    y 0.008150 1.960320 0.001150 
#    z -0.016660 0.001150 1.913380 
# 
# From -- ./inp_files/556037.got.cif
#   From: 2010.06.25/outbox.cif.g09.slc.cpg/sg2_279_cif.got.tgz:556037.got - 2010.06.27 13:26:56.
