data_PCOD8007877
_publ_section_title
;
Structure prediction by ZEFSAII (Michael W. Deem and Ramdas Pophale) SiO2 
 PCOD8007877
Probable space group: P -1
;
_chemical_formula_sum "Si O2"
_cell_formula_units_Z 16
_cell_length_a 14.658625
_cell_length_b 12.020444
_cell_length_c 7.631922
_cell_angle_alpha 106.557188
_cell_angle_beta 116.451657
_cell_angle_gamma 37.932920
_cell_volume 734.736532
_symmetry_space_group_name_H-M "P -1"
_symmetry_group_IT_number 2
_symmetry_cell_setting 'triclinic'
loop_
_space_group_symop_operation_xyz
x,y,z
-x,-y,-z
loop_
_atom_site_type_symbol
_atom_site_label
_atom_site_fract_x
_atom_site_fract_y
_atom_site_fract_z
Si Si1 0.682026 0.857052 0.043254
Si Si2 0.291616 0.760557 0.082186
Si Si3 0.822649 0.785953 0.482888
Si Si4 0.168525 0.467624 0.505973
Si Si5 0.820651 0.890619 0.883256
Si Si6 0.672088 0.441068 0.269076
Si Si7 0.170648 0.508076 0.123108
Si Si8 0.679226 0.387507 0.626699
O O1 0.752388 0.872410 0.269769
O O2 0.706481 0.909861 0.911997
O O3 0.765025 0.657645 0.007689
O O4 0.500000 0.000000 0.000000
O O5 0.482273 0.598881 0.175860
O O6 0.230986 0.776438 0.232224
O O7 0.209006 0.949081 0.025931
O O8 0.242895 0.702448 0.878986
O O9 0.755436 0.722102 0.465403
O O10 0.770498 0.922567 0.649775
O O11 0.012649 0.623140 0.559298
O O12 0.294354 0.452492 0.669256
O O13 0.130109 0.502538 0.282335
O O14 0.005739 0.696533 0.981853
O O15 0.752752 0.320443 0.463923
O O16 0.303589 0.494705 0.232563
O O17 0.500000 0.500000 0.500000
#
# Coordination Sequence:
#
# PCOD8007877 Si02
#       8
#     2   2   2   2   2   2   2   2
#     4  12  28  44  69 103 135 176 223 281 338 402
#     4  10  23  40  65  97 132 175 224 271 336 394
#     4  11  24  40  67  99 132 177 222 274 336 400
#     4  10  20  41  70  95 131 178 225 271 337 394
#     4  12  26  45  66 103 142 172 227 279 331 412
#     4   9  21  41  66  93 131 176 222 276 328 395
#     4  11  22  46  71  95 139 179 225 279 337 397
#     4   9  21  41  66  95 128 176 222 276 327 390
#
# _framework density 21.776512
#
# number of rings (size 3 to 8) (size 9 to 14) (size 15 to 20)
#    0.000    1.500    2.500    1.875    5.250    7.000 
#    0.000    1.250    0.000    0.000    0.000    0.000 
#    0.000    0.000    0.000    0.000    0.000    0.000 
#
# Total GULP energy -198326.263107 kJ/mol
# GULP energy per Si atom -12395.391444 kJ/mol
# Density = 2.172695 g / cm^3
# Si number density = 21.776512 Si / 1000 Ang^3
#
#
#
# Elastic Constant Matrix: (Units=GPa)
#
#
# Indices 1 2 3 4 5 6 
#
# 1 89.4677 16.3864 21.9403 4.7159 -5.0424 4.1657
# 2 16.3864 90.8247 28.0674 3.4719 -11.5008 2.2123
# 3 21.9403 28.0674 102.3236 24.3476 -11.9604 -5.4341
# 4 4.7159 3.4719 24.3476 26.5256 4.4108 -2.7330
# 5 -5.0424 -11.5008 -11.9604 4.4108 30.9466 -0.4569
# 6 4.1657 2.2123 -5.4341 -2.7330 -0.4569 24.2560
#
#
#
# Elastic Compliance Matrix: (Units=1/GPa)
#
#
# Indices 1 2 3 4 5 6 
#
# 1 0.012135 -0.001353 -0.002217 -0.000305 0.000624 -0.002480
# 2 -0.001353 0.012604 -0.003043 0.000707 0.003165 -0.001460
# 3 -0.002217 -0.003043 0.015332 -0.014087 0.006480 0.002628
# 4 -0.000305 0.000707 -0.014087 0.052975 -0.012744 0.002561
# 5 0.000624 0.003165 0.006480 -0.012744 0.037918 0.000334
# 6 -0.002480 -0.001460 0.002628 0.002561 0.000334 0.042669
#
#
# Mechanical properties :
#
#
# Convention : Reuss Voigt Hill
#
# Bulk Modulus (GPa) = 37.25089 46.15602 41.70345
# Shear Modulus (GPa) = 25.53521 30.76045 28.14783
#
# Velocity S-wave (km/s) = 3.42804 3.76247 3.59914
# Velocity P-wave (km/s) = 5.72816 6.33374 6.03854
#
# Compressibility (1/GPa) = 0.02684500
#
# Stress axis : x y z
#
# Youngs Moduli (GPa) = 82.40293 79.33968 65.22271
#
# Poissons Ratio (x) = 0.10736 0.14461
# Poissons Ratio (y) = 0.11151 0.19847
# Poissons Ratio (z) = 0.18270 0.24143
#
# Static dielectric constant tensor:
#      x y z
#    x 4.251130 0.099040 -0.174830 
#    y 0.099040 3.583760 0.260610 
#    z -0.174830 0.260610 4.317360 
# 
# 
# High freq. dielectric constant tensor:
#      x y z
#    x 1.871350 0.007350 -0.006960 
#    y 0.007350 1.818230 0.018560 
#    z -0.006960 0.018560 1.872370 
# 
# From -- ./inp_files/307813.got.cif
#   From: 2010.06.25/outbox.cif.g09.slc.cpg/sg2_154_cif.got.tgz:307813.got - 2010.06.27 13:26:56.
