data_PCOD8007354
_publ_section_title
;
Structure prediction by ZEFSAII (Michael W. Deem and Ramdas Pophale) SiO2 
 PCOD8007354
Probable space group: P -1
;
_chemical_formula_sum "Si O2"
_cell_formula_units_Z 14
_cell_length_a 9.188793
_cell_length_b 9.280436
_cell_length_c 20.353966
_cell_angle_alpha 50.265872
_cell_angle_beta 47.403129
_cell_angle_gamma 87.889941
_cell_volume 702.451397
_symmetry_space_group_name_H-M "P -1"
_symmetry_group_IT_number 2
_symmetry_cell_setting 'triclinic'
loop_
_space_group_symop_operation_xyz
x,y,z
-x,-y,-z
loop_
_atom_site_type_symbol
_atom_site_label
_atom_site_fract_x
_atom_site_fract_y
_atom_site_fract_z
Si Si1 0.849253 0.109050 0.625710
Si Si2 0.860840 0.086816 0.396031
Si Si3 0.742390 0.210967 0.139779
Si Si4 0.804129 0.333009 0.695190
Si Si5 0.806838 0.046214 0.036833
Si Si6 0.452180 0.069908 0.588459
Si Si7 0.025430 0.578362 0.241980
O O1 0.870659 0.197322 0.668474
O O2 0.966798 0.351697 0.472409
O O3 0.534469 0.855455 0.774437
O O4 0.020711 0.034109 0.583203
O O5 0.797365 0.038952 0.351716
O O6 0.080519 0.400481 0.251966
O O7 0.576910 0.947347 0.563756
O O8 0.666446 0.012471 0.277839
O O9 0.851496 0.186632 0.048738
O O10 0.000000 0.500000 0.000000
O O11 0.797392 0.260306 0.793769
O O12 0.511176 0.226886 0.794375
O O13 0.892137 0.222967 0.896680
O O14 0.000000 0.000000 0.000000
O O15 0.698663 0.386417 0.415006
#
# Coordination Sequence:
#
# PCOD8007354 Si02
#       7
#     2   2   2   2   2   2   2
#     4  10  21  40  60  98 117 169 196 256 303 365
#     4   9  20  36  68  87 123 155 212 245 302 362
#     4  11  23  41  62  89 128 156 207 258 303 356
#     4  10  22  39  62  86 136 153 207 244 307 367
#     4  11  26  41  61  92 125 164 199 257 309 360
#     4   9  20  38  62  91 119 158 197 259 299 353
#     4  10  20  41  61  88 122 160 205 249 300 359
#
# _framework density 19.930202999999999
#
# number of rings (size 3 to 8) (size 9 to 14) (size 15 to 20)
#    0.857    1.143    1.429    1.286    2.000    4.571 
#    0.000    7.857    0.000    0.000    0.000    0.000 
#    0.000    0.000    0.000    0.000    0.000    0.000 
#
# Total GULP energy -173525.348006 kJ/mol
# GULP energy per Si atom -12394.667715 kJ/mol
# Density = 1.988484 g / cm^3
# Si number density = 19.930203 Si / 1000 Ang^3
#
#
#
# Elastic Constant Matrix: (Units=GPa)
#
#
# Indices 1 2 3 4 5 6 
#
# 1 107.8281 63.2822 41.1694 9.9837 10.8502 17.5859
# 2 63.2822 66.4103 40.7899 -5.1431 -2.0327 3.9393
# 3 41.1694 40.7899 96.6073 -0.5995 1.5233 3.8016
# 4 9.9837 -5.1431 -0.5995 25.0238 9.8312 -0.1313
# 5 10.8502 -2.0327 1.5233 9.8312 38.5195 1.9915
# 6 17.5859 3.9393 3.8016 -0.1313 1.9915 37.2822
#
#
#
# Elastic Compliance Matrix: (Units=1/GPa)
#
#
# Indices 1 2 3 4 5 6 
#
# 1 0.030924 -0.030263 0.000024 -0.016441 -0.005536 -0.011154
# 2 -0.030263 0.050421 -0.008740 0.019942 0.005945 0.009591
# 3 0.000024 -0.008740 0.014054 -0.001200 -0.000692 -0.000488
# 4 -0.016441 0.019942 -0.001200 0.053909 -0.008359 0.006407
# 5 -0.005536 0.005945 -0.000692 -0.008359 0.029973 0.000423
# 6 -0.011154 0.009591 -0.000488 0.006407 0.000423 0.031120
#
#
# Mechanical properties :
#
#
# Convention : Reuss Voigt Hill
#
# Bulk Modulus (GPa) = 57.33730 62.36987 59.85358
# Shear Modulus (GPa) = 16.99681 28.53872 22.76776
#
# Velocity S-wave (km/s) = 2.92347 3.78819 3.38357
# Velocity P-wave (km/s) = 6.34248 7.10605 6.73510
#
# Compressibility (1/GPa) = 0.01744065
#
# Stress axis : x y z
#
# Youngs Moduli (GPa) = 32.33711 19.83303 71.15454
#
# Poissons Ratio (x) = 0.60021 -0.00168
# Poissons Ratio (y) = 0.97862 0.62187
# Poissons Ratio (z) = -0.00076 0.17333
#
# Static dielectric constant tensor:
#      x y z
#    x 3.579160 0.312860 -0.053510 
#    y 0.312860 3.447090 0.082680 
#    z -0.053510 0.082680 3.643000 
# 
# 
# High freq. dielectric constant tensor:
#      x y z
#    x 1.781970 0.029800 -0.001780 
#    y 0.029800 1.759400 0.001810 
#    z -0.001780 0.001810 1.772820 
# 
# From -- ./inp_files/587816.got.cif
#   From: 2010.06.25/outbox.cif.g09.slc.cpg/sg2_294_cif.got.tgz:587816.got - 2010.06.27 13:26:56.
