data_PCOD8007400
_publ_section_title
;
Structure prediction by ZEFSAII (Michael W. Deem and Ramdas Pophale) SiO2 
 PCOD8007400
Probable space group: P -1
;
_chemical_formula_sum "Si O2"
_cell_formula_units_Z 16
_cell_length_a 11.125276
_cell_length_b 17.339995
_cell_length_c 9.088752
_cell_angle_alpha 49.001221
_cell_angle_beta 79.120330
_cell_angle_gamma 118.363224
_cell_volume 765.567873
_symmetry_space_group_name_H-M "P -1"
_symmetry_group_IT_number 2
_symmetry_cell_setting 'triclinic'
loop_
_space_group_symop_operation_xyz
x,y,z
-x,-y,-z
loop_
_atom_site_type_symbol
_atom_site_label
_atom_site_fract_x
_atom_site_fract_y
_atom_site_fract_z
Si Si1 0.077326 0.654681 0.362422
Si Si2 0.487907 0.741365 0.328065
Si Si3 0.826013 0.340252 0.347255
Si Si4 0.334370 0.515709 0.375636
Si Si5 0.972420 0.979163 0.287857
Si Si6 0.771663 0.766686 0.334106
Si Si7 0.700668 0.882243 0.726723
Si Si8 0.547623 0.962056 0.814396
O O1 0.072174 0.636730 0.559927
O O2 0.000000 0.500000 0.500000
O O3 0.912267 0.632698 0.399214
O O4 0.306104 0.833962 0.019730
O O5 0.311614 0.653616 0.593308
O O6 0.397797 0.593370 0.426322
O O7 0.666220 0.807381 0.297471
O O8 0.565011 0.896889 0.032685
O O9 0.685789 0.155875 0.543047
O O10 0.000000 0.500000 0.000000
O O11 0.378303 0.427300 0.435439
O O12 0.481938 0.675597 0.028473
O O13 0.853155 0.810844 0.429650
O O14 0.823434 0.942207 0.475447
O O15 0.164126 0.059707 0.233267
O O16 0.047226 0.111024 0.983682
O O17 0.636546 0.958401 0.658664
#
# Coordination Sequence:
#
# PCOD8007400 Si02
#       8
#     2   2   2   2   2   2   2   2
#     4  11  20  42  67  89 121 170 213 248 308 386
#     4  10  20  41  62  89 130 167 207 253 316 370
#     4  11  25  41  64  96 126 157 209 270 313 363
#     4  11  22  38  68  92 124 166 212 255 308 369
#     4  10  23  38  59  88 128 162 209 251 310 367
#     4  11  23  39  63  93 123 164 216 256 298 372
#     4  10  21  42  59  89 129 164 203 254 317 371
#     4  10  21  41  70  85 123 172 208 249 318 380
#
# _framework density 20.899518
#
# number of rings (size 3 to 8) (size 9 to 14) (size 15 to 20)
#    0.000    1.500    6.250    1.875    1.750    4.500 
#    2.250    0.625    0.000    0.000    0.000    0.000 
#    0.000    0.000    0.000    0.000    0.000    0.000 
#
# Total GULP energy -198253.630074 kJ/mol
# GULP energy per Si atom -12390.851880 kJ/mol
# Density = 2.085195 g / cm^3
# Si number density = 20.899518 Si / 1000 Ang^3
#
#
#
# Elastic Constant Matrix: (Units=GPa)
#
#
# Indices 1 2 3 4 5 6 
#
# 1 81.5178 18.7381 32.2601 0.7207 -23.9269 5.9170
# 2 18.7381 106.9259 57.5700 -2.8314 -4.6897 -3.1019
# 3 32.2601 57.5700 101.6009 -4.4965 -27.0578 -3.2189
# 4 0.7207 -2.8314 -4.4965 40.8771 -10.1267 -4.5184
# 5 -23.9269 -4.6897 -27.0578 -10.1267 30.7991 0.1482
# 6 5.9170 -3.1019 -3.2189 -4.5184 0.1482 21.6383
#
#
#
# Elastic Compliance Matrix: (Units=1/GPa)
#
#
# Indices 1 2 3 4 5 6 
#
# 1 0.017246 -0.002045 -0.000905 0.002152 0.013022 -0.004784
# 2 -0.002045 0.014769 -0.010199 -0.002217 -0.009032 0.000758
# 3 -0.000905 -0.010199 0.021246 0.006599 0.018563 0.003197
# 4 0.002152 -0.002217 0.006599 0.029876 0.016925 0.006198
# 5 0.013022 -0.009032 0.018563 0.016925 0.063077 0.001008
# 6 -0.004784 0.000758 0.003197 0.006198 0.001008 0.049394
#
#
# Mechanical properties :
#
#
# Convention : Reuss Voigt Hill
#
# Bulk Modulus (GPa) = 37.08967 56.35345 46.72156
# Shear Modulus (GPa) = 21.65499 30.76132 26.20816
#
# Velocity S-wave (km/s) = 3.22242 3.84065 3.54504
# Velocity P-wave (km/s) = 5.62410 6.83301 6.25782
#
# Compressibility (1/GPa) = 0.02696169
#
# Stress axis : x y z
#
# Youngs Moduli (GPa) = 57.98444 67.70990 47.06861
#
# Poissons Ratio (x) = 0.13850 0.04261
# Poissons Ratio (y) = 0.11861 0.48003
# Poissons Ratio (z) = 0.05250 0.69054
#
# Static dielectric constant tensor:
#      x y z
#    x 3.821230 -0.162590 -0.342110 
#    y -0.162590 3.877010 -0.023000 
#    z -0.342110 -0.023000 3.619450 
# 
# 
# High freq. dielectric constant tensor:
#      x y z
#    x 1.818180 -0.011920 -0.025670 
#    y -0.011920 1.824770 -0.007970 
#    z -0.025670 -0.007970 1.801400 
# 
# From -- ./inp_files/277461.got.cif
#   From: 2010.06.25/outbox.cif.g09.slc.cpg/sg2_139_cif.got.tgz:277461.got - 2010.06.27 13:26:56.
