data_PCOD8007046
_publ_section_title
;
Structure prediction by ZEFSAII (Michael W. Deem and Ramdas Pophale) SiO2 
 PCOD8007046
Probable space group: P -1
;
_chemical_formula_sum "Si O2"
_cell_formula_units_Z 16
_cell_length_a 18.438403
_cell_length_b 9.448041
_cell_length_c 11.900984
_cell_angle_alpha 126.415278
_cell_angle_beta 150.539043
_cell_angle_gamma 45.727340
_cell_volume 729.524731
_symmetry_space_group_name_H-M "P -1"
_symmetry_group_IT_number 2
_symmetry_cell_setting 'triclinic'
loop_
_space_group_symop_operation_xyz
x,y,z
-x,-y,-z
loop_
_atom_site_type_symbol
_atom_site_label
_atom_site_fract_x
_atom_site_fract_y
_atom_site_fract_z
Si Si1 0.705424 0.779207 0.453027
Si Si2 0.577787 0.210874 0.526060
Si Si3 0.037695 0.413271 0.716056
Si Si4 0.484561 0.829613 0.969181
Si Si5 0.635114 0.545294 0.846664
Si Si6 0.012849 0.732495 0.178234
Si Si7 0.100832 0.016215 0.539219
Si Si8 0.725387 0.683882 0.681184
O O1 0.663459 0.706942 0.480155
O O2 0.881766 0.617324 0.567076
O O3 0.712421 0.986065 0.577504
O O4 0.562801 0.807109 0.186596
O O5 0.661548 0.321706 0.763030
O O6 0.513011 0.313892 0.367984
O O7 0.428730 0.204736 0.392672
O O8 0.015674 0.334919 0.769457
O O9 0.061199 0.245030 0.575169
O O10 0.196993 0.448271 0.954057
O O11 0.577010 0.621268 0.930471
O O12 0.294971 0.882548 0.759611
O O13 0.500000 0.000000 0.000000
O O14 0.175795 0.548153 0.259383
O O15 0.851527 0.781270 0.907883
O O16 0.044936 0.925316 0.315329
O O17 0.000000 0.000000 0.500000
#
# Coordination Sequence:
#
# PCOD8007046 Si02
#       8
#     2   2   2   2   2   2   2   2
#     4  11  25  41  66  95 135 171 216 281 329 382
#     4  11  22  41  65  99 125 175 224 267 328 394
#     4  10  20  41  62  96 130 172 214 271 330 381
#     4  12  23  45  68  93 131 179 216 265 332 393
#     4  11  23  41  70  90 132 179 221 265 322 409
#     4   9  19  37  66  96 125 170 217 269 319 392
#     4  10  21  40  69  96 127 174 223 261 321 399
#     4  10  20  40  66  95 133 166 217 276 332 377
#
# _framework density 21.932086999999999
#
# number of rings (size 3 to 8) (size 9 to 14) (size 15 to 20)
#    0.000    1.500    3.750    1.125    1.750    1.000 
#    2.250    8.750    0.000    0.000    0.000    0.000 
#    0.000    0.000    0.000    0.000    0.000    0.000 
#
# Total GULP energy -198402.894506 kJ/mol
# GULP energy per Si atom -12400.180907 kJ/mol
# Density = 2.188217 g / cm^3
# Si number density = 21.932087 Si / 1000 Ang^3
#
#
#
# Elastic Constant Matrix: (Units=GPa)
#
#
# Indices 1 2 3 4 5 6 
#
# 1 51.7465 16.6533 37.2686 0.0961 -3.8568 -8.3142
# 2 16.6533 152.1350 62.8158 26.0961 4.5352 -31.5188
# 3 37.2686 62.8158 117.1677 21.1362 1.0340 -9.2753
# 4 0.0961 26.0961 21.1362 35.0129 -4.8303 -4.7160
# 5 -3.8568 4.5352 1.0340 -4.8303 37.9564 -0.3202
# 6 -8.3142 -31.5188 -9.2753 -4.7160 -0.3202 29.7648
#
#
#
# Elastic Compliance Matrix: (Units=1/GPa)
#
#
# Indices 1 2 3 4 5 6 
#
# 1 0.027623 0.001436 -0.010197 0.006494 0.003800 0.007129
# 2 0.001436 0.011355 -0.004945 -0.004323 -0.001540 0.010183
# 3 -0.010197 -0.004945 0.015237 -0.006306 -0.001700 -0.004354
# 4 0.006494 -0.004323 -0.006306 0.036552 0.006009 0.001127
# 5 0.003800 -0.001540 -0.001700 0.006009 0.027728 0.000151
# 6 0.007129 0.010183 -0.004354 0.001127 0.000151 0.045194
#
#
# Mechanical properties :
#
#
# Convention : Reuss Voigt Hill
#
# Bulk Modulus (GPa) = 37.30774 61.61384 49.46079
# Shear Modulus (GPa) = 24.99552 34.16758 29.58155
#
# Velocity S-wave (km/s) = 3.37957 3.95128 3.67656
# Velocity P-wave (km/s) = 5.68121 6.99792 6.37366
#
# Compressibility (1/GPa) = 0.02680409
#
# Stress axis : x y z
#
# Youngs Moduli (GPa) = 36.20114 88.07027 65.62930
#
# Poissons Ratio (x) = -0.12651 0.66923
# Poissons Ratio (y) = -0.05200 0.32453
# Poissons Ratio (z) = 0.36915 0.43549
#
# Static dielectric constant tensor:
#      x y z
#    x 3.812340 -0.435870 -0.079550 
#    y -0.435870 4.436820 0.357750 
#    z -0.079550 0.357750 4.076220 
# 
# 
# High freq. dielectric constant tensor:
#      x y z
#    x 1.850480 -0.028490 0.003500 
#    y -0.028490 1.863130 0.016170 
#    z 0.003500 0.016170 1.859370 
# 
# From -- ./inp_files/357460.got.cif
#   From: 2010.06.25/outbox.cif.g09.slc.cpg/sg2_179_cif.got.tgz:357460.got - 2010.06.27 13:26:56.
