data_PCOD8007136
_publ_section_title
;
Structure prediction by ZEFSAII (Michael W. Deem and Ramdas Pophale) SiO2 
 PCOD8007136
Probable space group: P -1
;
_chemical_formula_sum "Si O2"
_cell_formula_units_Z 16
_cell_length_a 8.483102
_cell_length_b 11.772187
_cell_length_c 14.293051
_cell_angle_alpha 127.870708
_cell_angle_beta 43.776102
_cell_angle_gamma 108.214530
_cell_volume 756.898416
_symmetry_space_group_name_H-M "P -1"
_symmetry_group_IT_number 2
_symmetry_cell_setting 'triclinic'
loop_
_space_group_symop_operation_xyz
x,y,z
-x,-y,-z
loop_
_atom_site_type_symbol
_atom_site_label
_atom_site_fract_x
_atom_site_fract_y
_atom_site_fract_z
Si Si1 0.565738 0.011797 0.084250
Si Si2 0.427346 0.570047 0.464491
Si Si3 0.975891 0.160438 0.261843
Si Si4 0.003469 0.759172 0.374034
Si Si5 0.759425 0.695280 0.625192
Si Si6 0.128224 0.375606 0.811220
Si Si7 0.362054 0.938166 0.311477
Si Si8 0.286541 0.072184 0.691338
O O1 0.490704 0.187307 0.229828
O O2 0.405406 0.935092 0.179885
O O3 0.500000 0.000000 0.000000
O O4 0.839496 0.929532 0.939763
O O5 0.500000 0.500000 0.500000
O O6 0.244741 0.729353 0.637635
O O7 0.298852 0.461707 0.407702
O O8 0.640184 0.591752 0.319523
O O9 0.105349 0.254155 0.320847
O O10 0.894655 0.032623 0.289516
O O11 0.246390 0.802157 0.316894
O O12 0.925026 0.676908 0.454156
O O13 0.040162 0.647129 0.213650
O O14 0.808222 0.907185 0.503858
O O15 0.171482 0.233522 0.786194
O O16 0.000000 0.500000 0.000000
O O17 0.614788 0.916770 0.240890
O O18 0.500000 0.000000 0.500000
#
# Coordination Sequence:
#
# PCOD8007136 Si02
#       8
#     2   2   2   2   2   2   2   2
#     4   9  22  39  64 103 128 166 221 283 334 396
#     4  12  25  45  66  94 139 180 225 273 343 413
#     4  11  24  42  69  98 133 175 225 279 339 401
#     4  10  20  40  67  96 127 177 224 267 340 400
#     4  10  22  42  68  95 132 179 223 272 342 409
#     4  12  28  44  66 101 138 181 220 286 342 394
#     4  10  21  38  70  98 131 171 224 281 328 397
#     4  12  23  43  69  98 130 168 232 277 329 402
#
# _framework density 21.138898999999999
#
# number of rings (size 3 to 8) (size 9 to 14) (size 15 to 20)
#    0.000    1.250    3.750    1.125    8.750    2.500 
#    0.000    0.625    0.000    0.000    0.000    0.000 
#    0.000    0.000    0.000    0.000    0.000    0.000 
#
# Total GULP energy -198333.302090 kJ/mol
# GULP energy per Si atom -12395.831381 kJ/mol
# Density = 2.109079 g / cm^3
# Si number density = 21.138899 Si / 1000 Ang^3
#
#
#
# Elastic Constant Matrix: (Units=GPa)
#
#
# Indices 1 2 3 4 5 6 
#
# 1 75.5538 24.7308 19.8103 -0.8645 6.9177 5.4743
# 2 24.7308 130.1550 38.1654 2.7435 -6.0510 11.2845
# 3 19.8103 38.1654 133.8192 -0.3112 -3.7930 -6.3298
# 4 -0.8645 2.7435 -0.3112 26.0421 -3.4806 -3.6913
# 5 6.9177 -6.0510 -3.7930 -3.4806 33.5901 0.9824
# 6 5.4743 11.2845 -6.3298 -3.6913 0.9824 40.1559
#
#
#
# Elastic Compliance Matrix: (Units=1/GPa)
#
#
# Indices 1 2 3 4 5 6 
#
# 1 0.014904 -0.002367 -0.001708 0.000018 -0.003641 -0.001545
# 2 -0.002367 0.009174 -0.002349 -0.001223 0.001829 -0.002783
# 3 -0.001708 -0.002349 0.008531 0.000737 0.000901 0.002283
# 4 0.000018 -0.001223 0.000737 0.039619 0.003847 0.004005
# 5 -0.003641 0.001829 0.000901 0.003847 0.031359 -0.000289
# 6 -0.001545 -0.002783 0.002283 0.004005 -0.000289 0.026631
#
#
# Mechanical properties :
#
#
# Convention : Reuss Voigt Hill
#
# Bulk Modulus (GPa) = 50.60220 56.10455 53.35337
# Shear Modulus (GPa) = 33.41119 37.07904 35.24512
#
# Velocity S-wave (km/s) = 3.97993 4.19270 4.08770
# Velocity P-wave (km/s) = 6.71638 7.07367 6.89734
#
# Compressibility (1/GPa) = 0.01976199
#
# Stress axis : x y z
#
# Youngs Moduli (GPa) = 67.09777 109.00804 117.22479
#
# Poissons Ratio (x) = 0.25801 0.20016
# Poissons Ratio (y) = 0.15881 0.27531
# Poissons Ratio (z) = 0.11457 0.25601
#
# Static dielectric constant tensor:
#      x y z
#    x 2.898720 0.120510 0.249150 
#    y 0.120510 3.851210 -0.031580 
#    z 0.249150 -0.031580 4.008270 
# 
# 
# High freq. dielectric constant tensor:
#      x y z
#    x 1.823650 0.004310 0.006540 
#    y 0.004310 1.835540 -0.007560 
#    z 0.006540 -0.007560 1.822330 
# 
# From -- ./inp_files/217119.got.cif
#   From: 2010.06.25/outbox.cif.g09.slc.cpg/sg2_109_cif.got.tgz:217119.got - 2010.06.27 13:26:56.
