data_PCOD8007414
_publ_section_title
;
Structure prediction by ZEFSAII (Michael W. Deem and Ramdas Pophale) SiO2 
 PCOD8007414
Probable space group: P -1
;
_chemical_formula_sum "Si O2"
_cell_formula_units_Z 14
_cell_length_a 8.686600
_cell_length_b 15.152682
_cell_length_c 15.108854
_cell_angle_alpha 147.851657
_cell_angle_beta 129.761079
_cell_angle_gamma 73.579995
_cell_volume 629.880191
_symmetry_space_group_name_H-M "P -1"
_symmetry_group_IT_number 2
_symmetry_cell_setting 'triclinic'
loop_
_space_group_symop_operation_xyz
x,y,z
-x,-y,-z
loop_
_atom_site_type_symbol
_atom_site_label
_atom_site_fract_x
_atom_site_fract_y
_atom_site_fract_z
Si Si1 0.764437 0.436560 0.649596
Si Si2 0.625188 0.536560 0.375155
Si Si3 0.540990 0.220474 0.203382
Si Si4 0.084151 0.831286 0.488166
Si Si5 0.018177 0.093917 0.295316
Si Si6 0.206219 0.250301 0.848616
Si Si7 0.795105 0.117245 0.732510
O O1 0.521562 0.422109 0.574545
O O2 0.727674 0.383195 0.486696
O O3 0.753735 0.252282 0.538386
O O4 0.049283 0.660657 0.965950
O O5 0.657806 0.366747 0.281186
O O6 0.900837 0.753022 0.629805
O O7 0.464645 0.463199 0.162859
O O8 0.500000 0.000000 0.000000
O O9 0.247893 0.136668 0.027598
O O10 0.019139 0.810929 0.550847
O O11 0.825764 0.694909 0.215759
O O12 0.246426 0.072336 0.715246
O O13 0.219341 0.053747 0.356746
O O14 0.955477 0.165266 0.743128
O O15 0.500000 0.000000 0.500000
#
# Coordination Sequence:
#
# PCOD8007414 Si02
#       7
#     2   2   2   2   2   2   2
#     4  11  23  42  70  92 132 182 217 273 342 379
#     4  11  24  41  68  98 130 177 222 276 333 390
#     4  12  23  49  69  93 141 172 224 278 327 400
#     4  10  20  41  62  96 126 181 218 268 335 392
#     4  11  24  44  64 101 135 173 223 276 326 395
#     4   9  20  41  64  89 141 176 220 269 339 390
#     4  10  23  42  63 101 139 172 221 279 325 401
#
# _framework density 22.226448000000001
#
# number of rings (size 3 to 8) (size 9 to 14) (size 15 to 20)
#    0.000    1.429    5.714    0.429    4.000    2.857 
#    5.143    0.000    0.000    0.000    0.000    0.000 
#    0.000    0.000    0.000    0.000    0.000    0.000 
#
# Total GULP energy -173454.444949 kJ/mol
# GULP energy per Si atom -12389.603211 kJ/mol
# Density = 2.217586 g / cm^3
# Si number density = 22.226448 Si / 1000 Ang^3
#
#
#
# Elastic Constant Matrix: (Units=GPa)
#
#
# Indices 1 2 3 4 5 6 
#
# 1 33.4084 33.9562 33.5602 7.6931 -2.9872 -1.4240
# 2 33.9562 136.4128 42.6507 11.7433 1.8311 -2.2003
# 3 33.5602 42.6507 121.1999 -17.5709 -10.7538 13.6426
# 4 7.6931 11.7433 -17.5709 41.0370 3.7803 -2.9140
# 5 -2.9872 1.8311 -10.7538 3.7803 33.1330 6.4144
# 6 -1.4240 -2.2003 13.6426 -2.9140 6.4144 34.4138
#
#
#
# Elastic Compliance Matrix: (Units=1/GPa)
#
#
# Indices 1 2 3 4 5 6 
#
# 1 0.058200 -0.008024 -0.016186 -0.015133 0.000833 0.006875
# 2 -0.008024 0.010156 -0.001955 -0.001968 -0.001944 0.001288
# 3 -0.016186 -0.001955 0.015967 0.009548 0.004113 -0.007083
# 4 -0.015133 -0.001968 0.009548 0.031884 -0.001492 -0.001559
# 5 0.000833 -0.001944 0.004113 -0.001492 0.033433 -0.008078
# 6 0.006875 0.001288 -0.007083 -0.001559 -0.008078 0.033606
#
#
# Mechanical properties :
#
#
# Convention : Reuss Voigt Hill
#
# Bulk Modulus (GPa) = 31.25658 56.81725 44.03691
# Shear Modulus (GPa) = 20.30554 33.77371 27.03962
#
# Velocity S-wave (km/s) = 3.02582 3.90234 3.49169
# Velocity P-wave (km/s) = 5.12843 6.77663 6.00931
#
# Compressibility (1/GPa) = 0.03199326
#
# Stress axis : x y z
#
# Youngs Moduli (GPa) = 17.18222 98.46853 62.62955
#
# Poissons Ratio (x) = 0.79013 1.01370
# Poissons Ratio (y) = 0.13787 0.12242
# Poissons Ratio (z) = 0.27810 0.19247
#
# Static dielectric constant tensor:
#      x y z
#    x 3.672570 -0.161260 -0.231940 
#    y -0.161260 4.279720 -0.158410 
#    z -0.231940 -0.158410 4.153680 
# 
# 
# High freq. dielectric constant tensor:
#      x y z
#    x 1.832560 -0.011230 -0.015990 
#    y -0.011230 1.897290 -0.005850 
#    z -0.015990 -0.005850 1.880320 
# 
# From -- ./inp_files/379204.got.cif
#   From: 2010.06.25/outbox.cif.g09.slc.cpg/sg2_190_cif.got.tgz:379204.got - 2010.06.27 13:26:56.
