data_PCOD8007972
_publ_section_title
;
Structure prediction by ZEFSAII (Michael W. Deem and Ramdas Pophale) SiO2 
 PCOD8007972
Probable space group: P -1
;
_chemical_formula_sum "Si O2"
_cell_formula_units_Z 14
_cell_length_a 9.629444
_cell_length_b 10.043674
_cell_length_c 15.520084
_cell_angle_alpha 118.237176
_cell_angle_beta 45.495239
_cell_angle_gamma 138.792517
_cell_volume 700.530368
_symmetry_space_group_name_H-M "P -1"
_symmetry_group_IT_number 2
_symmetry_cell_setting 'triclinic'
loop_
_space_group_symop_operation_xyz
x,y,z
-x,-y,-z
loop_
_atom_site_type_symbol
_atom_site_label
_atom_site_fract_x
_atom_site_fract_y
_atom_site_fract_z
Si Si1 0.260822 0.961129 0.703819
Si Si2 0.206638 0.926332 0.213026
Si Si3 0.715062 0.510239 0.264510
Si Si4 0.840743 0.266504 0.486785
Si Si5 0.274318 0.835662 0.847018
Si Si6 0.138737 0.173530 0.422905
Si Si7 0.967220 0.828671 0.118458
O O1 0.113091 0.779056 0.642518
O O2 0.288940 0.881087 0.754305
O O3 0.539636 0.148709 0.599279
O O4 0.105396 0.033443 0.813132
O O5 0.936865 0.698227 0.289038
O O6 0.218298 0.931294 0.104718
O O7 0.451656 0.975792 0.168694
O O8 0.187954 0.093523 0.294627
O O9 0.783300 0.370426 0.178217
O O10 0.425531 0.383078 0.392269
O O11 0.728813 0.605293 0.194852
O O12 0.000000 0.500000 0.500000
O O13 0.941933 0.204818 0.496500
O O14 0.041011 0.808494 0.985252
O O15 0.000000 0.000000 0.500000
#
# Coordination Sequence:
#
# PCOD8007972 Si02
#       7
#     2   2   2   2   2   2   2
#     4  11  24  40  59  93 122 158 200 248 305 358
#     4   9  21  38  61  87 120 157 204 240 302 354
#     4   9  21  37  61  89 118 155 205 243 300 352
#     4  11  23  41  63  83 124 161 198 249 307 355
#     4  11  21  38  64  93 123 155 203 250 295 360
#     4  11  21  38  62  88 116 157 204 258 293 352
#     4  10  20  42  62  85 127 164 196 246 302 358
#
# _framework density 19.984859
#
# number of rings (size 3 to 8) (size 9 to 14) (size 15 to 20)
#    0.857    0.857    1.429    3.857    0.000    2.857 
#    0.000    0.000    0.000    4.286    0.000    0.000 
#    0.000    0.000    0.000    0.000    0.000    0.000 
#
# Total GULP energy -173512.168032 kJ/mol
# GULP energy per Si atom -12393.726288 kJ/mol
# Density = 1.993937 g / cm^3
# Si number density = 19.984859 Si / 1000 Ang^3
#
#
#
# Elastic Constant Matrix: (Units=GPa)
#
#
# Indices 1 2 3 4 5 6 
#
# 1 99.5017 45.5551 29.1513 3.7881 -1.4987 -5.5688
# 2 45.5551 116.3242 22.7097 -1.5696 -1.4884 6.2318
# 3 29.1513 22.7097 60.0799 0.1826 -3.6595 -13.0908
# 4 3.7881 -1.5696 0.1826 29.2815 -4.7020 -7.2286
# 5 -1.4987 -1.4884 -3.6595 -4.7020 30.4488 -7.3377
# 6 -5.5688 6.2318 -13.0908 -7.2286 -7.3377 22.3192
#
#
#
# Elastic Compliance Matrix: (Units=1/GPa)
#
#
# Indices 1 2 3 4 5 6 
#
# 1 0.013608 -0.004539 -0.004563 -0.001613 0.000004 0.001465
# 2 -0.004539 0.011519 -0.003959 -0.001019 -0.002151 -0.007708
# 3 -0.004563 -0.003959 0.025077 0.006350 0.008263 0.019448
# 4 -0.001613 -0.001019 0.006350 0.041385 0.012081 0.020982
# 5 0.000004 -0.002151 0.008263 0.012081 0.041108 0.022875
# 6 0.001465 -0.007708 0.019448 0.020982 0.022875 0.073045
#
#
# Mechanical properties :
#
#
# Convention : Reuss Voigt Hill
#
# Bulk Modulus (GPa) = 41.52490 52.30422 46.91456
# Shear Modulus (GPa) = 20.84277 28.30921 24.57599
#
# Velocity S-wave (km/s) = 3.23294 3.76777 3.51056
# Velocity P-wave (km/s) = 5.89569 6.71988 6.32124
#
# Compressibility (1/GPa) = 0.02408194
#
# Stress axis : x y z
#
# Youngs Moduli (GPa) = 73.48433 86.81511 39.87795
#
# Poissons Ratio (x) = 0.39403 0.18196
# Poissons Ratio (y) = 0.33353 0.15788
# Poissons Ratio (z) = 0.33531 0.34371
#
# Static dielectric constant tensor:
#      x y z
#    x 3.476490 0.144760 0.014740 
#    y 0.144760 3.652050 0.076780 
#    z 0.014740 0.076780 3.501120 
# 
# 
# High freq. dielectric constant tensor:
#      x y z
#    x 1.774420 -0.001290 -0.004570 
#    y -0.001290 1.781610 0.006180 
#    z -0.004570 0.006180 1.772600 
# 
# From -- ./inp_files/447462.got.cif
#   From: 2010.06.25/outbox.cif.g09.slc.cpg/sg2_224_cif.got.tgz:447462.got - 2010.06.27 13:26:56.
