data_PCOD8007433
_publ_section_title
;
Structure prediction by ZEFSAII (Michael W. Deem and Ramdas Pophale) SiO2 
 PCOD8007433
Probable space group: P -1
;
_chemical_formula_sum "Si O2"
_cell_formula_units_Z 16
_cell_length_a 15.070710
_cell_length_b 14.651019
_cell_length_c 14.765300
_cell_angle_alpha 147.024130
_cell_angle_beta 142.119634
_cell_angle_gamma 27.910205
_cell_volume 815.752618
_symmetry_space_group_name_H-M "P -1"
_symmetry_group_IT_number 2
_symmetry_cell_setting 'triclinic'
loop_
_space_group_symop_operation_xyz
x,y,z
-x,-y,-z
loop_
_atom_site_type_symbol
_atom_site_label
_atom_site_fract_x
_atom_site_fract_y
_atom_site_fract_z
Si Si1 0.112239 0.848933 0.685472
Si Si2 0.040309 0.542146 0.164953
Si Si3 0.528576 0.958832 0.672221
Si Si4 0.161871 0.441369 0.707376
Si Si5 0.801050 0.507161 0.416354
Si Si6 0.889405 0.799694 0.928599
Si Si7 0.278150 0.691687 0.495815
Si Si8 0.773799 0.977262 0.409030
O O1 0.229159 0.643405 0.679754
O O2 0.240982 0.775658 0.638768
O O3 0.910129 0.916390 0.553352
O O4 0.070018 0.058568 0.871095
O O5 0.137864 0.326614 0.125847
O O6 0.180742 0.591523 0.309703
O O7 0.843177 0.752443 0.229523
O O8 0.000000 0.500000 0.000000
O O9 0.630914 0.769148 0.519795
O O10 0.688282 0.958670 0.844262
O O11 0.359572 0.203272 0.699901
O O12 0.441584 0.894144 0.622126
O O13 0.204639 0.521507 0.719777
O O14 0.008803 0.416432 0.538143
O O15 0.073926 0.627361 0.869160
O O16 0.500000 0.500000 0.500000
O O17 0.201469 0.892271 0.533521
#
# Coordination Sequence:
#
# PCOD8007433 Si02
#       8
#     2   2   2   2   2   2   2   2
#     4  11  22  41  57  88 124 157 197 244 300 351
#     4  11  21  38  59  85 119 158 199 241 296 348
#     4  11  20  40  63  91 117 154 204 246 293 354
#     4  10  20  41  63  90 117 158 199 245 304 348
#     4  10  21  38  66  89 117 156 202 247 293 359
#     4  11  23  39  60  87 128 155 195 250 294 356
#     4  11  22  37  58  87 119 154 204 243 290 356
#     4  11  20  38  62  84 116 160 199 238 297 353
#
# _framework density 19.613789000000001
#
# number of rings (size 3 to 8) (size 9 to 14) (size 15 to 20)
#    0.000    1.250    2.500    7.125    0.000    1.500 
#    4.500    3.125    0.000    0.000    0.000    0.000 
#    0.000    0.000    0.000    0.000    0.000    0.000 
#
# Total GULP energy -198420.680321 kJ/mol
# GULP energy per Si atom -12401.292520 kJ/mol
# Density = 1.956915 g / cm^3
# Si number density = 19.613789 Si / 1000 Ang^3
#
#
#
# Elastic Constant Matrix: (Units=GPa)
#
#
# Indices 1 2 3 4 5 6 
#
# 1 121.8969 51.8198 51.4009 2.3437 -18.0752 14.0624
# 2 51.8198 125.2263 48.6396 13.0032 -11.9909 2.1956
# 3 51.4009 48.6396 134.4501 12.2916 -23.4979 7.7213
# 4 2.3437 13.0032 12.2916 16.2149 3.5753 3.4689
# 5 -18.0752 -11.9909 -23.4979 3.5753 21.3183 4.2358
# 6 14.0624 2.1956 7.7213 3.4689 4.2358 38.3121
#
#
#
# Elastic Compliance Matrix: (Units=1/GPa)
#
#
# Indices 1 2 3 4 5 6 
#
# 1 0.012142 -0.003766 -0.002123 0.002485 0.006363 -0.004742
# 2 -0.003766 0.011192 -0.001512 -0.008159 0.002504 0.001507
# 3 -0.002123 -0.001512 0.012049 -0.009976 0.012714 -0.002065
# 4 0.002485 -0.008159 -0.009976 0.081912 -0.026638 -0.002906
# 5 0.006363 0.002504 0.012714 -0.026638 0.074348 -0.010849
# 6 -0.004742 0.001507 -0.002065 -0.002906 -0.010849 0.029634
#
#
# Mechanical properties :
#
#
# Convention : Reuss Voigt Hill
#
# Bulk Modulus (GPa) = 48.58669 76.14378 62.36523
# Shear Modulus (GPa) = 20.58125 30.48325 25.53225
#
# Velocity S-wave (km/s) = 3.24284 3.94658 3.61189
# Velocity P-wave (km/s) = 6.23272 7.72484 7.01855
#
# Compressibility (1/GPa) = 0.02058177
#
# Stress axis : x y z
#
# Youngs Moduli (GPa) = 82.35656 89.35128 82.99590
#
# Poissons Ratio (x) = 0.33648 0.17617
# Poissons Ratio (y) = 0.31014 0.12550
# Poissons Ratio (z) = 0.17481 0.13511
#
# Static dielectric constant tensor:
#      x y z
#    x 4.027100 0.209300 -0.089390 
#    y 0.209300 3.720360 0.128420 
#    z -0.089390 0.128420 3.415200 
# 
# 
# High freq. dielectric constant tensor:
#      x y z
#    x 1.777880 0.005870 -0.009660 
#    y 0.005870 1.770990 0.009200 
#    z -0.009660 0.009200 1.747870 
# 
# From -- ./inp_files/206561.got.cif
#   From: 2010.06.25/outbox.cif.g09.slc.cpg/sg2_104_cif.got.tgz:206561.got - 2010.06.27 13:26:56.
