data_PCOD8007317
_publ_section_title
;
Structure prediction by ZEFSAII (Michael W. Deem and Ramdas Pophale) SiO2 
 PCOD8007317
Probable space group: P -1
;
_chemical_formula_sum "Si O2"
_cell_formula_units_Z 16
_cell_length_a 15.512007
_cell_length_b 11.897819
_cell_length_c 19.044294
_cell_angle_alpha 50.662979
_cell_angle_beta 150.580955
_cell_angle_gamma 150.796244
_cell_volume 715.568659
_symmetry_space_group_name_H-M "P -1"
_symmetry_group_IT_number 2
_symmetry_cell_setting 'triclinic'
loop_
_space_group_symop_operation_xyz
x,y,z
-x,-y,-z
loop_
_atom_site_type_symbol
_atom_site_label
_atom_site_fract_x
_atom_site_fract_y
_atom_site_fract_z
Si Si1 0.865359 0.282932 0.125479
Si Si2 0.871497 0.050110 0.429457
Si Si3 0.274636 0.378997 0.715883
Si Si4 0.329982 0.511167 0.474681
Si Si5 0.238576 0.458910 0.196179
Si Si6 0.880077 0.625761 0.014524
Si Si7 0.604473 0.907830 0.698260
Si Si8 0.205057 0.909058 0.391103
O O1 0.944779 0.501741 0.117376
O O2 0.125243 0.359737 0.317580
O O3 0.913839 0.279980 0.078800
O O4 0.500000 0.000000 0.000000
O O5 0.966910 0.115369 0.553457
O O6 0.055072 0.315183 0.419260
O O7 0.479580 0.769305 0.250809
O O8 0.000000 0.000000 0.500000
O O9 0.448401 0.640319 0.701442
O O10 0.138506 0.308427 0.725868
O O11 0.537695 0.432820 0.883981
O O12 0.585031 0.557541 0.638839
O O13 0.512459 0.790960 0.497412
O O14 0.135155 0.343369 0.090443
O O15 0.180149 0.917733 0.148477
O O16 0.310793 0.817389 0.517077
O O17 0.837652 0.084368 0.724668
#
# Coordination Sequence:
#
# PCOD8007317 Si02
#       8
#     2   2   2   2   2   2   2   2
#     4  12  27  42  63 107 146 177 226 292 350 409
#     4  10  20  40  73  99 131 175 233 275 335 416
#     4  12  24  44  73  99 135 186 234 279 355 411
#     4  11  21  44  71 100 133 184 229 287 338 415
#     4  11  24  45  70  99 140 190 227 276 355 420
#     4  12  25  46  66 101 141 179 227 290 347 420
#     4  11  25  49  67 100 140 177 239 293 346 404
#     4  11  24  45  73 100 135 180 238 291 341 414
#
# _framework density 22.359839000000001
#
# number of rings (size 3 to 8) (size 9 to 14) (size 15 to 20)
#    0.000    0.750    5.000    3.000    3.500    0.500 
#    2.250    0.000    0.000    0.000    0.000    0.000 
#    0.000    0.000    0.000    0.000    0.000    0.000 
#
# Total GULP energy -198384.760363 kJ/mol
# GULP energy per Si atom -12399.047523 kJ/mol
# Density = 2.230895 g / cm^3
# Si number density = 22.359839 Si / 1000 Ang^3
#
#
#
# Elastic Constant Matrix: (Units=GPa)
#
#
# Indices 1 2 3 4 5 6 
#
# 1 152.2763 41.2699 61.7832 10.9355 7.7827 20.3827
# 2 41.2699 67.2357 31.5932 -5.9369 -1.6234 4.1253
# 3 61.7832 31.5932 105.2827 2.2040 -11.6336 5.9752
# 4 10.9355 -5.9369 2.2040 26.3242 -7.1425 -1.9507
# 5 7.7827 -1.6234 -11.6336 -7.1425 35.4149 11.0276
# 6 20.3827 4.1253 5.9752 -1.9507 11.0276 35.3988
#
#
#
# Elastic Compliance Matrix: (Units=1/GPa)
#
#
# Indices 1 2 3 4 5 6 
#
# 1 0.011323 -0.004936 -0.005301 -0.006919 -0.004607 -0.003996
# 2 -0.004936 0.020010 -0.003054 0.007493 0.002284 0.000727
# 3 -0.005301 -0.003054 0.014237 0.001986 0.006374 -0.000871
# 4 -0.006919 0.007493 0.001986 0.045542 0.011136 0.001816
# 5 -0.004607 0.002284 0.006374 0.011136 0.036649 -0.009493
# 6 -0.003996 0.000727 -0.000871 0.001816 -0.009493 0.033670
#
#
# Mechanical properties :
#
#
# Convention : Reuss Voigt Hill
#
# Bulk Modulus (GPa) = 52.66261 66.00970 59.33615
# Shear Modulus (GPa) = 25.72785 32.10413 28.91599
#
# Velocity S-wave (km/s) = 3.39577 3.79330 3.60003
# Velocity P-wave (km/s) = 6.24327 6.98363 6.62380
#
# Compressibility (1/GPa) = 0.01898880
#
# Stress axis : x y z
#
# Youngs Moduli (GPa) = 88.31818 49.97506 70.23793
#
# Poissons Ratio (x) = 0.24669 0.37231
# Poissons Ratio (y) = 0.43597 0.21448
# Poissons Ratio (z) = 0.46815 0.15260
#
# Static dielectric constant tensor:
#      x y z
#    x 3.890250 0.369250 -0.190320 
#    y 0.369250 4.272640 0.136440 
#    z -0.190320 0.136440 3.813270 
# 
# 
# High freq. dielectric constant tensor:
#      x y z
#    x 1.888890 0.000630 -0.001890 
#    y 0.000630 1.878880 -0.004650 
#    z -0.001890 -0.004650 1.873740 
# 
# From -- ./inp_files/573594.got.cif
#   From: 2010.06.25/outbox.cif.g09.slc.cpg/sg2_287_cif.got.tgz:573594.got - 2010.06.27 13:26:56.
