data_PCOD8007809
_publ_section_title
;
Structure prediction by ZEFSAII (Michael W. Deem and Ramdas Pophale) SiO2 
 PCOD8007809
Probable space group: P -1
;
_chemical_formula_sum "Si O2"
_cell_formula_units_Z 14
_cell_length_a 9.218278
_cell_length_b 9.676736
_cell_length_c 12.104057
_cell_angle_alpha 147.033568
_cell_angle_beta 91.309852
_cell_angle_gamma 87.245087
_cell_volume 586.542918
_symmetry_space_group_name_H-M "P -1"
_symmetry_group_IT_number 2
_symmetry_cell_setting 'triclinic'
loop_
_space_group_symop_operation_xyz
x,y,z
-x,-y,-z
loop_
_atom_site_type_symbol
_atom_site_label
_atom_site_fract_x
_atom_site_fract_y
_atom_site_fract_z
Si Si1 0.637971 0.699394 0.695507
Si Si2 0.067728 0.767158 0.913942
Si Si3 0.158259 0.094481 0.327310
Si Si4 0.529895 0.591587 0.184285
Si Si5 0.268120 0.979145 0.489920
Si Si6 0.118874 0.649539 0.429105
Si Si7 0.630342 0.252917 0.152730
O O1 0.696300 0.771593 0.623549
O O2 0.738596 0.463313 0.582567
O O3 0.463948 0.646904 0.672041
O O4 0.649820 0.945223 0.942022
O O5 0.132840 0.849854 0.087306
O O6 0.207963 0.640918 0.764198
O O7 0.947285 0.563110 0.794211
O O8 0.000000 0.000000 0.000000
O O9 0.009166 0.270476 0.432537
O O10 0.183625 0.003219 0.390022
O O11 0.396022 0.764685 0.342644
O O12 0.548531 0.353573 0.107667
O O13 0.674575 0.750153 0.292376
O O14 0.500000 0.500000 0.000000
O O15 0.155393 0.895163 0.523863
#
# Coordination Sequence:
#
# PCOD8007809 Si02
#       7
#     2   2   2   2   2   2   2
#     4  10  21  40  69 100 135 185 230 283 345 407
#     4  11  23  41  69 103 140 186 229 281 346 408
#     4  11  24  43  68 101 146 181 231 282 351 405
#     4  11  23  45  74  97 141 181 227 290 348 412
#     4  11  26  44  67 106 135 182 235 281 349 415
#     4  12  23  45  69 100 146 180 234 287 340 417
#     4  10  20  41  69 100 136 177 234 287 334 409
#
# _framework density 23.868670000000002
#
# number of rings (size 3 to 8) (size 9 to 14) (size 15 to 20)
#    0.000    1.143    4.286    3.429    0.000    1.714 
#    0.000    5.714    0.000    0.000    0.000    0.000 
#    0.000    0.000    0.000    0.000    0.000    0.000 
#
# Total GULP energy -173597.887831 kJ/mol
# GULP energy per Si atom -12399.849131 kJ/mol
# Density = 2.381434 g / cm^3
# Si number density = 23.868670 Si / 1000 Ang^3
#
#
#
# Elastic Constant Matrix: (Units=GPa)
#
#
# Indices 1 2 3 4 5 6 
#
# 1 139.6502 34.3856 23.0754 3.8296 -18.2183 9.8100
# 2 34.3856 95.1834 21.4074 6.9614 -11.7160 9.8442
# 3 23.0754 21.4074 66.8881 -2.4029 -5.8255 8.0053
# 4 3.8296 6.9614 -2.4029 30.8317 1.7789 0.1680
# 5 -18.2183 -11.7160 -5.8255 1.7789 45.8758 1.6082
# 6 9.8100 9.8442 8.0053 0.1680 1.6082 41.7344
#
#
#
# Elastic Compliance Matrix: (Units=1/GPa)
#
#
# Indices 1 2 3 4 5 6 
#
# 1 0.008449 -0.002110 -0.001893 -0.000867 0.002652 -0.001224
# 2 -0.002110 0.012631 -0.002992 -0.002939 0.002191 -0.001982
# 3 -0.001893 -0.002992 0.016950 0.002207 0.000626 -0.002134
# 4 -0.000867 -0.002939 0.002207 0.033498 -0.002128 0.000421
# 5 0.002652 0.002191 0.000626 -0.002128 0.023649 -0.002163
# 6 -0.001224 -0.001982 -0.002134 0.000421 -0.002163 0.025207
#
#
# Mechanical properties :
#
#
# Convention : Reuss Voigt Hill
#
# Bulk Modulus (GPa) = 41.59797 51.05092 46.32445
# Shear Modulus (GPa) = 35.11554 38.54528 36.83041
#
# Velocity S-wave (km/s) = 3.83978 4.02293 3.93242
# Velocity P-wave (km/s) = 6.09297 6.55845 6.32999
#
# Compressibility (1/GPa) = 0.02403963
#
# Stress axis : x y z
#
# Youngs Moduli (GPa) = 118.35900 79.17129 58.99647
#
# Poissons Ratio (x) = 0.16705 0.11169
# Poissons Ratio (y) = 0.24973 0.17652
# Poissons Ratio (z) = 0.22406 0.23689
#
# Static dielectric constant tensor:
#      x y z
#    x 4.901720 0.260210 -0.183270 
#    y 0.260210 4.081860 0.185050 
#    z -0.183270 0.185050 4.474290 
# 
# 
# High freq. dielectric constant tensor:
#      x y z
#    x 1.969710 0.004300 -0.010200 
#    y 0.004300 1.933660 0.011490 
#    z -0.010200 0.011490 1.950010 
# 
# From -- ./inp_files/383694.got.cif
#   From: 2010.06.25/outbox.cif.g09.slc.cpg/sg2_192_cif.got.tgz:383694.got - 2010.06.27 13:26:56.
