data_PCOD8007458
_publ_section_title
;
Structure prediction by ZEFSAII (Michael W. Deem and Ramdas Pophale) SiO2 
 PCOD8007458
Probable space group: P -1
;
_chemical_formula_sum "Si O2"
_cell_formula_units_Z 16
_cell_length_a 9.011158
_cell_length_b 9.611346
_cell_length_c 14.308085
_cell_angle_alpha 120.877615
_cell_angle_beta 119.373757
_cell_angle_gamma 42.572722
_cell_volume 705.883349
_symmetry_space_group_name_H-M "P -1"
_symmetry_group_IT_number 2
_symmetry_cell_setting 'triclinic'
loop_
_space_group_symop_operation_xyz
x,y,z
-x,-y,-z
loop_
_atom_site_type_symbol
_atom_site_label
_atom_site_fract_x
_atom_site_fract_y
_atom_site_fract_z
Si Si1 0.347564 0.260164 0.108039
Si Si2 0.556037 0.611503 0.122058
Si Si3 0.707235 0.815271 0.130444
Si Si4 0.154712 0.395289 0.419322
Si Si5 0.091645 0.633519 0.304947
Si Si6 0.206438 0.986920 0.269316
Si Si7 0.293768 0.702778 0.784170
Si Si8 0.549471 0.336401 0.600284
O O1 0.190114 0.454784 0.194610
O O2 0.541172 0.254358 0.119774
O O3 0.464411 0.048262 0.132545
O O4 0.212845 0.265734 0.980431
O O5 0.706283 0.646103 0.125820
O O6 0.328472 0.837150 0.165282
O O7 0.704799 0.447875 0.195290
O O8 0.500000 0.500000 0.000000
O O9 0.868442 0.830999 0.249252
O O10 0.034531 0.571748 0.360802
O O11 0.404399 0.314416 0.479321
O O12 0.000000 0.500000 0.500000
O O13 0.193186 0.188317 0.328991
O O14 0.250545 0.688342 0.397756
O O15 0.342212 0.848525 0.354156
O O16 0.954857 0.071870 0.224547
O O17 0.378804 0.576244 0.669406
#
# Coordination Sequence:
#
# PCOD8007458 Si02
#       8
#     2   2   2   2   2   2   2   2
#     4  10  22  41  63  94 132 174 223 267 326 404
#     4  11  23  40  62 100 134 175 221 272 328 403
#     4  11  22  40  64  95 132 174 221 271 330 397
#     4  12  24  45  70  99 133 178 226 282 333 390
#     4  11  24  43  68  94 135 177 217 277 335 394
#     4  11  23  41  69  94 137 178 216 278 340 387
#     4  10  20  41  63  95 135 172 220 272 325 399
#     4  10  23  43  68  97 130 173 228 273 332 394
#
# _framework density 22.666634999999999
#
# number of rings (size 3 to 8) (size 9 to 14) (size 15 to 20)
#    0.000    1.250    2.500    3.375    1.750    0.500 
#    6.750    0.625    0.000    0.000    0.000    0.000 
#    0.000    0.000    0.000    0.000    0.000    0.000 
#
# Total GULP energy -198364.725428 kJ/mol
# GULP energy per Si atom -12397.795339 kJ/mol
# Density = 2.261504 g / cm^3
# Si number density = 22.666635 Si / 1000 Ang^3
#
#
#
# Elastic Constant Matrix: (Units=GPa)
#
#
# Indices 1 2 3 4 5 6 
#
# 1 92.6717 22.7970 38.6965 -11.9496 2.0045 10.0743
# 2 22.7970 78.3712 33.7850 -9.0575 -3.0597 -0.6787
# 3 38.6965 33.7850 87.5872 -11.0487 1.2409 -3.3001
# 4 -11.9496 -9.0575 -11.0487 41.2183 3.2217 2.7733
# 5 2.0045 -3.0597 1.2409 3.2217 30.9102 -3.1064
# 6 10.0743 -0.6787 -3.3001 2.7733 -3.1064 38.1818
#
#
#
# Elastic Compliance Matrix: (Units=1/GPa)
#
#
# Indices 1 2 3 4 5 6 
#
# 1 0.014395 -0.001576 -0.005553 0.002777 -0.001622 -0.004640
# 2 -0.001576 0.015692 -0.005188 0.001446 0.001742 0.000283
# 3 -0.005553 -0.005188 0.016165 0.001462 -0.000693 0.002608
# 4 0.002777 0.001446 0.001462 0.026202 -0.003102 -0.002736
# 5 -0.001622 0.001742 -0.000693 -0.003102 0.033316 0.003335
# 6 -0.004640 0.000283 0.002608 -0.002736 0.003335 0.028115
#
#
# Mechanical properties :
#
#
# Convention : Reuss Voigt Hill
#
# Bulk Modulus (GPa) = 46.26113 49.90969 48.08541
# Shear Modulus (GPa) = 30.17033 32.95217 31.56125
#
# Velocity S-wave (km/s) = 3.65231 3.81698 3.73555
# Velocity P-wave (km/s) = 6.18381 6.44147 6.31395
#
# Compressibility (1/GPa) = 0.02161642
#
# Stress axis : x y z
#
# Youngs Moduli (GPa) = 69.46882 63.72525 61.86394
#
# Poissons Ratio (x) = 0.10042 0.34356
# Poissons Ratio (y) = 0.10947 0.32098
# Poissons Ratio (z) = 0.38579 0.33064
#
# Static dielectric constant tensor:
#      x y z
#    x 4.433050 -0.001270 0.111400 
#    y -0.001270 4.238670 -0.149220 
#    z 0.111400 -0.149220 4.063550 
# 
# 
# High freq. dielectric constant tensor:
#      x y z
#    x 1.893070 0.009410 0.009020 
#    y 0.009410 1.898500 -0.009340 
#    z 0.009020 -0.009340 1.890600 
# 
# From -- ./inp_files/448447.got.cif
#   From: 2010.06.25/outbox.cif.g09.slc.cpg/sg2_225_cif.got.tgz:448447.got - 2010.06.27 13:26:56.
