data_PCOD8007574
_publ_section_title
;
Structure prediction by ZEFSAII (Michael W. Deem and Ramdas Pophale) SiO2 
 PCOD8007574
Probable space group: P -1
;
_chemical_formula_sum "Si O2"
_cell_formula_units_Z 16
_cell_length_a 20.959548
_cell_length_b 8.872876
_cell_length_c 12.705774
_cell_angle_alpha 108.375795
_cell_angle_beta 21.028755
_cell_angle_gamma 109.985402
_cell_volume 796.788252
_symmetry_space_group_name_H-M "P -1"
_symmetry_group_IT_number 2
_symmetry_cell_setting 'triclinic'
loop_
_space_group_symop_operation_xyz
x,y,z
-x,-y,-z
loop_
_atom_site_type_symbol
_atom_site_label
_atom_site_fract_x
_atom_site_fract_y
_atom_site_fract_z
Si Si1 0.452025 0.110307 0.190516
Si Si2 0.673304 0.290080 0.056158
Si Si3 0.812946 0.058209 0.272393
Si Si4 0.595603 0.880351 0.395375
Si Si5 0.691984 0.697890 0.710149
Si Si6 0.044069 0.186593 0.502190
Si Si7 0.630100 0.350804 0.652887
Si Si8 0.660404 0.640192 0.069838
O O1 0.631894 0.195556 0.989095
O O2 0.334463 0.238710 0.352307
O O3 0.336646 0.011071 0.432205
O O4 0.500000 0.000000 0.000000
O O5 0.528797 0.228008 0.353960
O O6 0.680271 0.475416 0.059955
O O7 0.863016 0.262156 0.802514
O O8 0.794372 0.248693 0.351844
O O9 0.759970 0.989648 0.223814
O O10 0.000000 0.000000 0.000000
O O11 0.677272 0.765783 0.165040
O O12 0.500000 0.000000 0.500000
O O13 0.869553 0.794897 0.510361
O O14 0.715850 0.512501 0.616006
O O15 0.521351 0.731474 0.051062
O O16 0.177040 0.296421 0.243829
O O17 0.000000 0.000000 0.500000
O O18 0.529092 0.378042 0.704573
#
# Coordination Sequence:
#
# PCOD8007574 Si02
#       8
#     2   2   2   2   2   2   2   2
#     4  11  21  38  65  90 124 163 210 257 314 376
#     4  11  24  40  61  96 126 162 216 259 314 377
#     4  11  25  40  61  95 128 162 214 263 311 375
#     4  11  23  41  66  87 127 176 206 254 318 377
#     4  10  21  39  66  92 122 167 201 261 320 368
#     4  11  24  39  63  99 128 157 213 267 312 370
#     4  10  20  41  65  92 124 162 213 254 318 379
#     4  11  22  42  66  88 127 171 212 259 312 379
#
# _framework density 20.080617
#
# number of rings (size 3 to 8) (size 9 to 14) (size 15 to 20)
#    0.000    1.250    3.750    2.250    3.500    4.000 
#    0.000    0.625    0.000    0.000    0.000    0.000 
#    0.000    0.000    0.000    0.000    0.000    0.000 
#
# Total GULP energy -198327.954907 kJ/mol
# GULP energy per Si atom -12395.497182 kJ/mol
# Density = 2.003491 g / cm^3
# Si number density = 20.080617 Si / 1000 Ang^3
#
#
#
# Elastic Constant Matrix: (Units=GPa)
#
#
# Indices 1 2 3 4 5 6 
#
# 1 95.2001 9.6056 5.1625 2.2841 -14.0053 15.7711
# 2 9.6056 80.7643 7.8195 8.4686 -10.2267 4.1243
# 3 5.1625 7.8195 37.3266 19.6985 -17.6265 11.9075
# 4 2.2841 8.4686 19.6985 33.4704 -2.7182 3.2420
# 5 -14.0053 -10.2267 -17.6265 -2.7182 38.4142 2.1648
# 6 15.7711 4.1243 11.9075 3.2420 2.1648 45.3842
#
#
#
# Elastic Compliance Matrix: (Units=1/GPa)
#
#
# Indices 1 2 3 4 5 6 
#
# 1 0.012244 -0.000544 0.004443 -0.002249 0.006510 -0.005521
# 2 -0.000544 0.013248 0.001527 -0.003773 0.003837 -0.001329
# 3 0.004443 0.001527 0.063167 -0.033791 0.029592 -0.017253
# 4 -0.002249 -0.003773 -0.033791 0.049020 -0.014265 0.007169
# 5 0.006510 0.003837 0.029592 -0.014265 0.042638 -0.011390
# 6 -0.005521 -0.001329 -0.017253 0.007169 -0.011390 0.028631
#
#
# Mechanical properties :
#
#
# Convention : Reuss Voigt Hill
#
# Bulk Modulus (GPa) = 10.04919 28.71850 19.38384
# Shear Modulus (GPa) = 21.62004 36.16732 28.89368
#
# Velocity S-wave (km/s) = 3.28481 4.24855 3.79738
# Velocity P-wave (km/s) = 4.40476 6.19674 5.37594
#
# Compressibility (1/GPa) = 0.09951046
#
# Stress axis : x y z
#
# Youngs Moduli (GPa) = 81.66955 75.48331 15.83110
#
# Poissons Ratio (x) = 0.04109 -0.07034
# Poissons Ratio (y) = 0.04446 -0.02418
# Poissons Ratio (z) = -0.36285 -0.11527
#
# Static dielectric constant tensor:
#      x y z
#    x 3.591730 0.196000 0.291700 
#    y 0.196000 3.600130 -0.178670 
#    z 0.291700 -0.178670 3.207380 
# 
# 
# High freq. dielectric constant tensor:
#      x y z
#    x 1.804130 -0.000940 0.003660 
#    y -0.000940 1.799540 0.007790 
#    z 0.003660 0.007790 1.757770 
# 
# From -- ./inp_files/209489.got.cif
#   From: 2010.06.25/outbox.cif.g09.slc.cpg/sg2_105_cif.got.tgz:209489.got - 2010.06.27 13:26:56.
