data_PCOD8007215
_publ_section_title
;
Structure prediction by ZEFSAII (Michael W. Deem and Ramdas Pophale) SiO2 
 PCOD8007215
Probable space group: P -1
;
_chemical_formula_sum "Si O2"
_cell_formula_units_Z 16
_cell_length_a 9.283786
_cell_length_b 11.370457
_cell_length_c 11.151838
_cell_angle_alpha 125.478195
_cell_angle_beta 91.751250
_cell_angle_gamma 54.748186
_cell_volume 695.999882
_symmetry_space_group_name_H-M "P -1"
_symmetry_group_IT_number 2
_symmetry_cell_setting 'triclinic'
loop_
_space_group_symop_operation_xyz
x,y,z
-x,-y,-z
loop_
_atom_site_type_symbol
_atom_site_label
_atom_site_fract_x
_atom_site_fract_y
_atom_site_fract_z
Si Si1 0.615876 0.969513 0.226017
Si Si2 0.276596 0.693809 0.084387
Si Si3 0.029343 0.115928 0.425682
Si Si4 0.678185 0.178212 0.067504
Si Si5 0.009136 0.293974 0.767912
Si Si6 0.340726 0.736090 0.625855
Si Si7 0.737089 0.690112 0.858561
Si Si8 0.791115 0.833709 0.725052
O O1 0.778900 0.807847 0.231425
O O2 0.567232 0.172803 0.352518
O O3 0.409396 0.030458 0.280862
O O4 0.674284 0.881256 0.038810
O O5 0.129598 0.666307 0.103516
O O6 0.214402 0.884323 0.263601
O O7 0.500000 0.500000 0.000000
O O8 0.274600 0.718976 0.956613
O O9 0.033807 0.149520 0.585899
O O10 0.040202 0.253814 0.423185
O O11 0.821055 0.184045 0.432168
O O12 0.764015 0.170395 0.192624
O O13 0.441840 0.303408 0.146109
O O14 0.798948 0.959575 0.892881
O O15 0.918694 0.496613 0.822386
O O16 0.500000 0.500000 0.500000
O O17 0.808076 0.678889 0.717410
#
# Coordination Sequence:
#
# PCOD8007215 Si02
#       8
#     2   2   2   2   2   2   2   2
#     4  11  23  42  69  99 138 177 233 281 338 407
#     4  11  23  40  69  98 132 183 229 277 343 409
#     4  11  27  44  68  99 145 178 227 285 348 400
#     4  10  20  40  68  97 130 174 231 284 331 394
#     4  12  25  43  68 100 145 182 224 282 349 405
#     4  12  24  41  69 104 135 181 225 284 347 401
#     4  11  20  42  70  96 131 181 229 281 336 403
#     4  10  22  43  72  94 129 185 230 278 333 402
#
# _framework density 22.988507999999999
#
# number of rings (size 3 to 8) (size 9 to 14) (size 15 to 20)
#    0.000    1.000    5.000    2.250    0.000    4.000 
#    0.000    0.000    0.000    0.000    0.000    0.000 
#    0.000    0.000    0.000    0.000    0.000    0.000 
#
# Total GULP energy -198329.337668 kJ/mol
# GULP energy per Si atom -12395.583604 kJ/mol
# Density = 2.293619 g / cm^3
# Si number density = 22.988508 Si / 1000 Ang^3
#
#
#
# Elastic Constant Matrix: (Units=GPa)
#
#
# Indices 1 2 3 4 5 6 
#
# 1 74.3241 29.7857 21.6156 -7.6068 6.5188 2.1446
# 2 29.7857 93.5727 7.1698 -2.7205 -4.2878 1.6975
# 3 21.6156 7.1698 51.2242 1.2383 10.0132 -8.0536
# 4 -7.6068 -2.7205 1.2383 47.9990 1.8458 1.5860
# 5 6.5188 -4.2878 10.0132 1.8458 22.1797 -13.2035
# 6 2.1446 1.6975 -8.0536 1.5860 -13.2035 38.5471
#
#
#
# Elastic Compliance Matrix: (Units=1/GPa)
#
#
# Indices 1 2 3 4 5 6 
#
# 1 0.018631 -0.005549 -0.006598 0.003210 -0.006541 -0.004543
# 2 -0.005549 0.012661 -0.000181 -0.000400 0.005065 0.001465
# 3 -0.006598 -0.000181 0.024236 -0.001511 -0.007081 0.003075
# 4 0.003210 -0.000400 -0.001511 0.021588 -0.003703 -0.002633
# 5 -0.006541 0.005065 -0.007081 -0.003703 0.063795 0.020666
# 6 -0.004543 0.001465 0.003075 -0.002633 0.020666 0.033960
#
#
# Mechanical properties :
#
#
# Convention : Reuss Voigt Hill
#
# Bulk Modulus (GPa) = 32.39244 37.36257 34.87750
# Shear Modulus (GPa) = 23.83027 32.44848 28.13937
#
# Velocity S-wave (km/s) = 3.22315 3.76108 3.50246
# Velocity P-wave (km/s) = 5.28894 5.92866 5.61791
#
# Compressibility (1/GPa) = 0.03087140
#
# Stress axis : x y z
#
# Youngs Moduli (GPa) = 53.67501 78.98328 41.26120
#
# Poissons Ratio (x) = 0.43827 0.27226
# Poissons Ratio (y) = 0.29783 0.00746
# Poissons Ratio (z) = 0.35417 0.01428
#
# Static dielectric constant tensor:
#      x y z
#    x 4.130510 0.207240 -0.026790 
#    y 0.207240 4.354050 -0.167280 
#    z -0.026790 -0.167280 4.156330 
# 
# 
# High freq. dielectric constant tensor:
#      x y z
#    x 1.900510 0.007330 0.004370 
#    y 0.007330 1.916930 -0.005570 
#    z 0.004370 -0.005570 1.891040 
# 
# From -- ./inp_files/244361.got.cif
#   From: 2010.06.25/outbox.cif.g09.slc.cpg/sg2_123_cif.got.tgz:244361.got - 2010.06.27 13:26:56.
