data_PCOD8007440
_publ_section_title
;
Structure prediction by ZEFSAII (Michael W. Deem and Ramdas Pophale) SiO2 
 PCOD8007440
Probable space group: P -1
;
_chemical_formula_sum "Si O2"
_cell_formula_units_Z 16
_cell_length_a 11.479908
_cell_length_b 14.417723
_cell_length_c 9.003859
_cell_angle_alpha 53.714926
_cell_angle_beta 73.112717
_cell_angle_gamma 43.767058
_cell_volume 805.528101
_symmetry_space_group_name_H-M "P -1"
_symmetry_group_IT_number 2
_symmetry_cell_setting 'triclinic'
loop_
_space_group_symop_operation_xyz
x,y,z
-x,-y,-z
loop_
_atom_site_type_symbol
_atom_site_label
_atom_site_fract_x
_atom_site_fract_y
_atom_site_fract_z
Si Si1 0.806481 0.145130 0.097844
Si Si2 0.837673 0.611959 0.061709
Si Si3 0.442022 0.377987 0.845058
Si Si4 0.502172 0.724984 0.409901
Si Si5 0.120503 0.505859 0.530351
Si Si6 0.618637 0.367486 0.212462
Si Si7 0.049327 0.154742 0.832221
Si Si8 0.680945 0.936710 0.950011
O O1 0.776698 0.194822 0.235701
O O2 0.887185 0.963932 0.219110
O O3 0.628366 0.265393 0.958155
O O4 0.941490 0.149367 0.989717
O O5 0.660196 0.668335 0.018168
O O6 0.903862 0.492318 0.287927
O O7 0.794647 0.773064 0.964286
O O8 0.000000 0.500000 0.000000
O O9 0.475522 0.359541 0.673381
O O10 0.323953 0.566128 0.764276
O O11 0.686579 0.660602 0.433561
O O12 0.472709 0.663235 0.618959
O O13 0.355104 0.922398 0.263320
O O14 0.000000 0.500000 0.500000
O O15 0.080555 0.663296 0.355051
O O16 0.500000 0.500000 0.000000
O O17 0.213678 0.101083 0.904939
O O18 0.500000 0.000000 0.000000
#
# Coordination Sequence:
#
# PCOD8007440 Si02
#       8
#     2   2   2   2   2   2   2   2
#     4  10  22  40  62  91 123 170 203 266 319 369
#     4  11  25  39  64  97 129 165 209 270 319 367
#     4  10  20  41  63  91 127 166 214 252 319 387
#     4  11  22  39  67  92 120 173 213 251 317 389
#     4  11  21  38  63  92 121 165 212 254 314 377
#     4  10  22  37  61  91 127 156 208 265 311 365
#     4  11  22  39  66  89 129 161 215 260 317 377
#     4  12  21  44  67  90 127 171 212 259 310 388
#
# _framework density 19.862746999999999
#
# number of rings (size 3 to 8) (size 9 to 14) (size 15 to 20)
#    0.000    1.250    5.000    1.875    1.750    4.000 
#    0.000    0.625    0.000    6.750    0.000    0.000 
#    0.000    0.000    0.000    0.000    0.000    0.000 
#
# Total GULP energy -198300.546141 kJ/mol
# GULP energy per Si atom -12393.784134 kJ/mol
# Density = 1.981754 g / cm^3
# Si number density = 19.862747 Si / 1000 Ang^3
#
#
#
# Elastic Constant Matrix: (Units=GPa)
#
#
# Indices 1 2 3 4 5 6 
#
# 1 100.1871 42.0029 17.9834 1.3384 -1.7865 7.5228
# 2 42.0029 153.7287 38.4631 7.0365 -11.2614 21.2749
# 3 17.9834 38.4631 94.8925 -2.1475 -10.2749 5.8848
# 4 1.3384 7.0365 -2.1475 33.6786 -5.6575 -6.4264
# 5 -1.7865 -11.2614 -10.2749 -5.6575 23.0674 -6.9644
# 6 7.5228 21.2749 5.8848 -6.4264 -6.9644 36.2869
#
#
#
# Elastic Compliance Matrix: (Units=1/GPa)
#
#
# Indices 1 2 3 4 5 6 
#
# 1 0.011401 -0.002798 -0.001124 -0.000325 -0.001320 -0.000852
# 2 -0.002798 0.008735 -0.002700 -0.002574 0.000889 -0.004389
# 3 -0.001124 -0.002700 0.012377 0.002487 0.005088 0.001226
# 4 -0.000325 -0.002574 0.002487 0.034022 0.010980 0.009306
# 5 -0.001320 0.000889 0.005088 0.010980 0.051913 0.010836
# 6 -0.000852 -0.004389 0.001226 0.009306 0.010836 0.033837
#
#
# Mechanical properties :
#
#
# Convention : Reuss Voigt Hill
#
# Bulk Modulus (GPa) = 51.89763 60.63413 56.26588
# Shear Modulus (GPa) = 29.07783 35.29717 32.18750
#
# Velocity S-wave (km/s) = 3.83029 4.22008 4.02991
# Velocity P-wave (km/s) = 6.76361 7.37145 7.07406
#
# Compressibility (1/GPa) = 0.01926870
#
# Stress axis : x y z
#
# Youngs Moduli (GPa) = 87.71328 114.47743 80.79527
#
# Poissons Ratio (x) = 0.32028 0.09082
# Poissons Ratio (y) = 0.24540 0.21818
# Poissons Ratio (z) = 0.09860 0.30913
#
# Static dielectric constant tensor:
#      x y z
#    x 3.804770 0.323730 -0.120230 
#    y 0.323730 4.253930 -0.305170 
#    z -0.120230 -0.305170 3.729410 
# 
# 
# High freq. dielectric constant tensor:
#      x y z
#    x 1.787900 0.007490 -0.006400 
#    y 0.007490 1.781980 -0.009320 
#    z -0.006400 -0.009320 1.758320 
# 
# From -- ./inp_files/177556.got.cif
#   From: 2010.06.25/outbox.cif.g09.slc.cpg/sg2_89_cif.got.tgz:177556.got - 2010.06.27 13:26:56.
