data_PCOD8007952
_publ_section_title
;
Structure prediction by ZEFSAII (Michael W. Deem and Ramdas Pophale) SiO2 
 PCOD8007952
Probable space group: P -1
;
_chemical_formula_sum "Si O2"
_cell_formula_units_Z 16
_cell_length_a 13.339858
_cell_length_b 12.526181
_cell_length_c 9.383723
_cell_angle_alpha 111.204737
_cell_angle_beta 65.549658
_cell_angle_gamma 138.721534
_cell_volume 938.314776
_symmetry_space_group_name_H-M "P -1"
_symmetry_group_IT_number 2
_symmetry_cell_setting 'triclinic'
loop_
_space_group_symop_operation_xyz
x,y,z
-x,-y,-z
loop_
_atom_site_type_symbol
_atom_site_label
_atom_site_fract_x
_atom_site_fract_y
_atom_site_fract_z
Si Si1 0.269848 0.226303 0.944448
Si Si2 0.538358 0.863091 0.507778
Si Si3 0.421510 0.658171 0.063264
Si Si4 0.832574 0.644506 0.755205
Si Si5 0.528169 0.953699 0.265019
Si Si6 0.181001 0.931930 0.742208
Si Si7 0.352031 0.498029 0.478476
Si Si8 0.378009 0.463152 0.752870
O O1 0.445743 0.312206 0.911716
O O2 0.271950 0.305694 0.839743
O O3 0.157951 0.035281 0.889762
O O4 0.206714 0.253755 0.127013
O O5 0.454651 0.849184 0.406220
O O6 0.455671 0.688356 0.525332
O O7 0.521911 0.950958 0.680259
O O8 0.720819 0.972066 0.415837
O O9 0.259491 0.513526 0.169300
O O10 0.457506 0.820960 0.117673
O O11 0.413390 0.609100 0.882387
O O12 0.792586 0.594798 0.588639
O O13 0.015645 0.754078 0.718949
O O14 0.717724 0.080073 0.223127
O O15 0.287837 0.421471 0.637424
O O16 0.456182 0.471618 0.345790
#
# Coordination Sequence:
#
# PCOD8007952 Si02
#       8
#     2   2   2   2   2   2   2   2
#     4  10  16  31  45  67  95 125 147 186 225 274
#     4   9  16  32  47  68  94 119 147 191 228 265
#     4  10  16  31  49  69  88 121 157 189 219 265
#     4  11  17  26  46  73  95 117 149 189 229 267
#     4   8  16  31  51  65  92 118 153 186 231 261
#     4   9  17  27  45  72  97 113 147 192 234 262
#     4  11  18  29  47  69  92 122 155 185 222 272
#     4  10  18  28  49  67  91 122 157 185 221 266
#
# _framework density 17.051846000000001
#
# number of rings (size 3 to 8) (size 9 to 14) (size 15 to 20)
#    0.750    1.500    5.000    1.125    0.000    0.000 
#    0.000    3.750    0.000    0.000    0.000    4.375 
#    0.000    0.000    0.000    0.000    0.000    0.000 
#
# Total GULP energy -198270.365104 kJ/mol
# GULP energy per Si atom -12391.897819 kJ/mol
# Density = 1.701304 g / cm^3
# Si number density = 17.051846 Si / 1000 Ang^3
#
#
#
# Elastic Constant Matrix: (Units=GPa)
#
#
# Indices 1 2 3 4 5 6 
#
# 1 37.6195 37.7233 31.1822 8.4210 -6.2748 8.5216
# 2 37.7233 78.8822 37.8505 16.1536 -7.9324 14.9815
# 3 31.1822 37.8505 81.5514 22.9257 5.3122 -5.3555
# 4 8.4210 16.1536 22.9257 26.5212 -7.4903 -3.7747
# 5 -6.2748 -7.9324 5.3122 -7.4903 24.1727 5.5766
# 6 8.5216 14.9815 -5.3555 -3.7747 5.5766 22.6881
#
#
#
# Elastic Compliance Matrix: (Units=1/GPa)
#
#
# Indices 1 2 3 4 5 6 
#
# 1 0.078143 -0.016360 -0.031613 0.017773 0.034654 -0.031571
# 2 -0.016360 0.030203 -0.007881 -0.006330 0.009849 -0.019134
# 3 -0.031613 -0.007881 0.038996 -0.024085 -0.033886 0.030605
# 4 0.017773 -0.006330 -0.024085 0.064216 0.028782 -0.004571
# 5 0.034654 0.009849 -0.033886 0.028782 0.079726 -0.042326
# 6 -0.031571 -0.019134 0.030605 -0.004571 -0.042326 0.085435
#
#
# Mechanical properties :
#
#
# Convention : Reuss Voigt Hill
#
# Bulk Modulus (GPa) = 28.06305 45.72943 36.89624
# Shear Modulus (GPa) = 9.99388 20.76290 15.37839
#
# Velocity S-wave (km/s) = 2.42355 3.49325 3.00636
# Velocity P-wave (km/s) = 4.93201 6.56860 5.80823
#
# Compressibility (1/GPa) = 0.03563405
#
# Stress axis : x y z
#
# Youngs Moduli (GPa) = 12.79697 33.10909 25.64388
#
# Poissons Ratio (x) = 0.54166 0.81068
# Poissons Ratio (y) = 0.20936 0.20211
# Poissons Ratio (z) = 0.40455 0.26094
#
# Static dielectric constant tensor:
#      x y z
#    x 2.862630 -0.069760 -0.114000 
#    y -0.069760 3.046610 0.330540 
#    z -0.114000 0.330540 3.240270 
# 
# 
# High freq. dielectric constant tensor:
#      x y z
#    x 1.614330 -0.004840 -0.014230 
#    y -0.004840 1.644700 0.026220 
#    z -0.014230 0.026220 1.647780 
# 
# From -- ./inp_files/227879.got.cif
#   From: 2010.06.25/outbox.cif.g09.slc.cpg/sg2_114_cif.got.tgz:227879.got - 2010.06.27 13:26:56.
