data_PCOD8007095
_publ_section_title
;
Structure prediction by ZEFSAII (Michael W. Deem and Ramdas Pophale) SiO2 
 PCOD8007095
Probable space group: P -1
;
_chemical_formula_sum "Si O2"
_cell_formula_units_Z 16
_cell_length_a 11.363141
_cell_length_b 13.113182
_cell_length_c 12.802730
_cell_angle_alpha 42.008519
_cell_angle_beta 91.007661
_cell_angle_gamma 58.103800
_cell_volume 750.036869
_symmetry_space_group_name_H-M "P -1"
_symmetry_group_IT_number 2
_symmetry_cell_setting 'triclinic'
loop_
_space_group_symop_operation_xyz
x,y,z
-x,-y,-z
loop_
_atom_site_type_symbol
_atom_site_label
_atom_site_fract_x
_atom_site_fract_y
_atom_site_fract_z
Si Si1 0.343664 0.367251 0.183237
Si Si2 0.687101 0.870631 0.163597
Si Si3 0.225358 0.173771 0.400320
Si Si4 0.808048 0.322026 0.853529
Si Si5 0.797448 0.156403 0.671872
Si Si6 0.592420 0.279721 0.769978
Si Si7 0.009228 0.131058 0.320964
Si Si8 0.893698 0.549675 0.602356
O O1 0.270619 0.267761 0.252185
O O2 0.329181 0.452086 0.234503
O O3 0.575115 0.129136 0.335478
O O4 0.216913 0.605493 0.922218
O O5 0.702352 0.795533 0.339861
O O6 0.897280 0.603084 0.319649
O O7 0.500000 0.000000 0.000000
O O8 0.660517 0.080145 0.003230
O O9 0.071480 0.219435 0.311759
O O10 0.124075 0.348111 0.366978
O O11 0.672775 0.357780 0.752458
O O12 0.904236 0.355525 0.759461
O O13 0.987961 0.033273 0.126874
O O14 0.678591 0.161295 0.743415
O O15 0.651742 0.456797 0.435492
O O16 0.838744 0.051374 0.635575
O O17 0.000000 0.000000 0.500000
#
# Coordination Sequence:
#
# PCOD8007095 Si02
#       8
#     2   2   2   2   2   2   2   2
#     4   9  21  40  64  93 118 162 206 250 302 362
#     4  11  26  42  58  92 131 159 198 254 311 365
#     4  10  21  42  64  89 121 163 207 249 300 363
#     4  10  20  40  67  90 122 156 209 254 296 366
#     4  10  23  38  62  94 120 161 212 245 305 363
#     4  11  23  39  65  91 119 168 203 251 309 360
#     4  11  24  40  61  93 127 161 202 259 306 358
#     4  10  24  41  63  90 123 162 203 251 308 361
#
# _framework density 21.332283
#
# number of rings (size 3 to 8) (size 9 to 14) (size 15 to 20)
#    0.000    1.750    1.250    1.500    3.500    6.500 
#    0.000    0.000    0.000    0.000    0.000    0.000 
#    0.000    0.000    0.000    0.000    0.000    0.000 
#
# Total GULP energy -198338.270720 kJ/mol
# GULP energy per Si atom -12396.141920 kJ/mol
# Density = 2.128373 g / cm^3
# Si number density = 21.332283 Si / 1000 Ang^3
#
#
#
# Elastic Constant Matrix: (Units=GPa)
#
#
# Indices 1 2 3 4 5 6 
#
# 1 73.2832 37.8861 23.7751 11.3629 -1.4590 10.0867
# 2 37.8861 75.0908 34.5982 2.3481 -5.8851 8.2349
# 3 23.7751 34.5982 129.4279 2.9964 -5.6115 -3.4530
# 4 11.3629 2.3481 2.9964 37.5938 -4.6609 4.8774
# 5 -1.4590 -5.8851 -5.6115 -4.6609 29.2662 -0.4565
# 6 10.0867 8.2349 -3.4530 4.8774 -0.4565 17.7369
#
#
#
# Elastic Compliance Matrix: (Units=1/GPa)
#
#
# Indices 1 2 3 4 5 6 
#
# 1 0.020312 -0.008844 -0.001510 -0.004869 -0.001931 -0.006450
# 2 -0.008844 0.020396 -0.003910 0.002884 0.003278 -0.005910
# 3 -0.001510 -0.003910 0.009224 -0.000525 0.000896 0.004637
# 4 -0.004869 0.002884 -0.000525 0.029391 0.004814 -0.006630
# 5 -0.001931 0.003278 0.000896 0.004814 0.035660 -0.000655
# 6 -0.006450 -0.005910 0.004637 -0.006630 -0.000655 0.065500
#
#
# Mechanical properties :
#
#
# Convention : Reuss Voigt Hill
#
# Bulk Modulus (GPa) = 46.72200 52.25784 49.48992
# Shear Modulus (GPa) = 23.13257 29.02220 26.07739
#
# Velocity S-wave (km/s) = 3.29658 3.69247 3.50013
# Velocity P-wave (km/s) = 6.03652 6.53677 6.29162
#
# Compressibility (1/GPa) = 0.02140319
#
# Stress axis : x y z
#
# Youngs Moduli (GPa) = 49.23131 49.02987 108.41808
#
# Poissons Ratio (x) = 0.43364 0.16372
# Poissons Ratio (y) = 0.43542 0.42389
# Poissons Ratio (z) = 0.07434 0.19170
#
# Static dielectric constant tensor:
#      x y z
#    x 3.659780 -0.095850 -0.086000 
#    y -0.095850 3.867150 -0.047430 
#    z -0.086000 -0.047430 4.152980 
# 
# 
# High freq. dielectric constant tensor:
#      x y z
#    x 1.811150 -0.000730 0.004870 
#    y -0.000730 1.834880 -0.005600 
#    z 0.004870 -0.005600 1.858720 
# 
# From -- ./inp_files/427601.got.cif
#   From: 2010.06.25/outbox.cif.g09.slc.cpg/sg2_214_cif.got.tgz:427601.got - 2010.06.27 13:26:56.
