data_PCOD8007714
_publ_section_title
;
Structure prediction by ZEFSAII (Michael W. Deem and Ramdas Pophale) SiO2 
 PCOD8007714
Probable space group: P -1
;
_chemical_formula_sum "Si O2"
_cell_formula_units_Z 14
_cell_length_a 15.545950
_cell_length_b 9.313097
_cell_length_c 18.935456
_cell_angle_alpha 39.276818
_cell_angle_beta 157.082689
_cell_angle_gamma 125.803397
_cell_volume 577.602135
_symmetry_space_group_name_H-M "P -1"
_symmetry_group_IT_number 2
_symmetry_cell_setting 'triclinic'
loop_
_space_group_symop_operation_xyz
x,y,z
-x,-y,-z
loop_
_atom_site_type_symbol
_atom_site_label
_atom_site_fract_x
_atom_site_fract_y
_atom_site_fract_z
Si Si1 0.334630 0.045198 0.427689
Si Si2 0.262229 0.360310 0.793491
Si Si3 0.950296 0.040376 0.045710
Si Si4 0.468284 0.752546 0.187374
Si Si5 0.935796 0.537923 0.250673
Si Si6 0.554761 0.357498 0.519606
Si Si7 0.384959 0.519595 0.079866
O O1 0.441268 0.790718 0.655160
O O2 0.500000 0.000000 0.500000
O O3 0.334060 0.279384 0.382938
O O4 0.045421 0.120570 0.157808
O O5 0.220695 0.485938 0.792615
O O6 0.478376 0.383530 0.907610
O O7 0.000000 0.500000 0.500000
O O8 0.334637 0.061820 0.972624
O O9 0.845511 0.845442 0.055499
O O10 0.700262 0.325049 0.718951
O O11 0.195601 0.891561 0.235505
O O12 0.456099 0.634757 0.299060
O O13 0.324105 0.678464 0.046813
O O14 0.765667 0.627618 0.438884
O O15 0.877440 0.424814 0.178561
#
# Coordination Sequence:
#
# PCOD8007714 Si02
#       7
#     2   2   2   2   2   2   2
#     4  10  16  30  59  96 124 160 208 251 314 377
#     4  12  26  47  66  89 133 170 213 271 319 370
#     4   9  16  30  59  91 124 166 198 249 319 368
#     4  11  24  43  67  99 123 170 218 259 318 380
#     4  11  23  42  67  95 130 168 210 265 317 379
#     4   9  17  30  59  95 124 156 211 256 305 382
#     4  12  22  40  69  95 127 171 214 259 317 380
#
# _framework density 24.238136999999998
#
# number of rings (size 3 to 8) (size 9 to 14) (size 15 to 20)
#    0.000    1.429    7.143    0.857    2.000    0.571 
#    2.571    0.714    0.000    1.714    0.000    0.000 
#    0.000    0.000    0.000    0.000    0.000    0.000 
#
# Total GULP energy -173587.838859 kJ/mol
# GULP energy per Si atom -12399.131347 kJ/mol
# Density = 2.418297 g / cm^3
# Si number density = 24.238137 Si / 1000 Ang^3
#
#
#
# Elastic Constant Matrix: (Units=GPa)
#
#
# Indices 1 2 3 4 5 6 
#
# 1 111.2429 46.0661 11.2106 4.7881 -28.1641 -7.5226
# 2 46.0661 139.3327 49.8548 17.3567 -26.3172 -1.6265
# 3 11.2106 49.8548 107.2917 -5.9550 -31.4352 -5.7916
# 4 4.7881 17.3567 -5.9550 50.6438 -3.5960 -11.9446
# 5 -28.1641 -26.3172 -31.4352 -3.5960 30.0950 6.3702
# 6 -7.5226 -1.6265 -5.7916 -11.9446 6.3702 34.5332
#
#
#
# Elastic Compliance Matrix: (Units=1/GPa)
#
#
# Indices 1 2 3 4 5 6 
#
# 1 0.013730 -0.003728 0.004711 0.001938 0.014399 0.001620
# 2 -0.003728 0.010841 -0.004724 -0.004514 0.001124 -0.002862
# 3 0.004711 -0.004724 0.016612 0.004859 0.017790 0.001989
# 4 0.001938 -0.004514 0.004859 0.023989 0.003991 0.008586
# 5 0.014399 0.001124 0.017790 0.003991 0.067793 -0.004952
# 6 0.001620 -0.002862 0.001989 0.008586 -0.004952 0.033392
#
#
# Mechanical properties :
#
#
# Convention : Reuss Voigt Hill
#
# Bulk Modulus (GPa) = 29.67127 63.57004 46.62066
# Shear Modulus (GPa) = 27.01638 39.77012 33.39325
#
# Velocity S-wave (km/s) = 3.34222 4.05508 3.71579
# Velocity P-wave (km/s) = 5.21172 6.94328 6.13886
#
# Compressibility (1/GPa) = 0.03370264
#
# Stress axis : x y z
#
# Youngs Moduli (GPa) = 72.83376 92.24333 60.19595
#
# Poissons Ratio (x) = 0.34388 -0.28361
# Poissons Ratio (y) = 0.27152 0.28434
# Poissons Ratio (z) = -0.34315 0.43572
#
# Static dielectric constant tensor:
#      x y z
#    x 4.168130 -0.822870 1.294200 
#    y -0.822870 3.887240 2.607810 
#    z 1.294200 2.607810 -0.352360 
# 
# 
# High freq. dielectric constant tensor:
#      x y z
#    x 1.974590 -0.005180 -0.014520 
#    y -0.005180 1.968620 0.007270 
#    z -0.014520 0.007270 1.971590 
# 
# From -- ./inp_files/599395.got.cif
#   From: 2010.06.25/outbox.cif.g09.slc.cpg/sg2_300_cif.got.tgz:599395.got - 2010.06.27 13:26:56.
