data_PCOD8007836
_publ_section_title
;
Structure prediction by ZEFSAII (Michael W. Deem and Ramdas Pophale) SiO2 
 PCOD8007836
Probable space group: P -1
;
_chemical_formula_sum "Si O2"
_cell_formula_units_Z 16
_cell_length_a 19.685042
_cell_length_b 13.464220
_cell_length_c 11.150188
_cell_angle_alpha 32.550707
_cell_angle_beta 32.001853
_cell_angle_gamma 30.382540
_cell_volume 720.526048
_symmetry_space_group_name_H-M "P -1"
_symmetry_group_IT_number 2
_symmetry_cell_setting 'triclinic'
loop_
_space_group_symop_operation_xyz
x,y,z
-x,-y,-z
loop_
_atom_site_type_symbol
_atom_site_label
_atom_site_fract_x
_atom_site_fract_y
_atom_site_fract_z
Si Si1 0.770562 0.146891 0.315547
Si Si2 0.153342 0.593352 0.896066
Si Si3 0.574067 0.208185 0.129877
Si Si4 0.471294 0.201041 0.764186
Si Si5 0.616008 0.810723 0.356072
Si Si6 0.715827 0.371996 0.917973
Si Si7 0.013196 0.310152 0.454802
Si Si8 0.910889 0.390147 0.283633
O O1 0.865958 0.230570 0.157836
O O2 0.609546 0.240086 0.524372
O O3 0.862563 0.886888 0.451921
O O4 0.751803 0.213790 0.137151
O O5 0.326107 0.407707 0.823139
O O6 0.111961 0.703368 0.711914
O O7 0.052509 0.497011 0.190265
O O8 0.508364 0.168898 0.388300
O O9 0.440243 0.402282 0.055153
O O10 0.657046 0.992293 0.144578
O O11 0.697131 0.265197 0.932016
O O12 0.454888 0.137625 0.720080
O O13 0.500000 0.000000 0.000000
O O14 0.757577 0.570676 0.392830
O O15 0.852404 0.413480 0.655997
O O16 0.003034 0.223731 0.423352
O O17 0.000000 0.500000 0.000000
#
# Coordination Sequence:
#
# PCOD8007836 Si02
#       8
#     2   2   2   2   2   2   2   2
#     4  12  25  42  64  96 129 175 213 257 327 384
#     4  10  24  42  67  95 127 172 214 263 321 384
#     4  10  22  40  68  95 119 170 218 268 321 370
#     4  11  22  43  66  92 134 162 210 273 315 381
#     4  10  20  41  69  93 121 167 218 264 324 378
#     4  11  24  42  62  93 134 162 216 277 310 383
#     4  11  23  44  63  91 135 171 209 267 325 374
#     4   9  20  41  65  92 129 161 211 266 313 386
#
# _framework density 22.205998999999998
#
# number of rings (size 3 to 8) (size 9 to 14) (size 15 to 20)
#    0.000    1.500    3.750    0.750    1.750    3.000 
#    2.250    0.000    0.000    0.000    0.000    0.000 
#    0.000    0.000    0.000    0.000    0.000    0.000 
#
# Total GULP energy -198325.344664 kJ/mol
# GULP energy per Si atom -12395.334042 kJ/mol
# Density = 2.215546 g / cm^3
# Si number density = 22.205999 Si / 1000 Ang^3
#
#
#
# Elastic Constant Matrix: (Units=GPa)
#
#
# Indices 1 2 3 4 5 6 
#
# 1 93.0012 28.2421 26.4032 -12.5793 5.1963 -11.1158
# 2 28.2421 24.6628 14.0701 2.2334 0.4842 -2.2535
# 3 26.4032 14.0701 101.8697 8.0613 -5.0264 -11.6961
# 4 -12.5793 2.2334 8.0613 34.9028 -12.7001 -4.4002
# 5 5.1963 0.4842 -5.0264 -12.7001 46.0123 -11.7625
# 6 -11.1158 -2.2535 -11.6961 -4.4002 -11.7625 35.1542
#
#
#
# Elastic Compliance Matrix: (Units=1/GPa)
#
#
# Indices 1 2 3 4 5 6 
#
# 1 0.020301 -0.022458 -0.002171 0.010923 0.002361 0.006415
# 2 -0.022458 0.069049 -0.003624 -0.014134 -0.004300 -0.007088
# 3 -0.002171 -0.003624 0.011509 -0.002156 0.001772 0.003233
# 4 0.010923 -0.014134 -0.002156 0.039935 0.012519 0.011018
# 5 0.002361 -0.004300 0.001772 0.012519 0.028249 0.012080
# 6 0.006415 -0.007088 0.003233 0.011018 0.012080 0.036517
#
#
# Mechanical properties :
#
#
# Convention : Reuss Voigt Hill
#
# Bulk Modulus (GPa) = 22.54661 39.66271 31.10466
# Shear Modulus (GPa) = 18.06035 33.26840 25.66438
#
# Velocity S-wave (km/s) = 2.85495 3.87482 3.40331
# Velocity P-wave (km/s) = 4.58728 6.15784 5.42965
#
# Compressibility (1/GPa) = 0.04435257
#
# Stress axis : x y z
#
# Youngs Moduli (GPa) = 49.25803 14.48254 86.88846
#
# Poissons Ratio (x) = 0.32525 0.18866
# Poissons Ratio (y) = 1.10625 0.31484
# Poissons Ratio (z) = 0.10695 0.05248
#
# Static dielectric constant tensor:
#      x y z
#    x 4.360360 -0.118140 0.024480 
#    y -0.118140 3.745300 -0.066140 
#    z 0.024480 -0.066140 4.323170 
# 
# 
# High freq. dielectric constant tensor:
#      x y z
#    x 1.882730 -0.020550 0.005010 
#    y -0.020550 1.849360 0.005360 
#    z 0.005010 0.005360 1.883580 
# 
# From -- ./inp_files/471654.got.cif
#   From: 2010.06.25/outbox.cif.g09.slc.cpg/sg2_236_cif.got.tgz:471654.got - 2010.06.27 13:26:56.
