data_PCOD8007717
_publ_section_title
;
Structure prediction by ZEFSAII (Michael W. Deem and Ramdas Pophale) SiO2 
 PCOD8007717
Probable space group: P -1
;
_chemical_formula_sum "Si O2"
_cell_formula_units_Z 16
_cell_length_a 9.172661
_cell_length_b 14.136316
_cell_length_c 20.772590
_cell_angle_alpha 20.735987
_cell_angle_beta 53.845815
_cell_angle_gamma 64.492868
_cell_volume 697.505551
_symmetry_space_group_name_H-M "P -1"
_symmetry_group_IT_number 2
_symmetry_cell_setting 'triclinic'
loop_
_space_group_symop_operation_xyz
x,y,z
-x,-y,-z
loop_
_atom_site_type_symbol
_atom_site_label
_atom_site_fract_x
_atom_site_fract_y
_atom_site_fract_z
Si Si1 0.897146 0.195433 0.464838
Si Si2 0.723756 0.521180 0.482721
Si Si3 0.957981 0.649064 0.812854
Si Si4 0.742750 0.515492 0.714970
Si Si5 0.154868 0.909000 0.131330
Si Si6 0.689936 0.905175 0.892264
Si Si7 0.319373 0.450689 0.664328
Si Si8 0.907286 0.123353 0.232709
O O1 0.719166 0.259319 0.499754
O O2 0.920389 0.296900 0.319656
O O3 0.104786 0.366727 0.339986
O O4 0.828497 0.841834 0.716850
O O5 0.548533 0.513921 0.580310
O O6 0.719987 0.676535 0.317170
O O7 0.932776 0.712909 0.341449
O O8 0.704261 0.202953 0.665856
O O9 0.104251 0.759502 0.766668
O O10 0.836617 0.297014 0.085895
O O11 0.780564 0.268852 0.823754
O O12 0.765274 0.775036 0.493233
O O13 0.518742 0.371328 0.893012
O O14 0.303117 0.012361 0.086655
O O15 0.163050 0.200714 0.909344
O O16 0.865583 0.822504 0.876186
#
# Coordination Sequence:
#
# PCOD8007717 Si02
#       8
#     2   2   2   2   2   2   2   2
#     4  10  20  41  67  93 127 169 212 265 317 369
#     4  11  23  38  61  92 131 172 204 248 305 381
#     4   9  20  42  70  91 120 164 216 275 322 358
#     4  11  23  39  63  94 132 171 207 252 317 377
#     4  12  23  40  61  92 140 171 205 250 308 380
#     4  12  24  40  63  95 133 171 206 258 311 381
#     4  11  23  38  61  95 131 168 204 257 309 383
#     4  10  21  42  67  94 125 163 214 269 318 371
#
# _framework density 22.938887000000001
#
# number of rings (size 3 to 8) (size 9 to 14) (size 15 to 20)
#    0.000    1.250    3.750    2.625    0.000    0.000 
#    0.000    7.500    0.000    6.000    0.000    0.000 
#    0.000    0.000    0.000    0.000    0.000    0.000 
#
# Total GULP energy -198300.652600 kJ/mol
# GULP energy per Si atom -12393.790787 kJ/mol
# Density = 2.288668 g / cm^3
# Si number density = 22.938887 Si / 1000 Ang^3
#
#
#
# Elastic Constant Matrix: (Units=GPa)
#
#
# Indices 1 2 3 4 5 6 
#
# 1 75.9000 36.9421 51.1628 3.1219 5.0423 -4.4816
# 2 36.9421 100.2367 30.6085 -0.3308 4.5036 -7.6626
# 3 51.1628 30.6085 127.8534 10.1716 14.3382 -21.5239
# 4 3.1219 -0.3308 10.1716 25.3752 -1.8644 14.4162
# 5 5.0423 4.5036 14.3382 -1.8644 42.3983 9.6982
# 6 -4.4816 -7.6626 -21.5239 14.4162 9.6982 32.2881
#
#
#
# Elastic Compliance Matrix: (Units=1/GPa)
#
#
# Indices 1 2 3 4 5 6 
#
# 1 0.021409 -0.005777 -0.009527 0.006258 0.003533 -0.008606
# 2 -0.005777 0.012368 0.000115 -0.001040 -0.001421 0.003101
# 3 -0.009527 0.000115 0.018499 -0.020507 -0.011442 0.023629
# 4 0.006258 -0.001040 -0.020507 0.080069 0.022533 -0.055567
# 5 0.003533 -0.001421 -0.011442 0.022533 0.034562 -0.027916
# 6 -0.008606 0.003101 0.023629 -0.055567 -0.027916 0.079459
#
#
# Mechanical properties :
#
#
# Convention : Reuss Voigt Hill
#
# Bulk Modulus (GPa) = 45.66685 60.15745 52.91215
# Shear Modulus (GPa) = 17.60295 32.36407 24.98351
#
# Velocity S-wave (km/s) = 2.77318 3.76025 3.30378
# Velocity P-wave (km/s) = 5.49593 6.71823 6.13759
#
# Compressibility (1/GPa) = 0.02189772
#
# Stress axis : x y z
#
# Youngs Moduli (GPa) = 46.71020 80.85502 54.05738
#
# Poissons Ratio (x) = 0.46709 0.51500
# Poissons Ratio (y) = 0.26984 -0.00622
# Poissons Ratio (z) = 0.44500 -0.00930
#
# Static dielectric constant tensor:
#      x y z
#    x 4.024380 0.007050 0.309090 
#    y 0.007050 4.059310 -0.053360 
#    z 0.309090 -0.053360 4.541340 
# 
# 
# High freq. dielectric constant tensor:
#      x y z
#    x 1.882380 0.002300 0.033130 
#    y 0.002300 1.907570 0.000930 
#    z 0.033130 0.000930 1.910820 
# 
# From -- ./inp_files/590401.got.cif
#   From: 2010.06.25/outbox.cif.g09.slc.cpg/sg2_296_cif.got.tgz:590401.got - 2010.06.27 13:26:56.
