data_PCOD8007526
_publ_section_title
;
Structure prediction by ZEFSAII (Michael W. Deem and Ramdas Pophale) SiO2 
 PCOD8007526
Probable space group: P -1
;
_chemical_formula_sum "Si O2"
_cell_formula_units_Z 16
_cell_length_a 7.429277
_cell_length_b 8.385350
_cell_length_c 16.232373
_cell_angle_alpha 132.716554
_cell_angle_beta 70.042775
_cell_angle_gamma 107.122316
_cell_volume 695.452127
_symmetry_space_group_name_H-M "P -1"
_symmetry_group_IT_number 2
_symmetry_cell_setting 'triclinic'
loop_
_space_group_symop_operation_xyz
x,y,z
-x,-y,-z
loop_
_atom_site_type_symbol
_atom_site_label
_atom_site_fract_x
_atom_site_fract_y
_atom_site_fract_z
Si Si1 0.522710 0.741132 0.547692
Si Si2 0.810984 0.347795 0.074773
Si Si3 0.595040 0.493095 0.816976
Si Si4 0.380651 0.106145 0.801066
Si Si5 0.108332 0.186836 0.396905
Si Si6 0.654261 0.944775 0.025771
Si Si7 0.750423 0.399376 0.588029
Si Si8 0.020461 0.768829 0.154810
O O1 0.500000 0.500000 0.500000
O O2 0.742954 0.837106 0.559174
O O3 0.450203 0.722210 0.457962
O O4 0.382356 0.889853 0.670189
O O5 0.607379 0.436529 0.159694
O O6 0.976612 0.543589 0.134870
O O7 0.814931 0.270048 0.951041
O O8 0.833007 0.132691 0.052303
O O9 0.552756 0.288502 0.813053
O O10 0.711656 0.698732 0.916636
O O11 0.726999 0.426615 0.698105
O O12 0.171406 0.190703 0.852820
O O13 0.424191 0.039662 0.864178
O O14 0.191596 0.368438 0.382433
O O15 0.912966 0.239230 0.488237
O O16 0.086353 0.959293 0.273308
O O17 0.500000 0.000000 0.000000
#
# Coordination Sequence:
#
# PCOD8007526 Si02
#       8
#     2   2   2   2   2   2   2   2
#     4  10  23  39  66  99 127 178 220 276 323 392
#     4   9  21  37  63  95 127 179 209 268 333 386
#     4  10  22  40  66  98 135 178 216 275 331 400
#     4  11  23  41  65  97 133 178 221 274 334 388
#     4  10  21  39  69  98 130 178 218 279 327 389
#     4  10  22  39  63  96 126 171 223 266 329 395
#     4  10  21  42  66  99 133 172 228 267 336 387
#     4  10  20  41  64  96 138 169 220 272 332 392
#
# _framework density 23.006616999999999
#
# number of rings (size 3 to 8) (size 9 to 14) (size 15 to 20)
#    0.000    2.000    1.250    1.125   10.500    1.000 
#    2.250    1.875    0.000    0.000    0.000    0.000 
#    0.000    0.000    0.000    0.000    0.000    0.000 
#
# Total GULP energy -198316.436807 kJ/mol
# GULP energy per Si atom -12394.777300 kJ/mol
# Density = 2.295425 g / cm^3
# Si number density = 23.006617 Si / 1000 Ang^3
#
#
#
# Elastic Constant Matrix: (Units=GPa)
#
#
# Indices 1 2 3 4 5 6 
#
# 1 65.1640 20.3305 15.8416 4.7547 2.7227 6.0053
# 2 20.3305 148.3094 71.0564 6.1661 8.4596 17.0485
# 3 15.8416 71.0564 140.9367 23.4754 -1.5033 13.8654
# 4 4.7547 6.1661 23.4754 42.0394 6.7564 1.9738
# 5 2.7227 8.4596 -1.5033 6.7564 28.5057 3.6508
# 6 6.0053 17.0485 13.8654 1.9738 3.6508 23.9665
#
#
#
# Elastic Compliance Matrix: (Units=1/GPa)
#
#
# Indices 1 2 3 4 5 6 
#
# 1 0.016316 -0.001581 -0.000628 -0.001059 -0.000560 -0.002428
# 2 -0.001581 0.009727 -0.004760 0.002060 -0.003029 -0.003477
# 3 -0.000628 -0.004760 0.010844 -0.005759 0.003772 -0.002831
# 4 -0.001059 0.002060 -0.005759 0.027992 -0.007574 0.000980
# 5 -0.000560 -0.003029 0.003772 -0.007574 0.038688 -0.005156
# 6 -0.002428 -0.003477 -0.002831 0.000980 -0.005156 0.047149
#
#
# Mechanical properties :
#
#
# Convention : Reuss Voigt Hill
#
# Bulk Modulus (GPa) = 43.57241 63.20746 53.38993
# Shear Modulus (GPa) = 29.01882 35.38110 32.19996
#
# Velocity S-wave (km/s) = 3.55537 3.92582 3.74518
# Velocity P-wave (km/s) = 5.98618 6.93416 6.47754
#
# Compressibility (1/GPa) = 0.02295030
#
# Stress axis : x y z
#
# Youngs Moduli (GPa) = 61.28900 102.81092 92.22017
#
# Poissons Ratio (x) = 0.16252 0.05789
# Poissons Ratio (y) = 0.09689 0.43893
# Poissons Ratio (z) = 0.03847 0.48933
#
# Static dielectric constant tensor:
#      x y z
#    x 4.210820 0.242990 0.081470 
#    y 0.242990 4.607200 0.431460 
#    z 0.081470 0.431460 4.113490 
# 
# 
# High freq. dielectric constant tensor:
#      x y z
#    x 1.894150 0.006380 -0.004710 
#    y 0.006380 1.911360 0.025760 
#    z -0.004710 0.025760 1.913240 
# 
# From -- ./inp_files/495697.got.cif
#   From: 2010.06.25/outbox.cif.g09.slc.cpg/sg2_248_cif.got.tgz:495697.got - 2010.06.27 13:26:56.
