data_PCOD8007065
_publ_section_title
;
Structure prediction by ZEFSAII (Michael W. Deem and Ramdas Pophale) SiO2 
 PCOD8007065
Probable space group: P -1
;
_chemical_formula_sum "Si O2"
_cell_formula_units_Z 14
_cell_length_a 11.934218
_cell_length_b 11.522539
_cell_length_c 9.838363
_cell_angle_alpha 64.837805
_cell_angle_beta 40.079622
_cell_angle_gamma 49.053417
_cell_volume 649.793529
_symmetry_space_group_name_H-M "P -1"
_symmetry_group_IT_number 2
_symmetry_cell_setting 'triclinic'
loop_
_space_group_symop_operation_xyz
x,y,z
-x,-y,-z
loop_
_atom_site_type_symbol
_atom_site_label
_atom_site_fract_x
_atom_site_fract_y
_atom_site_fract_z
Si Si1 0.389984 0.885246 0.382111
Si Si2 0.963016 0.424219 0.291204
Si Si3 0.825495 0.838556 0.997014
Si Si4 0.003834 0.764429 0.401657
Si Si5 0.787232 0.101623 0.730753
Si Si6 0.482943 0.601720 0.590111
Si Si7 0.107890 0.647174 0.061522
O O1 0.397516 0.834765 0.241700
O O2 0.358818 0.779222 0.564832
O O3 0.204112 0.061944 0.496683
O O4 0.612066 0.855625 0.222171
O O5 0.710697 0.545731 0.464497
O O6 0.029777 0.298563 0.174571
O O7 0.038148 0.337252 0.409232
O O8 0.076407 0.512096 0.116230
O O9 0.766344 0.002500 0.913907
O O10 0.954751 0.799202 0.036101
O O11 0.205619 0.763012 0.269419
O O12 0.052966 0.687512 0.248487
O O13 0.000000 0.000000 0.500000
O O14 0.500000 0.500000 0.500000
O O15 0.348404 0.590150 0.839859
#
# Coordination Sequence:
#
# PCOD8007065 Si02
#       7
#     2   2   2   2   2   2   2
#     4  11  23  43  70 105 132 179 231 280 334 404
#     4  12  24  47  67 101 138 178 231 280 328 411
#     4  12  22  42  72 103 131 177 233 280 335 399
#     4  11  26  45  67  99 144 176 223 283 341 403
#     4  10  20  40  66  98 132 172 227 277 329 398
#     4  12  24  43  73  99 135 176 231 282 333 398
#     4  12  26  45  69 102 139 182 223 278 348 397
#
# _framework density 21.545307000000001
#
# number of rings (size 3 to 8) (size 9 to 14) (size 15 to 20)
#    0.000    0.571    5.714    4.714    0.000    3.429 
#    2.571    0.000    0.000    0.000    0.000    0.000 
#    0.000    0.000    0.000    0.000    0.000    0.000 
#
# Total GULP energy -173655.222067 kJ/mol
# GULP energy per Si atom -12403.944433 kJ/mol
# Density = 2.149627 g / cm^3
# Si number density = 21.545307 Si / 1000 Ang^3
#
#
#
# Elastic Constant Matrix: (Units=GPa)
#
#
# Indices 1 2 3 4 5 6 
#
# 1 35.8563 6.6923 15.8204 0.4442 0.6672 9.6972
# 2 6.6923 79.1830 29.8162 -18.7326 -3.0303 -18.3075
# 3 15.8204 29.8162 101.4877 -20.3043 -6.5680 -4.6301
# 4 0.4442 -18.7326 -20.3043 38.1610 2.2167 -1.3738
# 5 0.6672 -3.0303 -6.5680 2.2167 42.9077 -1.3916
# 6 9.6972 -18.3075 -4.6301 -1.3738 -1.3916 19.3008
#
#
#
# Elastic Compliance Matrix: (Units=1/GPa)
#
#
# Indices 1 2 3 4 5 6 
#
# 1 0.043320 -0.012046 -0.007354 -0.011439 -0.003227 -0.036002
# 2 -0.012046 0.023854 -0.001231 0.012136 0.002010 0.029392
# 3 -0.007354 -0.001231 0.013082 0.006557 0.001894 0.006268
# 4 -0.011439 0.012136 0.006557 0.036509 0.000850 0.021492
# 5 -0.003227 0.002010 0.001894 0.000850 0.023931 0.005768
# 6 -0.036002 0.029392 0.006268 0.021492 0.005768 0.101229
#
#
# Mechanical properties :
#
#
# Convention : Reuss Voigt Hill
#
# Bulk Modulus (GPa) = 25.64445 35.68719 30.66582
# Shear Modulus (GPa) = 16.88129 31.02042 23.95085
#
# Velocity S-wave (km/s) = 2.80219 3.79856 3.33776
# Velocity P-wave (km/s) = 4.73266 5.98652 5.39613
#
# Compressibility (1/GPa) = 0.03899479
#
# Stress axis : x y z
#
# Youngs Moduli (GPa) = 23.08380 41.92098 76.44081
#
# Poissons Ratio (x) = 0.50497 0.56214
# Poissons Ratio (y) = 0.27806 0.09413
# Poissons Ratio (z) = 0.16976 0.05162
#
# Static dielectric constant tensor:
#      x y z
#    x 4.745420 -0.692040 0.017020 
#    y -0.692040 4.823410 -0.580170 
#    z 0.017020 -0.580170 4.093690 
# 
# 
# High freq. dielectric constant tensor:
#      x y z
#    x 1.846780 -0.011420 -0.010220 
#    y -0.011420 1.843330 -0.024110 
#    z -0.010220 -0.024110 1.848280 
# 
# From -- ./inp_files/184956.got.cif
#   From: 2010.06.25/outbox.cif.g09.slc.cpg/sg2_93_cif.got.tgz:184956.got - 2010.06.27 13:26:56.
