data_PCOD8007646
_publ_section_title
;
Structure prediction by ZEFSAII (Michael W. Deem and Ramdas Pophale) SiO2 
 PCOD8007646
Probable space group: P -1
;
_chemical_formula_sum "Si O2"
_cell_formula_units_Z 16
_cell_length_a 18.923232
_cell_length_b 9.373579
_cell_length_c 12.669969
_cell_angle_alpha 137.701307
_cell_angle_beta 28.564417
_cell_angle_gamma 138.812879
_cell_volume 685.178682
_symmetry_space_group_name_H-M "P -1"
_symmetry_group_IT_number 2
_symmetry_cell_setting 'triclinic'
loop_
_space_group_symop_operation_xyz
x,y,z
-x,-y,-z
loop_
_atom_site_type_symbol
_atom_site_label
_atom_site_fract_x
_atom_site_fract_y
_atom_site_fract_z
Si Si1 0.130695 0.739202 0.467009
Si Si2 0.367893 0.168201 0.659779
Si Si3 0.425123 0.796926 0.239513
Si Si4 0.311066 0.353767 0.259287
Si Si5 0.979643 0.917709 0.600326
Si Si6 0.155113 0.842828 0.917764
Si Si7 0.306832 0.475492 0.557314
Si Si8 0.140523 0.175185 0.796501
O O1 0.299215 0.724739 0.269671
O O2 0.000000 0.500000 0.500000
O O3 0.125722 0.851800 0.419439
O O4 0.090544 0.906101 0.695729
O O5 0.508242 0.393508 0.622228
O O6 0.223510 0.232015 0.832629
O O7 0.428914 0.026093 0.415774
O O8 0.306641 0.032730 0.774641
O O9 0.403077 0.614089 0.261322
O O10 0.590336 0.816595 0.980937
O O11 0.171456 0.302906 0.330238
O O12 0.253633 0.322280 0.438893
O O13 0.000000 0.000000 0.500000
O O14 0.934466 0.086897 0.830320
O O15 0.207359 0.643587 0.785341
O O16 0.019905 0.760123 0.959231
O O17 0.267932 0.313137 0.619414
#
# Coordination Sequence:
#
# PCOD8007646 Si02
#       8
#     2   2   2   2   2   2   2   2
#     4  10  20  41  66  94 126 168 216 262 319 385
#     4  11  23  43  66  95 129 173 220 266 317 386
#     4  10  22  39  64  95 125 166 216 271 310 377
#     4  11  22  37  64  94 128 164 218 263 320 372
#     4  11  24  43  65  97 132 167 213 270 329 386
#     4  11  23  42  68  94 128 173 222 260 320 389
#     4  12  24  42  67  96 134 174 213 266 326 385
#     4  10  24  42  63  97 134 166 214 271 328 381
#
# _framework density 23.351572999999998
#
# number of rings (size 3 to 8) (size 9 to 14) (size 15 to 20)
#    0.000    1.250    2.500    3.750    3.500    0.000 
#    0.000   11.875    0.000    0.000    0.000    0.000 
#    0.000    0.000    0.000    0.000    0.000    0.000 
#
# Total GULP energy -198322.531533 kJ/mol
# GULP energy per Si atom -12395.158221 kJ/mol
# Density = 2.329842 g / cm^3
# Si number density = 23.351573 Si / 1000 Ang^3
#
#
#
# Elastic Constant Matrix: (Units=GPa)
#
#
# Indices 1 2 3 4 5 6 
#
# 1 106.5382 6.2348 20.7737 8.0215 -11.1173 -6.7833
# 2 6.2348 56.8026 15.1597 2.3421 -3.3765 -11.9783
# 3 20.7737 15.1597 68.7137 -7.7387 2.5311 -9.7689
# 4 8.0215 2.3421 -7.7387 19.0780 0.1309 1.5919
# 5 -11.1173 -3.3765 2.5311 0.1309 33.1325 -14.5698
# 6 -6.7833 -11.9783 -9.7689 1.5919 -14.5698 35.2961
#
#
#
# Elastic Compliance Matrix: (Units=1/GPa)
#
#
# Indices 1 2 3 4 5 6 
#
# 1 0.011627 0.001491 -0.004248 -0.007217 0.006399 0.004532
# 2 0.001491 0.021393 -0.004767 -0.006028 0.007241 0.009488
# 3 -0.004248 -0.004767 0.018227 0.009704 -0.002916 0.000969
# 4 -0.007217 -0.006028 0.009704 0.060698 -0.006780 -0.006283
# 5 0.006399 0.007241 -0.002916 -0.006780 0.042417 0.020695
# 6 0.004532 0.009488 0.000969 -0.006283 0.020695 0.041517
#
#
# Mechanical properties :
#
#
# Convention : Reuss Voigt Hill
#
# Bulk Modulus (GPa) = 27.62535 35.15455 31.38995
# Shear Modulus (GPa) = 22.42202 30.16042 26.29122
#
# Velocity S-wave (km/s) = 3.10206 3.59775 3.35906
# Velocity P-wave (km/s) = 4.96852 5.68732 5.34003
#
# Compressibility (1/GPa) = 0.03619864
#
# Stress axis : x y z
#
# Youngs Moduli (GPa) = 86.00588 46.74375 54.86245
#
# Poissons Ratio (x) = -0.06970 0.23308
# Poissons Ratio (y) = -0.12825 0.26155
# Poissons Ratio (z) = 0.36538 0.22284
#
# Static dielectric constant tensor:
#      x y z
#    x 4.706310 0.199510 -0.388510 
#    y 0.199510 4.237330 -0.056360 
#    z -0.388510 -0.056360 4.024800 
# 
# 
# High freq. dielectric constant tensor:
#      x y z
#    x 1.944570 0.002580 -0.016400 
#    y 0.002580 1.918660 -0.005600 
#    z -0.016400 -0.005600 1.901050 
# 
# From -- ./inp_files/352245.got.cif
#   From: 2010.06.25/outbox.cif.g09.slc.cpg/sg2_177_cif.got.tgz:352245.got - 2010.06.27 13:26:56.
