data_PCOD8007604
_publ_section_title
;
Structure prediction by ZEFSAII (Michael W. Deem and Ramdas Pophale) SiO2 
 PCOD8007604
Probable space group: P -1
;
_chemical_formula_sum "Si O2"
_cell_formula_units_Z 14
_cell_length_a 20.265064
_cell_length_b 11.611541
_cell_length_c 15.390489
_cell_angle_alpha 149.294395
_cell_angle_beta 160.091433
_cell_angle_gamma 29.313358
_cell_volume 586.158491
_symmetry_space_group_name_H-M "P -1"
_symmetry_group_IT_number 2
_symmetry_cell_setting 'triclinic'
loop_
_space_group_symop_operation_xyz
x,y,z
-x,-y,-z
loop_
_atom_site_type_symbol
_atom_site_label
_atom_site_fract_x
_atom_site_fract_y
_atom_site_fract_z
Si Si1 0.252202 0.131137 0.488914
Si Si2 0.201645 0.617047 0.664498
Si Si3 0.054779 0.415675 0.110353
Si Si4 0.536279 0.274436 0.639662
Si Si5 0.497627 0.742154 0.974559
Si Si6 0.869768 0.852211 0.281565
Si Si7 0.858166 0.093256 0.053500
O O1 0.254382 0.329217 0.548292
O O2 0.016326 0.151448 0.222776
O O3 0.391620 0.863309 0.452105
O O4 0.334609 0.179282 0.715659
O O5 0.354495 0.675907 0.825471
O O6 0.234424 0.700130 0.855087
O O7 0.960215 0.758437 0.428547
O O8 0.287723 0.379685 0.404516
O O9 0.893983 0.617548 0.101890
O O10 0.000000 0.500000 0.000000
O O11 0.023603 0.162764 0.919740
O O12 0.602591 0.510153 0.890552
O O13 0.659782 0.088909 0.749145
O O14 0.369802 0.968184 0.900502
O O15 0.000000 0.000000 0.500000
#
# Coordination Sequence:
#
# PCOD8007604 Si02
#       7
#     2   2   2   2   2   2   2
#     4  12  26  46  66 101 145 180 225 283 343 408
#     4  11  22  42  71  96 138 179 231 280 333 401
#     4  12  24  44  74 100 133 175 235 285 334 408
#     4  12  25  43  73 101 135 178 233 279 341 399
#     4  11  24  44  72 105 131 180 235 282 335 404
#     4  10  20  41  66 100 131 168 227 286 333 388
#     4  12  27  44  68 102 141 181 223 284 348 401
#
# _framework density 23.884323999999999
#
# number of rings (size 3 to 8) (size 9 to 14) (size 15 to 20)
#    0.000    0.571    4.286    6.000    2.000    0.000 
#    0.000    5.000    0.000    0.000    0.000    0.000 
#    0.000    0.000    0.000    0.000    0.000    0.000 
#
# Total GULP energy -173586.385522 kJ/mol
# GULP energy per Si atom -12399.027537 kJ/mol
# Density = 2.382996 g / cm^3
# Si number density = 23.884324 Si / 1000 Ang^3
#
#
#
# Elastic Constant Matrix: (Units=GPa)
#
#
# Indices 1 2 3 4 5 6 
#
# 1 46.7130 23.7474 36.8704 8.9171 -7.6110 -6.6845
# 2 23.7474 146.2364 39.9683 6.7548 -12.9778 -9.6721
# 3 36.8704 39.9683 81.9847 -0.2506 -23.7070 9.8714
# 4 8.9171 6.7548 -0.2506 46.0554 -5.5632 -24.9078
# 5 -7.6110 -12.9778 -23.7070 -5.5632 32.0004 3.0060
# 6 -6.6845 -9.6721 9.8714 -24.9078 3.0060 32.4172
#
#
#
# Elastic Compliance Matrix: (Units=1/GPa)
#
#
# Indices 1 2 3 4 5 6 
#
# 1 0.039897 -0.000135 -0.022189 -0.000595 -0.008542 0.015279
# 2 -0.000135 0.008393 -0.004745 0.001479 -0.000365 0.005091
# 3 -0.022189 -0.004745 0.032058 -0.003584 0.017819 -0.020159
# 4 -0.000595 0.001479 -0.003584 0.038440 0.001593 0.030798
# 5 -0.008542 -0.000365 0.017819 0.001593 0.043497 -0.010106
# 6 0.015279 0.005091 -0.020159 0.030798 -0.010106 0.066257
#
#
# Mechanical properties :
#
#
# Convention : Reuss Voigt Hill
#
# Bulk Modulus (GPa) = 38.15064 52.90068 45.52566
# Shear Modulus (GPa) = 17.15757 33.71781 25.43769
#
# Velocity S-wave (km/s) = 2.68313 3.76135 3.26703
# Velocity P-wave (km/s) = 5.06031 6.40785 5.77353
#
# Compressibility (1/GPa) = 0.02621188
#
# Stress axis : x y z
#
# Youngs Moduli (GPa) = 25.06441 119.14564 31.19317
#
# Poissons Ratio (x) = 0.01603 0.69213
# Poissons Ratio (y) = 0.00337 0.14802
# Poissons Ratio (z) = 0.55614 0.56537
#
# Static dielectric constant tensor:
#      x y z
#    x 3.853560 0.054520 -0.368210 
#    y 0.054520 4.920890 -0.040720 
#    z -0.368210 -0.040720 4.392850 
# 
# 
# High freq. dielectric constant tensor:
#      x y z
#    x 1.911030 -0.002460 -0.025640 
#    y -0.002460 1.972220 -0.001260 
#    z -0.025640 -0.001260 1.953370 
# 
# From -- ./inp_files/541195.got.cif
#   From: 2010.06.25/outbox.cif.g09.slc.cpg/sg2_271_cif.got.tgz:541195.got - 2010.06.27 13:26:56.
