data_PCOD8007060
_publ_section_title
;
Structure prediction by ZEFSAII (Michael W. Deem and Ramdas Pophale) SiO2 
 PCOD8007060
Probable space group: P -1
;
_chemical_formula_sum "Si O2"
_cell_formula_units_Z 14
_cell_length_a 24.682371
_cell_length_b 8.876966
_cell_length_c 9.573272
_cell_angle_alpha 140.227848
_cell_angle_beta 31.738074
_cell_angle_gamma 150.964807
_cell_volume 532.948360
_symmetry_space_group_name_H-M "P -1"
_symmetry_group_IT_number 2
_symmetry_cell_setting 'triclinic'
loop_
_space_group_symop_operation_xyz
x,y,z
-x,-y,-z
loop_
_atom_site_type_symbol
_atom_site_label
_atom_site_fract_x
_atom_site_fract_y
_atom_site_fract_z
Si Si1 0.341113 0.242716 0.785571
Si Si2 0.680164 0.239542 0.888478
Si Si3 0.214920 0.401337 0.638626
Si Si4 0.363088 0.340385 0.498060
Si Si5 0.910168 0.296398 0.919560
Si Si6 0.387524 0.787074 0.287197
Si Si7 0.024714 0.307504 0.396952
O O1 0.351049 0.412939 0.739844
O O2 0.475750 0.467094 0.748178
O O3 0.201161 0.070389 0.055388
O O4 0.328596 0.958636 0.552310
O O5 0.642181 0.338775 0.900305
O O6 0.820391 0.548324 0.867356
O O7 0.715514 0.021496 0.613794
O O8 0.551081 0.038391 0.134221
O O9 0.305603 0.460895 0.614013
O O10 0.170927 0.604988 0.899703
O O11 0.309762 0.504114 0.366480
O O12 0.076915 0.046800 0.682005
O O13 0.000000 0.500000 0.000000
O O14 0.008148 0.330078 0.614103
O O15 0.000000 0.500000 0.500000
#
# Coordination Sequence:
#
# PCOD8007060 Si02
#       7
#     2   2   2   2   2   2   2
#     4   9  21  42  67  96 132 177 232 277 346 405
#     4  10  21  42  62  93 142 168 226 283 339 405
#     4  11  25  44  73 100 137 181 237 283 348 404
#     4  10  20  40  66  97 132 175 227 287 338 408
#     4  11  26  47  70  99 143 185 229 284 340 423
#     4   9  21  40  66  96 126 180 225 287 331 405
#     4  12  26  45  67 106 142 180 225 290 350 405
#
# _framework density 26.26896
#
# number of rings (size 3 to 8) (size 9 to 14) (size 15 to 20)
#    0.000    1.714    1.429    2.571    2.000    8.000 
#   10.286    0.000    0.000    0.000    0.000    0.000 
#    0.000    0.000    0.000    0.000    0.000    0.000 
#
# Total GULP energy -173680.373139 kJ/mol
# GULP energy per Si atom -12405.740939 kJ/mol
# Density = 2.620917 g / cm^3
# Si number density = 26.268960 Si / 1000 Ang^3
#
#
#
# Elastic Constant Matrix: (Units=GPa)
#
#
# Indices 1 2 3 4 5 6 
#
# 1 151.5193 41.9765 22.6231 -14.3647 -18.2661 4.7275
# 2 41.9765 144.7874 20.2687 -42.4037 -5.9538 7.5424
# 3 22.6231 20.2687 81.1030 -26.7832 -1.3449 5.1953
# 4 -14.3647 -42.4037 -26.7832 50.7367 5.2277 -7.6145
# 5 -18.2661 -5.9538 -1.3449 5.2277 42.6311 -2.1723
# 6 4.7275 7.5424 5.1953 -7.6145 -2.1723 43.1087
#
#
#
# Elastic Compliance Matrix: (Units=1/GPa)
#
#
# Indices 1 2 3 4 5 6 
#
# 1 0.007756 -0.002115 -0.001869 -0.000914 0.003068 -0.000262
# 2 -0.002115 0.009735 0.000797 0.007983 -0.000510 -0.000183
# 3 -0.001869 0.000797 0.015411 0.008343 -0.001246 -0.000381
# 4 -0.000914 0.007983 0.008343 0.031267 -0.002690 0.003085
# 5 0.003068 -0.000510 -0.001246 -0.002690 0.025026 0.000689
# 6 -0.000262 -0.000183 -0.000381 0.003085 0.000689 0.023883
#
#
# Mechanical properties :
#
#
# Convention : Reuss Voigt Hill
#
# Bulk Modulus (GPa) = 37.69664 60.79401 49.24533
# Shear Modulus (GPa) = 38.97248 46.79807 42.88527
#
# Velocity S-wave (km/s) = 3.85592 4.22536 4.04486
# Velocity P-wave (km/s) = 5.84856 6.85551 6.37195
#
# Compressibility (1/GPa) = 0.02652756
#
# Stress axis : x y z
#
# Youngs Moduli (GPa) = 128.93036 102.72496 64.88767
#
# Poissons Ratio (x) = 0.21724 0.12128
# Poissons Ratio (y) = 0.27265 -0.05168
# Poissons Ratio (z) = 0.24098 -0.08182
#
# Static dielectric constant tensor:
#      x y z
#    x 4.708380 -0.323220 0.009290 
#    y -0.323220 5.161970 -0.091260 
#    z 0.009290 -0.091260 5.020490 
# 
# 
# High freq. dielectric constant tensor:
#      x y z
#    x 2.042240 -0.005260 -0.012570 
#    y -0.005260 2.081100 0.005790 
#    z -0.012570 0.005790 2.068610 
# 
# From -- ./inp_files/245761.got.cif
#   From: 2010.06.25/outbox.cif.g09.slc.cpg/sg2_123_cif.got.tgz:245761.got - 2010.06.27 13:26:56.
