data_PCOD8007589
_publ_section_title
;
Structure prediction by ZEFSAII (Michael W. Deem and Ramdas Pophale) SiO2 
 PCOD8007589
Probable space group: P -1
;
_chemical_formula_sum "Si O2"
_cell_formula_units_Z 16
_cell_length_a 22.444872
_cell_length_b 6.836811
_cell_length_c 8.062025
_cell_angle_alpha 102.995015
_cell_angle_beta 60.120157
_cell_angle_gamma 136.007213
_cell_volume 726.501613
_symmetry_space_group_name_H-M "P -1"
_symmetry_group_IT_number 2
_symmetry_cell_setting 'triclinic'
loop_
_space_group_symop_operation_xyz
x,y,z
-x,-y,-z
loop_
_atom_site_type_symbol
_atom_site_label
_atom_site_fract_x
_atom_site_fract_y
_atom_site_fract_z
Si Si1 0.100398 0.604734 0.822659
Si Si2 0.217951 0.697083 0.236230
Si Si3 0.519315 0.714523 0.243733
Si Si4 0.916374 0.808873 0.446306
Si Si5 0.353692 0.639808 0.424532
Si Si6 0.268437 0.762388 0.819844
Si Si7 0.175705 0.997496 0.487952
Si Si8 0.578188 0.881622 0.829189
O O1 0.062834 0.314318 0.744731
O O2 0.184913 0.743435 0.870923
O O3 0.160041 0.868847 0.664540
O O4 0.000000 0.500000 0.000000
O O5 0.182244 0.452381 0.365529
O O6 0.155869 0.776492 0.337501
O O7 0.318202 0.992920 0.233070
O O8 0.228787 0.612509 0.027202
O O9 0.439030 0.704722 0.426575
O O10 0.480064 0.404978 0.252323
O O11 0.620975 0.918588 0.245297
O O12 0.523036 0.805016 0.065640
O O13 0.908266 0.010532 0.416014
O O14 0.000000 0.000000 0.500000
O O15 0.279972 0.605834 0.644000
O O16 0.283689 0.324999 0.378257
O O17 0.405406 0.886914 0.260519
#
# Coordination Sequence:
#
# PCOD8007589 Si02
#       8
#     2   2   2   2   2   2   2   2
#     4  11  27  47  67  96 138 172 211 275 337 382
#     4  10  22  43  66  94 134 170 219 269 326 385
#     4  10  23  40  66  96 133 177 216 265 325 385
#     4  11  25  44  70  97 123 171 227 272 318 398
#     4  12  21  42  67  99 132 172 218 269 328 383
#     4  11  25  44  62 101 136 168 217 276 322 387
#     4  11  23  44  71  93 131 178 215 266 328 391
#     4  10  20  41  65  95 132 175 221 262 315 393
#
# _framework density 22.023350000000001
#
# number of rings (size 3 to 8) (size 9 to 14) (size 15 to 20)
#    0.000    1.250    3.750    1.500    3.500    3.000 
#    2.250    0.000    0.000    0.000    0.000    0.000 
#    0.000    0.000    0.000    0.000    0.000    0.000 
#
# Total GULP energy -198240.894209 kJ/mol
# GULP energy per Si atom -12390.055888 kJ/mol
# Density = 2.197322 g / cm^3
# Si number density = 22.023350 Si / 1000 Ang^3
#
#
#
# Elastic Constant Matrix: (Units=GPa)
#
#
# Indices 1 2 3 4 5 6 
#
# 1 125.5073 25.4517 14.6386 8.5099 -20.9694 5.7759
# 2 25.4517 64.4822 13.3730 1.5319 3.0604 -11.9374
# 3 14.6386 13.3730 74.3158 -3.1957 -5.4339 -8.0645
# 4 8.5099 1.5319 -3.1957 21.8901 1.4606 1.4029
# 5 -20.9694 3.0604 -5.4339 1.4606 34.0742 -0.4739
# 6 5.7759 -11.9374 -8.0645 1.4029 -0.4739 35.6364
#
#
#
# Elastic Compliance Matrix: (Units=1/GPa)
#
#
# Indices 1 2 3 4 5 6 
#
# 1 0.010697 -0.004810 -0.001283 -0.004256 0.006946 -0.003375
# 2 -0.004810 0.019327 -0.002162 0.000103 -0.004952 0.006694
# 3 -0.001283 -0.002162 0.014622 0.002499 0.001667 0.002717
# 4 -0.004256 0.000103 0.002499 0.048024 -0.004298 -0.000658
# 5 0.006946 -0.004952 0.001667 -0.004298 0.034492 -0.001779
# 6 -0.003375 0.006694 0.002717 -0.000658 -0.001779 0.031468
#
#
# Mechanical properties :
#
#
# Convention : Reuss Voigt Hill
#
# Bulk Modulus (GPa) = 35.53996 41.24798 38.39397
# Shear Modulus (GPa) = 27.09772 32.37628 29.73700
#
# Velocity S-wave (km/s) = 3.51152 3.83833 3.67856
# Velocity P-wave (km/s) = 5.71082 6.19787 5.95932
#
# Compressibility (1/GPa) = 0.02813734
#
# Stress axis : x y z
#
# Youngs Moduli (GPa) = 93.48344 51.74183 68.39024
#
# Poissons Ratio (x) = 0.24885 0.08775
# Poissons Ratio (y) = 0.44961 0.14783
# Poissons Ratio (z) = 0.11994 0.11185
#
# Static dielectric constant tensor:
#      x y z
#    x 3.966230 0.037000 -0.221290 
#    y 0.037000 3.705600 0.060370 
#    z -0.221290 0.060370 4.010490 
# 
# 
# High freq. dielectric constant tensor:
#      x y z
#    x 1.870700 0.000370 -0.013400 
#    y 0.000370 1.865240 -0.003040 
#    z -0.013400 -0.003040 1.862570 
# 
# From -- ./inp_files/56902.got.cif
#   From: 2010.06.25/outbox.cif.g09.slc.cpg/sg2_29_cif.got.tgz:56902.got - 2010.06.27 13:26:56.
