data_PCOD8007319
_publ_section_title
;
Structure prediction by ZEFSAII (Michael W. Deem and Ramdas Pophale) SiO2 
 PCOD8007319
Probable space group: P -1
;
_chemical_formula_sum "Si O2"
_cell_formula_units_Z 14
_cell_length_a 13.053448
_cell_length_b 18.964872
_cell_length_c 10.796896
_cell_angle_alpha 158.289135
_cell_angle_beta 44.900264
_cell_angle_gamma 145.941827
_cell_volume 528.884607
_symmetry_space_group_name_H-M "P -1"
_symmetry_group_IT_number 2
_symmetry_cell_setting 'triclinic'
loop_
_space_group_symop_operation_xyz
x,y,z
-x,-y,-z
loop_
_atom_site_type_symbol
_atom_site_label
_atom_site_fract_x
_atom_site_fract_y
_atom_site_fract_z
Si Si1 0.023582 0.904281 0.700940
Si Si2 0.299595 0.515887 0.872581
Si Si3 0.561768 0.337390 0.668252
Si Si4 0.595202 0.146783 0.875166
Si Si5 0.631409 0.828251 0.682967
Si Si6 0.017515 0.550927 0.272787
Si Si7 0.046376 0.269042 0.130756
O O1 0.116184 0.781978 0.463533
O O2 0.813465 0.685498 0.470272
O O3 0.131547 0.137513 0.892836
O O4 0.000000 0.000000 0.000000
O O5 0.408114 0.436271 0.719254
O O6 0.430304 0.784227 0.127774
O O7 0.155637 0.486487 0.048608
O O8 0.456195 0.159873 0.347911
O O9 0.790164 0.506157 0.730355
O O10 0.498270 0.147094 0.527280
O O11 0.500000 0.500000 0.000000
O O12 0.474602 0.177169 0.118068
O O13 0.812865 0.313642 0.006914
O O14 0.856437 0.073457 0.893137
O O15 0.999277 0.624802 0.544977
#
# Coordination Sequence:
#
# PCOD8007319 Si02
#       7
#     2   2   2   2   2   2   2
#     4   8  16  33  62 100 132 183 222 276 344 406
#     4  10  22  40  74 110 139 182 239 299 345 408
#     4  12  29  47  72 103 143 191 234 290 355 431
#     4  11  23  46  70 105 147 185 234 286 356 422
#     4  11  25  48  73 105 140 187 236 294 348 421
#     4  10  20  40  74 101 141 187 233 291 355 410
#     4  10  23  44  71 102 143 186 236 283 361 417
#
# _framework density 26.470804000000001
#
# number of rings (size 3 to 8) (size 9 to 14) (size 15 to 20)
#    0.000    1.714    1.429    2.571    6.000    2.286 
#    2.571    1.429    0.000    0.000    0.000    0.000 
#    0.000    0.000    0.000    0.000    0.000    0.000 
#
# Total GULP energy -173520.781427 kJ/mol
# GULP energy per Si atom -12394.341530 kJ/mol
# Density = 2.641055 g / cm^3
# Si number density = 26.470804 Si / 1000 Ang^3
#
#
#
# Elastic Constant Matrix: (Units=GPa)
#
#
# Indices 1 2 3 4 5 6 
#
# 1 47.9515 37.1063 11.1951 18.6720 -1.4211 -2.9830
# 2 37.1063 116.1838 49.6194 18.4624 -8.7853 2.9172
# 3 11.1951 49.6194 114.3425 13.8191 -27.5746 3.5569
# 4 18.6720 18.4624 13.8191 39.5931 2.0579 -13.8693
# 5 -1.4211 -8.7853 -27.5746 2.0579 50.3432 -0.0288
# 6 -2.9830 2.9172 3.5569 -13.8693 -0.0288 34.8431
#
#
#
# Elastic Compliance Matrix: (Units=1/GPa)
#
#
# Indices 1 2 3 4 5 6 
#
# 1 0.032239 -0.009360 0.002782 -0.012475 0.001309 -0.001705
# 2 -0.009360 0.013918 -0.005103 -0.000896 -0.000595 -0.001803
# 3 0.002782 -0.005103 0.012875 -0.004632 0.006428 -0.002487
# 4 -0.012475 -0.000896 -0.004632 0.038615 -0.004615 0.014847
# 5 0.001309 -0.000595 0.006428 -0.004615 0.023505 -0.002312
# 6 -0.001705 -0.001803 -0.002487 0.014847 -0.002312 0.034867
#
#
# Mechanical properties :
#
#
# Convention : Reuss Voigt Hill
#
# Bulk Modulus (GPa) = 28.03455 52.70217 40.36836
# Shear Modulus (GPa) = 26.14108 36.99302 31.56705
#
# Velocity S-wave (km/s) = 3.14593 3.74237 3.45704
# Velocity P-wave (km/s) = 4.87951 6.21503 5.58731
#
# Compressibility (1/GPa) = 0.03567027
#
# Stress axis : x y z
#
# Youngs Moduli (GPa) = 31.01877 71.84828 77.67092
#
# Poissons Ratio (x) = 0.67251 -0.21608
# Poissons Ratio (y) = 0.29034 0.39632
# Poissons Ratio (z) = -0.08629 0.36661
#
# Static dielectric constant tensor:
#      x y z
#    x 5.258160 -0.183860 -0.405250 
#    y -0.183860 4.693650 0.214500 
#    z -0.405250 0.214500 5.448180 
# 
# 
# High freq. dielectric constant tensor:
#      x y z
#    x 2.067850 -0.011500 -0.007700 
#    y -0.011500 2.042440 -0.000840 
#    z -0.007700 -0.000840 2.082590 
# 
# From -- ./inp_files/204879.got.cif
#   From: 2010.06.25/outbox.cif.g09.slc.cpg/sg2_103_cif.got.tgz:204879.got - 2010.06.27 13:26:56.
