data_PCOD8007005
_publ_section_title
;
Structure prediction by ZEFSAII (Michael W. Deem and Ramdas Pophale) SiO2 
 PCOD8007005
Probable space group: P -1
;
_chemical_formula_sum "Si O2"
_cell_formula_units_Z 16
_cell_length_a 11.763681
_cell_length_b 9.640064
_cell_length_c 9.095620
_cell_angle_alpha 111.314087
_cell_angle_beta 62.986671
_cell_angle_gamma 123.022400
_cell_volume 761.147981
_symmetry_space_group_name_H-M "P -1"
_symmetry_group_IT_number 2
_symmetry_cell_setting 'triclinic'
loop_
_space_group_symop_operation_xyz
x,y,z
-x,-y,-z
loop_
_atom_site_type_symbol
_atom_site_label
_atom_site_fract_x
_atom_site_fract_y
_atom_site_fract_z
Si Si1 0.410749 0.858403 0.116054
Si Si2 0.591054 0.949720 0.538140
Si Si3 0.109839 0.377711 0.774663
Si Si4 0.123094 0.541058 0.127251
Si Si5 0.137763 0.241404 0.129783
Si Si6 0.859979 0.916147 0.241914
Si Si7 0.438961 0.338822 0.074460
Si Si8 0.565156 0.393716 0.345331
O O1 0.273105 0.702931 0.064899
O O2 0.349594 0.917304 0.312579
O O3 0.523519 0.794825 0.082816
O O4 0.500000 0.000000 0.000000
O O5 0.720878 0.934758 0.377076
O O6 0.483591 0.779011 0.611009
O O7 0.500000 0.000000 0.500000
O O8 0.101341 0.192410 0.704045
O O9 0.266190 0.515086 0.693312
O O10 0.994626 0.393982 0.738444
O O11 0.067241 0.413370 0.974437
O O12 0.135894 0.421432 0.200076
O O13 0.268353 0.264035 0.169113
O O14 0.172781 0.184721 0.930455
O O15 0.990294 0.101322 0.227875
O O16 0.520579 0.375704 0.195176
O O17 0.500000 0.500000 0.000000
O O18 0.500000 0.500000 0.500000
#
# Coordination Sequence:
#
# PCOD8007005 Si02
#       8
#     2   2   2   2   2   2   2   2
#     4  12  24  43  66  99 134 173 227 274 328 396
#     4  12  27  43  66  99 139 174 222 281 332 390
#     4  10  20  40  66  91 130 167 216 270 326 393
#     4  10  21  39  65  96 124 171 220 268 324 393
#     4  10  22  41  69  95 129 175 222 269 333 398
#     4  10  22  43  63  99 131 173 221 270 336 397
#     4  12  23  44  72  96 131 176 227 271 326 404
#     4  12  25  44  67  99 132 176 221 272 338 393
#
# _framework density 21.020879000000001
#
# number of rings (size 3 to 8) (size 9 to 14) (size 15 to 20)
#    0.000    1.000    5.000    1.500    5.250    0.000 
#    2.250    1.875    0.000    0.000    0.000    0.000 
#    0.000    0.000    0.000    0.000    0.000    0.000 
#
# Total GULP energy -198346.378084 kJ/mol
# GULP energy per Si atom -12396.648630 kJ/mol
# Density = 2.097303 g / cm^3
# Si number density = 21.020879 Si / 1000 Ang^3
#
#
#
# Elastic Constant Matrix: (Units=GPa)
#
#
# Indices 1 2 3 4 5 6 
#
# 1 161.6378 77.8627 44.5916 -10.7005 -37.7582 -14.1272
# 2 77.8627 168.5513 40.9715 -18.3558 -14.3214 -14.6968
# 3 44.5916 40.9715 84.3061 -4.9714 -19.2252 -11.3648
# 4 -10.7005 -18.3558 -4.9714 33.2971 -0.1123 -8.4982
# 5 -37.7582 -14.3214 -19.2252 -0.1123 36.1319 3.6542
# 6 -14.1272 -14.6968 -11.3648 -8.4982 3.6542 39.2314
#
#
#
# Elastic Compliance Matrix: (Units=1/GPa)
#
#
# Indices 1 2 3 4 5 6 
#
# 1 0.010559 -0.003420 -0.001632 0.001705 0.008653 0.001612
# 2 -0.003420 0.008526 -0.002150 0.003868 -0.001561 0.002323
# 3 -0.001632 -0.002150 0.015465 0.001352 0.005384 0.002878
# 4 0.001705 0.003868 0.001352 0.035436 0.003150 0.009838
# 5 0.008653 -0.001561 0.005384 0.003150 0.038858 0.001154
# 6 0.001612 0.002323 0.002878 0.009838 0.001154 0.029798
#
#
# Mechanical properties :
#
#
# Convention : Reuss Voigt Hill
#
# Bulk Modulus (GPa) = 49.63258 82.37185 66.00222
# Shear Modulus (GPa) = 31.29657 38.47005 34.88331
#
# Velocity S-wave (km/s) = 3.86273 4.28259 4.07807
# Velocity P-wave (km/s) = 6.59974 7.98279 7.32398
#
# Compressibility (1/GPa) = 0.02014806
#
# Stress axis : x y z
#
# Youngs Moduli (GPa) = 94.70310 117.28294 64.66193
#
# Poissons Ratio (x) = 0.40107 0.10553
# Poissons Ratio (y) = 0.32386 0.13899
# Poissons Ratio (z) = 0.15456 0.25211
#
# Static dielectric constant tensor:
#      x y z
#    x 3.859560 -0.072590 -0.279260 
#    y -0.072590 3.945990 0.244890 
#    z -0.279260 0.244890 3.606100 
# 
# 
# High freq. dielectric constant tensor:
#      x y z
#    x 1.831240 -0.010610 -0.023510 
#    y -0.010610 1.841070 0.003550 
#    z -0.023510 0.003550 1.802160 
# 
# From -- ./inp_files/244900.got.cif
#   From: 2010.06.25/outbox.cif.g09.slc.cpg/sg2_123_cif.got.tgz:244900.got - 2010.06.27 13:26:56.
