data_PCOD8007595
_publ_section_title
;
Structure prediction by ZEFSAII (Michael W. Deem and Ramdas Pophale) SiO2 
 PCOD8007595
Probable space group: P -1
;
_chemical_formula_sum "Si O2"
_cell_formula_units_Z 16
_cell_length_a 19.510112
_cell_length_b 17.052944
_cell_length_c 12.018794
_cell_angle_alpha 30.426677
_cell_angle_beta 150.382220
_cell_angle_gamma 157.668427
_cell_volume 714.000288
_symmetry_space_group_name_H-M "P -1"
_symmetry_group_IT_number 2
_symmetry_cell_setting 'triclinic'
loop_
_space_group_symop_operation_xyz
x,y,z
-x,-y,-z
loop_
_atom_site_type_symbol
_atom_site_label
_atom_site_fract_x
_atom_site_fract_y
_atom_site_fract_z
Si Si1 0.128819 0.105044 0.944076
Si Si2 0.725770 0.459460 0.402546
Si Si3 0.780516 0.388253 0.324477
Si Si4 0.783297 0.962469 0.525413
Si Si5 0.024122 0.353891 0.265761
Si Si6 0.799662 0.743330 0.529385
Si Si7 0.656910 0.985445 0.546896
Si Si8 0.374042 0.468582 0.224880
O O1 0.287831 0.367689 0.853949
O O2 0.985759 0.019451 0.742980
O O3 0.240090 0.028397 0.189268
O O4 0.000000 0.000000 0.000000
O O5 0.727044 0.366733 0.403195
O O6 0.909897 0.572674 0.602773
O O7 0.548834 0.253025 0.475646
O O8 0.645186 0.154046 0.360848
O O9 0.000000 0.500000 0.500000
O O10 0.740602 0.515524 0.045350
O O11 0.615938 0.704850 0.587759
O O12 0.768181 0.053359 0.504232
O O13 0.813742 0.100828 0.292581
O O14 0.174212 0.371995 0.382660
O O15 0.000000 0.500000 0.000000
O O16 0.604739 0.693105 0.285805
O O17 0.749373 0.620852 0.725615
O O18 0.000000 0.000000 0.500000
#
# Coordination Sequence:
#
# PCOD8007595 Si02
#       8
#     2   2   2   2   2   2   2   2
#     4   9  18  36  63  88 128 174 213 263 336 420
#     4  11  24  42  62  99 132 180 227 279 359 424
#     4  12  25  43  68 102 144 180 228 297 361 411
#     4  10  20  41  65  97 133 182 228 274 352 417
#     4  11  25  44  71  99 137 184 236 295 351 414
#     4  11  25  49  74 104 139 191 244 289 345 420
#     4  11  22  38  62 101 137 172 221 285 346 418
#     4  11  25  46  74 105 142 189 239 287 352 428
#
# _framework density 22.408954999999999
#
# number of rings (size 3 to 8) (size 9 to 14) (size 15 to 20)
#    0.000    1.250    1.250    6.000    3.500    3.000 
#    2.250    1.250    0.000    0.000    0.000    0.000 
#    0.000    0.000    0.000    0.000    0.000    0.000 
#
# Total GULP energy -198237.561452 kJ/mol
# GULP energy per Si atom -12389.847591 kJ/mol
# Density = 2.235795 g / cm^3
# Si number density = 22.408955 Si / 1000 Ang^3
#
#
#
# Elastic Constant Matrix: (Units=GPa)
#
#
# Indices 1 2 3 4 5 6 
#
# 1 116.4728 29.3741 44.1111 -7.1627 -11.2871 -8.3710
# 2 29.3741 122.3642 40.9122 -15.4892 -1.7902 14.3107
# 3 44.1111 40.9122 125.9595 -17.5111 -9.5462 7.6525
# 4 -7.1627 -15.4892 -17.5111 38.3138 -0.9703 2.3816
# 5 -11.2871 -1.7902 -9.5462 -0.9703 25.0301 0.1836
# 6 -8.3710 14.3107 7.6525 2.3816 0.1836 37.5660
#
#
#
# Elastic Compliance Matrix: (Units=1/GPa)
#
#
# Indices 1 2 3 4 5 6 
#
# 1 0.010888 -0.001994 -0.003185 -0.000376 0.003510 0.003841
# 2 -0.001994 0.010173 -0.001989 0.003066 -0.000782 -0.004105
# 3 -0.003185 -0.001989 0.010545 0.003631 0.002601 -0.002343
# 4 -0.000376 0.003066 0.003631 0.029235 0.002596 -0.003858
# 5 0.003510 -0.000782 0.002601 0.002596 0.042570 0.000177
# 6 0.003841 -0.004105 -0.002343 -0.003858 0.000177 0.029761
#
#
# Mechanical properties :
#
#
# Convention : Reuss Voigt Hill
#
# Bulk Modulus (GPa) = 57.90897 65.95458 61.93177
# Shear Modulus (GPa) = 32.62332 36.87525 34.74929
#
# Velocity S-wave (km/s) = 3.81966 4.06095 3.94215
# Velocity P-wave (km/s) = 6.73432 7.17527 6.95829
#
# Compressibility (1/GPa) = 0.01726848
#
# Stress axis : x y z
#
# Youngs Moduli (GPa) = 91.84480 98.29941 94.83283
#
# Poissons Ratio (x) = 0.19605 0.30203
# Poissons Ratio (y) = 0.18317 0.18866
# Poissons Ratio (z) = 0.29251 0.19556
#
# Static dielectric constant tensor:
#      x y z
#    x 4.121760 0.070020 0.010120 
#    y 0.070020 4.320940 -0.098050 
#    z 0.010120 -0.098050 4.341950 
# 
# 
# High freq. dielectric constant tensor:
#      x y z
#    x 1.880530 0.003460 -0.013350 
#    y 0.003460 1.894600 -0.012950 
#    z -0.013350 -0.012950 1.865920 
# 
# From -- ./inp_files/472360.got.cif
#   From: 2010.06.25/outbox.cif.g09.slc.cpg/sg2_237_cif.got.tgz:472360.got - 2010.06.27 13:26:56.
