data_PCOD8007282
_publ_section_title
;
Structure prediction by ZEFSAII (Michael W. Deem and Ramdas Pophale) SiO2 
 PCOD8007282
Probable space group: P -1
;
_chemical_formula_sum "Si O2"
_cell_formula_units_Z 16
_cell_length_a 9.478304
_cell_length_b 17.916934
_cell_length_c 14.562871
_cell_angle_alpha 147.332566
_cell_angle_beta 142.657514
_cell_angle_gamma 40.183074
_cell_volume 775.085206
_symmetry_space_group_name_H-M "P -1"
_symmetry_group_IT_number 2
_symmetry_cell_setting 'triclinic'
loop_
_space_group_symop_operation_xyz
x,y,z
-x,-y,-z
loop_
_atom_site_type_symbol
_atom_site_label
_atom_site_fract_x
_atom_site_fract_y
_atom_site_fract_z
Si Si1 0.780967 0.477211 0.632959
Si Si2 0.109619 0.027908 0.202931
Si Si3 0.269549 0.099681 0.177393
Si Si4 0.179115 0.201845 0.590839
Si Si5 0.793820 0.927945 0.335486
Si Si6 0.198339 0.373573 0.019926
Si Si7 0.984984 0.587955 0.677321
Si Si8 0.572784 0.294307 0.977232
O O1 0.500000 0.500000 0.500000
O O2 0.790214 0.594805 0.834836
O O3 0.914722 0.497888 0.629949
O O4 0.910305 0.314774 0.567780
O O5 0.112892 0.127674 0.219824
O O6 0.209792 0.097906 0.412087
O O7 0.289524 0.872757 0.110773
O O8 0.840850 0.005056 0.053380
O O9 0.224108 0.258532 0.275274
O O10 0.551944 0.028348 0.267042
O O11 0.231898 0.092803 0.590918
O O12 0.370385 0.298504 0.796993
O O13 0.879945 0.772078 0.171697
O O14 0.000000 0.000000 0.500000
O O15 0.449579 0.351390 0.070807
O O16 0.000000 0.500000 0.000000
O O17 0.000000 0.500000 0.500000
O O18 0.247128 0.612587 0.860810
#
# Coordination Sequence:
#
# PCOD8007282 Si02
#       8
#     2   2   2   2   2   2   2   2
#     4  12  27  43  69  98 135 185 228 271 346 415
#     4  10  20  40  70  95 129 165 221 278 343 395
#     4  10  22  40  66  96 127 172 216 275 340 390
#     4  11  23  43  66 100 126 176 227 282 338 408
#     4  11  25  41  66  97 135 178 223 277 345 397
#     4  11  22  47  67  96 139 182 221 279 346 416
#     4  11  25  44  66 102 137 177 228 285 335 405
#     4  10  21  41  71  94 131 169 225 279 343 396
#
# _framework density 20.642892
#
# number of rings (size 3 to 8) (size 9 to 14) (size 15 to 20)
#    0.000    1.250    5.000    1.875    3.500    3.500 
#    0.000    1.250    0.000    0.000    0.000    0.000 
#    0.000    0.000    0.000    0.000    0.000    0.000 
#
# Total GULP energy -198327.768271 kJ/mol
# GULP energy per Si atom -12395.485517 kJ/mol
# Density = 2.059591 g / cm^3
# Si number density = 20.642892 Si / 1000 Ang^3
#
#
#
# Elastic Constant Matrix: (Units=GPa)
#
#
# Indices 1 2 3 4 5 6 
#
# 1 98.1817 24.0902 62.0181 -10.1720 -2.4363 -7.1047
# 2 24.0902 116.4067 38.9093 -12.7530 11.8963 -17.1993
# 3 62.0181 38.9093 135.4573 -17.3162 -5.7069 -4.0508
# 4 -10.1720 -12.7530 -17.3162 35.3015 -2.9571 -0.0898
# 5 -2.4363 11.8963 -5.7069 -2.9571 48.8112 -7.0837
# 6 -7.1047 -17.1993 -4.0508 -0.0898 -7.0837 29.6202
#
#
#
# Elastic Compliance Matrix: (Units=1/GPa)
#
#
# Indices 1 2 3 4 5 6 
#
# 1 0.014590 -0.000487 -0.006318 0.000979 0.000528 0.002482
# 2 -0.000487 0.010779 -0.002496 0.002373 -0.002027 0.005323
# 3 -0.006318 -0.002496 0.011418 0.003016 0.001666 -0.000996
# 4 0.000979 0.002373 0.003016 0.031128 0.002089 0.002619
# 5 0.000528 -0.002027 0.001666 0.002089 0.021973 0.004439
# 6 0.002482 0.005323 -0.000996 0.002619 0.004439 0.038380
#
#
# Mechanical properties :
#
#
# Convention : Reuss Voigt Hill
#
# Bulk Modulus (GPa) = 54.99336 66.67567 60.83452
# Shear Modulus (GPa) = 32.69400 37.74845 35.22123
#
# Velocity S-wave (km/s) = 3.98400 4.28090 4.13512
# Velocity P-wave (km/s) = 6.91818 7.53688 7.23415
#
# Compressibility (1/GPa) = 0.01818401
#
# Stress axis : x y z
#
# Youngs Moduli (GPa) = 68.54025 92.76937 87.58075
#
# Poissons Ratio (x) = 0.04522 0.55336
# Poissons Ratio (y) = 0.03341 0.21860
# Poissons Ratio (z) = 0.43305 0.23155
#
# Static dielectric constant tensor:
#      x y z
#    x 3.181850 -0.126250 0.123870 
#    y -0.126250 4.111550 -0.427320 
#    z 0.123870 -0.427320 4.333390 
# 
# 
# High freq. dielectric constant tensor:
#      x y z
#    x 1.783200 -0.005700 -0.003750 
#    y -0.005700 1.822810 -0.008260 
#    z -0.003750 -0.008260 1.820410 
# 
# From -- ./inp_files/314244.got.cif
#   From: 2010.06.25/outbox.cif.g09.slc.cpg/sg2_158_cif.got.tgz:314244.got - 2010.06.27 13:26:56.
