data_PCOD8007956
_publ_section_title
;
Structure prediction by ZEFSAII (Michael W. Deem and Ramdas Pophale) SiO2 
 PCOD8007956
Probable space group: P -1
;
_chemical_formula_sum "Si O2"
_cell_formula_units_Z 16
_cell_length_a 12.013500
_cell_length_b 11.886313
_cell_length_c 14.764595
_cell_angle_alpha 49.771036
_cell_angle_beta 30.566580
_cell_angle_gamma 63.647181
_cell_volume 783.642620
_symmetry_space_group_name_H-M "P -1"
_symmetry_group_IT_number 2
_symmetry_cell_setting 'triclinic'
loop_
_space_group_symop_operation_xyz
x,y,z
-x,-y,-z
loop_
_atom_site_type_symbol
_atom_site_label
_atom_site_fract_x
_atom_site_fract_y
_atom_site_fract_z
Si Si1 0.780927 0.412738 0.642129
Si Si2 0.356558 0.875407 0.401639
Si Si3 0.122087 0.565180 0.644756
Si Si4 0.210574 0.943422 0.911155
Si Si5 0.290201 0.915518 0.064504
Si Si6 0.937260 0.839474 0.832985
Si Si7 0.690477 0.551632 0.047532
Si Si8 0.876870 0.287986 0.059540
O O1 0.823824 0.455850 0.485466
O O2 0.721695 0.229626 0.789636
O O3 0.565029 0.467201 0.799155
O O4 0.000000 0.500000 0.500000
O O5 0.316187 0.701747 0.485204
O O6 0.129257 0.901240 0.589861
O O7 0.560311 0.911604 0.315219
O O8 0.444551 0.993348 0.193933
O O9 0.105212 0.406176 0.793215
O O10 0.873172 0.598767 0.811889
O O11 0.155708 0.862277 0.091115
O O12 0.257375 0.826561 0.865209
O O13 0.000000 0.000000 0.000000
O O14 0.183570 0.029051 0.136146
O O15 0.752591 0.681523 0.014469
O O16 0.055856 0.808135 0.858046
O O17 0.711132 0.388586 0.158604
#
# Coordination Sequence:
#
# PCOD8007956 Si02
#       8
#     2   2   2   2   2   2   2   2
#     4  12  25  45  65  92 130 176 225 257 329 387
#     4   9  22  39  63  97 128 167 213 256 337 373
#     4   9  22  43  64  96 125 172 215 266 320 377
#     4  10  20  42  59  94 133 166 205 272 319 372
#     4  10  24  41  63  93 133 164 217 272 309 388
#     4  11  20  43  67 100 127 171 214 269 329 381
#     4   9  24  40  65  97 129 167 218 269 315 376
#     4  10  20  42  67  93 141 160 217 270 318 385
#
# _framework density 20.417470999999999
#
# number of rings (size 3 to 8) (size 9 to 14) (size 15 to 20)
#    1.500    0.500    1.250    1.875    0.000    5.000 
#    6.750    5.625    0.000    0.000    0.000    0.000 
#    0.000    0.000    0.000    0.000    0.000    0.000 
#
# Total GULP energy -198261.944532 kJ/mol
# GULP energy per Si atom -12391.371533 kJ/mol
# Density = 2.037100 g / cm^3
# Si number density = 20.417471 Si / 1000 Ang^3
#
#
#
# Elastic Constant Matrix: (Units=GPa)
#
#
# Indices 1 2 3 4 5 6 
#
# 1 41.1807 21.2980 22.9599 0.4483 -12.9528 9.5550
# 2 21.2980 103.5457 36.7125 3.3387 -2.0707 3.8480
# 3 22.9599 36.7125 101.2024 1.5151 -6.6252 1.1662
# 4 0.4483 3.3387 1.5151 31.0995 3.2295 -2.1483
# 5 -12.9528 -2.0707 -6.6252 3.2295 34.1703 -8.9462
# 6 9.5550 3.8480 1.1662 -2.1483 -8.9462 36.6282
#
#
#
# Elastic Compliance Matrix: (Units=1/GPa)
#
#
# Indices 1 2 3 4 5 6 
#
# 1 0.034274 -0.004705 -0.005312 -0.001199 0.010261 -0.005842
# 2 -0.004705 0.011808 -0.003311 -0.000886 -0.001726 -0.000381
# 3 -0.005312 -0.003311 0.012310 -0.000125 0.000570 0.001474
# 4 -0.001199 -0.000886 -0.000125 0.032714 -0.003221 0.001542
# 5 0.010261 -0.001726 0.000570 -0.003221 0.034995 0.005845
# 6 -0.005842 -0.000381 0.001474 0.001542 0.005845 0.030336
#
#
# Mechanical properties :
#
#
# Convention : Reuss Voigt Hill
#
# Bulk Modulus (GPa) = 31.51139 45.31883 38.41511
# Shear Modulus (GPa) = 25.81673 31.37684 28.59678
#
# Velocity S-wave (km/s) = 3.55976 3.92441 3.74652
# Velocity P-wave (km/s) = 5.68884 6.54056 6.12951
#
# Compressibility (1/GPa) = 0.03173455
#
# Stress axis : x y z
#
# Youngs Moduli (GPa) = 29.17638 84.69112 81.23677
#
# Poissons Ratio (x) = 0.39851 0.43152
# Poissons Ratio (y) = 0.13729 0.26899
# Poissons Ratio (z) = 0.15498 0.28043
#
# Static dielectric constant tensor:
#      x y z
#    x 3.504200 0.269410 -0.023050 
#    y 0.269410 3.746660 -0.019830 
#    z -0.023050 -0.019830 3.706650 
# 
# 
# High freq. dielectric constant tensor:
#      x y z
#    x 1.782880 0.019170 -0.001370 
#    y 0.019170 1.797540 -0.000480 
#    z -0.001370 -0.000480 1.794170 
# 
# From -- ./inp_files/518736.got.cif
#   From: 2010.06.25/outbox.cif.g09.slc.cpg/sg2_260_cif.got.tgz:518736.got - 2010.06.27 13:26:56.
