data_PCOD8007937
_publ_section_title
;
Structure prediction by ZEFSAII (Michael W. Deem and Ramdas Pophale) SiO2 
 PCOD8007937
Probable space group: P -1
;
_chemical_formula_sum "Si O2"
_cell_formula_units_Z 16
_cell_length_a 9.282024
_cell_length_b 25.679833
_cell_length_c 23.066048
_cell_angle_alpha 16.702039
_cell_angle_beta 144.818801
_cell_angle_gamma 152.038198
_cell_volume 723.930432
_symmetry_space_group_name_H-M "P -1"
_symmetry_group_IT_number 2
_symmetry_cell_setting 'triclinic'
loop_
_space_group_symop_operation_xyz
x,y,z
-x,-y,-z
loop_
_atom_site_type_symbol
_atom_site_label
_atom_site_fract_x
_atom_site_fract_y
_atom_site_fract_z
Si Si1 0.056171 0.013930 0.242815
Si Si2 0.697827 0.722301 0.786638
Si Si3 0.127625 0.666598 0.686916
Si Si4 0.314405 0.051658 0.706974
Si Si5 0.498796 0.237687 0.899289
Si Si6 0.210898 0.438272 0.663635
Si Si7 0.757496 0.429549 0.045930
Si Si8 0.754070 0.998518 0.050947
O O1 0.413779 0.228843 0.125066
O O2 0.835100 0.050758 0.168639
O O3 0.022601 0.823320 0.474995
O O4 0.913588 0.926733 0.224797
O O5 0.466505 0.793198 0.630937
O O6 0.036290 0.930546 0.698245
O O7 0.500000 0.500000 0.000000
O O8 0.756983 0.645652 0.827414
O O9 0.145187 0.636468 0.793598
O O10 0.873418 0.426843 0.827755
O O11 0.488614 0.321440 0.468974
O O12 0.557315 0.986386 0.850213
O O13 0.310142 0.318296 0.781211
O O14 0.386985 0.181339 0.856010
O O15 0.000000 0.500000 0.500000
O O16 0.018915 0.260175 0.841464
O O17 0.000000 0.500000 0.000000
O O18 0.500000 0.000000 0.000000
#
# Coordination Sequence:
#
# PCOD8007937 Si02
#       8
#     2   2   2   2   2   2   2   2
#     4  12  24  44  71 104 148 191 239 299 354 425
#     4  10  20  41  73 103 141 191 236 288 360 436
#     4  11  23  44  76 103 137 201 240 284 364 438
#     4  12  22  45  77 106 140 192 242 292 364 433
#     4  12  24  46  78 105 145 193 242 292 368 430
#     4  12  27  48  75 104 139 196 247 299 361 430
#     4  11  24  42  71 106 145 185 238 303 361 417
#     4  12  28  48  70 106 149 185 241 307 354 426
#
# _framework density 22.101569999999999
#
# number of rings (size 3 to 8) (size 9 to 14) (size 15 to 20)
#    0.000    0.500    8.750    0.750    1.750    0.500 
#    0.000    0.625    2.750    0.000    0.000    0.000 
#    0.000    0.000    0.000    0.000    0.000    0.000 
#
# Total GULP energy -198298.284940 kJ/mol
# GULP energy per Si atom -12393.642809 kJ/mol
# Density = 2.205127 g / cm^3
# Si number density = 22.101570 Si / 1000 Ang^3
#
#
#
# Elastic Constant Matrix: (Units=GPa)
#
#
# Indices 1 2 3 4 5 6 
#
# 1 157.3102 66.9649 62.5890 -8.8988 8.9466 4.7189
# 2 66.9649 164.1009 47.7091 -4.4283 -1.2220 -12.6876
# 3 62.5890 47.7091 75.9067 1.9236 14.0731 0.2896
# 4 -8.8988 -4.4283 1.9236 42.2564 3.5577 3.2194
# 5 8.9466 -1.2220 14.0731 3.5577 32.0189 -1.4728
# 6 4.7189 -12.6876 0.2896 3.2194 -1.4728 33.5702
#
#
#
# Elastic Compliance Matrix: (Units=1/GPa)
#
#
# Indices 1 2 3 4 5 6 
#
# 1 0.010409 -0.002300 -0.007145 0.002489 -0.000249 -0.002520
# 2 -0.002300 0.008504 -0.003999 0.000064 0.002888 0.003692
# 3 -0.007145 -0.003999 0.023144 -0.002229 -0.008120 -0.000849
# 4 0.002489 0.000064 -0.002229 0.024728 -0.002589 -0.002791
# 5 -0.000249 0.002888 -0.008120 -0.002589 0.035406 0.002998
# 6 -0.002520 0.003692 -0.000849 -0.002791 0.002998 0.031945
#
#
# Mechanical properties :
#
#
# Convention : Reuss Voigt Hill
#
# Bulk Modulus (GPa) = 65.92455 83.53820 74.73137
# Shear Modulus (GPa) = 30.10588 36.23941 33.17264
#
# Velocity S-wave (km/s) = 3.69475 4.05368 3.87837
# Velocity P-wave (km/s) = 6.93501 7.73235 7.34451
#
# Compressibility (1/GPa) = 0.01516886
#
# Stress axis : x y z
#
# Youngs Moduli (GPa) = 96.06913 117.59319 43.20743
#
# Poissons Ratio (x) = 0.27047 0.30870
# Poissons Ratio (y) = 0.22097 0.17281
# Poissons Ratio (z) = 0.68638 0.47031
#
# Static dielectric constant tensor:
#      x y z
#    x 4.544520 -0.143830 0.982140 
#    y -0.143830 5.041530 -1.250050 
#    z 0.982140 -1.250050 6.261340 
# 
# 
# High freq. dielectric constant tensor:
#      x y z
#    x 1.867680 0.015980 0.025540 
#    y 0.015980 1.891580 -0.009720 
#    z 0.025540 -0.009720 1.855410 
# 
# From -- ./inp_files/591953.got.cif
#   From: 2010.06.25/outbox.cif.g09.slc.cpg/sg2_296_cif.got.tgz:591953.got - 2010.06.27 13:26:56.
