data_PCOD8007164
_publ_section_title
;
Structure prediction by ZEFSAII (Michael W. Deem and Ramdas Pophale) SiO2 
 PCOD8007164
Probable space group: P -1
;
_chemical_formula_sum "Si O2"
_cell_formula_units_Z 14
_cell_length_a 13.004944
_cell_length_b 11.170355
_cell_length_c 11.262246
_cell_angle_alpha 76.078285
_cell_angle_beta 135.422182
_cell_angle_gamma 138.365887
_cell_volume 595.105678
_symmetry_space_group_name_H-M "P -1"
_symmetry_group_IT_number 2
_symmetry_cell_setting 'triclinic'
loop_
_space_group_symop_operation_xyz
x,y,z
-x,-y,-z
loop_
_atom_site_type_symbol
_atom_site_label
_atom_site_fract_x
_atom_site_fract_y
_atom_site_fract_z
Si Si1 0.738598 0.797251 0.099357
Si Si2 0.060596 0.186121 0.535310
Si Si3 0.647412 0.732361 0.551574
Si Si4 0.253381 0.616491 0.839519
Si Si5 0.310225 0.800790 0.616625
Si Si6 0.513544 0.334349 0.312735
Si Si7 0.522366 0.182419 0.778567
O O1 0.756245 0.683865 0.220650
O O2 0.527141 0.735515 0.007304
O O3 0.678797 0.736249 0.926272
O O4 0.048397 0.073271 0.294851
O O5 0.226930 0.386469 0.528090
O O6 0.000000 0.000000 0.500000
O O7 0.776269 0.051737 0.353293
O O8 0.500000 0.500000 0.500000
O O9 0.647981 0.796509 0.666283
O O10 0.467538 0.687922 0.324044
O O11 0.247282 0.730608 0.720980
O O12 0.964514 0.341487 0.640369
O O13 0.254545 0.653297 0.971566
O O14 0.406880 0.745376 0.644848
O O15 0.549017 0.076835 0.744457
#
# Coordination Sequence:
#
# PCOD8007164 Si02
#       7
#     2   2   2   2   2   2   2
#     4  10  21  39  66  95 122 170 211 268 331 368
#     4  11  20  36  64  96 128 161 215 269 319 377
#     4  11  26  44  62  93 134 169 212 263 330 390
#     4  10  20  40  68 102 126 161 216 276 316 378
#     4  10  23  41  65 101 127 167 219 270 317 375
#     4  11  23  42  64  91 134 166 214 269 313 389
#     4  11  22  41  67  94 130 173 212 268 321 382
#
# _framework density 23.525233
#
# number of rings (size 3 to 8) (size 9 to 14) (size 15 to 20)
#    0.000    1.429    1.429    5.571    0.000    1.714 
#    5.143    0.714    0.000    0.000    0.000    0.000 
#    0.000    0.000    0.000    0.000    0.000    0.000 
#
# Total GULP energy -173464.262958 kJ/mol
# GULP energy per Si atom -12390.304497 kJ/mol
# Density = 2.347169 g / cm^3
# Si number density = 23.525233 Si / 1000 Ang^3
#
#
#
# Elastic Constant Matrix: (Units=GPa)
#
#
# Indices 1 2 3 4 5 6 
#
# 1 88.1688 42.0135 36.9754 -2.1598 -12.6308 -6.4032
# 2 42.0135 107.7363 33.7567 -5.4684 -9.3768 -14.1121
# 3 36.9754 33.7567 132.2300 -20.2530 -25.6323 1.5117
# 4 -2.1598 -5.4684 -20.2530 16.3569 2.7003 -4.3556
# 5 -12.6308 -9.3768 -25.6323 2.7003 35.9469 1.7542
# 6 -6.4032 -14.1121 1.5117 -4.3556 1.7542 37.9620
#
#
#
# Elastic Compliance Matrix: (Units=1/GPa)
#
#
# Indices 1 2 3 4 5 6 
#
# 1 0.015254 -0.004916 -0.003203 -0.003847 0.002066 0.000336
# 2 -0.004916 0.012320 -0.001358 0.002871 0.000100 0.004129
# 3 -0.003203 -0.001358 0.011956 0.012832 0.006098 -0.000331
# 4 -0.003847 0.002871 0.012832 0.079502 0.002139 0.008930
# 5 0.002066 0.000100 0.006098 0.002139 0.032814 -0.001128
# 6 0.000336 0.004129 -0.000331 0.008930 -0.001128 0.029024
#
#
# Mechanical properties :
#
#
# Convention : Reuss Voigt Hill
#
# Bulk Modulus (GPa) = 48.60290 61.51403 55.05846
# Shear Modulus (GPa) = 24.19160 32.41245 28.30203
#
# Velocity S-wave (km/s) = 3.21023 3.71586 3.47226
# Velocity P-wave (km/s) = 5.86903 6.67945 6.28731
#
# Compressibility (1/GPa) = 0.02057490
#
# Stress axis : x y z
#
# Youngs Moduli (GPa) = 65.55683 81.16785 83.63771
#
# Poissons Ratio (x) = 0.39905 0.26788
# Poissons Ratio (y) = 0.32230 0.11362
# Poissons Ratio (z) = 0.20997 0.11027
#
# Static dielectric constant tensor:
#      x y z
#    x 4.300450 0.097020 -0.339250 
#    y 0.097020 4.250900 -0.186490 
#    z -0.339250 -0.186490 4.664300 
# 
# 
# High freq. dielectric constant tensor:
#      x y z
#    x 1.916260 -0.012600 -0.016290 
#    y -0.012600 1.922780 -0.007460 
#    z -0.016290 -0.007460 1.942520 
# 
# From -- ./inp_files/451367.got.cif
#   From: 2010.06.25/outbox.cif.g09.slc.cpg/sg2_226_cif.got.tgz:451367.got - 2010.06.27 13:26:56.
