data_PCOD8007441
_publ_section_title
;
Structure prediction by ZEFSAII (Michael W. Deem and Ramdas Pophale) SiO2 
 PCOD8007441
Probable space group: P -1
;
_chemical_formula_sum "Si O2"
_cell_formula_units_Z 16
_cell_length_a 12.235312
_cell_length_b 8.055992
_cell_length_c 13.405158
_cell_angle_alpha 67.852850
_cell_angle_beta 136.626044
_cell_angle_gamma 129.899133
_cell_volume 686.086418
_symmetry_space_group_name_H-M "P -1"
_symmetry_group_IT_number 2
_symmetry_cell_setting 'triclinic'
loop_
_space_group_symop_operation_xyz
x,y,z
-x,-y,-z
loop_
_atom_site_type_symbol
_atom_site_label
_atom_site_fract_x
_atom_site_fract_y
_atom_site_fract_z
Si Si1 0.701253 0.212515 0.623060
Si Si2 0.760473 0.263644 0.331882
Si Si3 0.595312 0.389247 0.359386
Si Si4 0.923201 0.811906 0.412210
Si Si5 0.561061 0.120987 0.907575
Si Si6 0.760732 0.642056 0.928591
Si Si7 0.867011 0.253459 0.933322
Si Si8 0.089695 0.297506 0.778136
O O1 0.680074 0.403010 0.523618
O O2 0.728783 0.230531 0.755833
O O3 0.878304 0.221136 0.689688
O O4 0.500000 0.000000 0.500000
O O5 0.643873 0.246614 0.357124
O O6 0.970568 0.313418 0.484456
O O7 0.787113 0.449983 0.234450
O O8 0.638071 0.022028 0.255256
O O9 0.364125 0.281342 0.224500
O O10 0.698584 0.634760 0.331217
O O11 0.931190 0.867057 0.286978
O O12 0.000000 0.000000 0.500000
O O13 0.649953 0.378525 0.908813
O O14 0.725736 0.103663 0.965146
O O15 0.500000 0.000000 0.000000
O O16 0.788946 0.708441 0.048811
O O17 0.974712 0.792863 0.984282
O O18 0.000000 0.500000 0.000000
#
# Coordination Sequence:
#
# PCOD8007441 Si02
#       8
#     2   2   2   2   2   2   2   2
#     4  11  21  41  72  92 124 187 236 269 342 411
#     4  11  20  38  65  96 132 172 227 275 345 394
#     4  11  22  41  68  97 133 175 225 286 334 406
#     4  11  22  37  63  96 138 169 230 286 336 399
#     4  11  21  40  69 100 131 180 224 270 336 416
#     4  10  22  42  66  99 139 174 227 280 344 399
#     4   9  22  41  66  96 135 176 222 274 338 404
#     4  10  20  41  63  91 133 181 216 284 341 398
#
# _framework density 23.320678999999998
#
# number of rings (size 3 to 8) (size 9 to 14) (size 15 to 20)
#    0.000    1.500    3.750    2.250    0.000    2.000 
#    2.250    8.125    2.750    0.000    0.000    0.000 
#    0.000    0.000    0.000    0.000    0.000    0.000 
#
# Total GULP energy -198225.362822 kJ/mol
# GULP energy per Si atom -12389.085176 kJ/mol
# Density = 2.326760 g / cm^3
# Si number density = 23.320679 Si / 1000 Ang^3
#
#
#
# Elastic Constant Matrix: (Units=GPa)
#
#
# Indices 1 2 3 4 5 6 
#
# 1 127.3044 29.9411 68.8134 -6.1322 -11.0511 16.6552
# 2 29.9411 42.1081 22.0425 13.6389 -15.2471 9.5455
# 3 68.8134 22.0425 137.7781 14.7561 -0.3217 4.9153
# 4 -6.1322 13.6389 14.7561 35.3723 -6.3951 -5.2551
# 5 -11.0511 -15.2471 -0.3217 -6.3951 45.1753 6.1320
# 6 16.6552 9.5455 4.9153 -5.2551 6.1320 41.3578
#
#
#
# Elastic Compliance Matrix: (Units=1/GPa)
#
#
# Indices 1 2 3 4 5 6 
#
# 1 0.014233 -0.008018 -0.006634 0.008380 0.002235 -0.002359
# 2 -0.008018 0.041310 -0.000441 -0.016634 0.010980 -0.009995
# 3 -0.006634 -0.000441 0.011240 -0.005995 -0.002686 0.001074
# 4 0.008380 -0.016634 -0.005995 0.039754 0.001199 0.006050
# 5 0.002235 0.010980 -0.002686 0.001199 0.027495 -0.007039
# 6 -0.002359 -0.009995 0.001074 0.006050 -0.007039 0.029121
#
#
# Mechanical properties :
#
#
# Convention : Reuss Voigt Hill
#
# Bulk Modulus (GPa) = 27.32492 60.97605 44.15049
# Shear Modulus (GPa) = 24.32651 36.80732 30.56691
#
# Velocity S-wave (km/s) = 3.23326 3.97711 3.62432
# Velocity P-wave (km/s) = 5.06765 6.87702 6.04047
#
# Compressibility (1/GPa) = 0.03659663
#
# Stress axis : x y z
#
# Youngs Moduli (GPa) = 70.25682 24.20747 88.97190
#
# Poissons Ratio (x) = 0.19410 0.59026
# Poissons Ratio (y) = 0.56333 0.03919
# Poissons Ratio (z) = 0.46610 0.01066
#
# Static dielectric constant tensor:
#      x y z
#    x 4.703680 0.376210 -0.099040 
#    y 0.376210 4.135760 0.106010 
#    z -0.099040 0.106010 4.833970 
# 
# 
# High freq. dielectric constant tensor:
#      x y z
#    x 1.924370 0.020460 -0.004190 
#    y 0.020460 1.909170 0.024320 
#    z -0.004190 0.024320 1.931170 
# 
# From -- ./inp_files/419323.got.cif
#   From: 2010.06.25/outbox.cif.g09.slc.cpg/sg2_210_cif.got.tgz:419323.got - 2010.06.27 13:26:56.
