data_PCOD8007794
_publ_section_title
;
Structure prediction by ZEFSAII (Michael W. Deem and Ramdas Pophale) SiO2 
 PCOD8007794
Probable space group: P -1
;
_chemical_formula_sum "Si O2"
_cell_formula_units_Z 16
_cell_length_a 15.222673
_cell_length_b 12.306850
_cell_length_c 9.399071
_cell_angle_alpha 40.765129
_cell_angle_beta 135.790455
_cell_angle_gamma 133.290289
_cell_volume 761.260463
_symmetry_space_group_name_H-M "P -1"
_symmetry_group_IT_number 2
_symmetry_cell_setting 'triclinic'
loop_
_space_group_symop_operation_xyz
x,y,z
-x,-y,-z
loop_
_atom_site_type_symbol
_atom_site_label
_atom_site_fract_x
_atom_site_fract_y
_atom_site_fract_z
Si Si1 0.712439 0.291015 0.609584
Si Si2 0.198371 0.465442 0.295801
Si Si3 0.006091 0.425409 0.735135
Si Si4 0.315674 0.032866 0.664182
Si Si5 0.559737 0.380034 0.092882
Si Si6 0.552419 0.929404 0.925871
Si Si7 0.742222 0.642479 0.825705
Si Si8 0.075392 0.713584 0.760981
O O1 0.706930 0.460679 0.530626
O O2 0.643837 0.294200 0.376349
O O3 0.639127 0.114658 0.782008
O O4 0.863795 0.301465 0.743911
O O5 0.276386 0.428528 0.288036
O O6 0.073235 0.291930 0.357435
O O7 0.141514 0.629120 0.044288
O O8 0.064939 0.599726 0.721504
O O9 0.000000 0.500000 0.500000
O O10 0.107746 0.312839 0.984240
O O11 0.403288 0.930199 0.787607
O O12 0.304278 0.186065 0.394616
O O13 0.166151 0.909623 0.640604
O O14 0.381712 0.112234 0.811945
O O15 0.450609 0.220530 0.044448
O O16 0.500000 0.500000 0.000000
O O17 0.649030 0.494543 0.961341
#
# Coordination Sequence:
#
# PCOD8007794 Si02
#       8
#     2   2   2   2   2   2   2   2
#     4  11  22  42  69  96 131 171 222 263 331 392
#     4   9  19  37  68  94 125 169 216 266 323 384
#     4  10  20  41  68  97 130 176 209 263 341 394
#     4  11  24  41  67 101 132 169 225 269 320 381
#     4  12  27  45  66  95 133 174 223 267 326 392
#     4  11  25  44  67  94 130 182 216 269 325 382
#     4  11  24  41  67  97 132 168 220 275 321 388
#     4   9  18  38  64  94 127 167 217 263 323 387
#
# _framework density 21.017772999999998
#
# number of rings (size 3 to 8) (size 9 to 14) (size 15 to 20)
#    0.000    1.500    2.500    3.375    3.500    1.000 
#    0.000    0.625    0.000    0.000    0.000    0.000 
#    0.000    0.000    0.000    0.000    0.000    0.000 
#
# Total GULP energy -198384.763840 kJ/mol
# GULP energy per Si atom -12399.047740 kJ/mol
# Density = 2.096994 g / cm^3
# Si number density = 21.017773 Si / 1000 Ang^3
#
#
#
# Elastic Constant Matrix: (Units=GPa)
#
#
# Indices 1 2 3 4 5 6 
#
# 1 106.8687 39.9650 19.9317 0.9125 -10.8217 4.5830
# 2 39.9650 94.1577 21.1009 10.9698 1.0642 0.4694
# 3 19.9317 21.1009 95.7696 6.5693 -5.3133 0.6396
# 4 0.9125 10.9698 6.5693 23.8549 -1.7947 -7.4556
# 5 -10.8217 1.0642 -5.3133 -1.7947 30.0784 -4.4876
# 6 4.5830 0.4694 0.6396 -7.4556 -4.4876 35.4395
#
#
#
# Elastic Compliance Matrix: (Units=1/GPa)
#
#
# Indices 1 2 3 4 5 6 
#
# 1 0.011945 -0.005115 -0.001284 0.002454 0.004340 -0.000388
# 2 -0.005115 0.013968 -0.001745 -0.006376 -0.003208 -0.001240
# 3 -0.001284 -0.001745 0.011329 -0.002258 0.001420 -0.000311
# 4 0.002454 -0.006376 -0.002258 0.049155 0.005256 0.010814
# 5 0.004340 -0.003208 0.001420 0.005256 0.036255 0.005152
# 6 -0.000388 -0.001240 -0.000311 0.010814 0.005152 0.031217
#
#
# Mechanical properties :
#
#
# Convention : Reuss Voigt Hill
#
# Bulk Modulus (GPa) = 47.72564 50.97680 49.35122
# Shear Modulus (GPa) = 28.22588 32.26113 30.24351
#
# Velocity S-wave (km/s) = 3.66861 3.92209 3.79746
# Velocity P-wave (km/s) = 6.37977 6.69456 6.53906
#
# Compressibility (1/GPa) = 0.02095310
#
# Stress axis : x y z
#
# Youngs Moduli (GPa) = 83.71820 71.59206 88.26703
#
# Poissons Ratio (x) = 0.36621 0.11332
# Poissons Ratio (y) = 0.42824 0.15406
# Poissons Ratio (z) = 0.10748 0.12495
#
# Static dielectric constant tensor:
#      x y z
#    x 3.953920 0.156020 -0.045740 
#    y 0.156020 4.121730 0.690800 
#    z -0.045740 0.690800 4.243110 
# 
# 
# High freq. dielectric constant tensor:
#      x y z
#    x 1.828770 0.008390 -0.019780 
#    y 0.008390 1.819730 0.016870 
#    z -0.019780 0.016870 1.815470 
# 
# From -- ./inp_files/306376.got.cif
#   From: 2010.06.25/outbox.cif.g09.slc.cpg/sg2_154_cif.got.tgz:306376.got - 2010.06.27 13:26:56.
