data_PCOD8007203
_publ_section_title
;
Structure prediction by ZEFSAII (Michael W. Deem and Ramdas Pophale) SiO2 
 PCOD8007203
Probable space group: P -1
;
_chemical_formula_sum "Si O2"
_cell_formula_units_Z 14
_cell_length_a 9.647687
_cell_length_b 15.028459
_cell_length_c 10.898054
_cell_angle_alpha 129.058575
_cell_angle_beta 58.668274
_cell_angle_gamma 155.144053
_cell_volume 509.212458
_symmetry_space_group_name_H-M "P -1"
_symmetry_group_IT_number 2
_symmetry_cell_setting 'triclinic'
loop_
_space_group_symop_operation_xyz
x,y,z
-x,-y,-z
loop_
_atom_site_type_symbol
_atom_site_label
_atom_site_fract_x
_atom_site_fract_y
_atom_site_fract_z
Si Si1 0.890243 0.167404 0.891827
Si Si2 0.107218 0.020407 0.100854
Si Si3 0.998027 0.830231 0.609564
Si Si4 0.222375 0.735159 0.446892
Si Si5 0.516755 0.246313 0.454877
Si Si6 0.635031 0.598067 0.331078
Si Si7 0.838403 0.395779 0.113145
O O1 0.211352 0.372070 0.831525
O O2 0.996402 0.173291 0.978795
O O3 0.606990 0.910511 0.736244
O O4 0.747396 0.206111 0.019602
O O5 0.915890 0.982334 0.258405
O O6 0.511357 0.275613 0.155438
O O7 0.000000 0.000000 0.000000
O O8 0.824495 0.674630 0.433218
O O9 0.752428 0.670767 0.704974
O O10 0.303384 0.926430 0.573553
O O11 0.512264 0.845365 0.483665
O O12 0.889687 0.519966 0.495987
O O13 0.131359 0.621654 0.262185
O O14 0.294517 0.221961 0.555803
O O15 0.000000 0.500000 0.000000
#
# Coordination Sequence:
#
# PCOD8007203 Si02
#       7
#     2   2   2   2   2   2   2
#     4  12  24  42  71  97 137 174 224 282 337 393
#     4  12  27  43  67 102 137 175 224 285 339 393
#     4  10  20  42  66  91 136 171 223 267 333 401
#     4  10  22  40  67  95 129 177 216 270 334 397
#     4  10  21  38  67  99 127 165 229 275 325 394
#     4  10  20  40  68  95 127 178 219 274 329 399
#     4  12  26  48  66  96 141 184 220 271 346 409
#
# _framework density 27.493435999999999
#
# number of rings (size 3 to 8) (size 9 to 14) (size 15 to 20)
#    0.000    1.143    2.857    4.286    2.000    3.429 
#    0.000    3.571    0.000    0.000    0.000    0.000 
#    0.000    0.000    0.000    0.000    0.000    0.000 
#
# Total GULP energy -173524.949435 kJ/mol
# GULP energy per Si atom -12394.639245 kJ/mol
# Density = 2.743086 g / cm^3
# Si number density = 27.493436 Si / 1000 Ang^3
#
#
#
# Elastic Constant Matrix: (Units=GPa)
#
#
# Indices 1 2 3 4 5 6 
#
# 1 186.0385 19.8142 66.6374 -5.0881 -10.1858 -2.3112
# 2 19.8142 65.9806 -3.3216 -1.6403 3.3221 9.7962
# 3 66.6374 -3.3216 116.0287 0.3827 -7.9613 4.9596
# 4 -5.0881 -1.6403 0.3827 37.8725 -8.3270 -5.5701
# 5 -10.1858 3.3221 -7.9613 -8.3270 58.0056 -14.9144
# 6 -2.3112 9.7962 4.9596 -5.5701 -14.9144 45.5488
#
#
#
# Elastic Compliance Matrix: (Units=1/GPa)
#
#
# Indices 1 2 3 4 5 6 
#
# 1 0.007375 -0.002799 -0.004301 0.001598 0.001656 0.002182
# 2 -0.002799 0.016950 0.002131 -0.000966 -0.002590 -0.004986
# 3 -0.004301 0.002131 0.011240 -0.000888 0.000023 -0.002001
# 4 0.001598 -0.000966 -0.000888 0.028722 0.005830 0.005807
# 5 0.001656 -0.002590 0.000023 0.005830 0.020601 0.008097
# 6 0.002182 -0.004986 -0.002001 0.005807 0.008097 0.026717
#
#
# Mechanical properties :
#
#
# Convention : Reuss Voigt Hill
#
# Bulk Modulus (GPa) = 39.01901 59.36751 49.19326
# Shear Modulus (GPa) = 38.43633 47.27992 42.85812
#
# Velocity S-wave (km/s) = 3.74306 4.15140 3.95251
# Velocity P-wave (km/s) = 5.73617 6.67975 6.22586
#
# Compressibility (1/GPa) = 0.02562853
#
# Stress axis : x y z
#
# Youngs Moduli (GPa) = 135.58740 58.99534 88.97031
#
# Poissons Ratio (x) = 0.16512 0.38265
# Poissons Ratio (y) = 0.37950 -0.18962
# Poissons Ratio (z) = 0.58314 -0.12574
#
# Static dielectric constant tensor:
#      x y z
#    x 5.844400 -0.185780 -0.271880 
#    y -0.185780 5.527810 0.010600 
#    z -0.271880 0.010600 5.226650 
# 
# 
# High freq. dielectric constant tensor:
#      x y z
#    x 2.134570 -0.016840 -0.024170 
#    y -0.016840 2.139210 -0.023010 
#    z -0.024170 -0.023010 2.090690 
# 
# From -- ./inp_files/347729.got.cif
#   From: 2010.06.25/outbox.cif.g09.slc.cpg/sg2_174_cif.got.tgz:347729.got - 2010.06.27 13:26:56.
