data_PCOD8007273
_publ_section_title
;
Structure prediction by ZEFSAII (Michael W. Deem and Ramdas Pophale) SiO2 
 PCOD8007273
Probable space group: P -1
;
_chemical_formula_sum "Si O2"
_cell_formula_units_Z 16
_cell_length_a 11.684528
_cell_length_b 9.612243
_cell_length_c 9.326246
_cell_angle_alpha 95.809971
_cell_angle_beta 135.104450
_cell_angle_gamma 91.344773
_cell_volume 728.737764
_symmetry_space_group_name_H-M "P -1"
_symmetry_group_IT_number 2
_symmetry_cell_setting 'triclinic'
loop_
_space_group_symop_operation_xyz
x,y,z
-x,-y,-z
loop_
_atom_site_type_symbol
_atom_site_label
_atom_site_fract_x
_atom_site_fract_y
_atom_site_fract_z
Si Si1 0.422084 0.983372 0.775053
Si Si2 0.010730 0.593755 0.309202
Si Si3 0.881890 0.662105 0.899403
Si Si4 0.135490 0.704720 0.876441
Si Si5 0.581501 0.788111 0.691546
Si Si6 0.506635 0.750072 0.302978
Si Si7 0.083737 0.860557 0.565381
Si Si8 0.339034 0.518338 0.525240
O O1 0.543300 0.914383 0.770847
O O2 0.247921 0.886988 0.619017
O O3 0.400749 0.138000 0.714188
O O4 0.500000 0.000000 0.000000
O O5 0.968769 0.728916 0.374925
O O6 0.201329 0.578458 0.505075
O O7 0.901842 0.449441 0.249049
O O8 0.979970 0.606803 0.112506
O O9 0.777754 0.784668 0.872842
O O10 0.745696 0.537384 0.705683
O O11 0.006364 0.720869 0.890296
O O12 0.120180 0.825174 0.758250
O O13 0.315553 0.720796 0.099689
O O14 0.527900 0.817608 0.486264
O O15 0.488628 0.638400 0.644657
O O16 0.591550 0.609511 0.344982
O O17 0.000000 0.000000 0.500000
#
# Coordination Sequence:
#
# PCOD8007273 Si02
#       8
#     2   2   2   2   2   2   2   2
#     4  12  27  49  64  93 139 181 227 264 326 397
#     4  11  22  44  70 101 133 171 222 275 331 395
#     4  10  22  38  72 104 132 164 216 286 332 385
#     4  11  23  45  68 103 134 169 221 277 335 390
#     4  11  22  43  72 101 129 175 224 275 329 389
#     4  11  23  43  71 100 132 173 220 280 329 389
#     4  12  29  47  67  93 139 184 216 271 328 402
#     4  10  20  40  70 103 131 164 221 282 332 381
#
# _framework density 21.955770000000001
#
# number of rings (size 3 to 8) (size 9 to 14) (size 15 to 20)
#    0.000    1.000    2.500    6.000    7.000    0.000 
#    0.000    2.500    0.000    0.000    0.000    0.000 
#    0.000    0.000    0.000    0.000    0.000    0.000 
#
# Total GULP energy -198435.452177 kJ/mol
# GULP energy per Si atom -12402.215761 kJ/mol
# Density = 2.190580 g / cm^3
# Si number density = 21.955770 Si / 1000 Ang^3
#
#
#
# Elastic Constant Matrix: (Units=GPa)
#
#
# Indices 1 2 3 4 5 6 
#
# 1 79.9706 52.5651 29.5000 -10.3351 9.8134 1.5300
# 2 52.5651 127.2179 58.9925 -26.7217 -5.5404 -2.1357
# 3 29.5000 58.9925 96.4236 -20.8934 6.7344 -1.5466
# 4 -10.3351 -26.7217 -20.8934 33.7385 2.0681 -2.2188
# 5 9.8134 -5.5404 6.7344 2.0681 32.4880 -1.9624
# 6 1.5300 -2.1357 -1.5466 -2.2188 -1.9624 41.8164
#
#
#
# Elastic Compliance Matrix: (Units=1/GPa)
#
#
# Indices 1 2 3 4 5 6 
#
# 1 0.018726 -0.007933 -0.000532 -0.000546 -0.006953 -0.001465
# 2 -0.007933 0.015515 -0.006224 0.005728 0.006055 0.001441
# 3 -0.000532 -0.006224 0.015729 0.004943 -0.004456 0.000337
# 4 -0.000546 0.005728 0.004943 0.037356 -0.002117 0.002378
# 5 -0.006953 0.006055 -0.004456 -0.002117 0.035088 0.001933
# 6 -0.001465 0.001441 0.000337 0.002378 0.001933 0.024271
#
#
# Mechanical properties :
#
#
# Convention : Reuss Voigt Hill
#
# Bulk Modulus (GPa) = 48.56069 65.08081 56.82075
# Shear Modulus (GPa) = 27.33321 32.44553 29.88937
#
# Velocity S-wave (km/s) = 3.53217 3.84834 3.69364
# Velocity P-wave (km/s) = 6.22901 7.03225 6.64278
#
# Compressibility (1/GPa) = 0.02059279
#
# Stress axis : x y z
#
# Youngs Moduli (GPa) = 53.40272 64.45218 63.57537
#
# Poissons Ratio (x) = 0.51128 0.03382
# Poissons Ratio (y) = 0.42363 0.39570
# Poissons Ratio (z) = 0.02841 0.40116
#
# Static dielectric constant tensor:
#      x y z
#    x 3.083820 0.106460 -0.380590 
#    y 0.106460 4.021200 -0.083850 
#    z -0.380590 -0.083850 3.671760 
# 
# 
# High freq. dielectric constant tensor:
#      x y z
#    x 1.864780 -0.000150 0.006800 
#    y -0.000150 1.867470 -0.009630 
#    z 0.006800 -0.009630 1.862350 
# 
# From -- ./inp_files/205979.got.cif
#   From: 2010.06.25/outbox.cif.g09.slc.cpg/sg2_103_cif.got.tgz:205979.got - 2010.06.27 13:26:56.
