data_PCOD8007790
_publ_section_title
;
Structure prediction by ZEFSAII (Michael W. Deem and Ramdas Pophale) SiO2 
 PCOD8007790
Probable space group: P -1
;
_chemical_formula_sum "Si O2"
_cell_formula_units_Z 16
_cell_length_a 8.812723
_cell_length_b 10.499258
_cell_length_c 13.054579
_cell_angle_alpha 65.394922
_cell_angle_beta 120.107835
_cell_angle_gamma 66.256701
_cell_volume 597.518405
_symmetry_space_group_name_H-M "P -1"
_symmetry_group_IT_number 2
_symmetry_cell_setting 'triclinic'
loop_
_space_group_symop_operation_xyz
x,y,z
-x,-y,-z
loop_
_atom_site_type_symbol
_atom_site_label
_atom_site_fract_x
_atom_site_fract_y
_atom_site_fract_z
Si Si1 0.975851 0.732235 0.386187
Si Si2 0.560762 0.981136 0.323882
Si Si3 0.041966 0.964712 0.231618
Si Si4 0.339350 0.545657 0.031513
Si Si5 0.400620 0.214317 0.871769
Si Si6 0.541186 0.252493 0.713622
Si Si7 0.893473 0.569848 0.099436
Si Si8 0.510240 0.249226 0.369172
O O1 0.866841 0.932168 0.211410
O O2 0.306661 0.518531 0.556211
O O3 0.851596 0.658711 0.336633
O O4 0.861323 0.837043 0.425520
O O5 0.557862 0.060572 0.405798
O O6 0.529212 0.831878 0.362404
O O7 0.302884 0.191943 0.096768
O O8 0.196978 0.835801 0.220615
O O9 0.251148 0.864080 0.430959
O O10 0.822631 0.223968 0.052642
O O11 0.105626 0.573469 0.917269
O O12 0.500000 0.500000 0.000000
O O13 0.530470 0.352347 0.248876
O O14 0.614626 0.166993 0.886338
O O15 0.251641 0.385908 0.857122
O O16 0.500000 0.000000 0.000000
O O17 0.205062 0.438810 0.257018
#
# Coordination Sequence:
#
# PCOD8007790 Si02
#       8
#     2   2   2   2   2   2   2   2
#     4  11  24  42  63  96 141 174 225 278 331 404
#     4  10  20  41  68  96 133 170 231 287 323 403
#     4  12  26  46  66  99 147 177 221 286 335 402
#     4  11  26  44  71 103 138 175 225 283 338 405
#     4  11  22  40  71  95 126 180 223 274 336 392
#     4  11  23  41  65  98 134 174 225 278 333 397
#     4  11  21  42  68 102 133 171 232 279 332 406
#     4  11  25  43  71 100 133 186 222 275 349 398
#
# _framework density 26.777418999999998
#
# number of rings (size 3 to 8) (size 9 to 14) (size 15 to 20)
#    0.000    1.000    2.500    7.125    0.000    7.000 
#    0.000    0.625    0.000    0.000    0.000    0.000 
#    0.000    0.000    0.000    0.000    0.000    0.000 
#
# Total GULP energy -198282.563404 kJ/mol
# GULP energy per Si atom -12392.660213 kJ/mol
# Density = 2.671647 g / cm^3
# Si number density = 26.777419 Si / 1000 Ang^3
#
#
#
# Elastic Constant Matrix: (Units=GPa)
#
#
# Indices 1 2 3 4 5 6 
#
# 1 106.3407 20.3454 5.5176 -1.4494 6.2934 -19.0638
# 2 20.3454 106.5640 19.3099 -13.8723 6.2777 -16.7993
# 3 5.5176 19.3099 49.1764 -13.4466 -4.4102 -0.3995
# 4 -1.4494 -13.8723 -13.4466 46.5061 -6.5028 -1.4594
# 5 6.2934 6.2777 -4.4102 -6.5028 43.9792 -3.9267
# 6 -19.0638 -16.7993 -0.3995 -1.4594 -3.9267 53.4359
#
#
#
# Elastic Compliance Matrix: (Units=1/GPa)
#
#
# Indices 1 2 3 4 5 6 
#
# 1 0.010328 -0.001302 -0.000824 -0.000365 -0.001145 0.003175
# 2 -0.001302 0.011124 -0.003723 0.002127 -0.001195 0.002975
# 3 -0.000824 -0.003723 0.023960 0.006312 0.003912 -0.000826
# 4 -0.000365 0.002127 0.006312 0.024581 0.004156 0.001562
# 5 -0.001145 -0.001195 0.003912 0.004156 0.024181 0.001135
# 6 0.003175 0.002975 -0.000826 0.001562 0.001135 0.020902
#
#
# Mechanical properties :
#
#
# Convention : Reuss Voigt Hill
#
# Bulk Modulus (GPa) = 29.66310 39.15854 34.41082
# Shear Modulus (GPa) = 36.22925 43.24479 39.73702
#
# Velocity S-wave (km/s) = 3.68227 4.02303 3.85642
# Velocity P-wave (km/s) = 5.40190 6.01957 5.71908
#
# Compressibility (1/GPa) = 0.03371192
#
# Stress axis : x y z
#
# Youngs Moduli (GPa) = 96.82826 89.89935 41.73708
#
# Poissons Ratio (x) = 0.11705 0.03440
# Poissons Ratio (y) = 0.12607 0.15539
# Poissons Ratio (z) = 0.07982 0.33470
#
# Static dielectric constant tensor:
#      x y z
#    x 5.847270 0.889380 1.261250 
#    y 0.889380 6.391220 1.740260 
#    z 1.261250 1.740260 6.983540 
# 
# 
# High freq. dielectric constant tensor:
#      x y z
#    x 2.085010 -0.007530 -0.005510 
#    y -0.007530 2.079650 -0.004980 
#    z -0.005510 -0.004980 2.077760 
# 
# From -- ./inp_files/500197.got.cif
#   From: 2010.06.25/outbox.cif.g09.slc.cpg/sg2_251_cif.got.tgz:500197.got - 2010.06.27 13:26:56.
