data_PCOD8007728
_publ_section_title
;
Structure prediction by ZEFSAII (Michael W. Deem and Ramdas Pophale) SiO2 
 PCOD8007728
Probable space group: P -1
;
_chemical_formula_sum "Si O2"
_cell_formula_units_Z 16
_cell_length_a 9.369762
_cell_length_b 12.390008
_cell_length_c 10.053682
_cell_angle_alpha 125.157496
_cell_angle_beta 62.609191
_cell_angle_gamma 126.069833
_cell_volume 758.255904
_symmetry_space_group_name_H-M "P -1"
_symmetry_group_IT_number 2
_symmetry_cell_setting 'triclinic'
loop_
_space_group_symop_operation_xyz
x,y,z
-x,-y,-z
loop_
_atom_site_type_symbol
_atom_site_label
_atom_site_fract_x
_atom_site_fract_y
_atom_site_fract_z
Si Si1 0.262162 0.585104 0.883865
Si Si2 0.366631 0.366868 0.791633
Si Si3 0.914758 0.434151 0.778384
Si Si4 0.740837 0.616189 0.873859
Si Si5 0.471278 0.131046 0.450664
Si Si6 0.565447 0.878222 0.851065
Si Si7 0.918969 0.899980 0.836265
Si Si8 0.793906 0.142616 0.475855
O O1 0.265510 0.425153 0.771561
O O2 0.446493 0.723666 0.864349
O O3 0.112290 0.559735 0.819453
O O4 0.208449 0.621960 0.077334
O O5 0.534301 0.521259 0.862082
O O6 0.418018 0.245160 0.628165
O O7 0.246684 0.303706 0.931771
O O8 0.836010 0.509778 0.762157
O O9 0.917487 0.295364 0.604407
O O10 0.831295 0.731095 0.799611
O O11 0.451532 0.150063 0.317850
O O12 0.674438 0.164355 0.424978
O O13 0.337142 0.966461 0.434767
O O14 0.771126 0.937249 0.853207
O O15 0.500000 0.000000 0.000000
O O16 0.078833 0.925296 0.683916
O O17 0.000000 0.000000 0.000000
#
# Coordination Sequence:
#
# PCOD8007728 Si02
#       8
#     2   2   2   2   2   2   2   2
#     4  10  23  42  66  96 132 168 211 263 316 380
#     4  10  20  41  67  95 127 170 213 253 321 380
#     4  10  22  41  67  97 130 169 212 261 315 377
#     4  10  21  40  68  95 127 169 212 261 312 380
#     4  11  25  44  68  93 130 174 211 266 324 378
#     4  12  27  45  66  93 130 171 214 266 326 381
#     4  12  27  44  66  96 128 168 218 268 317 384
#     4  11  25  45  66  95 130 169 219 264 318 384
#
# _framework density 21.101054999999999
#
# number of rings (size 3 to 8) (size 9 to 14) (size 15 to 20)
#    0.000    1.250    2.500    2.250    5.250    4.500 
#    4.500    0.000    0.000    0.000    0.000    0.000 
#    0.000    0.000    0.000    0.000    0.000    0.000 
#
# Total GULP energy -198434.070462 kJ/mol
# GULP energy per Si atom -12402.129404 kJ/mol
# Density = 2.105303 g / cm^3
# Si number density = 21.101055 Si / 1000 Ang^3
#
#
#
# Elastic Constant Matrix: (Units=GPa)
#
#
# Indices 1 2 3 4 5 6 
#
# 1 116.9763 16.9160 43.8231 -2.2227 -4.7269 -0.8021
# 2 16.9160 47.8796 13.3587 3.1476 3.3652 -6.7640
# 3 43.8231 13.3587 86.6997 17.4399 -9.4037 -9.2913
# 4 -2.2227 3.1476 17.4399 28.4272 -5.6560 0.3340
# 5 -4.7269 3.3652 -9.4037 -5.6560 35.8504 -0.2518
# 6 -0.8021 -6.7640 -9.2913 0.3340 -0.2518 28.1020
#
#
#
# Elastic Compliance Matrix: (Units=1/GPa)
#
#
# Indices 1 2 3 4 5 6 
#
# 1 0.011632 -0.003045 -0.006721 0.005584 0.000919 -0.002681
# 2 -0.003045 0.023475 -0.001341 -0.002742 -0.003353 0.005123
# 3 -0.006721 -0.001341 0.018244 -0.011178 0.002301 0.005671
# 4 0.005584 -0.002742 -0.011178 0.043814 0.004941 -0.004673
# 5 0.000919 -0.003353 0.002301 0.004941 0.029714 0.000188
# 6 -0.002681 0.005123 0.005671 -0.004673 0.000188 0.038673
#
#
# Mechanical properties :
#
#
# Convention : Reuss Voigt Hill
#
# Bulk Modulus (GPa) = 32.11674 44.41681 38.26678
# Shear Modulus (GPa) = 25.23395 30.30643 27.77019
#
# Velocity S-wave (km/s) = 3.46188 3.79390 3.63169
# Velocity P-wave (km/s) = 5.58864 6.34719 5.97996
#
# Compressibility (1/GPa) = 0.03113641
#
# Stress axis : x y z
#
# Youngs Moduli (GPa) = 85.97031 42.59790 54.81269
#
# Poissons Ratio (x) = 0.12970 0.36841
# Poissons Ratio (y) = 0.26176 0.07352
# Poissons Ratio (z) = 0.57783 0.05714
#
# Static dielectric constant tensor:
#      x y z
#    x 4.097660 -0.013790 0.264960 
#    y -0.013790 3.749150 -0.033810 
#    z 0.264960 -0.033810 4.323410 
# 
# 
# High freq. dielectric constant tensor:
#      x y z
#    x 1.841850 -0.005030 -0.002130 
#    y -0.005030 1.826050 0.001930 
#    z -0.002130 0.001930 1.822070 
# 
# From -- ./inp_files/186081.got.cif
#   From: 2010.06.25/outbox.cif.g09.slc.cpg/sg2_94_cif.got.tgz:186081.got - 2010.06.27 13:26:56.
