data_PCOD8007498
_publ_section_title
;
Structure prediction by ZEFSAII (Michael W. Deem and Ramdas Pophale) SiO2 
 PCOD8007498
Probable space group: P -1
;
_chemical_formula_sum "Si O2"
_cell_formula_units_Z 16
_cell_length_a 8.408463
_cell_length_b 15.104811
_cell_length_c 15.324707
_cell_angle_alpha 140.809919
_cell_angle_beta 61.124707
_cell_angle_gamma 90.725520
_cell_volume 815.181674
_symmetry_space_group_name_H-M "P -1"
_symmetry_group_IT_number 2
_symmetry_cell_setting 'triclinic'
loop_
_space_group_symop_operation_xyz
x,y,z
-x,-y,-z
loop_
_atom_site_type_symbol
_atom_site_label
_atom_site_fract_x
_atom_site_fract_y
_atom_site_fract_z
Si Si1 0.839652 0.208295 0.310982
Si Si2 0.524222 0.693344 0.100068
Si Si3 0.878346 0.293283 0.732576
Si Si4 0.292263 0.009733 0.528814
Si Si5 0.648701 0.080267 0.132196
Si Si6 0.733019 0.579152 0.628409
Si Si7 0.505156 0.152698 0.953125
Si Si8 0.947776 0.089766 0.381228
O O1 0.691227 0.164345 0.265570
O O2 0.732577 0.415908 0.476442
O O3 0.799073 0.208118 0.425189
O O4 0.118043 0.053449 0.092382
O O5 0.316322 0.681087 0.131039
O O6 0.539161 0.796794 0.097976
O O7 0.442388 0.806168 0.296062
O O8 0.788403 0.495784 0.893429
O O9 0.901414 0.210508 0.569078
O O10 0.133585 0.166064 0.616175
O O11 0.500000 0.000000 0.500000
O O12 0.123120 0.034306 0.669397
O O13 0.426021 0.251956 0.267830
O O14 0.581632 0.960650 0.092605
O O15 0.000000 0.500000 0.500000
O O16 0.634197 0.657584 0.811301
O O17 0.779637 0.034788 0.815213
#
# Coordination Sequence:
#
# PCOD8007498 Si02
#       8
#     2   2   2   2   2   2   2   2
#     4  11  24  43  62  94 132 165 210 266 329 370
#     4  10  21  38  65  92 121 160 216 256 304 377
#     4  10  20  41  64  92 122 163 210 263 306 370
#     4  11  23  40  63  93 133 162 197 263 324 371
#     4  11  25  41  64  92 133 167 206 275 322 370
#     4  12  23  42  65  95 125 172 220 263 309 378
#     4  12  21  40  68  94 123 172 221 256 310 384
#     4  11  21  40  68  89 121 170 212 257 310 385
#
# _framework density 19.627527000000001
#
# number of rings (size 3 to 8) (size 9 to 14) (size 15 to 20)
#    0.000    1.000    5.000    3.000    1.750    0.500 
#    0.000    0.000    2.750    0.000    0.000    0.000 
#    0.000    0.000    0.000    0.000    0.000    0.000 
#
# Total GULP energy -198337.483900 kJ/mol
# GULP energy per Si atom -12396.092744 kJ/mol
# Density = 1.958285 g / cm^3
# Si number density = 19.627527 Si / 1000 Ang^3
#
#
#
# Elastic Constant Matrix: (Units=GPa)
#
#
# Indices 1 2 3 4 5 6 
#
# 1 118.4731 47.9469 40.2127 6.7683 -5.0695 0.6932
# 2 47.9469 108.8747 27.5026 3.9194 3.1467 -8.2268
# 3 40.2127 27.5026 101.3277 10.9293 -4.1444 -2.5619
# 4 6.7683 3.9194 10.9293 36.1970 1.5082 0.5725
# 5 -5.0695 3.1467 -4.1444 1.5082 24.2032 2.5378
# 6 0.6932 -8.2268 -2.5619 0.5725 2.5378 26.8503
#
#
#
# Elastic Compliance Matrix: (Units=1/GPa)
#
#
# Indices 1 2 3 4 5 6 
#
# 1 0.011519 -0.004479 -0.003217 -0.000776 0.002725 -0.002218
# 2 -0.004479 0.011920 -0.001495 0.000068 -0.003159 0.003922
# 3 -0.003217 -0.001495 0.011953 -0.002926 0.001680 0.000669
# 4 -0.000776 0.000068 -0.002926 0.028758 -0.002399 -0.000625
# 5 0.002725 -0.003159 0.001680 -0.002399 0.043251 -0.004915
# 6 -0.002218 0.003922 0.000669 -0.000625 -0.004915 0.039044
#
#
# Mechanical properties :
#
#
# Convention : Reuss Voigt Hill
#
# Bulk Modulus (GPa) = 58.78754 62.22220 60.50487
# Shear Modulus (GPa) = 29.32616 31.65100 30.48858
#
# Velocity S-wave (km/s) = 3.86960 4.02005 3.94554
# Velocity P-wave (km/s) = 7.06977 7.30192 7.18678
#
# Compressibility (1/GPa) = 0.01701041
#
# Stress axis : x y z
#
# Youngs Moduli (GPa) = 86.81291 83.89117 83.66348
#
# Poissons Ratio (x) = 0.37572 0.26912
# Poissons Ratio (y) = 0.38880 0.12511
# Poissons Ratio (z) = 0.27925 0.12545
#
# Static dielectric constant tensor:
#      x y z
#    x 3.408630 -0.124220 -0.092700 
#    y -0.124220 3.655080 0.144190 
#    z -0.092700 0.144190 3.932790 
# 
# 
# High freq. dielectric constant tensor:
#      x y z
#    x 1.753650 -0.003530 -0.003400 
#    y -0.003530 1.772210 -0.000330 
#    z -0.003400 -0.000330 1.774820 
# 
# From -- ./inp_files/273027.got.cif
#   From: 2010.06.25/outbox.cif.g09.slc.cpg/sg2_137_cif.got.tgz:273027.got - 2010.06.27 13:26:56.
