data_PCOD8007739
_publ_section_title
;
Structure prediction by ZEFSAII (Michael W. Deem and Ramdas Pophale) SiO2 
 PCOD8007739
Probable space group: P -1
;
_chemical_formula_sum "Si O2"
_cell_formula_units_Z 14
_cell_length_a 8.357371
_cell_length_b 7.886645
_cell_length_c 11.996596
_cell_angle_alpha 66.192970
_cell_angle_beta 114.666323
_cell_angle_gamma 85.508357
_cell_volume 627.797539
_symmetry_space_group_name_H-M "P -1"
_symmetry_group_IT_number 2
_symmetry_cell_setting 'triclinic'
loop_
_space_group_symop_operation_xyz
x,y,z
-x,-y,-z
loop_
_atom_site_type_symbol
_atom_site_label
_atom_site_fract_x
_atom_site_fract_y
_atom_site_fract_z
Si Si1 0.596342 0.547980 0.359779
Si Si2 0.414565 0.073678 0.838224
Si Si3 0.280099 0.872508 0.516643
Si Si4 0.417568 0.031615 0.308713
Si Si5 0.914027 0.630918 0.836555
Si Si6 0.199138 0.611463 0.316894
Si Si7 0.961240 0.996457 0.259664
O O1 0.658260 0.692766 0.255489
O O2 0.641539 0.346256 0.359815
O O3 0.377777 0.632753 0.297252
O O4 0.724565 0.515502 0.516334
O O5 0.252430 0.979276 0.793002
O O6 0.575654 0.008945 0.809532
O O7 0.500000 0.000000 0.000000
O O8 0.369522 0.007311 0.579079
O O9 0.058269 0.944393 0.424594
O O10 0.338639 0.883997 0.397621
O O11 0.300760 0.253548 0.236535
O O12 0.916266 0.502306 0.760639
O O13 0.024153 0.791139 0.822508
O O14 0.000000 0.500000 0.000000
O O15 0.054637 0.824151 0.243874
#
# Coordination Sequence:
#
# PCOD8007739 Si02
#       7
#     2   2   2   2   2   2   2
#     4  10  20  41  67  98 120 173 223 270 321 386
#     4  12  28  42  60  91 147 182 200 255 349 407
#     4   9  19  41  73  96 116 159 234 285 308 358
#     4  10  21  42  67  97 126 165 219 276 321 377
#     4  11  24  41  71 100 127 170 227 273 320 382
#     4  10  21  42  75  97 123 164 234 282 311 368
#     4  10  25  43  60 101 134 169 214 268 332 389
#
# _framework density 22.300183000000001
#
# number of rings (size 3 to 8) (size 9 to 14) (size 15 to 20)
#    0.000    1.714    1.429    3.429    8.000    3.429 
#    2.571    1.429    0.000    0.000    0.000    0.000 
#    0.000    0.000    0.000    0.000    0.000    0.000 
#
# Total GULP energy -173443.457985 kJ/mol
# GULP energy per Si atom -12388.818428 kJ/mol
# Density = 2.224943 g / cm^3
# Si number density = 22.300183 Si / 1000 Ang^3
#
#
#
# Elastic Constant Matrix: (Units=GPa)
#
#
# Indices 1 2 3 4 5 6 
#
# 1 43.6413 16.0733 30.4221 -0.2020 2.6306 22.0181
# 2 16.0733 120.5349 42.8592 -18.0560 -10.0399 17.3190
# 3 30.4221 42.8592 117.6478 -9.7674 -11.3666 21.4027
# 4 -0.2020 -18.0560 -9.7674 34.7465 2.5141 -0.7325
# 5 2.6306 -10.0399 -11.3666 2.5141 29.3411 3.7851
# 6 22.0181 17.3190 21.4027 -0.7325 3.7851 33.2452
#
#
#
# Elastic Compliance Matrix: (Units=1/GPa)
#
#
# Indices 1 2 3 4 5 6 
#
# 1 0.038115 -0.000405 -0.006446 -0.002001 -0.003230 -0.020558
# 2 -0.000405 0.010709 -0.002411 0.004592 0.002887 -0.003986
# 3 -0.006446 -0.002411 0.012147 0.001727 0.004670 -0.002788
# 4 -0.002001 0.004592 0.001727 0.031616 -0.000099 -0.001471
# 5 -0.003230 0.002887 0.004670 -0.000099 0.038042 -0.006705
# 6 -0.020558 -0.003986 -0.002788 -0.001471 -0.006705 0.048298
#
#
# Mechanical properties :
#
#
# Convention : Reuss Voigt Hill
#
# Bulk Modulus (GPa) = 23.55989 51.17035 37.36512
# Shear Modulus (GPa) = 23.62943 32.29786 27.96365
#
# Velocity S-wave (km/s) = 3.25869 3.80981 3.54498
# Velocity P-wave (km/s) = 4.97459 6.50760 5.79204
#
# Compressibility (1/GPa) = 0.04244502
#
# Stress axis : x y z
#
# Youngs Moduli (GPa) = 26.23657 93.38163 82.32339
#
# Poissons Ratio (x) = 0.03784 0.53069
# Poissons Ratio (y) = 0.01063 0.19850
# Poissons Ratio (z) = 0.16913 0.22516
#
# Static dielectric constant tensor:
#      x y z
#    x 3.898890 0.159580 0.157690 
#    y 0.159580 4.153910 -0.012630 
#    z 0.157690 -0.012630 3.874050 
# 
# 
# High freq. dielectric constant tensor:
#      x y z
#    x 1.856060 0.013450 0.014990 
#    y 0.013450 1.896250 -0.000090 
#    z 0.014990 -0.000090 1.860620 
# 
# From -- ./inp_files/381445.got.cif
#   From: 2010.06.25/outbox.cif.g09.slc.cpg/sg2_191_cif.got.tgz:381445.got - 2010.06.27 13:26:56.
