data_PCOD8007561
_publ_section_title
;
Structure prediction by ZEFSAII (Michael W. Deem and Ramdas Pophale) SiO2 
 PCOD8007561
Probable space group: P -1
;
_chemical_formula_sum "Si O2"
_cell_formula_units_Z 16
_cell_length_a 6.960295
_cell_length_b 7.513564
_cell_length_c 15.001263
_cell_angle_alpha 96.506824
_cell_angle_beta 123.195602
_cell_angle_gamma 86.401141
_cell_volume 652.258344
_symmetry_space_group_name_H-M "P -1"
_symmetry_group_IT_number 2
_symmetry_cell_setting 'triclinic'
loop_
_space_group_symop_operation_xyz
x,y,z
-x,-y,-z
loop_
_atom_site_type_symbol
_atom_site_label
_atom_site_fract_x
_atom_site_fract_y
_atom_site_fract_z
Si Si1 0.595282 0.310515 0.884414
Si Si2 0.976006 0.311900 0.289306
Si Si3 0.931607 0.294693 0.469946
Si Si4 0.572301 0.790354 0.693265
Si Si5 0.184117 0.868450 0.231233
Si Si6 0.101856 0.277619 0.694875
Si Si7 0.822093 0.025766 0.035143
Si Si8 0.512133 0.720320 0.880234
O O1 0.764783 0.277569 0.841005
O O2 0.349362 0.220419 0.792987
O O3 0.583581 0.520060 0.916206
O O4 0.691415 0.214479 0.992987
O O5 0.215060 0.318050 0.300205
O O6 0.998806 0.208764 0.385455
O O7 0.892284 0.510214 0.302982
O O8 0.759471 0.234520 0.173043
O O9 0.658029 0.280657 0.414610
O O10 0.000000 0.500000 0.500000
O O11 0.057845 0.195117 0.579689
O O12 0.581387 0.751531 0.797810
O O13 0.595749 0.003424 0.691020
O O14 0.108961 0.773236 0.297217
O O15 0.978693 0.010436 0.162818
O O16 0.358884 0.137828 0.016621
O O17 0.000000 0.000000 0.000000
#
# Coordination Sequence:
#
# PCOD8007561 Si02
#       8
#     2   2   2   2   2   2   2   2
#     4  10  22  41  64  88 130 166 207 265 300 365
#     4   9  21  39  63  94 119 166 210 254 312 372
#     4   9  21  40  64  90 123 163 211 254 317 373
#     4  11  21  38  64  92 128 163 202 262 312 370
#     4  11  24  39  59  93 128 163 207 258 313 368
#     4  10  22  40  60  92 122 162 211 256 314 369
#     4  10  21  41  61  93 127 168 210 254 311 368
#     4  10  20  41  65  90 128 169 211 252 310 365
#
# _framework density 24.530159000000001
#
# number of rings (size 3 to 8) (size 9 to 14) (size 15 to 20)
#    0.000    2.000    2.500    1.500    1.750    6.000 
#    2.250    2.500    0.000    0.000    0.000    0.000 
#    0.000    0.000    0.000    0.000    0.000    0.000 
#
# Total GULP energy -198338.780043 kJ/mol
# GULP energy per Si atom -12396.173753 kJ/mol
# Density = 2.447433 g / cm^3
# Si number density = 24.530159 Si / 1000 Ang^3
#
#
#
# Elastic Constant Matrix: (Units=GPa)
#
#
# Indices 1 2 3 4 5 6 
#
# 1 129.0477 17.7646 27.1464 -4.3129 10.0377 9.8509
# 2 17.7646 83.0955 -5.8360 -4.2416 12.4966 9.5201
# 3 27.1464 -5.8360 84.0659 -7.5737 10.7480 19.2484
# 4 -4.3129 -4.2416 -7.5737 21.4142 10.1372 4.1671
# 5 10.0377 12.4966 10.7480 10.1372 35.5521 6.0177
# 6 9.8509 9.5201 19.2484 4.1671 6.0177 46.5562
#
#
#
# Elastic Compliance Matrix: (Units=1/GPa)
#
#
# Indices 1 2 3 4 5 6 
#
# 1 0.008701 -0.001733 -0.002565 0.001215 -0.001358 -0.000360
# 2 -0.001733 0.014796 0.004317 0.008600 -0.007756 -0.004211
# 3 -0.002565 0.004317 0.016715 0.011385 -0.007865 -0.007253
# 4 0.001215 0.008600 0.011385 0.065877 -0.023980 -0.009520
# 5 -0.001358 -0.007756 -0.007865 -0.023980 0.040099 0.002088
# 6 -0.000360 -0.004211 -0.007253 -0.009520 0.002088 0.025998
#
#
# Mechanical properties :
#
#
# Convention : Reuss Voigt Hill
#
# Bulk Modulus (GPa) = 24.84358 41.59544 33.21951
# Shear Modulus (GPa) = 26.94497 37.84680 32.39588
#
# Velocity S-wave (km/s) = 3.31787 3.93220 3.63802
# Velocity P-wave (km/s) = 4.98272 6.13269 5.58737
#
# Compressibility (1/GPa) = 0.04025185
#
# Stress axis : x y z
#
# Youngs Moduli (GPa) = 114.93273 67.58657 59.82493
#
# Poissons Ratio (x) = 0.11711 0.15342
# Poissons Ratio (y) = 0.19916 -0.25828
# Poissons Ratio (z) = 0.29475 -0.29179
#
# Static dielectric constant tensor:
#      x y z
#    x 4.671710 0.093000 0.225680 
#    y 0.093000 4.267700 -0.117940 
#    z 0.225680 -0.117940 5.074540 
# 
# 
# High freq. dielectric constant tensor:
#      x y z
#    x 1.993100 0.005500 -0.005540 
#    y 0.005500 1.966440 0.004100 
#    z -0.005540 0.004100 1.976220 
# 
# From -- ./inp_files/480574.got.cif
#   From: 2010.06.25/outbox.cif.g09.slc.cpg/sg2_241_cif.got.tgz:480574.got - 2010.06.27 13:26:56.
