data_PCOD8007932
_publ_section_title
;
Structure prediction by ZEFSAII (Michael W. Deem and Ramdas Pophale) SiO2 
 PCOD8007932
Probable space group: P -1
;
_chemical_formula_sum "Si O2"
_cell_formula_units_Z 14
_cell_length_a 18.660349
_cell_length_b 8.841271
_cell_length_c 12.976984
_cell_angle_alpha 147.609535
_cell_angle_beta 150.618766
_cell_angle_gamma 41.490367
_cell_volume 561.964409
_symmetry_space_group_name_H-M "P -1"
_symmetry_group_IT_number 2
_symmetry_cell_setting 'triclinic'
loop_
_space_group_symop_operation_xyz
x,y,z
-x,-y,-z
loop_
_atom_site_type_symbol
_atom_site_label
_atom_site_fract_x
_atom_site_fract_y
_atom_site_fract_z
Si Si1 0.096139 0.218636 0.041536
Si Si2 0.209032 0.549393 0.204550
Si Si3 0.635887 0.908166 0.327221
Si Si4 0.235148 0.370677 0.851983
Si Si5 0.949777 0.173109 0.436105
Si Si6 0.682257 0.023079 0.100129
Si Si7 0.350179 0.961637 0.351542
O O1 0.175955 0.486135 0.247074
O O2 0.205546 0.065825 0.170241
O O3 0.945038 0.332332 0.973082
O O4 0.052692 0.010780 0.776302
O O5 0.330702 0.774524 0.478200
O O6 0.272953 0.264610 0.069799
O O7 0.477627 0.850296 0.050714
O O8 0.640769 0.866529 0.431971
O O9 0.746179 0.677814 0.276065
O O10 0.062596 0.418264 0.693647
O O11 0.296780 0.071650 0.808728
O O12 0.327186 0.630929 0.156062
O O13 0.000000 0.000000 0.500000
O O14 0.785045 0.268457 0.323198
O O15 0.500000 0.000000 0.500000
#
# Coordination Sequence:
#
# PCOD8007932 Si02
#       7
#     2   2   2   2   2   2   2
#     4  10  22  42  69 102 140 179 228 286 341 407
#     4  10  20  41  72  99 129 179 234 279 334 400
#     4  12  24  45  73 103 137 179 236 282 342 407
#     4  11  24  44  69 104 137 180 232 281 342 411
#     4   9  19  40  65  99 135 172 228 278 332 403
#     4  10  21  41  73 104 139 177 228 290 340 396
#     4  12  28  47  68 101 146 184 223 281 356 409
#
# _framework density 24.912610999999998
#
# number of rings (size 3 to 8) (size 9 to 14) (size 15 to 20)
#    0.000    1.429    2.857    2.571    2.000    1.714 
#    0.000    4.286    0.000    0.000    0.000    0.000 
#    0.000    0.000    0.000    0.000    0.000    0.000 
#
# Total GULP energy -173457.181857 kJ/mol
# GULP energy per Si atom -12389.798704 kJ/mol
# Density = 2.485591 g / cm^3
# Si number density = 24.912611 Si / 1000 Ang^3
#
#
#
# Elastic Constant Matrix: (Units=GPa)
#
#
# Indices 1 2 3 4 5 6 
#
# 1 134.3708 16.1987 52.6464 -1.0924 10.0709 9.1940
# 2 16.1987 48.1175 19.1173 -12.2192 8.1611 5.4266
# 3 52.6464 19.1173 102.7562 -6.2461 31.6389 20.3753
# 4 -1.0924 -12.2192 -6.2461 35.0330 9.5982 1.5582
# 5 10.0709 8.1611 31.6389 9.5982 58.7910 0.9701
# 6 9.1940 5.4266 20.3753 1.5582 0.9701 23.5607
#
#
#
# Elastic Compliance Matrix: (Units=1/GPa)
#
#
# Indices 1 2 3 4 5 6 
#
# 1 0.009601 -0.002036 -0.005577 -0.002008 0.001941 0.001598
# 2 -0.002036 0.025658 -0.000794 0.010158 -0.004363 -0.004921
# 3 -0.005577 -0.000794 0.018961 0.006275 -0.009931 -0.014044
# 4 -0.002008 0.010158 0.006275 0.036345 -0.010229 -0.008966
# 5 0.001941 -0.004363 -0.009931 -0.010229 0.024157 0.008518
# 6 0.001598 -0.004921 -0.014044 -0.008966 0.008518 0.055341
#
#
# Mechanical properties :
#
#
# Convention : Reuss Voigt Hill
#
# Bulk Modulus (GPa) = 26.73289 51.24102 38.98696
# Shear Modulus (GPa) = 25.08209 36.62908 30.85559
#
# Velocity S-wave (km/s) = 3.17646 3.83861 3.52313
# Velocity P-wave (km/s) = 4.92008 6.34504 5.67744
#
# Compressibility (1/GPa) = 0.03740710
#
# Stress axis : x y z
#
# Youngs Moduli (GPa) = 104.15122 38.97443 52.74023
#
# Poissons Ratio (x) = 0.07934 0.29412
# Poissons Ratio (y) = 0.21203 0.04187
# Poissons Ratio (z) = 0.58084 0.03094
#
# Static dielectric constant tensor:
#      x y z
#    x 5.088700 0.252020 0.349870 
#    y 0.252020 4.000960 0.066980 
#    z 0.349870 0.066980 4.949040 
# 
# 
# High freq. dielectric constant tensor:
#      x y z
#    x 2.017320 0.008670 0.010200 
#    y 0.008670 1.944610 0.003210 
#    z 0.010200 0.003210 2.001710 
# 
# From -- ./inp_files/462517.got.cif
#   From: 2010.06.25/outbox.cif.g09.slc.cpg/sg2_232_cif.got.tgz:462517.got - 2010.06.27 13:26:56.
