data_PCOD8007707
_publ_section_title
;
Structure prediction by ZEFSAII (Michael W. Deem and Ramdas Pophale) SiO2 
 PCOD8007707
Probable space group: P -1
;
_chemical_formula_sum "Si O2"
_cell_formula_units_Z 16
_cell_length_a 23.199524
_cell_length_b 14.409730
_cell_length_c 7.775171
_cell_angle_alpha 110.222035
_cell_angle_beta 63.429907
_cell_angle_gamma 159.394183
_cell_volume 795.837309
_symmetry_space_group_name_H-M "P -1"
_symmetry_group_IT_number 2
_symmetry_cell_setting 'triclinic'
loop_
_space_group_symop_operation_xyz
x,y,z
-x,-y,-z
loop_
_atom_site_type_symbol
_atom_site_label
_atom_site_fract_x
_atom_site_fract_y
_atom_site_fract_z
Si Si1 0.829795 0.265779 0.916266
Si Si2 0.205381 0.377362 0.830145
Si Si3 0.997304 0.885464 0.726385
Si Si4 0.394616 0.090079 0.315840
Si Si5 0.096127 0.795130 0.998673
Si Si6 0.115795 0.371650 0.623643
Si Si7 0.858556 0.405695 0.472115
Si Si8 0.153354 0.915115 0.621730
O O1 0.778339 0.112502 0.034748
O O2 0.003431 0.469608 0.722617
O O3 0.660049 0.036033 0.874805
O O4 0.894868 0.463871 0.030058
O O5 0.396973 0.605388 0.751925
O O6 0.217181 0.473757 0.720955
O O7 0.136859 0.325331 0.068779
O O8 0.071898 0.101937 0.770766
O O9 0.906453 0.742832 0.568819
O O10 0.154659 0.029551 0.624649
O O11 0.312813 0.903243 0.451904
O O12 0.314366 0.085976 0.429207
O O13 0.073300 0.854847 0.199622
O O14 0.181962 0.957378 0.814460
O O15 0.211665 0.603419 0.556168
O O16 0.961962 0.594133 0.623889
#
# Coordination Sequence:
#
# PCOD8007707 Si02
#       8
#     2   2   2   2   2   2   2   2
#     4   9  17  30  53  88 125 148 184 226 283 352
#     4  11  24  41  62  82 112 159 193 245 294 327
#     4  10  23  44  63  79 108 155 211 239 277 343
#     4  11  20  35  57  91 124 146 184 240 294 340
#     4  10  16  30  59  88 111 159 189 222 281 344
#     4  10  21  38  62  85 110 153 203 232 279 350
#     4   9  17  32  57  88 118 152 183 228 282 351
#     4  10  17  35  61  84 116 150 190 233 281 343
#
# _framework density 20.104611999999999
#
# number of rings (size 3 to 8) (size 9 to 14) (size 15 to 20)
#    0.000    2.000    3.750    1.875    0.000    1.000 
#    2.250    5.625    0.000    1.500    0.000    0.000 
#    0.000    0.000    0.000    0.000    0.000    0.000 
#
# Total GULP energy -198264.632743 kJ/mol
# GULP energy per Si atom -12391.539546 kJ/mol
# Density = 2.005885 g / cm^3
# Si number density = 20.104612 Si / 1000 Ang^3
#
#
#
# Elastic Constant Matrix: (Units=GPa)
#
#
# Indices 1 2 3 4 5 6 
#
# 1 89.5269 10.2346 26.5505 -4.1593 4.0359 10.4637
# 2 10.2346 38.0423 29.8021 3.5608 -3.5801 10.8869
# 3 26.5505 29.8021 81.8072 17.2142 4.8484 9.5508
# 4 -4.1593 3.5608 17.2142 26.8377 3.4684 -2.9238
# 5 4.0359 -3.5801 4.8484 3.4684 34.1627 7.4894
# 6 10.4637 10.8869 9.5508 -2.9238 7.4894 24.1330
#
#
#
# Elastic Compliance Matrix: (Units=1/GPa)
#
#
# Indices 1 2 3 4 5 6 
#
# 1 0.013279 0.001050 -0.005330 0.005032 -0.000475 -0.003365
# 2 0.001050 0.043570 -0.014967 0.000771 0.010277 -0.017283
# 3 -0.005330 -0.014967 0.022332 -0.012871 -0.002692 -0.000499
# 4 0.005032 0.000771 -0.012871 0.048054 -0.005799 0.010186
# 5 -0.000475 0.010277 -0.002692 -0.005799 0.034623 -0.014812
# 6 -0.003365 -0.017283 -0.000499 0.010186 -0.014812 0.056721
#
#
# Mechanical properties :
#
#
# Convention : Reuss Voigt Hill
#
# Bulk Modulus (GPa) = 24.57733 38.06122 31.31928
# Shear Modulus (GPa) = 18.47507 26.54595 22.51051
#
# Velocity S-wave (km/s) = 3.03470 3.63766 3.34978
# Velocity P-wave (km/s) = 4.95283 6.05113 5.52931
#
# Compressibility (1/GPa) = 0.04068790
#
# Stress axis : x y z
#
# Youngs Moduli (GPa) = 75.30682 22.95157 44.77796
#
# Poissons Ratio (x) = -0.02411 0.23868
# Poissons Ratio (y) = -0.07910 0.67018
# Poissons Ratio (z) = 0.40141 0.34351
#
# Static dielectric constant tensor:
#      x y z
#    x 3.799700 -0.040090 0.158980 
#    y -0.040090 3.204320 0.460100 
#    z 0.158980 0.460100 3.757070 
# 
# 
# High freq. dielectric constant tensor:
#      x y z
#    x 1.796690 -0.006970 0.014450 
#    y -0.006970 1.727340 0.042150 
#    z 0.014450 0.042150 1.782440 
# 
# From -- ./inp_files/305137.got.cif
#   From: 2010.06.25/outbox.cif.g09.slc.cpg/sg2_153_cif.got.tgz:305137.got - 2010.06.27 13:26:56.
