data_PCOD8007375
_publ_section_title
;
Structure prediction by ZEFSAII (Michael W. Deem and Ramdas Pophale) SiO2 
 PCOD8007375
Probable space group: P -1
;
_chemical_formula_sum "Si O2"
_cell_formula_units_Z 14
_cell_length_a 17.894677
_cell_length_b 7.106927
_cell_length_c 7.670194
_cell_angle_alpha 103.889678
_cell_angle_beta 50.710667
_cell_angle_gamma 126.301081
_cell_volume 594.055568
_symmetry_space_group_name_H-M "P -1"
_symmetry_group_IT_number 2
_symmetry_cell_setting 'triclinic'
loop_
_space_group_symop_operation_xyz
x,y,z
-x,-y,-z
loop_
_atom_site_type_symbol
_atom_site_label
_atom_site_fract_x
_atom_site_fract_y
_atom_site_fract_z
Si Si1 0.523717 0.572971 0.282540
Si Si2 0.963265 0.484566 0.791725
Si Si3 0.047352 0.253571 0.822789
Si Si4 0.331160 0.609138 0.077583
Si Si5 0.317441 0.587443 0.483024
Si Si6 0.315286 0.871751 0.854780
Si Si7 0.933840 0.802678 0.700598
O O1 0.500000 0.500000 0.500000
O O2 0.402224 0.501209 0.356241
O O3 0.627401 0.851994 0.174856
O O4 0.565103 0.427940 0.091986
O O5 0.983390 0.638213 0.619043
O O6 0.039090 0.374965 0.678703
O O7 0.002601 0.673430 0.932699
O O8 0.825724 0.266320 0.965273
O O9 0.184485 0.356125 0.667883
O O10 0.965336 0.964434 0.865382
O O11 0.325915 0.685810 0.298188
O O12 0.207173 0.361875 0.151025
O O13 0.361085 0.819180 0.949962
O O14 0.356870 0.798042 0.608343
O O15 0.000000 0.000000 0.500000
#
# Coordination Sequence:
#
# PCOD8007375 Si02
#       7
#     2   2   2   2   2   2   2
#     4  12  25  46  71  94 130 176 220 273 334 382
#     4   9  21  39  65  92 125 171 212 260 323 386
#     4  10  20  41  61  94 127 168 217 259 318 384
#     4  11  24  45  66 100 132 173 218 270 325 387
#     4  11  23  44  67  96 133 171 223 269 321 391
#     4  10  23  46  67  93 133 173 217 273 326 384
#     4  11  21  39  64  93 134 164 204 263 322 378
#
# _framework density 23.566821000000001
#
# number of rings (size 3 to 8) (size 9 to 14) (size 15 to 20)
#    0.000    1.429    2.857    2.143    0.000    1.143 
#   12.857    0.000    0.000    0.000    0.000    0.000 
#    0.000    0.000    0.000    0.000    0.000    0.000 
#
# Total GULP energy -173624.421542 kJ/mol
# GULP energy per Si atom -12401.744396 kJ/mol
# Density = 2.351318 g / cm^3
# Si number density = 23.566821 Si / 1000 Ang^3
#
#
#
# Elastic Constant Matrix: (Units=GPa)
#
#
# Indices 1 2 3 4 5 6 
#
# 1 110.0777 27.1104 11.4850 -9.2971 -4.0498 -10.1613
# 2 27.1104 86.5313 11.2979 -20.8918 1.3476 -21.5222
# 3 11.4850 11.2979 50.6537 -14.9524 7.0432 -8.6566
# 4 -9.2971 -20.8918 -14.9524 26.1293 -8.9585 4.0384
# 5 -4.0498 1.3476 7.0432 -8.9585 51.0615 5.4609
# 6 -10.1613 -21.5222 -8.6566 4.0384 5.4609 30.9414
#
#
#
# Elastic Compliance Matrix: (Units=1/GPa)
#
#
# Indices 1 2 3 4 5 6 
#
# 1 0.010062 -0.002544 -0.001445 0.000991 0.001153 0.000798
# 2 -0.002544 0.017808 0.002214 0.013056 0.000198 0.010432
# 3 -0.001445 0.002214 0.025081 0.013940 -0.001892 0.006597
# 4 0.000991 0.013056 0.013940 0.059030 0.007714 0.004241
# 5 0.001153 0.000198 -0.001892 0.007714 0.021806 -0.004869
# 6 0.000798 0.010432 0.006597 0.004241 -0.004869 0.041989
#
#
# Mechanical properties :
#
#
# Convention : Reuss Voigt Hill
#
# Bulk Modulus (GPa) = 20.24257 38.56103 29.40180
# Shear Modulus (GPa) = 25.53722 34.78439 30.16081
#
# Velocity S-wave (km/s) = 3.29539 3.84603 3.58131
# Velocity P-wave (km/s) = 4.80495 6.01004 5.44096
#
# Compressibility (1/GPa) = 0.04940085
#
# Stress axis : x y z
#
# Youngs Moduli (GPa) = 99.38805 56.15360 39.87020
#
# Poissons Ratio (x) = 0.14285 0.05763
# Poissons Ratio (y) = 0.25284 -0.08828
# Poissons Ratio (z) = 0.14366 -0.12433
#
# Static dielectric constant tensor:
#      x y z
#    x 4.715170 -0.097030 0.224480 
#    y -0.097030 4.923810 0.062410 
#    z 0.224480 0.062410 4.186800 
# 
# 
# High freq. dielectric constant tensor:
#      x y z
#    x 1.954050 -0.005700 0.015480 
#    y -0.005700 1.929220 0.005910 
#    z 0.015480 0.005910 1.932670 
# 
# From -- ./inp_files/116039.got.cif
#   From: 2010.06.25/outbox.cif.g09.slc.cpg/sg2_59_cif.got.tgz:116039.got - 2010.06.27 13:26:56.
