data_PCOD8007263
_publ_section_title
;
Structure prediction by ZEFSAII (Michael W. Deem and Ramdas Pophale) SiO2 
 PCOD8007263
Probable space group: P -1
;
_chemical_formula_sum "Si O2"
_cell_formula_units_Z 14
_cell_length_a 25.961522
_cell_length_b 25.896000
_cell_length_c 9.119850
_cell_angle_alpha 142.232354
_cell_angle_beta 38.001280
_cell_angle_gamma 169.130292
_cell_volume 704.504985
_symmetry_space_group_name_H-M "P -1"
_symmetry_group_IT_number 2
_symmetry_cell_setting 'triclinic'
loop_
_space_group_symop_operation_xyz
x,y,z
-x,-y,-z
loop_
_atom_site_type_symbol
_atom_site_label
_atom_site_fract_x
_atom_site_fract_y
_atom_site_fract_z
Si Si1 0.819824 0.483576 0.535490
Si Si2 0.065064 0.965559 0.757951
Si Si3 0.425896 0.629166 0.405554
Si Si4 0.663002 0.875242 0.717814
Si Si5 0.631858 0.081668 0.748921
Si Si6 0.167069 0.446016 0.014989
Si Si7 0.267503 0.726020 0.328257
O O1 0.677567 0.410303 0.578159
O O2 0.896126 0.606015 0.788080
O O3 0.098253 0.714134 0.356084
O O4 0.602434 0.202342 0.433673
O O5 0.180895 0.060039 0.543232
O O6 0.798553 0.654308 0.681813
O O7 0.300964 0.161861 0.785723
O O8 0.000000 0.000000 0.000000
O O9 0.513684 0.769221 0.666525
O O10 0.883714 0.151294 0.909802
O O11 0.418299 0.621080 0.814003
O O12 0.731383 0.248921 0.789166
O O13 0.500000 0.000000 0.000000
O O14 0.294302 0.652086 0.119416
O O15 0.000000 0.500000 0.500000
O O16 0.500000 0.000000 0.500000
#
# Coordination Sequence:
#
# PCOD8007263 Si02
#       7
#     2   2   2   2   2   2   2
#     4  12  25  43  61  91 130 167 207 273 335 372
#     4  10  20  40  69  99 127 158 207 257 310 384
#     4  10  22  40  63  96 126 159 209 249 328 373
#     4  10  22  38  62  98 113 168 209 256 307 377
#     4  12  26  42  61  90 124 172 222 279 324 377
#     4  12  22  39  66  85 129 165 218 267 307 388
#     4  12  23  43  60  87 121 172 225 260 329 367
#
# _framework density 19.872108000000001
#
# number of rings (size 3 to 8) (size 9 to 14) (size 15 to 20)
#    0.857    0.000    4.286    3.429    2.000    0.000 
#    0.000    0.000    0.000    5.143    0.000    0.000 
#    0.000    0.000    0.000    0.000    0.000    0.000 
#
# Total GULP energy -173468.638224 kJ/mol
# GULP energy per Si atom -12390.617016 kJ/mol
# Density = 1.982688 g / cm^3
# Si number density = 19.872108 Si / 1000 Ang^3
#
#
#
# Elastic Constant Matrix: (Units=GPa)
#
#
# Indices 1 2 3 4 5 6 
#
# 1 88.2400 44.9567 66.7337 -2.2833 17.0192 15.6601
# 2 44.9567 156.3590 58.9256 1.7676 7.2475 15.4767
# 3 66.7337 58.9256 122.8017 -10.1802 12.2310 8.0954
# 4 -2.2833 1.7676 -10.1802 33.5863 3.1224 4.1547
# 5 17.0192 7.2475 12.2310 3.1224 22.2875 -5.0995
# 6 15.6601 15.4767 8.0954 4.1547 -5.0995 30.3940
#
#
#
# Elastic Compliance Matrix: (Units=1/GPa)
#
#
# Indices 1 2 3 4 5 6 
#
# 1 0.025442 -0.001343 -0.010594 0.001657 -0.016284 -0.012561
# 2 -0.001343 0.008239 -0.003107 -0.001111 -0.000385 -0.002589
# 3 -0.010594 -0.003107 0.015471 0.003760 0.000659 0.002516
# 4 0.001657 -0.001111 0.003760 0.032852 -0.009248 -0.007332
# 5 -0.016284 -0.000385 0.000659 -0.009248 0.062994 0.020244
# 6 -0.012561 -0.002589 0.002516 -0.007332 0.020244 0.044420
#
#
# Mechanical properties :
#
#
# Convention : Reuss Voigt Hill
#
# Bulk Modulus (GPa) = 52.45312 78.73696 65.59504
# Shear Modulus (GPa) = 22.13756 30.37254 26.25505
#
# Velocity S-wave (km/s) = 3.34129 3.91372 3.63878
# Velocity P-wave (km/s) = 6.42948 7.75440 7.12282
#
# Compressibility (1/GPa) = 0.01906464
#
# Stress axis : x y z
#
# Youngs Moduli (GPa) = 39.30522 121.37172 64.63620
#
# Poissons Ratio (x) = 0.16303 0.68475
# Poissons Ratio (y) = 0.05280 0.20080
# Poissons Ratio (z) = 0.41640 0.37705
#
# Static dielectric constant tensor:
#      x y z
#    x 3.410280 0.069620 0.036420 
#    y 0.069620 4.050710 -0.108650 
#    z 0.036420 -0.108650 3.672800 
# 
# 
# High freq. dielectric constant tensor:
#      x y z
#    x 1.733820 0.013960 0.013520 
#    y 0.013960 1.809710 -0.008500 
#    z 0.013520 -0.008500 1.773530 
# 
# From -- ./inp_files/357927.got.cif
#   From: 2010.06.25/outbox.cif.g09.slc.cpg/sg2_179_cif.got.tgz:357927.got - 2010.06.27 13:26:56.
