data_PCOD8007456
_publ_section_title
;
Structure prediction by ZEFSAII (Michael W. Deem and Ramdas Pophale) SiO2 
 PCOD8007456
Probable space group: P -1
;
_chemical_formula_sum "Si O2"
_cell_formula_units_Z 16
_cell_length_a 12.629480
_cell_length_b 8.987024
_cell_length_c 13.878775
_cell_angle_alpha 101.279462
_cell_angle_beta 92.239201
_cell_angle_gamma 147.721537
_cell_volume 759.541691
_symmetry_space_group_name_H-M "P -1"
_symmetry_group_IT_number 2
_symmetry_cell_setting 'triclinic'
loop_
_space_group_symop_operation_xyz
x,y,z
-x,-y,-z
loop_
_atom_site_type_symbol
_atom_site_label
_atom_site_fract_x
_atom_site_fract_y
_atom_site_fract_z
Si Si1 0.965701 0.635733 0.518234
Si Si2 0.706490 0.635541 0.781672
Si Si3 0.030683 0.283005 0.933330
Si Si4 0.840044 0.248789 0.091308
Si Si5 0.890489 0.569895 0.728353
Si Si6 0.502659 0.088191 0.411958
Si Si7 0.408925 0.262560 0.535463
Si Si8 0.571674 0.422566 0.958281
O O1 0.000000 0.500000 0.500000
O O2 0.932375 0.646593 0.627277
O O3 0.747757 0.402470 0.419972
O O4 0.162387 0.977349 0.524459
O O5 0.892304 0.739117 0.796522
O O6 0.558581 0.433719 0.656298
O O7 0.559129 0.418741 0.841837
O O8 0.821951 0.943873 0.833648
O O9 0.128181 0.531803 0.896814
O O10 0.193762 0.347889 0.972091
O O11 0.961192 0.289696 0.025906
O O12 0.927802 0.312451 0.207382
O O13 0.586887 0.899559 0.041944
O O14 0.659066 0.203497 0.701092
O O15 0.403485 0.123854 0.439587
O O16 0.500000 0.000000 0.500000
O O17 0.500000 0.500000 0.500000
O O18 0.500000 0.500000 0.000000
#
# Coordination Sequence:
#
# PCOD8007456 Si02
#       8
#     2   2   2   2   2   2   2   2
#     4  11  20  41  72  91 127 180 226 269 325 400
#     4  12  23  44  68  96 132 177 225 276 331 399
#     4  11  25  43  65 100 141 167 216 288 337 390
#     4  11  24  43  68  98 136 173 216 279 343 395
#     4  11  21  41  72  95 127 180 230 270 329 405
#     4  10  20  41  63  95 127 168 224 273 317 397
#     4  12  26  42  65  99 139 169 218 287 339 386
#     4  12  23  44  73  99 131 179 227 273 330 408
#
# _framework density 21.065334
#
# number of rings (size 3 to 8) (size 9 to 14) (size 15 to 20)
#    0.000    0.750    7.500    2.250    1.750    0.500 
#    0.000    0.000    2.750    0.000    0.000    0.000 
#    0.000    0.000    0.000    0.000    0.000    0.000 
#
# Total GULP energy -198252.402923 kJ/mol
# GULP energy per Si atom -12390.775183 kJ/mol
# Density = 2.101739 g / cm^3
# Si number density = 21.065334 Si / 1000 Ang^3
#
#
#
# Elastic Constant Matrix: (Units=GPa)
#
#
# Indices 1 2 3 4 5 6 
#
# 1 93.6229 36.0938 20.8975 -5.2145 -15.3293 -1.9210
# 2 36.0938 156.5458 21.5684 3.1373 -1.8897 -5.1918
# 3 20.8975 21.5684 46.0999 3.5721 -5.0202 -0.8127
# 4 -5.2145 3.1373 3.5721 35.5452 1.0192 1.5200
# 5 -15.3293 -1.8897 -5.0202 1.0192 31.7712 5.1102
# 6 -1.9210 -5.1918 -0.8127 1.5200 5.1102 40.3177
#
#
#
# Elastic Compliance Matrix: (Units=1/GPa)
#
#
# Indices 1 2 3 4 5 6 
#
# 1 0.013771 -0.002538 -0.004636 0.002570 0.005774 -0.000593
# 2 -0.002538 0.007328 -0.002340 -0.000788 -0.001289 0.000969
# 3 -0.004636 -0.002340 0.025313 -0.003062 0.001741 -0.000117
# 4 0.002570 -0.000788 -0.003062 0.028937 -0.000038 -0.001127
# 5 0.005774 -0.001289 0.001741 -0.000038 0.035154 -0.004310
# 6 -0.000593 0.000969 -0.000117 -0.001127 -0.004310 0.025486
#
#
# Mechanical properties :
#
#
# Convention : Reuss Voigt Hill
#
# Bulk Modulus (GPa) = 36.51774 50.37644 43.44709
# Shear Modulus (GPa) = 30.46112 36.04072 33.25092
#
# Velocity S-wave (km/s) = 3.80680 4.14079 3.97730
# Velocity P-wave (km/s) = 6.05767 6.84309 6.46232
#
# Compressibility (1/GPa) = 0.02738395
#
# Stress axis : x y z
#
# Youngs Moduli (GPa) = 72.61855 136.46633 39.50505
#
# Poissons Ratio (x) = 0.34632 0.18314
# Poissons Ratio (y) = 0.18429 0.09245
# Poissons Ratio (z) = 0.33665 0.31936
#
# Static dielectric constant tensor:
#      x y z
#    x 3.761610 0.048900 -0.256110 
#    y 0.048900 4.089900 -0.109460 
#    z -0.256110 -0.109460 3.437680 
# 
# 
# High freq. dielectric constant tensor:
#      x y z
#    x 1.826950 0.003220 -0.011240 
#    y 0.003220 1.834310 0.012530 
#    z -0.011240 0.012530 1.814320 
# 
# From -- ./inp_files/288592.got.cif
#   From: 2010.06.25/outbox.cif.g09.slc.cpg/sg2_145_cif.got.tgz:288592.got - 2010.06.27 13:26:56.
