data_PCOD8007420
_publ_section_title
;
Structure prediction by ZEFSAII (Michael W. Deem and Ramdas Pophale) SiO2 
 PCOD8007420
Probable space group: P -1
;
_chemical_formula_sum "Si O2"
_cell_formula_units_Z 16
_cell_length_a 15.974568
_cell_length_b 14.098984
_cell_length_c 8.290104
_cell_angle_alpha 45.891403
_cell_angle_beta 55.943518
_cell_angle_gamma 38.622416
_cell_volume 836.263874
_symmetry_space_group_name_H-M "P -1"
_symmetry_group_IT_number 2
_symmetry_cell_setting 'triclinic'
loop_
_space_group_symop_operation_xyz
x,y,z
-x,-y,-z
loop_
_atom_site_type_symbol
_atom_site_label
_atom_site_fract_x
_atom_site_fract_y
_atom_site_fract_z
Si Si1 0.739191 0.525339 0.991075
Si Si2 0.201197 0.841613 0.883482
Si Si3 0.156604 0.378085 0.476794
Si Si4 0.971336 0.124746 0.238511
Si Si5 0.706283 0.495543 0.713546
Si Si6 0.467024 0.705851 0.183040
Si Si7 0.542622 0.358981 0.382092
Si Si8 0.786156 0.962706 0.098012
O O1 0.798476 0.615570 0.760843
O O2 0.671683 0.512841 0.921881
O O3 0.854663 0.330079 0.170509
O O4 0.614918 0.648309 0.102231
O O5 0.073057 0.922067 0.813934
O O6 0.332806 0.744091 0.748276
O O7 0.175668 0.998020 0.822800
O O8 0.217555 0.709701 0.156186
O O9 0.199498 0.455678 0.467867
O O10 0.221961 0.185446 0.685005
O O11 0.000000 0.500000 0.500000
O O12 0.000000 0.000000 0.500000
O O13 0.104671 0.093049 0.089610
O O14 0.573978 0.625650 0.596100
O O15 0.479471 0.553006 0.268403
O O16 0.411229 0.750072 0.372984
O O17 0.363483 0.876933 0.986425
#
# Coordination Sequence:
#
# PCOD8007420 Si02
#       8
#     2   2   2   2   2   2   2   2
#     4   9  20  39  60  82 118 160 195 237 297 355
#     4  11  20  37  60  91 118 150 208 255 286 347
#     4  10  20  41  63  83 119 161 202 240 296 355
#     4  11  22  37  60  91 123 152 195 251 302 350
#     4   9  18  34  61  82 114 157 198 238 294 344
#     4  11  22  34  61  92 120 156 197 247 312 348
#     4  11  19  36  58  90 125 155 190 252 310 350
#     4  12  23  36  64  94 116 154 210 244 294 352
#
# _framework density 19.132718000000001
#
# number of rings (size 3 to 8) (size 9 to 14) (size 15 to 20)
#    0.750    0.750    5.000    2.250    1.750    0.500 
#    0.000    0.625    2.750    1.500    0.000    0.000 
#    0.000    0.000    0.000    0.000    0.000    0.000 
#
# Total GULP energy -198265.910685 kJ/mol
# GULP energy per Si atom -12391.619418 kJ/mol
# Density = 1.908917 g / cm^3
# Si number density = 19.132718 Si / 1000 Ang^3
#
#
#
# Elastic Constant Matrix: (Units=GPa)
#
#
# Indices 1 2 3 4 5 6 
#
# 1 69.6025 26.6626 40.7369 5.9829 -16.4911 -15.6626
# 2 26.6626 80.7882 44.5558 -0.4344 -7.4717 -19.9363
# 3 40.7369 44.5558 129.3689 -15.1173 -14.6585 -6.9063
# 4 5.9829 -0.4344 -15.1173 19.8739 -8.3481 0.4221
# 5 -16.4911 -7.4717 -14.6585 -8.3481 32.0047 0.5531
# 6 -15.6626 -19.9363 -6.9063 0.4221 0.5531 27.8287
#
#
#
# Elastic Compliance Matrix: (Units=1/GPa)
#
#
# Indices 1 2 3 4 5 6 
#
# 1 0.023558 -0.000602 -0.007168 -0.010346 0.005825 0.011090
# 2 -0.000602 0.018853 -0.006208 -0.004423 -0.000108 0.011696
# 3 -0.007168 -0.006208 0.014244 0.015260 0.005453 -0.005287
# 4 -0.010346 -0.004423 0.015260 0.073443 0.019898 -0.006714
# 5 0.005825 -0.000108 0.005453 0.019898 0.041850 0.003421
# 6 0.011090 0.011696 -0.005287 -0.006714 0.003421 0.049277
#
#
# Mechanical properties :
#
#
# Convention : Reuss Voigt Hill
#
# Bulk Modulus (GPa) = 34.84450 55.96336 45.40393
# Shear Modulus (GPa) = 19.32380 27.12841 23.22611
#
# Velocity S-wave (km/s) = 3.18148 3.76960 3.48795
# Velocity P-wave (km/s) = 5.63447 6.94695 6.32484
#
# Compressibility (1/GPa) = 0.02869894
#
# Stress axis : x y z
#
# Youngs Moduli (GPa) = 42.44813 53.04145 70.20549
#
# Poissons Ratio (x) = 0.03193 0.50322
# Poissons Ratio (y) = 0.02555 0.43586
# Poissons Ratio (z) = 0.30426 0.32930
#
# Static dielectric constant tensor:
#      x y z
#    x 3.628430 0.085910 -0.319050 
#    y 0.085910 3.650640 -0.333570 
#    z -0.319050 -0.333570 3.869290 
# 
# 
# High freq. dielectric constant tensor:
#      x y z
#    x 1.730430 -0.025790 -0.004800 
#    y -0.025790 1.731850 -0.000990 
#    z -0.004800 -0.000990 1.740000 
# 
# From -- ./inp_files/347748.got.cif
#   From: 2010.06.25/outbox.cif.g09.slc.cpg/sg2_174_cif.got.tgz:347748.got - 2010.06.27 13:26:56.
