data_PCOD8007968
_publ_section_title
;
Structure prediction by ZEFSAII (Michael W. Deem and Ramdas Pophale) SiO2 
 PCOD8007968
Probable space group: P -1
;
_chemical_formula_sum "Si O2"
_cell_formula_units_Z 14
_cell_length_a 6.514548
_cell_length_b 11.634120
_cell_length_c 8.939202
_cell_angle_alpha 105.621923
_cell_angle_beta 73.955836
_cell_angle_gamma 90.954612
_cell_volume 625.846402
_symmetry_space_group_name_H-M "P -1"
_symmetry_group_IT_number 2
_symmetry_cell_setting 'triclinic'
loop_
_space_group_symop_operation_xyz
x,y,z
-x,-y,-z
loop_
_atom_site_type_symbol
_atom_site_label
_atom_site_fract_x
_atom_site_fract_y
_atom_site_fract_z
Si Si1 0.290802 0.757890 0.420245
Si Si2 0.530149 0.141973 0.853579
Si Si3 0.639305 0.612485 0.478688
Si Si4 0.846374 0.666047 0.981795
Si Si5 0.774053 0.000122 0.971406
Si Si6 0.948196 0.405075 0.799516
Si Si7 0.886800 0.769493 0.706260
O O1 0.358927 0.865052 0.334878
O O2 0.495224 0.714700 0.460292
O O3 0.222327 0.651234 0.291733
O O4 0.091175 0.800344 0.578019
O O5 0.708753 0.125596 0.945100
O O6 0.390260 0.267677 0.939570
O O7 0.384214 0.029204 0.870040
O O8 0.500000 0.500000 0.500000
O O9 0.732930 0.675828 0.628560
O O10 0.838134 0.563697 0.321079
O O11 0.823830 0.524108 0.929179
O O12 0.969168 0.711408 0.826784
O O13 0.984228 0.687428 0.111691
O O14 0.760930 0.895533 0.811991
O O15 0.000000 0.000000 0.000000
#
# Coordination Sequence:
#
# PCOD8007968 Si02
#       7
#     2   2   2   2   2   2   2
#     4  11  23  40  65  93 133 173 210 271 324 389
#     4  10  23  41  65  97 124 166 223 266 324 390
#     4  11  22  41  63  95 140 177 211 262 319 392
#     4  10  20  42  61  93 133 167 220 267 314 386
#     4  10  24  46  69  94 127 168 216 283 332 378
#     4  10  22  39  62  96 132 174 218 262 325 388
#     4  10  24  41  64  96 128 170 219 265 331 383
#
# _framework density 22.369706000000001
#
# number of rings (size 3 to 8) (size 9 to 14) (size 15 to 20)
#    0.000    1.714    1.429    1.714    4.000    6.857 
#   10.286    1.429    0.000    0.000    0.000    0.000 
#    0.000    0.000    0.000    0.000    0.000    0.000 
#
# Total GULP energy -173506.970281 kJ/mol
# GULP energy per Si atom -12393.355020 kJ/mol
# Density = 2.231879 g / cm^3
# Si number density = 22.369706 Si / 1000 Ang^3
#
#
#
# Elastic Constant Matrix: (Units=GPa)
#
#
# Indices 1 2 3 4 5 6 
#
# 1 102.8987 37.4166 39.6230 -13.8135 -0.0724 -16.3210
# 2 37.4166 92.1253 39.6627 -23.9316 -6.0006 -16.2272
# 3 39.6230 39.6627 112.1243 -31.0427 -6.4570 8.8881
# 4 -13.8135 -23.9316 -31.0427 48.5357 5.4617 -0.4486
# 5 -0.0724 -6.0006 -6.4570 5.4617 27.6797 -9.8098
# 6 -16.3210 -16.2272 8.8881 -0.4486 -9.8098 40.5974
#
#
#
# Elastic Compliance Matrix: (Units=1/GPa)
#
#
# Indices 1 2 3 4 5 6 
#
# 1 0.013065 -0.002647 -0.004132 -0.000224 0.000379 0.005188
# 2 -0.002647 0.016380 -0.003996 0.004341 0.004403 0.007470
# 3 -0.004132 -0.003996 0.013841 0.005769 -0.001086 -0.006487
# 4 -0.000224 0.004341 0.005769 0.026707 -0.003000 -0.000048
# 5 0.000379 0.004403 -0.001086 -0.003000 0.041747 0.012204
# 6 0.005188 0.007470 -0.006487 -0.000048 0.012204 0.034072
#
#
# Mechanical properties :
#
#
# Convention : Reuss Voigt Hill
#
# Bulk Modulus (GPa) = 46.00451 60.06143 53.03297
# Shear Modulus (GPa) = 28.63551 36.05897 32.34724
#
# Velocity S-wave (km/s) = 3.58173 4.01927 3.80679
# Velocity P-wave (km/s) = 6.14128 6.96040 6.56363
#
# Compressibility (1/GPa) = 0.02173700
#
# Stress axis : x y z
#
# Youngs Moduli (GPa) = 76.53999 61.04850 72.24837
#
# Poissons Ratio (x) = 0.16160 0.29854
# Poissons Ratio (y) = 0.20260 0.28867
# Poissons Ratio (z) = 0.31628 0.24392
#
# Static dielectric constant tensor:
#      x y z
#    x 4.104340 -0.248670 -0.042720 
#    y -0.248670 4.215440 -0.270960 
#    z -0.042720 -0.270960 4.346890 
# 
# 
# High freq. dielectric constant tensor:
#      x y z
#    x 1.886620 -0.015250 -0.004150 
#    y -0.015250 1.871900 -0.020880 
#    z -0.004150 -0.020880 1.884200 
# 
# From -- ./inp_files/43666.got.cif
#   From: 2010.06.25/outbox.cif.g09.slc.cpg/sg2_22_cif.got.tgz:43666.got - 2010.06.27 13:26:56.
