data_PCOD8007912
_publ_section_title
;
Structure prediction by ZEFSAII (Michael W. Deem and Ramdas Pophale) SiO2 
 PCOD8007912
Probable space group: P -1
;
_chemical_formula_sum "Si O2"
_cell_formula_units_Z 16
_cell_length_a 11.486811
_cell_length_b 16.722193
_cell_length_c 9.610975
_cell_angle_alpha 81.693583
_cell_angle_beta 45.863766
_cell_angle_gamma 46.116083
_cell_volume 722.471668
_symmetry_space_group_name_H-M "P -1"
_symmetry_group_IT_number 2
_symmetry_cell_setting 'triclinic'
loop_
_space_group_symop_operation_xyz
x,y,z
-x,-y,-z
loop_
_atom_site_type_symbol
_atom_site_label
_atom_site_fract_x
_atom_site_fract_y
_atom_site_fract_z
Si Si1 0.734083 0.547944 0.203813
Si Si2 0.754392 0.927930 0.708364
Si Si3 0.114364 0.876691 0.625115
Si Si4 0.091257 0.347166 0.729479
Si Si5 0.941502 0.119170 0.027364
Si Si6 0.175718 0.621577 0.306845
Si Si7 0.659462 0.053798 0.489403
Si Si8 0.293781 0.434993 0.470968
O O1 0.440996 0.713315 0.354121
O O2 0.701191 0.523224 0.391635
O O3 0.000000 0.500000 0.000000
O O4 0.818014 0.448070 0.039512
O O5 0.891255 0.947973 0.669590
O O6 0.030058 0.754889 0.483208
O O7 0.584209 0.025470 0.685352
O O8 0.500000 0.000000 0.000000
O O9 0.013985 0.871771 0.852079
O O10 0.119565 0.970375 0.625028
O O11 0.382314 0.212069 0.611322
O O12 0.094517 0.436983 0.642789
O O13 0.051041 0.301383 0.649431
O O14 0.620832 0.272949 0.197724
O O15 0.000000 0.000000 0.000000
O O16 0.171510 0.066362 0.743548
O O17 0.172248 0.546117 0.429731
O O18 0.500000 0.500000 0.000000
#
# Coordination Sequence:
#
# PCOD8007912 Si02
#       8
#     2   2   2   2   2   2   2   2
#     4   9  17  36  67 102 123 152 225 284 329 376
#     4  12  30  45  61 100 144 184 218 268 346 410
#     4  10  20  43  71  94 129 170 230 283 323 392
#     4  11  22  41  72  98 123 170 228 281 325 390
#     4   9  17  36  69 101 124 152 222 279 328 374
#     4  12  28  47  61  97 145 180 217 268 344 412
#     4  11  22  43  71  96 126 171 230 282 326 389
#     4  10  20  41  71  97 126 169 225 280 320 390
#
# _framework density 22.146197999999998
#
# number of rings (size 3 to 8) (size 9 to 14) (size 15 to 20)
#    0.000    1.500    5.000    2.250    3.500    0.500 
#    4.500    5.625    0.000    0.000    0.000    0.000 
#    0.000    0.000    0.000    0.000    0.000    0.000 
#
# Total GULP energy -198269.308270 kJ/mol
# GULP energy per Si atom -12391.831767 kJ/mol
# Density = 2.209579 g / cm^3
# Si number density = 22.146198 Si / 1000 Ang^3
#
#
#
# Elastic Constant Matrix: (Units=GPa)
#
#
# Indices 1 2 3 4 5 6 
#
# 1 55.7399 30.7538 15.3004 -2.8354 9.6239 -9.9298
# 2 30.7538 102.7117 38.1937 -14.0027 2.9478 -13.5361
# 3 15.3004 38.1937 146.7945 -8.4539 20.2685 -2.7978
# 4 -2.8354 -14.0027 -8.4539 32.5481 2.3405 6.3148
# 5 9.6239 2.9478 20.2685 2.3405 29.5413 0.8524
# 6 -9.9298 -13.5361 -2.7978 6.3148 0.8524 23.1640
#
#
#
# Elastic Compliance Matrix: (Units=1/GPa)
#
#
# Indices 1 2 3 4 5 6 
#
# 1 0.023817 -0.006239 0.000216 -0.001429 -0.007380 0.007251
# 2 -0.006239 0.013634 -0.002928 0.003648 0.002281 0.003860
# 3 0.000216 -0.002928 0.008401 0.001503 -0.005638 -0.000806
# 4 -0.001429 0.003648 0.001503 0.034263 -0.003427 -0.007514
# 5 -0.007380 0.002281 -0.005638 -0.003427 0.040256 -0.003059
# 6 0.007251 0.003860 -0.000806 -0.007514 -0.003059 0.050598
#
#
# Mechanical properties :
#
#
# Convention : Reuss Voigt Hill
#
# Bulk Modulus (GPa) = 35.77935 52.63797 44.20866
# Shear Modulus (GPa) = 25.22859 31.78392 28.50625
#
# Velocity S-wave (km/s) = 3.37884 3.79249 3.59163
# Velocity P-wave (km/s) = 5.60474 6.55724 6.09961
#
# Compressibility (1/GPa) = 0.02794909
#
# Stress axis : x y z
#
# Youngs Moduli (GPa) = 41.98718 73.34860 119.02932
#
# Poissons Ratio (x) = 0.45761 -0.02568
# Poissons Ratio (y) = 0.26195 0.34854
# Poissons Ratio (z) = -0.00906 0.21478
#
# Static dielectric constant tensor:
#      x y z
#    x 4.068320 -0.172170 0.669220 
#    y -0.172170 3.799920 -0.225220 
#    z 0.669220 -0.225220 5.067400 
# 
# 
# High freq. dielectric constant tensor:
#      x y z
#    x 1.856350 -0.016750 0.021920 
#    y -0.016750 1.856310 -0.002710 
#    z 0.021920 -0.002710 1.891270 
# 
# From -- ./inp_files/279369.got.cif
#   From: 2010.06.25/outbox.cif.g09.slc.cpg/sg2_140_cif.got.tgz:279369.got - 2010.06.27 13:26:56.
