data_PCOD8007175
_publ_section_title
;
Structure prediction by ZEFSAII (Michael W. Deem and Ramdas Pophale) SiO2 
 PCOD8007175
Probable space group: P -1
;
_chemical_formula_sum "Si O2"
_cell_formula_units_Z 14
_cell_length_a 24.133538
_cell_length_b 14.954543
_cell_length_c 14.831296
_cell_angle_alpha 149.200220
_cell_angle_beta 159.205693
_cell_angle_gamma 20.053721
_cell_volume 643.437190
_symmetry_space_group_name_H-M "P -1"
_symmetry_group_IT_number 2
_symmetry_cell_setting 'triclinic'
loop_
_space_group_symop_operation_xyz
x,y,z
-x,-y,-z
loop_
_atom_site_type_symbol
_atom_site_label
_atom_site_fract_x
_atom_site_fract_y
_atom_site_fract_z
Si Si1 0.353241 0.218214 0.040708
Si Si2 0.444876 0.815378 0.345998
Si Si3 0.028646 0.706960 0.499484
Si Si4 0.187904 0.021095 0.401747
Si Si5 0.224677 0.769865 0.699163
Si Si6 0.954948 0.236177 0.056050
Si Si7 0.491559 0.862097 0.254551
O O1 0.540728 0.134610 0.326317
O O2 0.195792 0.499237 0.998968
O O3 0.171110 0.223281 0.805525
O O4 0.500000 0.000000 0.000000
O O5 0.620534 0.504823 0.355093
O O6 0.397844 0.898721 0.242910
O O7 0.560636 0.890988 0.634780
O O8 0.195231 0.975846 0.147280
O O9 0.147487 0.767591 0.679057
O O10 0.227163 0.395597 0.551115
O O11 0.921527 0.862481 0.565069
O O12 0.024843 0.248974 0.273867
O O13 0.206100 0.801408 0.214614
O O14 0.366595 0.831436 0.971489
O O15 0.000000 0.000000 0.500000
#
# Coordination Sequence:
#
# PCOD8007175 Si02
#       7
#     2   2   2   2   2   2   2
#     4  10  22  40  61  91 124 165 211 254 306 371
#     4  10  21  40  66  91 121 164 210 250 320 379
#     4  10  20  43  62  86 123 165 205 256 313 371
#     4  10  23  39  65  91 125 167 210 257 311 372
#     4  11  24  41  62  96 126 159 209 262 314 379
#     4  11  21  42  62  94 127 163 209 257 313 373
#     4  10  20  40  68  87 121 168 204 254 317 375
#
# _framework density 21.758146
#
# number of rings (size 3 to 8) (size 9 to 14) (size 15 to 20)
#    0.000    1.714    1.429    3.857    0.000    4.000 
#   20.571    0.000    0.000    0.000    0.000    0.000 
#    0.000    0.000    0.000    0.000    0.000    0.000 
#
# Total GULP energy -173522.149781 kJ/mol
# GULP energy per Si atom -12394.439270 kJ/mol
# Density = 2.170862 g / cm^3
# Si number density = 21.758146 Si / 1000 Ang^3
#
#
#
# Elastic Constant Matrix: (Units=GPa)
#
#
# Indices 1 2 3 4 5 6 
#
# 1 38.9418 12.1241 10.4900 -6.6353 -9.2838 -15.0725
# 2 12.1241 109.7594 49.3257 7.4061 -10.0258 -9.8921
# 3 10.4900 49.3257 185.3816 9.4687 -1.4149 -8.4968
# 4 -6.6353 7.4061 9.4687 33.9472 0.7065 6.9151
# 5 -9.2838 -10.0258 -1.4149 0.7065 25.6199 -6.6084
# 6 -15.0725 -9.8921 -8.4968 6.9151 -6.6084 20.6526
#
#
#
# Elastic Compliance Matrix: (Units=1/GPa)
#
#
# Indices 1 2 3 4 5 6 
#
# 1 0.051769 0.002112 -0.000967 -0.000708 0.032172 0.048927
# 2 0.002112 0.011909 -0.002585 -0.003657 0.007950 0.009951
# 3 -0.000967 -0.002585 0.006251 -0.001538 -0.000741 0.000906
# 4 -0.000708 -0.003657 -0.001538 0.034060 -0.006978 -0.016538
# 5 0.032172 0.007950 -0.000741 -0.006978 0.067050 0.050774
# 6 0.048927 0.009951 0.000906 -0.016538 0.050774 0.111050
#
#
# Mechanical properties :
#
#
# Convention : Reuss Voigt Hill
#
# Bulk Modulus (GPa) = 14.91433 53.10694 34.01064
# Shear Modulus (GPa) = 16.26983 33.52014 24.89499
#
# Velocity S-wave (km/s) = 2.73748 3.92928 3.38623
# Velocity P-wave (km/s) = 4.10624 6.71167 5.56362
#
# Compressibility (1/GPa) = 0.06704962
#
# Stress axis : x y z
#
# Youngs Moduli (GPa) = 19.31668 83.97146 159.97081
#
# Poissons Ratio (x) = -0.17737 0.15472
# Poissons Ratio (y) = -0.04080 0.41347
# Poissons Ratio (z) = 0.01868 0.21704
#
# Static dielectric constant tensor:
#      x y z
#    x -11.310020 -9.187120 19.509800 
#    y -9.187120 -1.680060 11.902050 
#    z 19.509800 11.902050 -19.983370 
# 
# 
# High freq. dielectric constant tensor:
#      x y z
#    x 1.832400 -0.008160 0.015410 
#    y -0.008160 1.851630 0.008640 
#    z 0.015410 0.008640 1.876960 
# 
# From -- ./inp_files/285325.got.cif
#   From: 2010.06.25/outbox.cif.g09.slc.cpg/sg2_143_cif.got.tgz:285325.got - 2010.06.27 13:26:56.
