data_PCOD8007122
_publ_section_title
;
Structure prediction by ZEFSAII (Michael W. Deem and Ramdas Pophale) SiO2 
 PCOD8007122
Probable space group: P -1
;
_chemical_formula_sum "Si O2"
_cell_formula_units_Z 14
_cell_length_a 21.263677
_cell_length_b 15.511346
_cell_length_c 8.923649
_cell_angle_alpha 140.623314
_cell_angle_beta 29.596097
_cell_angle_gamma 151.433330
_cell_volume 694.557332
_symmetry_space_group_name_H-M "P -1"
_symmetry_group_IT_number 2
_symmetry_cell_setting 'triclinic'
loop_
_space_group_symop_operation_xyz
x,y,z
-x,-y,-z
loop_
_atom_site_type_symbol
_atom_site_label
_atom_site_fract_x
_atom_site_fract_y
_atom_site_fract_z
Si Si1 0.029549 0.448607 0.028969
Si Si2 0.220998 0.536452 0.266543
Si Si3 0.997602 0.857892 0.732442
Si Si4 0.669482 0.313987 0.074216
Si Si5 0.083904 0.928869 0.308076
Si Si6 0.346884 0.995382 0.248172
Si Si7 0.445252 0.090488 0.833965
O O1 0.920616 0.452335 0.382008
O O2 0.228305 0.594857 0.860529
O O3 0.983534 0.259041 0.872898
O O4 0.000000 0.500000 0.000000
O O5 0.236368 0.543795 0.064453
O O6 0.397473 0.695947 0.194929
O O7 0.170382 0.349470 0.171078
O O8 0.021983 0.899268 0.564219
O O9 0.152016 0.888637 0.527998
O O10 0.000000 0.000000 0.000000
O O11 0.643189 0.135325 0.849186
O O12 0.465641 0.202896 0.350263
O O13 0.000000 0.000000 0.500000
O O14 0.288426 0.065772 0.053957
O O15 0.389023 0.998578 0.989752
O O16 0.500000 0.000000 0.500000
#
# Coordination Sequence:
#
# PCOD8007122 Si02
#       7
#     2   2   2   2   2   2   2
#     4  12  21  39  67  90 129 164 211 269 316 378
#     4  11  22  38  66  96 115 169 223 260 309 383
#     4  11  24  43  62  84 131 172 209 257 325 379
#     4  10  21  36  62  94 121 152 211 265 304 369
#     4  11  25  43  62  96 131 168 207 265 330 377
#     4   9  20  39  59  92 127 158 203 261 317 372
#     4  10  20  40  67  94 128 166 210 263 321 380
#
# _framework density 20.156723
#
# number of rings (size 3 to 8) (size 9 to 14) (size 15 to 20)
#    0.000    1.429    4.286    1.286    2.000    0.000 
#    5.143    2.857    0.000    0.000    0.000    0.000 
#    0.000    0.000    0.000    0.000    0.000    0.000 
#
# Total GULP energy -173466.075054 kJ/mol
# GULP energy per Si atom -12390.433932 kJ/mol
# Density = 2.011085 g / cm^3
# Si number density = 20.156723 Si / 1000 Ang^3
#
#
#
# Elastic Constant Matrix: (Units=GPa)
#
#
# Indices 1 2 3 4 5 6 
#
# 1 104.1518 52.5346 24.5025 -4.2070 -17.9585 14.2709
# 2 52.5346 161.7956 52.6341 3.7962 -8.3508 14.2286
# 3 24.5025 52.6341 57.2922 8.3681 -4.8963 -5.7614
# 4 -4.2070 3.7962 8.3681 34.9039 2.7184 -4.8470
# 5 -17.9585 -8.3508 -4.8963 2.7184 26.6762 2.6921
# 6 14.2709 14.2286 -5.7614 -4.8470 2.6921 40.0639
#
#
#
# Elastic Compliance Matrix: (Units=1/GPa)
#
#
# Indices 1 2 3 4 5 6 
#
# 1 0.013879 -0.002489 -0.003661 0.001491 0.008241 -0.004960
# 2 -0.002489 0.010173 -0.008669 0.000095 0.000310 -0.003982
# 3 -0.003661 -0.008669 0.028522 -0.005228 -0.000205 0.007866
# 4 0.001491 0.000095 -0.005228 0.030695 -0.003319 0.002620
# 5 0.008241 0.000310 -0.000205 -0.003319 0.044082 -0.006439
# 6 -0.004960 -0.003982 0.007866 0.002620 -0.006439 0.030022
#
#
# Mechanical properties :
#
#
# Convention : Reuss Voigt Hill
#
# Bulk Modulus (GPa) = 43.60214 64.73133 54.16674
# Shear Modulus (GPa) = 25.68624 33.23336 29.45980
#
# Velocity S-wave (km/s) = 3.57364 4.06488 3.82715
# Velocity P-wave (km/s) = 6.22145 7.36307 6.81620
#
# Compressibility (1/GPa) = 0.02293465
#
# Stress axis : x y z
#
# Youngs Moduli (GPa) = 72.05225 98.29957 35.06073
#
# Poissons Ratio (x) = 0.24465 0.12837
# Poissons Ratio (y) = 0.17932 0.30395
# Poissons Ratio (z) = 0.26381 0.85219
#
# Static dielectric constant tensor:
#      x y z
#    x 3.736230 0.293280 -0.078870 
#    y 0.293280 3.908620 -0.192350 
#    z -0.078870 -0.192350 3.435290 
# 
# 
# High freq. dielectric constant tensor:
#      x y z
#    x 1.793500 0.016090 -0.002650 
#    y 0.016090 1.804250 -0.018320 
#    z -0.002650 -0.018320 1.760520 
# 
# From -- ./inp_files/201373.got.cif
#   From: 2010.06.25/outbox.cif.g09.slc.cpg/sg2_101_cif.got.tgz:201373.got - 2010.06.27 13:26:56.
