data_PCOD8007048
_publ_section_title
;
Structure prediction by ZEFSAII (Michael W. Deem and Ramdas Pophale) SiO2 
 PCOD8007048
Probable space group: P -1
;
_chemical_formula_sum "Si O2"
_cell_formula_units_Z 16
_cell_length_a 18.695246
_cell_length_b 13.419738
_cell_length_c 11.504324
_cell_angle_alpha 32.303403
_cell_angle_beta 56.801632
_cell_angle_gamma 34.534759
_cell_volume 761.760483
_symmetry_space_group_name_H-M "P -1"
_symmetry_group_IT_number 2
_symmetry_cell_setting 'triclinic'
loop_
_space_group_symop_operation_xyz
x,y,z
-x,-y,-z
loop_
_atom_site_type_symbol
_atom_site_label
_atom_site_fract_x
_atom_site_fract_y
_atom_site_fract_z
Si Si1 0.940113 0.309103 0.266305
Si Si2 0.343638 0.578915 0.843463
Si Si3 0.570103 0.184490 0.212134
Si Si4 0.980745 0.899675 0.353388
Si Si5 0.989455 0.314199 0.973015
Si Si6 0.113500 0.356511 0.637504
Si Si7 0.342682 0.015386 0.423931
Si Si8 0.624003 0.785272 0.006909
O O1 0.003484 0.327490 0.087178
O O2 0.766601 0.609370 0.116973
O O3 0.991633 0.276692 0.380948
O O4 0.000000 0.000000 0.500000
O O5 0.350987 0.463559 0.825726
O O6 0.188436 0.816946 0.806379
O O7 0.371524 0.748275 0.633174
O O8 0.463048 0.278191 0.121057
O O9 0.724898 0.946891 0.250941
O O10 0.589602 0.037625 0.460319
O O11 0.500000 0.500000 0.000000
O O12 0.076922 0.635028 0.428705
O O13 0.028546 0.028995 0.195374
O O14 0.827132 0.642327 0.753270
O O15 0.100324 0.245559 0.870967
O O16 0.000000 0.500000 0.500000
O O17 0.419636 0.998016 0.271817
O O18 0.500000 0.000000 0.000000
#
# Coordination Sequence:
#
# PCOD8007048 Si02
#       8
#     2   2   2   2   2   2   2   2
#     4   9  19  41  62  89 125 157 204 258 301 367
#     4  11  21  41  66  89 130 169 199 258 313 365
#     4  10  23  43  62  91 130 164 205 254 314 369
#     4  11  22  41  67  94 122 164 211 256 311 362
#     4  10  20  40  66  96 120 162 209 256 313 358
#     4  12  23  41  66  92 127 159 213 262 295 378
#     4  10  20  44  63  89 125 166 207 251 316 370
#     4  11  24  41  63  92 129 164 210 254 306 374
#
# _framework density 21.003978
#
# number of rings (size 3 to 8) (size 9 to 14) (size 15 to 20)
#    0.000    1.500    6.250    0.750    1.750    2.000 
#    9.000    0.000    0.000    0.000    0.000    0.000 
#    0.000    0.000    0.000    0.000    0.000    0.000 
#
# Total GULP energy -198337.123224 kJ/mol
# GULP energy per Si atom -12396.070202 kJ/mol
# Density = 2.095617 g / cm^3
# Si number density = 21.003978 Si / 1000 Ang^3
#
#
#
# Elastic Constant Matrix: (Units=GPa)
#
#
# Indices 1 2 3 4 5 6 
#
# 1 69.4061 28.3092 24.8558 -5.5349 12.5307 7.8626
# 2 28.3092 154.4173 46.9975 -4.5966 4.8299 -1.1150
# 3 24.8558 46.9975 97.4971 7.0932 10.8009 -0.0694
# 4 -5.5349 -4.5966 7.0932 36.2110 0.3458 -4.6683
# 5 12.5307 4.8299 10.8009 0.3458 46.2680 -7.3368
# 6 7.8626 -1.1150 -0.0694 -4.6683 -7.3368 29.1285
#
#
#
# Elastic Compliance Matrix: (Units=1/GPa)
#
#
# Indices 1 2 3 4 5 6 
#
# 1 0.018188 -0.002168 -0.003231 0.002431 -0.004890 -0.005842
# 2 -0.002168 0.007964 -0.003481 0.001524 0.000766 0.001319
# 3 -0.003231 -0.003481 0.013222 -0.003542 -0.001864 -0.000267
# 4 0.002431 0.001524 -0.003542 0.029415 0.000459 0.004224
# 5 -0.004890 0.000766 -0.001864 0.000459 0.024492 0.007587
# 6 -0.005842 0.001319 -0.000267 0.004224 0.007587 0.038545
#
#
# Mechanical properties :
#
#
# Convention : Reuss Voigt Hill
#
# Bulk Modulus (GPa) = 46.26609 57.96059 52.11334
# Shear Modulus (GPa) = 31.88946 37.06537 34.47742
#
# Velocity S-wave (km/s) = 3.90071 4.20537 4.05590
# Velocity P-wave (km/s) = 6.50865 7.15787 6.84097
#
# Compressibility (1/GPa) = 0.02161410
#
# Stress axis : x y z
#
# Youngs Moduli (GPa) = 54.98188 125.56862 75.62874
#
# Poissons Ratio (x) = 0.27221 0.24437
# Poissons Ratio (y) = 0.11919 0.26326
# Poissons Ratio (z) = 0.17765 0.43711
#
# Static dielectric constant tensor:
#      x y z
#    x 3.574860 0.097530 0.504930 
#    y 0.097530 3.715230 0.188070 
#    z 0.504930 0.188070 4.639500 
# 
# 
# High freq. dielectric constant tensor:
#      x y z
#    x 1.821020 0.015980 0.008250 
#    y 0.015980 1.807890 -0.001820 
#    z 0.008250 -0.001820 1.835410 
# 
# From -- ./inp_files/457693.got.cif
#   From: 2010.06.25/outbox.cif.g09.slc.cpg/sg2_229_cif.got.tgz:457693.got - 2010.06.27 13:26:56.
