data_PCOD8007772
_publ_section_title
;
Structure prediction by ZEFSAII (Michael W. Deem and Ramdas Pophale) SiO2 
 PCOD8007772
Probable space group: P -1
;
_chemical_formula_sum "Si O2"
_cell_formula_units_Z 10
_cell_length_a 9.961146
_cell_length_b 12.347788
_cell_length_c 9.981299
_cell_angle_alpha 146.572384
_cell_angle_beta 41.363213
_cell_angle_gamma 149.665243
_cell_volume 339.550201
_symmetry_space_group_name_H-M "P -1"
_symmetry_group_IT_number 2
_symmetry_cell_setting 'triclinic'
loop_
_space_group_symop_operation_xyz
x,y,z
-x,-y,-z
loop_
_atom_site_type_symbol
_atom_site_label
_atom_site_fract_x
_atom_site_fract_y
_atom_site_fract_z
Si Si1 0.775315 0.141963 0.361793
Si Si2 0.153943 0.238124 0.729151
Si Si3 0.838583 0.877332 0.823389
Si Si4 0.385332 0.736439 0.628824
Si Si5 0.316242 0.697197 0.935672
O O1 0.813609 0.335902 0.420958
O O2 0.035653 0.267809 0.396770
O O3 0.500000 0.000000 0.500000
O O4 0.757447 0.920134 0.071182
O O5 0.470523 0.381186 0.633476
O O6 0.104488 0.433388 0.912449
O O7 0.000000 0.000000 0.500000
O O8 0.059552 0.151108 0.862981
O O9 0.581321 0.723087 0.760659
O O10 0.230603 0.657190 0.803312
O O11 0.618224 0.053244 0.786137
#
# Coordination Sequence:
#
# PCOD8007772 Si02
#       5
#     2   2   2   2   2
#     4  10  20  41  68  92 138 171 220 272 323 394
#     4  12  23  40  70  99 133 173 217 276 333 386
#     4  10  22  41  67  97 133 176 215 274 328 388
#     4  10  21  41  66  96 133 171 216 273 326 386
#     4  10  23  43  65  98 136 166 225 274 321 400
#
# _framework density 29.450728999999999
#
# number of rings (size 3 to 8) (size 9 to 14) (size 15 to 20)
#    0.000    1.600    4.000    0.600    0.000    0.800 
#    0.000   10.000    0.000    0.000    0.000    0.000 
#    0.000    0.000    0.000    0.000    0.000    0.000 
#
# Total GULP energy -123959.942172 kJ/mol
# GULP energy per Si atom -12395.994217 kJ/mol
# Density = 2.938370 g / cm^3
# Si number density = 29.450729 Si / 1000 Ang^3
#
#
#
# Elastic Constant Matrix: (Units=GPa)
#
#
# Indices 1 2 3 4 5 6 
#
# 1 165.5311 49.5530 41.6201 -19.3669 -25.4722 -32.2519
# 2 49.5530 112.7078 35.4695 -16.9765 -20.1001 -36.8065
# 3 41.6201 35.4695 114.1093 -5.0389 -22.0762 -18.1097
# 4 -19.3669 -16.9765 -5.0389 62.8273 -7.9033 -15.3754
# 5 -25.4722 -20.1001 -22.0762 -7.9033 54.1897 16.3296
# 6 -32.2519 -36.8065 -18.1097 -15.3754 16.3296 65.9390
#
#
#
# Elastic Compliance Matrix: (Units=1/GPa)
#
#
# Indices 1 2 3 4 5 6 
#
# 1 0.008082 -0.001232 -0.001515 0.003056 0.002266 0.003001
# 2 -0.001232 0.013501 -0.001970 0.005113 0.002254 0.007026
# 3 -0.001515 -0.001970 0.010547 0.000302 0.002765 0.000442
# 4 0.003056 0.005113 0.000302 0.020796 0.003990 0.008293
# 5 0.002266 0.002254 0.002765 0.003990 0.022522 -0.001521
# 6 0.003001 0.007026 0.000442 0.008293 -0.001521 0.022987
#
#
# Mechanical properties :
#
#
# Convention : Reuss Voigt Hill
#
# Bulk Modulus (GPa) = 44.06261 71.73705 57.89983
# Shear Modulus (GPa) = 43.31455 54.30491 48.80973
#
# Velocity S-wave (km/s) = 3.83919 4.29875 4.07545
# Velocity P-wave (km/s) = 5.88613 7.00359 6.46903
#
# Compressibility (1/GPa) = 0.02269498
#
# Stress axis : x y z
#
# Youngs Moduli (GPa) = 123.73339 74.06813 94.81472
#
# Poissons Ratio (x) = 0.09126 0.14366
# Poissons Ratio (y) = 0.15245 0.18680
# Poissons Ratio (z) = 0.18748 0.14593
#
# Static dielectric constant tensor:
#      x y z
#    x 6.785800 -0.083320 -0.817520 
#    y -0.083320 5.710970 -0.103650 
#    z -0.817520 -0.103650 5.299320 
# 
# 
# High freq. dielectric constant tensor:
#      x y z
#    x 2.234990 -0.003750 -0.038960 
#    y -0.003750 2.216480 -0.001800 
#    z -0.038960 -0.001800 2.195900 
# 
# From -- ./inp_files/21594.got.cif
#   From: 2010.06.25/outbox.cif.g09.slc.cpg/sg2_11_cif.got.tgz:21594.got - 2010.06.27 13:26:56.
