data_PCOD8007463
_publ_section_title
;
Structure prediction by ZEFSAII (Michael W. Deem and Ramdas Pophale) SiO2 
 PCOD8007463
Probable space group: P -1
;
_chemical_formula_sum "Si O2"
_cell_formula_units_Z 16
_cell_length_a 14.339419
_cell_length_b 5.585153
_cell_length_c 9.492958
_cell_angle_alpha 97.501962
_cell_angle_beta 62.133955
_cell_angle_gamma 111.287845
_cell_volume 625.545256
_symmetry_space_group_name_H-M "P -1"
_symmetry_group_IT_number 2
_symmetry_cell_setting 'triclinic'
loop_
_space_group_symop_operation_xyz
x,y,z
-x,-y,-z
loop_
_atom_site_type_symbol
_atom_site_label
_atom_site_fract_x
_atom_site_fract_y
_atom_site_fract_z
Si Si1 0.806511 0.977441 0.759725
Si Si2 0.993959 0.519134 0.340509
Si Si3 0.587284 0.363781 0.452782
Si Si4 0.284186 0.370718 0.953743
Si Si5 0.440612 0.048315 0.764541
Si Si6 0.370502 0.776918 0.144529
Si Si7 0.050885 0.299804 0.027767
Si Si8 0.772727 0.588224 0.535917
O O1 0.686357 0.014989 0.835875
O O2 0.908945 0.221422 0.754901
O O3 0.794626 0.776434 0.874981
O O4 0.829321 0.873475 0.583003
O O5 0.869124 0.504662 0.391601
O O6 0.000000 0.500000 0.500000
O O7 0.017128 0.298143 0.217024
O O8 0.500000 0.500000 0.500000
O O9 0.542064 0.146489 0.587721
O O10 0.695455 0.584833 0.456036
O O11 0.617181 0.250636 0.273043
O O12 0.370285 0.632741 0.983630
O O13 0.188095 0.403118 0.918934
O O14 0.354590 0.204538 0.822792
O O15 0.499961 0.084367 0.880490
O O16 0.296356 0.589099 0.301937
O O17 0.000000 0.500000 0.000000
O O18 0.000000 0.000000 0.000000
#
# Coordination Sequence:
#
# PCOD8007463 Si02
#       8
#     2   2   2   2   2   2   2   2
#     4  11  21  40  68 100 143 178 242 309 358 437
#     4  12  23  46  74 105 136 192 250 303 368 440
#     4  10  22  42  61  97 133 177 237 290 358 443
#     4  11  24  43  67  98 140 190 236 294 369 453
#     4  10  23  40  67  94 138 180 231 298 363 440
#     4  10  20  41  64 101 135 170 241 298 358 430
#     4  12  29  50  72 108 157 198 248 311 381 455
#     4  10  22  37  65  97 133 177 235 299 363 425
#
# _framework density 25.577684000000001
#
# number of rings (size 3 to 8) (size 9 to 14) (size 15 to 20)
#    0.000    1.250    2.500    3.000    1.750    3.500 
#    0.000    0.000    0.000    0.000    0.000    0.000 
#    0.000    0.000    0.000    0.000    0.000    0.000 
#
# Total GULP energy -198291.125468 kJ/mol
# GULP energy per Si atom -12393.195342 kJ/mol
# Density = 2.551947 g / cm^3
# Si number density = 25.577684 Si / 1000 Ang^3
#
#
#
# Elastic Constant Matrix: (Units=GPa)
#
#
# Indices 1 2 3 4 5 6 
#
# 1 183.4612 35.6410 45.1705 22.1665 -8.8927 6.9965
# 2 35.6410 81.2525 25.8229 44.2173 5.9431 18.0013
# 3 45.1705 25.8229 125.6048 44.3354 5.0980 15.5423
# 4 22.1665 44.2173 44.3354 48.8313 -3.2005 -0.1233
# 5 -8.8927 5.9431 5.0980 -3.2005 46.8902 7.2199
# 6 6.9965 18.0013 15.5423 -0.1233 7.2199 45.8442
#
#
#
# Elastic Compliance Matrix: (Units=1/GPa)
#
#
# Indices 1 2 3 4 5 6 
#
# 1 0.006721 -0.004933 -0.003327 0.004592 0.002315 0.001687
# 2 -0.004933 0.039875 0.012147 -0.045443 -0.007650 -0.017940
# 3 -0.003327 0.012147 0.016850 -0.025091 -0.004272 -0.009369
# 4 0.004592 -0.045443 -0.025091 0.083128 0.011323 0.024090
# 5 0.002315 -0.007650 -0.004272 0.011323 0.023917 0.000363
# 6 0.001687 -0.017940 -0.009369 0.024090 0.000363 0.031784
#
#
# Mechanical properties :
#
#
# Convention : Reuss Voigt Hill
#
# Bulk Modulus (GPa) = 14.04091 67.06526 40.55308
# Shear Modulus (GPa) = 22.91050 47.22540 35.06795
#
# Velocity S-wave (km/s) = 2.99611 4.30158 3.70677
# Velocity P-wave (km/s) = 4.17975 7.13783 5.84889
#
# Compressibility (1/GPa) = 0.07122047
#
# Stress axis : x y z
#
# Youngs Moduli (GPa) = 148.78284 25.07835 59.34737
#
# Poissons Ratio (x) = 0.12372 0.19743
# Poissons Ratio (y) = 0.73399 -0.72089
# Poissons Ratio (z) = 0.49494 -0.30463
#
# Static dielectric constant tensor:
#      x y z
#    x 4.737820 0.122620 0.356070 
#    y 0.122620 4.819270 0.201110 
#    z 0.356070 0.201110 5.061040 
# 
# 
# High freq. dielectric constant tensor:
#      x y z
#    x 2.035750 0.009260 0.005370 
#    y 0.009260 2.016840 0.004350 
#    z 0.005370 0.004350 2.039070 
# 
# From -- ./inp_files/441297.got.cif
#   From: 2010.06.25/outbox.cif.g09.slc.cpg/sg2_221_cif.got.tgz:441297.got - 2010.06.27 13:26:56.
