data_PCOD8007334
_publ_section_title
;
Structure prediction by ZEFSAII (Michael W. Deem and Ramdas Pophale) SiO2 
 PCOD8007334
Probable space group: P -1
;
_chemical_formula_sum "Si O2"
_cell_formula_units_Z 16
_cell_length_a 12.678749
_cell_length_b 8.596280
_cell_length_c 13.692158
_cell_angle_alpha 76.308859
_cell_angle_beta 148.742721
_cell_angle_gamma 84.537500
_cell_volume 607.341746
_symmetry_space_group_name_H-M "P -1"
_symmetry_group_IT_number 2
_symmetry_cell_setting 'triclinic'
loop_
_space_group_symop_operation_xyz
x,y,z
-x,-y,-z
loop_
_atom_site_type_symbol
_atom_site_label
_atom_site_fract_x
_atom_site_fract_y
_atom_site_fract_z
Si Si1 0.154463 0.468181 0.834484
Si Si2 0.510836 0.159108 0.929018
Si Si3 0.145934 0.585475 0.532673
Si Si4 0.668187 0.769931 0.794174
Si Si5 0.691102 0.232704 0.233422
Si Si6 0.669395 0.912830 0.377730
Si Si7 0.561174 0.434882 0.414553
Si Si8 0.110111 0.773068 0.115955
O O1 0.094791 0.340862 0.736594
O O2 0.927966 0.698111 0.627587
O O3 0.205659 0.382761 0.994635
O O4 0.406884 0.434352 0.995456
O O5 0.718082 0.177028 0.145768
O O6 0.238528 0.376650 0.687125
O O7 0.536765 0.101123 0.843672
O O8 0.500000 0.000000 0.000000
O O9 0.104761 0.734410 0.566415
O O10 0.362943 0.556525 0.637243
O O11 0.535825 0.702196 0.630404
O O12 0.457710 0.993559 0.632622
O O13 0.881715 0.763365 0.903230
O O14 0.729871 0.051154 0.350785
O O15 0.338068 0.659548 0.235902
O O16 0.797155 0.336062 0.689026
O O17 0.000000 0.000000 0.000000
#
# Coordination Sequence:
#
# PCOD8007334 Si02
#       8
#     2   2   2   2   2   2   2   2
#     4  10  21  37  63  89 122 167 206 260 311 366
#     4   9  20  37  62  92 130 169 212 262 313 365
#     4  11  20  38  66  91 125 170 210 262 309 377
#     4  11  22  43  65  91 128 166 205 256 320 373
#     4  10  20  41  59  92 126 168 212 261 315 363
#     4   9  20  35  61  91 123 163 211 257 305 371
#     4  11  24  45  64  98 127 161 216 258 313 382
#     4  11  27  43  69  96 127 164 207 263 317 381
#
# _framework density 26.344311999999999
#
# number of rings (size 3 to 8) (size 9 to 14) (size 15 to 20)
#    0.000    1.750    3.750    0.750    3.500    3.500 
#    0.000    6.250    0.000   12.000    0.000    0.000 
#    0.000    0.000    0.000    0.000    0.000    0.000 
#
# Total GULP energy -198261.952969 kJ/mol
# GULP energy per Si atom -12391.372061 kJ/mol
# Density = 2.628435 g / cm^3
# Si number density = 26.344312 Si / 1000 Ang^3
#
#
#
# Elastic Constant Matrix: (Units=GPa)
#
#
# Indices 1 2 3 4 5 6 
#
# 1 34.4866 0.4065 10.5871 -10.7082 4.6014 0.5567
# 2 0.4065 127.7985 33.4485 4.3664 9.3252 -14.9548
# 3 10.5871 33.4485 84.4021 -21.1945 17.1746 -14.9661
# 4 -10.7082 4.3664 -21.1945 54.1937 -6.2674 5.6262
# 5 4.6014 9.3252 17.1746 -6.2674 23.5009 3.9049
# 6 0.5567 -14.9548 -14.9661 5.6262 3.9049 33.1952
#
#
#
# Elastic Compliance Matrix: (Units=1/GPa)
#
#
# Indices 1 2 3 4 5 6 
#
# 1 0.031797 0.000374 -0.002680 0.005113 -0.002700 -0.002122
# 2 0.000374 0.009372 -0.003248 -0.002629 -0.002704 0.003515
# 3 -0.002680 -0.003248 0.018334 0.004801 -0.011533 0.007391
# 4 0.005113 -0.002629 0.004801 0.022234 0.002999 -0.003226
# 5 -0.002700 -0.002704 -0.011533 0.002999 0.055612 -0.013423
# 6 -0.002122 0.003515 0.007391 -0.003226 -0.013423 0.037202
#
#
# Mechanical properties :
#
#
# Convention : Reuss Voigt Hill
#
# Bulk Modulus (GPa) = 20.66249 37.28571 28.97410
# Shear Modulus (GPa) = 24.77825 35.66097 30.21961
#
# Velocity S-wave (km/s) = 3.07017 3.68319 3.39056
# Velocity P-wave (km/s) = 4.51976 5.68083 5.13323
#
# Compressibility (1/GPa) = 0.04839688
#
# Stress axis : x y z
#
# Youngs Moduli (GPa) = 31.44945 106.69925 54.54254
#
# Poissons Ratio (x) = -0.03994 0.14617
# Poissons Ratio (y) = -0.01177 0.17714
# Poissons Ratio (z) = 0.08428 0.34653
#
# Static dielectric constant tensor:
#      x y z
#    x 4.486540 -0.167850 0.005150 
#    y -0.167850 5.267520 0.173870 
#    z 0.005150 0.173870 4.956560 
# 
# 
# High freq. dielectric constant tensor:
#      x y z
#    x 2.025580 -0.001410 -0.004950 
#    y -0.001410 2.079170 0.001360 
#    z -0.004950 0.001360 2.062800 
# 
# From -- ./inp_files/529714.got.cif
#   From: 2010.06.25/outbox.cif.g09.slc.cpg/sg2_265_cif.got.tgz:529714.got - 2010.06.27 13:26:56.
