data_PCOD8007489
_publ_section_title
;
Structure prediction by ZEFSAII (Michael W. Deem and Ramdas Pophale) SiO2 
 PCOD8007489
Probable space group: P -1
;
_chemical_formula_sum "Si O2"
_cell_formula_units_Z 16
_cell_length_a 9.157067
_cell_length_b 24.755089
_cell_length_c 12.191422
_cell_angle_alpha 33.438133
_cell_angle_beta 121.039160
_cell_angle_gamma 143.046547
_cell_volume 814.514145
_symmetry_space_group_name_H-M "P -1"
_symmetry_group_IT_number 2
_symmetry_cell_setting 'triclinic'
loop_
_space_group_symop_operation_xyz
x,y,z
-x,-y,-z
loop_
_atom_site_type_symbol
_atom_site_label
_atom_site_fract_x
_atom_site_fract_y
_atom_site_fract_z
Si Si1 0.662522 0.207137 0.728119
Si Si2 0.039584 0.536702 0.222282
Si Si3 0.166987 0.083149 0.313794
Si Si4 0.578585 0.142255 0.043233
Si Si5 0.233167 0.927276 0.466137
Si Si6 0.801074 0.081569 0.097631
Si Si7 0.257735 0.440176 0.074018
Si Si8 0.270535 0.581940 0.022099
O O1 0.868591 0.389545 0.484569
O O2 0.503706 0.151505 0.877696
O O3 0.448702 0.103068 0.721516
O O4 0.832545 0.180224 0.848731
O O5 0.232740 0.694661 0.098428
O O6 0.215613 0.546376 0.191568
O O7 0.831580 0.507923 0.120679
O O8 0.073040 0.139201 0.117510
O O9 0.110430 0.963147 0.423060
O O10 0.486675 0.230741 0.215176
O O11 0.000000 0.000000 0.500000
O O12 0.735619 0.108022 0.143214
O O13 0.307327 0.997891 0.252820
O O14 0.995196 0.741999 0.687612
O O15 0.500000 0.000000 0.500000
O O16 0.360434 0.522810 0.094165
O O17 0.500000 0.500000 0.000000
O O18 0.000000 0.500000 0.000000
#
# Coordination Sequence:
#
# PCOD8007489 Si02
#       8
#     2   2   2   2   2   2   2   2
#     4   9  22  41  68  89 125 175 216 254 321 374
#     4  11  21  40  66  87 128 170 214 253 315 392
#     4  12  24  39  66  96 127 163 210 267 320 371
#     4  10  20  41  64  91 120 171 219 248 317 379
#     4  12  22  40  64  94 128 163 206 264 317 384
#     4   9  23  40  64  93 124 165 222 255 313 376
#     4  11  25  37  59  98 131 161 204 264 326 372
#     4  10  23  40  58  94 128 163 207 251 325 381
#
# _framework density 19.643613999999999
#
# number of rings (size 3 to 8) (size 9 to 14) (size 15 to 20)
#    0.750    0.750    2.500    2.625    8.750    0.000 
#    0.000    1.250    2.750    0.000    0.000    0.000 
#    0.000    0.000    0.000    0.000    0.000    0.000 
#
# Total GULP energy -198273.713136 kJ/mol
# GULP energy per Si atom -12392.107071 kJ/mol
# Density = 1.959890 g / cm^3
# Si number density = 19.643614 Si / 1000 Ang^3
#
#
#
# Elastic Constant Matrix: (Units=GPa)
#
#
# Indices 1 2 3 4 5 6 
#
# 1 115.1093 30.0440 31.3415 12.2844 -7.1554 -23.1381
# 2 30.0440 71.1482 27.0704 -1.1305 -0.1574 -13.4323
# 3 31.3415 27.0704 131.9380 3.2860 -12.7833 -3.2168
# 4 12.2844 -1.1305 3.2860 22.5767 -4.4591 -2.8738
# 5 -7.1554 -0.1574 -12.7833 -4.4591 32.2213 2.7105
# 6 -23.1381 -13.4323 -3.2168 -2.8738 2.7105 38.5655
#
#
#
# Elastic Compliance Matrix: (Units=1/GPa)
#
#
# Indices 1 2 3 4 5 6 
#
# 1 0.011735 -0.003377 -0.001763 -0.005492 0.000688 0.005260
# 2 -0.003377 0.017429 -0.002921 0.003328 -0.001714 0.004169
# 3 -0.001763 -0.002921 0.008874 -0.000038 0.003241 -0.001566
# 4 -0.005492 0.003328 -0.000038 0.048666 0.005424 0.001106
# 5 0.000688 -0.001714 0.003241 0.005424 0.033372 -0.001855
# 6 0.005260 0.004169 -0.001566 0.001106 -0.001855 0.030620
#
#
# Mechanical properties :
#
#
# Convention : Reuss Voigt Hill
#
# Bulk Modulus (GPa) = 45.62995 55.01193 50.32094
# Shear Modulus (GPa) = 28.71511 33.98867 31.35189
#
# Velocity S-wave (km/s) = 3.82750 4.16416 3.99937
# Velocity P-wave (km/s) = 6.54312 7.15444 6.85560
#
# Compressibility (1/GPa) = 0.02191543
#
# Stress axis : x y z
#
# Youngs Moduli (GPa) = 85.21456 57.37613 112.68546
#
# Poissons Ratio (x) = 0.19378 0.19867
# Poissons Ratio (y) = 0.28780 0.32915
# Poissons Ratio (z) = 0.15024 0.16759
#
# Static dielectric constant tensor:
#      x y z
#    x 4.009720 -0.363600 -0.045940 
#    y -0.363600 3.782630 -0.008830 
#    z -0.045940 -0.008830 3.465430 
# 
# 
# High freq. dielectric constant tensor:
#      x y z
#    x 1.767100 -0.028940 0.000480 
#    y -0.028940 1.754960 -0.009840 
#    z 0.000480 -0.009840 1.764280 
# 
# From -- ./inp_files/406614.got.cif
#   From: 2010.06.25/outbox.cif.g09.slc.cpg/sg2_204_cif.got.tgz:406614.got - 2010.06.27 13:26:56.
