data_PCOD8007514
_publ_section_title
;
Structure prediction by ZEFSAII (Michael W. Deem and Ramdas Pophale) SiO2 
 PCOD8007514
Probable space group: P -1
;
_chemical_formula_sum "Si O2"
_cell_formula_units_Z 16
_cell_length_a 14.987945
_cell_length_b 9.158367
_cell_length_c 11.080048
_cell_angle_alpha 117.762923
_cell_angle_beta 146.140033
_cell_angle_gamma 69.183954
_cell_volume 748.318035
_symmetry_space_group_name_H-M "P -1"
_symmetry_group_IT_number 2
_symmetry_cell_setting 'triclinic'
loop_
_space_group_symop_operation_xyz
x,y,z
-x,-y,-z
loop_
_atom_site_type_symbol
_atom_site_label
_atom_site_fract_x
_atom_site_fract_y
_atom_site_fract_z
Si Si1 0.019892 0.965962 0.331048
Si Si2 0.523831 0.665924 0.016283
Si Si3 0.488280 0.153848 0.283196
Si Si4 0.733524 0.916188 0.509871
Si Si5 0.127635 0.390952 0.042641
Si Si6 0.740384 0.082590 0.209290
Si Si7 0.605378 0.531506 0.806663
Si Si8 0.638410 0.761337 0.591438
O O1 0.182375 0.955612 0.589671
O O2 0.079985 0.056337 0.308901
O O3 0.889940 0.084957 0.285138
O O4 0.943977 0.783042 0.155855
O O5 0.351616 0.746278 0.828180
O O6 0.617911 0.625858 0.984564
O O7 0.500000 0.500000 0.000000
O O8 0.638743 0.783612 0.270219
O O9 0.499011 0.352277 0.352772
O O10 0.394310 0.111428 0.287560
O O11 0.664632 0.094622 0.476259
O O12 0.392293 0.064155 0.030004
O O13 0.716068 0.865674 0.609394
O O14 0.221630 0.479473 0.068409
O O15 0.238183 0.366696 0.273110
O O16 0.000000 0.500000 0.000000
O O17 0.524452 0.348292 0.667203
#
# Coordination Sequence:
#
# PCOD8007514 Si02
#       8
#     2   2   2   2   2   2   2   2
#     4  11  23  42  65  94 132 169 210 260 327 390
#     4  11  23  43  65  97 128 165 223 269 316 376
#     4  10  20  41  64  94 118 165 226 262 303 376
#     4  11  24  38  66  96 129 166 208 267 331 370
#     4  11  26  43  64  96 129 169 217 258 320 387
#     4  10  22  42  66  92 126 167 218 265 313 378
#     4  11  22  42  69  89 126 168 219 267 307 377
#     4  11  23  42  61  94 129 166 217 261 320 378
#
# _framework density 21.381284000000001
#
# number of rings (size 3 to 8) (size 9 to 14) (size 15 to 20)
#    0.000    1.250    3.750    3.375    7.000    2.500 
#    2.250    0.625    0.000    0.000    0.000    0.000 
#    0.000    0.000    0.000    0.000    0.000    0.000 
#
# Total GULP energy -198297.114570 kJ/mol
# GULP energy per Si atom -12393.569661 kJ/mol
# Density = 2.133262 g / cm^3
# Si number density = 21.381284 Si / 1000 Ang^3
#
#
#
# Elastic Constant Matrix: (Units=GPa)
#
#
# Indices 1 2 3 4 5 6 
#
# 1 149.6870 36.4505 15.3060 -1.8064 15.4631 0.5453
# 2 36.4505 69.5025 8.6607 3.5619 17.3172 -5.9443
# 3 15.3060 8.6607 53.6819 2.0241 2.6419 0.9797
# 4 -1.8064 3.5619 2.0241 25.5812 -1.0986 8.6518
# 5 15.4631 17.3172 2.6419 -1.0986 37.3772 2.0669
# 6 0.5453 -5.9443 0.9797 8.6518 2.0669 41.5286
#
#
#
# Elastic Compliance Matrix: (Units=1/GPa)
#
#
# Indices 1 2 3 4 5 6 
#
# 1 0.007922 -0.003766 -0.001625 0.001439 -0.001329 -0.000838
# 2 -0.003766 0.019005 -0.001529 -0.004506 -0.007499 0.004118
# 3 -0.001625 -0.001529 0.019395 -0.001308 -0.000008 -0.000382
# 4 0.001439 -0.004506 -0.001308 0.043399 0.003405 -0.009844
# 5 -0.001329 -0.007499 -0.000008 0.003405 0.031062 -0.003311
# 6 -0.000838 0.004118 -0.000382 -0.009844 -0.003311 0.026905
#
#
# Mechanical properties :
#
#
# Convention : Reuss Voigt Hill
#
# Bulk Modulus (GPa) = 30.78560 43.74511 37.26536
# Shear Modulus (GPa) = 29.00998 35.06100 32.03549
#
# Velocity S-wave (km/s) = 3.68746 4.05384 3.87498
# Velocity P-wave (km/s) = 5.70609 6.51271 6.12270
#
# Compressibility (1/GPa) = 0.03248272
#
# Stress axis : x y z
#
# Youngs Moduli (GPa) = 126.23772 52.61676 51.56040
#
# Poissons Ratio (x) = 0.19818 0.08376
# Poissons Ratio (y) = 0.47546 0.07881
# Poissons Ratio (z) = 0.20508 0.08043
#
# Static dielectric constant tensor:
#      x y z
#    x 4.337970 -0.176620 -0.061070 
#    y -0.176620 4.091340 0.087480 
#    z -0.061070 0.087480 3.904490 
# 
# 
# High freq. dielectric constant tensor:
#      x y z
#    x 1.867330 -0.006300 -0.002480 
#    y -0.006300 1.821180 0.007650 
#    z -0.002480 0.007650 1.824960 
# 
# From -- ./inp_files/295422.got.cif
#   From: 2010.06.25/outbox.cif.g09.slc.cpg/sg2_148_cif.got.tgz:295422.got - 2010.06.27 13:26:56.
