data_PCOD8007841
_publ_section_title
;
Structure prediction by ZEFSAII (Michael W. Deem and Ramdas Pophale) SiO2 
 PCOD8007841
Probable space group: P -1
;
_chemical_formula_sum "Si O2"
_cell_formula_units_Z 16
_cell_length_a 15.279438
_cell_length_b 14.800643
_cell_length_c 11.955060
_cell_angle_alpha 151.191883
_cell_angle_beta 40.859346
_cell_angle_gamma 144.683670
_cell_volume 744.798355
_symmetry_space_group_name_H-M "P -1"
_symmetry_group_IT_number 2
_symmetry_cell_setting 'triclinic'
loop_
_space_group_symop_operation_xyz
x,y,z
-x,-y,-z
loop_
_atom_site_type_symbol
_atom_site_label
_atom_site_fract_x
_atom_site_fract_y
_atom_site_fract_z
Si Si1 0.358560 0.727259 0.572109
Si Si2 0.681684 0.702589 0.752058
Si Si3 0.589625 0.209064 0.890822
Si Si4 0.664452 0.198264 0.568468
Si Si5 0.886211 0.067241 0.128109
Si Si6 0.949365 0.305416 0.122408
Si Si7 0.965260 0.935781 0.590125
Si Si8 0.097254 0.641845 0.166103
O O1 0.371163 0.535539 0.411084
O O2 0.311032 0.660995 0.415347
O O3 0.230353 0.769643 0.801422
O O4 0.515409 0.950767 0.675677
O O5 0.791059 0.754585 0.593639
O O6 0.529963 0.712206 0.873459
O O7 0.771869 0.879565 0.951814
O O8 0.665791 0.313544 0.809000
O O9 0.723981 0.294223 0.947225
O O10 0.500000 0.000000 0.500000
O O11 0.788337 0.112955 0.364068
O O12 0.981656 0.290330 0.206889
O O13 0.000000 0.000000 0.000000
O O14 0.040481 0.534422 0.225803
O O15 0.005989 0.154741 0.847585
O O16 0.083232 0.854527 0.422556
O O17 0.000000 0.000000 0.500000
O O18 0.000000 0.500000 0.000000
#
# Coordination Sequence:
#
# PCOD8007841 Si02
#       8
#     2   2   2   2   2   2   2   2
#     4  10  20  41  69  93 137 175 213 267 325 394
#     4  11  22  41  67  96 132 175 217 266 331 395
#     4  11  24  43  64  96 137 172 217 277 322 394
#     4   9  18  39  59  92 137 171 208 263 317 384
#     4  10  21  37  65  98 138 174 217 263 324 394
#     4  10  21  42  65  94 133 170 217 275 325 390
#     4  11  22  42  71  90 126 166 217 278 331 383
#     4  12  26  44  68  97 127 172 228 280 335 386
#
# _framework density 21.482324999999999
#
# number of rings (size 3 to 8) (size 9 to 14) (size 15 to 20)
#    0.000    1.500    7.500    0.000    3.500    2.500 
#    2.250    5.625    0.000    0.000    0.000    0.000 
#    0.000    0.000    0.000    0.000    0.000    0.000 
#
# Total GULP energy -198228.538828 kJ/mol
# GULP energy per Si atom -12389.283677 kJ/mol
# Density = 2.143343 g / cm^3
# Si number density = 21.482325 Si / 1000 Ang^3
#
#
#
# Elastic Constant Matrix: (Units=GPa)
#
#
# Indices 1 2 3 4 5 6 
#
# 1 127.1343 61.7649 47.3606 -5.3438 -33.4941 10.7116
# 2 61.7649 97.5419 28.4267 -8.5962 -18.0618 -22.4695
# 3 47.3606 28.4267 86.3638 -12.6296 -25.8373 -6.1640
# 4 -5.3438 -8.5962 -12.6296 38.1340 1.7774 -10.3357
# 5 -33.4941 -18.0618 -25.8373 1.7774 39.8528 4.4393
# 6 10.7116 -22.4695 -6.1640 -10.3357 4.4393 37.0147
#
#
#
# Elastic Compliance Matrix: (Units=1/GPa)
#
#
# Indices 1 2 3 4 5 6 
#
# 1 0.021788 -0.015536 -0.006685 -0.008643 0.009597 -0.020414
# 2 -0.015536 0.025163 0.002592 0.010898 -0.003089 0.023616
# 3 -0.006685 0.002592 0.017793 0.007387 0.005891 0.007828
# 4 -0.008643 0.010898 0.007387 0.035518 -0.001395 0.020432
# 5 0.009597 -0.003089 0.005891 -0.001395 0.036580 -0.008448
# 6 -0.020414 0.023616 0.007828 0.020432 -0.008448 0.055282
#
#
# Mechanical properties :
#
#
# Convention : Reuss Voigt Hill
#
# Bulk Modulus (GPa) = 39.23463 65.12716 52.18089
# Shear Modulus (GPa) = 20.84410 34.56616 27.70513
#
# Velocity S-wave (km/s) = 3.11833 4.01565 3.59509
# Velocity P-wave (km/s) = 5.59184 7.20299 6.44793
#
# Compressibility (1/GPa) = 0.02548769
#
# Stress axis : x y z
#
# Youngs Moduli (GPa) = 45.89584 39.74162 56.20279
#
# Poissons Ratio (x) = 0.61742 0.37570
# Poissons Ratio (y) = 0.71303 -0.14570
# Poissons Ratio (z) = 0.30680 -0.10303
#
# Static dielectric constant tensor:
#      x y z
#    x 3.837560 -0.248620 -0.250250 
#    y -0.248620 4.187980 -0.141290 
#    z -0.250250 -0.141290 3.780180 
# 
# 
# High freq. dielectric constant tensor:
#      x y z
#    x 1.826330 -0.012960 -0.021580 
#    y -0.012960 1.850950 -0.014440 
#    z -0.021580 -0.014440 1.839880 
# 
# From -- ./inp_files/455205.got.cif
#   From: 2010.06.25/outbox.cif.g09.slc.cpg/sg2_228_cif.got.tgz:455205.got - 2010.06.27 13:26:56.
