data_PCOD8007845
_publ_section_title
;
Structure prediction by ZEFSAII (Michael W. Deem and Ramdas Pophale) SiO2 
 PCOD8007845
Probable space group: P -1
;
_chemical_formula_sum "Si O2"
_cell_formula_units_Z 16
_cell_length_a 5.390813
_cell_length_b 10.078008
_cell_length_c 20.048469
_cell_angle_alpha 52.749654
_cell_angle_beta 49.394050
_cell_angle_gamma 59.148773
_cell_volume 645.379607
_symmetry_space_group_name_H-M "P -1"
_symmetry_group_IT_number 2
_symmetry_cell_setting 'triclinic'
loop_
_space_group_symop_operation_xyz
x,y,z
-x,-y,-z
loop_
_atom_site_type_symbol
_atom_site_label
_atom_site_fract_x
_atom_site_fract_y
_atom_site_fract_z
Si Si1 0.270522 0.924387 0.613484
Si Si2 0.088347 0.366083 0.685672
Si Si3 0.886324 0.455313 0.936824
Si Si4 0.162228 0.944614 0.115645
Si Si5 0.780175 0.721755 0.693113
Si Si6 0.748811 0.226062 0.675293
Si Si7 0.841390 0.276321 0.129295
Si Si8 0.222974 0.149674 0.895213
O O1 0.503025 0.842384 0.659099
O O2 0.092484 0.796079 0.641593
O O3 0.500000 0.000000 0.500000
O O4 0.975099 0.070598 0.645858
O O5 0.491300 0.333851 0.634105
O O6 0.944087 0.237379 0.798617
O O7 0.925917 0.556015 0.676243
O O8 0.986776 0.340327 0.634277
O O9 0.036387 0.627770 0.856988
O O10 0.002944 0.338858 0.887366
O O11 0.500000 0.500000 0.000000
O O12 0.009256 0.342912 0.014886
O O13 0.568165 0.920622 0.052437
O O14 0.988580 0.984565 0.059729
O O15 0.986853 0.074619 0.163849
O O16 0.564066 0.685128 0.807402
O O17 0.538663 0.157403 0.790690
#
# Coordination Sequence:
#
# PCOD8007845 Si02
#       8
#     2   2   2   2   2   2   2   2
#     4  12  27  49  76 112 145 181 237 305 362 435
#     4  10  21  39  68 104 134 182 238 287 335 432
#     4  11  28  43  66 101 152 183 245 307 343 404
#     4  10  22  40  66  93 130 182 242 288 340 413
#     4  12  25  45  78 106 145 195 239 286 370 437
#     4  10  20  41  69  95 139 186 229 281 353 426
#     4  11  26  44  69 104 141 197 242 292 356 420
#     4  10  22  41  65  92 134 184 230 286 347 411
#
# _framework density 24.791613000000002
#
# number of rings (size 3 to 8) (size 9 to 14) (size 15 to 20)
#    0.000    1.250    0.000    6.375   10.500    1.000 
#    0.000    3.750    0.000    0.000    0.000    0.000 
#    0.000    0.000    0.000    0.000    0.000    0.000 
#
# Total GULP energy -198353.957187 kJ/mol
# GULP energy per Si atom -12397.122324 kJ/mol
# Density = 2.473519 g / cm^3
# Si number density = 24.791613 Si / 1000 Ang^3
#
#
#
# Elastic Constant Matrix: (Units=GPa)
#
#
# Indices 1 2 3 4 5 6 
#
# 1 185.6040 61.1909 17.4944 4.1702 -18.1971 12.9286
# 2 61.1909 195.4564 27.2714 22.2883 -14.7049 10.9586
# 3 17.4944 27.2714 68.4878 11.4003 -16.7657 8.8866
# 4 4.1702 22.2883 11.4003 20.9132 4.7174 -10.9418
# 5 -18.1971 -14.7049 -16.7657 4.7174 25.4952 -2.5961
# 6 12.9286 10.9586 8.8866 -10.9418 -2.5961 50.9345
#
#
#
# Elastic Compliance Matrix: (Units=1/GPa)
#
#
# Indices 1 2 3 4 5 6 
#
# 1 0.006383 -0.001468 0.000457 -0.001702 0.004168 -0.001537
# 2 -0.001468 0.007326 0.001195 -0.011309 0.005694 -0.003551
# 3 0.000457 0.001195 0.023997 -0.023506 0.020272 -0.008576
# 4 -0.001702 -0.011309 -0.023506 0.094929 -0.038172 0.025413
# 5 0.004168 0.005694 0.020272 -0.038172 0.064785 -0.010718
# 6 -0.001537 -0.003551 -0.008576 0.025413 -0.010718 0.027197
#
#
# Mechanical properties :
#
#
# Convention : Reuss Voigt Hill
#
# Bulk Modulus (GPa) = 26.26496 73.49575 49.88035
# Shear Modulus (GPa) = 21.10246 42.37468 31.73857
#
# Velocity S-wave (km/s) = 2.92069 4.13877 3.58189
# Velocity P-wave (km/s) = 4.68948 7.24907 6.10492
#
# Compressibility (1/GPa) = 0.03807355
#
# Stress axis : x y z
#
# Youngs Moduli (GPa) = 156.67366 136.49478 41.67270
#
# Poissons Ratio (x) = 0.20041 -0.01905
# Poissons Ratio (y) = 0.23003 -0.04980
# Poissons Ratio (z) = -0.07163 -0.16312
#
# Static dielectric constant tensor:
#      x y z
#    x 5.476760 0.101000 0.193330 
#    y 0.101000 4.446740 -0.066590 
#    z 0.193330 -0.066590 4.601740 
# 
# 
# High freq. dielectric constant tensor:
#      x y z
#    x 2.024760 0.005240 -0.005910 
#    y 0.005240 1.995240 0.006680 
#    z -0.005910 0.006680 1.966200 
# 
# From -- ./inp_files/582307.got.cif
#   From: 2010.06.25/outbox.cif.g09.slc.cpg/sg2_292_cif.got.tgz:582307.got - 2010.06.27 13:26:56.
