data_PCOD8007119
_publ_section_title
;
Structure prediction by ZEFSAII (Michael W. Deem and Ramdas Pophale) SiO2 
 PCOD8007119
Probable space group: P -1
;
_chemical_formula_sum "Si O2"
_cell_formula_units_Z 10
_cell_length_a 9.237614
_cell_length_b 12.159701
_cell_length_c 8.845591
_cell_angle_alpha 130.512031
_cell_angle_beta 50.064591
_cell_angle_gamma 147.204544
_cell_volume 397.916480
_symmetry_space_group_name_H-M "P -1"
_symmetry_group_IT_number 2
_symmetry_cell_setting 'triclinic'
loop_
_space_group_symop_operation_xyz
x,y,z
-x,-y,-z
loop_
_atom_site_type_symbol
_atom_site_label
_atom_site_fract_x
_atom_site_fract_y
_atom_site_fract_z
Si Si1 0.898089 0.850799 0.192164
Si Si2 0.975126 0.731570 0.734825
Si Si3 0.535668 0.855422 0.804090
Si Si4 0.498304 0.566600 0.724506
Si Si5 0.400045 0.747294 0.455284
O O1 0.690543 0.618000 0.194037
O O2 0.714144 0.893586 0.316515
O O3 0.027894 0.858250 0.959753
O O4 0.141345 0.010399 0.292413
O O5 0.816306 0.741182 0.726479
O O6 0.790021 0.489085 0.687903
O O7 0.268780 0.828900 0.565518
O O8 0.398404 0.677338 0.867363
O O9 0.405452 0.744876 0.632203
O O10 0.500000 0.000000 0.000000
O O11 0.500000 0.500000 0.500000
#
# Coordination Sequence:
#
# PCOD8007119 Si02
#       5
#     2   2   2   2   2
#     4  11  23  43  72  93 134 174 219 269 332 386
#     4  10  21  42  69  95 132 173 219 269 327 391
#     4  12  24  43  66 101 134 171 221 275 323 391
#     4  11  23  42  70  96 131 178 218 267 332 391
#     4  10  20  40  67  93 132 174 211 271 327 384
#
# _framework density 25.130901000000001
#
# number of rings (size 3 to 8) (size 9 to 14) (size 15 to 20)
#    0.000    1.200    6.000    3.000    0.000    1.600 
#    0.000    3.000    0.000    0.000    0.000    0.000 
#    0.000    0.000    0.000    0.000    0.000    0.000 
#
# Total GULP energy -123948.805000 kJ/mol
# GULP energy per Si atom -12394.880500 kJ/mol
# Density = 2.507370 g / cm^3
# Si number density = 25.130901 Si / 1000 Ang^3
#
#
#
# Elastic Constant Matrix: (Units=GPa)
#
#
# Indices 1 2 3 4 5 6 
#
# 1 128.0655 1.5739 20.0919 11.3727 -14.3325 0.9925
# 2 1.5739 20.4192 -2.2994 2.2292 -2.8753 19.2084
# 3 20.0919 -2.2994 88.9762 1.6749 -9.2722 -5.9005
# 4 11.3727 2.2292 1.6749 27.2396 4.2351 -10.6144
# 5 -14.3325 -2.8753 -9.2722 4.2351 48.4410 10.0684
# 6 0.9925 19.2084 -5.9005 -10.6144 10.0684 40.4066
#
#
#
# Elastic Compliance Matrix: (Units=1/GPa)
#
#
# Indices 1 2 3 4 5 6 
#
# 1 0.009375 0.008148 -0.001719 -0.008366 0.005296 -0.007872
# 2 0.008148 0.150705 0.000594 -0.059037 0.036668 -0.096400
# 3 -0.001719 0.000594 0.011877 0.000144 0.001549 0.001146
# 4 -0.008366 -0.059037 0.000144 0.068856 -0.022792 0.052058
# 5 0.005296 0.036668 0.001549 -0.022792 0.033246 -0.031606
# 6 -0.007872 -0.096400 0.001146 0.052058 -0.031606 0.092487
#
#
# Mechanical properties :
#
#
# Convention : Reuss Voigt Hill
#
# Bulk Modulus (GPa) = 5.37623 30.68819 18.03221
# Shear Modulus (GPa) = 12.06275 37.75707 24.90991
#
# Velocity S-wave (km/s) = 2.19326 3.88031 3.15176
# Velocity P-wave (km/s) = 2.92537 5.68450 4.52058
#
# Compressibility (1/GPa) = 0.18600377
#
# Stress axis : x y z
#
# Youngs Moduli (GPa) = 106.67016 6.63548 84.19477
#
# Poissons Ratio (x) = -0.05407 0.14473
# Poissons Ratio (y) = -0.86917 -0.05004
# Poissons Ratio (z) = 0.18337 -0.00394
#
# Static dielectric constant tensor:
#      x y z
#    x 5.282820 0.014730 -0.504090 
#    y 0.014730 4.629320 0.257850 
#    z -0.504090 0.257850 4.561850 
# 
# 
# High freq. dielectric constant tensor:
#      x y z
#    x 2.027940 0.007820 -0.013410 
#    y 0.007820 1.997360 0.026300 
#    z -0.013410 0.026300 1.990640 
# 
# From -- ./inp_files/144009.got.cif
#   From: 2010.06.25/outbox.cif.g09.slc.cpg/sg2_73_cif.got.tgz:144009.got - 2010.06.27 13:26:56.
