data_PCOD8007422
_publ_section_title
;
Structure prediction by ZEFSAII (Michael W. Deem and Ramdas Pophale) SiO2 
 PCOD8007422
Probable space group: P -1
;
_chemical_formula_sum "Si O2"
_cell_formula_units_Z 16
_cell_length_a 22.545018
_cell_length_b 16.532946
_cell_length_c 12.931872
_cell_angle_alpha 155.939520
_cell_angle_beta 154.676911
_cell_angle_gamma 24.532780
_cell_volume 735.679946
_symmetry_space_group_name_H-M "P -1"
_symmetry_group_IT_number 2
_symmetry_cell_setting 'triclinic'
loop_
_space_group_symop_operation_xyz
x,y,z
-x,-y,-z
loop_
_atom_site_type_symbol
_atom_site_label
_atom_site_fract_x
_atom_site_fract_y
_atom_site_fract_z
Si Si1 0.422355 0.459712 0.231755
Si Si2 0.810076 0.020867 0.899202
Si Si3 0.745384 0.111516 0.277201
Si Si4 0.890707 0.294134 0.880714
Si Si5 0.259828 0.626644 0.623633
Si Si6 0.876969 0.646349 0.831917
Si Si7 0.605493 0.366013 0.819313
Si Si8 0.351221 0.225162 0.561484
O O1 0.500000 0.500000 0.500000
O O2 0.554284 0.212778 0.108439
O O3 0.253014 0.486952 0.033720
O O4 0.387897 0.655390 0.319871
O O5 0.732716 0.208367 0.085522
O O6 0.758528 0.151831 0.860969
O O7 0.996516 0.870455 0.042615
O O8 0.746009 0.841343 0.588577
O O9 0.826807 0.142894 0.544791
O O10 0.780570 0.244203 0.397470
O O11 0.822557 0.850577 0.064798
O O12 0.970683 0.390949 0.037944
O O13 0.115954 0.565209 0.339268
O O14 0.435771 0.402595 0.636657
O O15 0.744038 0.670746 0.570942
O O16 0.608572 0.598677 0.115339
O O17 0.500000 0.000000 0.500000
#
# Coordination Sequence:
#
# PCOD8007422 Si02
#       8
#     2   2   2   2   2   2   2   2
#     4   9  21  42  67  81 113 163 202 239 293 355
#     4  11  21  34  57  89 128 150 192 250 292 354
#     4  10  20  41  63  85 118 160 200 246 293 345
#     4  10  22  40  60  85 123 163 196 242 299 347
#     4  11  20  34  59  92 122 151 195 246 297 349
#     4  11  21  33  60  92 120 151 197 244 301 347
#     4  11  21  36  62  88 119 159 195 242 297 348
#     4  11  18  32  56  88 121 157 189 238 298 348
#
# _framework density 21.748588000000002
#
# number of rings (size 3 to 8) (size 9 to 14) (size 15 to 20)
#    0.000    1.500    5.000    2.250    0.000    1.000 
#    0.000    2.500    8.250   10.500    0.000    0.000 
#    0.000    0.000    0.000    0.000    0.000    0.000 
#
# Total GULP energy -198225.413468 kJ/mol
# GULP energy per Si atom -12389.088342 kJ/mol
# Density = 2.169909 g / cm^3
# Si number density = 21.748588 Si / 1000 Ang^3
#
#
#
# Elastic Constant Matrix: (Units=GPa)
#
#
# Indices 1 2 3 4 5 6 
#
# 1 111.0837 41.6837 34.9881 -5.0928 11.7661 -8.4717
# 2 41.6837 74.2918 29.9484 -12.7232 9.6750 9.9119
# 3 34.9881 29.9484 68.2817 -2.7100 16.0341 6.1688
# 4 -5.0928 -12.7232 -2.7100 33.5616 7.1328 1.4321
# 5 11.7661 9.6750 16.0341 7.1328 28.0495 -13.1123
# 6 -8.4717 9.9119 6.1688 1.4321 -13.1123 33.8139
#
#
#
# Elastic Compliance Matrix: (Units=1/GPa)
#
#
# Indices 1 2 3 4 5 6 
#
# 1 0.013695 -0.007654 -0.005720 -0.002709 0.004944 0.008750
# 2 -0.007654 0.024118 -0.001626 0.011424 -0.013892 -0.014562
# 3 -0.005720 -0.001626 0.023693 0.004673 -0.017506 -0.012265
# 4 -0.002709 0.011424 0.004673 0.039578 -0.022724 -0.015368
# 5 0.004944 -0.013892 -0.017506 -0.022724 0.071550 0.037212
# 6 0.008750 -0.014562 -0.012265 -0.015368 0.037212 0.053353
#
#
# Mechanical properties :
#
#
# Convention : Reuss Voigt Hill
#
# Bulk Modulus (GPa) = 31.73674 51.87752 41.80713
# Shear Modulus (GPa) = 18.76247 28.88747 23.82497
#
# Velocity S-wave (km/s) = 2.94036 3.64846 3.31338
# Velocity P-wave (km/s) = 5.11389 6.45395 5.82260
#
# Compressibility (1/GPa) = 0.03150922
#
# Stress axis : x y z
#
# Youngs Moduli (GPa) = 73.01840 41.46198 42.20602
#
# Poissons Ratio (x) = 0.31734 0.24140
# Poissons Ratio (y) = 0.55886 0.06861
# Poissons Ratio (z) = 0.41764 0.06740
#
# Static dielectric constant tensor:
#      x y z
#    x 4.245170 -0.105840 -0.027890 
#    y -0.105840 4.126890 -0.403490 
#    z -0.027890 -0.403490 4.283720 
# 
# 
# High freq. dielectric constant tensor:
#      x y z
#    x 1.848030 0.008300 -0.001230 
#    y 0.008300 1.849440 -0.027750 
#    z -0.001230 -0.027750 1.843670 
# 
# From -- ./inp_files/471811.got.cif
#   From: 2010.06.25/outbox.cif.g09.slc.cpg/sg2_236_cif.got.tgz:471811.got - 2010.06.27 13:26:56.
