data_PCOD8007802
_publ_section_title
;
Structure prediction by ZEFSAII (Michael W. Deem and Ramdas Pophale) SiO2 
 PCOD8007802
Probable space group: P -1
;
_chemical_formula_sum "Si O2"
_cell_formula_units_Z 16
_cell_length_a 8.403241
_cell_length_b 11.289449
_cell_length_c 7.400439
_cell_angle_alpha 64.325867
_cell_angle_beta 80.088809
_cell_angle_gamma 67.224258
_cell_volume 583.405996
_symmetry_space_group_name_H-M "P -1"
_symmetry_group_IT_number 2
_symmetry_cell_setting 'triclinic'
loop_
_space_group_symop_operation_xyz
x,y,z
-x,-y,-z
loop_
_atom_site_type_symbol
_atom_site_label
_atom_site_fract_x
_atom_site_fract_y
_atom_site_fract_z
Si Si1 0.044319 0.521318 0.772916
Si Si2 0.275169 0.220226 0.380899
Si Si3 0.407702 0.544617 0.707603
Si Si4 0.133011 0.994136 0.818016
Si Si5 0.456017 0.718172 0.923097
Si Si6 0.797441 0.784035 0.130846
Si Si7 0.483617 0.771112 0.358670
Si Si8 0.157440 0.026710 0.317349
O O1 0.210536 0.566122 0.693632
O O2 0.074289 0.375058 0.761341
O O3 0.886623 0.641448 0.628910
O O4 0.000000 0.500000 0.000000
O O5 0.364053 0.254448 0.158778
O O6 0.426209 0.184132 0.519943
O O7 0.216195 0.082750 0.455307
O O8 0.405242 0.646170 0.808206
O O9 0.488425 0.609387 0.483095
O O10 0.523661 0.383872 0.839430
O O11 0.180740 0.135166 0.741330
O O12 0.302807 0.860993 0.904169
O O13 0.036522 0.982806 0.651796
O O14 0.000000 0.000000 0.000000
O O15 0.598223 0.786204 0.154832
O O16 0.846446 0.849904 0.901246
O O17 0.288722 0.878576 0.319575
#
# Coordination Sequence:
#
# PCOD8007802 Si02
#       8
#     2   2   2   2   2   2   2   2
#     4  12  23  44  75 103 131 182 240 278 342 420
#     4  11  23  43  74 102 136 182 233 288 334 411
#     4  10  23  40  70 102 135 181 225 285 335 410
#     4  10  24  40  69 102 134 179 231 289 336 404
#     4  10  20  41  68  98 138 177 230 277 342 407
#     4  11  25  45  71  99 141 184 228 287 349 412
#     4  11  26  43  65 108 145 179 225 288 352 400
#     4  11  22  44  72  98 140 186 233 276 338 421
#
# _framework density 27.425153999999999
#
# number of rings (size 3 to 8) (size 9 to 14) (size 15 to 20)
#    0.000    1.250    2.500    2.250    1.750    6.000 
#    0.000    3.750    0.000    0.000    0.000    0.000 
#    0.000    0.000    0.000    0.000    0.000    0.000 
#
# Total GULP energy -198474.115270 kJ/mol
# GULP energy per Si atom -12404.632204 kJ/mol
# Density = 2.736273 g / cm^3
# Si number density = 27.425154 Si / 1000 Ang^3
#
#
#
# Elastic Constant Matrix: (Units=GPa)
#
#
# Indices 1 2 3 4 5 6 
#
# 1 177.3978 71.5986 40.0881 -26.0254 -22.1645 -0.2063
# 2 71.5986 162.5019 10.2257 -48.6138 -0.6677 -5.8310
# 3 40.0881 10.2257 63.6738 -8.7635 -15.4090 7.0826
# 4 -26.0254 -48.6138 -8.7635 41.4946 7.2324 9.5888
# 5 -22.1645 -0.6677 -15.4090 7.2324 44.2763 -10.4077
# 6 -0.2063 -5.8310 7.0826 9.5888 -10.4077 60.3944
#
#
#
# Elastic Compliance Matrix: (Units=1/GPa)
#
#
# Indices 1 2 3 4 5 6 
#
# 1 0.008263 -0.003473 -0.004082 -0.000426 0.002907 0.000740
# 2 -0.003473 0.011166 0.001416 0.012180 -0.003450 -0.001628
# 3 -0.004082 0.001416 0.019617 0.003034 0.003840 -0.001998
# 4 -0.000426 0.012180 0.003034 0.041677 -0.007446 -0.007082
# 5 0.002907 -0.003450 0.003840 -0.007446 0.027762 0.005193
# 6 0.000740 -0.001628 -0.001998 -0.007082 0.005193 0.018657
#
#
# Mechanical properties :
#
#
# Convention : Reuss Voigt Hill
#
# Bulk Modulus (GPa) = 37.35825 71.93313 54.64569
# Shear Modulus (GPa) = 33.70618 48.01046 40.85832
#
# Velocity S-wave (km/s) = 3.50955 4.18856 3.86400
# Velocity P-wave (km/s) = 5.48398 7.04825 6.31474
#
# Compressibility (1/GPa) = 0.02676785
#
# Stress axis : x y z
#
# Youngs Moduli (GPa) = 121.02801 89.55843 50.97740
#
# Poissons Ratio (x) = 0.31099 0.20808
# Poissons Ratio (y) = 0.42027 -0.07217
# Poissons Ratio (z) = 0.49401 -0.12679
#
# Static dielectric constant tensor:
#      x y z
#    x 5.735760 0.563720 -0.246850 
#    y 0.563720 5.249800 0.269410 
#    z -0.246850 0.269410 5.572550 
# 
# 
# High freq. dielectric constant tensor:
#      x y z
#    x 2.126650 0.024560 -0.016520 
#    y 0.024560 2.119780 0.016170 
#    z -0.016520 0.016170 2.139200 
# 
# From -- ./inp_files/185042.got.cif
#   From: 2010.06.25/outbox.cif.g09.slc.cpg/sg2_93_cif.got.tgz:185042.got - 2010.06.27 13:26:56.
