data_PCOD8007214
_publ_section_title
;
Structure prediction by ZEFSAII (Michael W. Deem and Ramdas Pophale) SiO2 
 PCOD8007214
Probable space group: P -1
;
_chemical_formula_sum "Si O2"
_cell_formula_units_Z 16
_cell_length_a 14.714611
_cell_length_b 18.217436
_cell_length_c 24.191625
_cell_angle_alpha 160.950776
_cell_angle_beta 159.375656
_cell_angle_gamma 30.638095
_cell_volume 728.745196
_symmetry_space_group_name_H-M "P -1"
_symmetry_group_IT_number 2
_symmetry_cell_setting 'triclinic'
loop_
_space_group_symop_operation_xyz
x,y,z
-x,-y,-z
loop_
_atom_site_type_symbol
_atom_site_label
_atom_site_fract_x
_atom_site_fract_y
_atom_site_fract_z
Si Si1 0.530476 0.286292 0.326921
Si Si2 0.977196 0.471769 0.402474
Si Si3 0.251617 0.049758 0.093460
Si Si4 0.242857 0.757246 0.041082
Si Si5 0.461360 0.365601 0.216746
Si Si6 0.385549 0.848533 0.526608
Si Si7 0.671636 0.656058 0.279046
Si Si8 0.942093 0.030796 0.353388
O O1 0.500000 0.500000 0.500000
O O2 0.436159 0.302376 0.222128
O O3 0.830291 0.243802 0.466966
O O4 0.349816 0.060988 0.093709
O O5 0.235948 0.581221 0.592864
O O6 0.000000 0.500000 0.500000
O O7 0.747328 0.608611 0.351365
O O8 0.898146 0.201160 0.151399
O O9 0.506813 0.134244 0.337313
O O10 0.063580 0.235752 0.123580
O O11 0.371186 0.690925 0.125152
O O12 0.396780 0.007546 0.287643
O O13 0.286143 0.573264 0.890262
O O14 0.333864 0.585152 0.289666
O O15 0.303333 0.156779 0.942220
O O16 0.107763 0.930670 0.423593
O O17 0.864294 0.880929 0.524324
#
# Coordination Sequence:
#
# PCOD8007214 Si02
#       8
#     2   2   2   2   2   2   2   2
#     4  12  25  43  67 102 137 182 230 280 341 415
#     4  12  25  42  69  99 135 181 233 276 344 406
#     4  12  23  41  66 101 134 168 233 283 336 394
#     4  10  20  40  68  97 130 169 219 290 336 394
#     4  12  24  47  68  96 144 186 226 276 344 419
#     4  11  22  42  71  99 132 181 233 286 336 402
#     4  10  21  39  66  98 130 170 223 275 344 395
#     4  11  25  42  68  99 140 184 227 277 350 404
#
# _framework density 21.955549000000001
#
# number of rings (size 3 to 8) (size 9 to 14) (size 15 to 20)
#    0.000    0.750    5.000    3.375    1.750    0.500 
#    0.000    3.125    0.000    0.000    0.000    0.000 
#    0.000    0.000    0.000    0.000    0.000    0.000 
#
# Total GULP energy -198352.776133 kJ/mol
# GULP energy per Si atom -12397.048508 kJ/mol
# Density = 2.190558 g / cm^3
# Si number density = 21.955549 Si / 1000 Ang^3
#
#
#
# Elastic Constant Matrix: (Units=GPa)
#
#
# Indices 1 2 3 4 5 6 
#
# 1 94.6741 43.2446 23.4653 -17.2969 -7.4145 22.1479
# 2 43.2446 159.2901 43.3656 -24.4102 -13.7782 16.6378
# 3 23.4653 43.3656 86.0620 -7.3117 -11.0857 9.2500
# 4 -17.2969 -24.4102 -7.3117 38.5802 3.5799 -3.8932
# 5 -7.4145 -13.7782 -11.0857 3.5799 24.1269 3.6892
# 6 22.1479 16.6378 9.2500 -3.8932 3.6892 36.0982
#
#
#
# Elastic Compliance Matrix: (Units=1/GPa)
#
#
# Indices 1 2 3 4 5 6 
#
# 1 0.014537 -0.001862 -0.001443 0.003992 0.003311 -0.007599
# 2 -0.001862 0.008575 -0.002947 0.003582 0.002737 -0.001948
# 3 -0.001443 -0.002947 0.014289 -0.000447 0.004805 -0.001957
# 4 0.003992 0.003582 -0.000447 0.029947 -0.001281 -0.000625
# 5 0.003311 0.002737 0.004805 -0.001281 0.047887 -0.009556
# 6 -0.007599 -0.001948 -0.001957 -0.000625 -0.009556 0.034673
#
#
# Mechanical properties :
#
#
# Convention : Reuss Voigt Hill
#
# Bulk Modulus (GPa) = 40.16494 62.24190 51.20342
# Shear Modulus (GPa) = 29.28936 35.09111 32.19024
#
# Velocity S-wave (km/s) = 3.65640 4.00219 3.83319
# Velocity P-wave (km/s) = 6.01325 7.05459 6.55463
#
# Compressibility (1/GPa) = 0.02489734
#
# Stress axis : x y z
#
# Youngs Moduli (GPa) = 68.79006 116.62320 69.98325
#
# Poissons Ratio (x) = 0.21714 0.10099
# Poissons Ratio (y) = 0.12808 0.20623
# Poissons Ratio (z) = 0.09927 0.34366
#
# Static dielectric constant tensor:
#      x y z
#    x 3.775300 0.238310 0.151380 
#    y 0.238310 4.609980 0.062750 
#    z 0.151380 0.062750 4.080000 
# 
# 
# High freq. dielectric constant tensor:
#      x y z
#    x 1.833110 0.019160 0.008580 
#    y 0.019160 1.889800 0.006390 
#    z 0.008580 0.006390 1.865070 
# 
# From -- ./inp_files/352217.got.cif
#   From: 2010.06.25/outbox.cif.g09.slc.cpg/sg2_177_cif.got.tgz:352217.got - 2010.06.27 13:26:56.
