data_PCOD8007237
_publ_section_title
;
Structure prediction by ZEFSAII (Michael W. Deem and Ramdas Pophale) SiO2 
 PCOD8007237
Probable space group: P -1
;
_chemical_formula_sum "Si O2"
_cell_formula_units_Z 16
_cell_length_a 11.073892
_cell_length_b 9.239603
_cell_length_c 14.028241
_cell_angle_alpha 86.740250
_cell_angle_beta 31.308259
_cell_angle_gamma 97.488017
_cell_volume 698.984783
_symmetry_space_group_name_H-M "P -1"
_symmetry_group_IT_number 2
_symmetry_cell_setting 'triclinic'
loop_
_space_group_symop_operation_xyz
x,y,z
-x,-y,-z
loop_
_atom_site_type_symbol
_atom_site_label
_atom_site_fract_x
_atom_site_fract_y
_atom_site_fract_z
Si Si1 0.783937 0.861580 0.607388
Si Si2 0.500943 0.673473 0.495833
Si Si3 0.720367 0.106487 0.065732
Si Si4 0.226979 0.622452 0.501482
Si Si5 0.938015 0.733897 0.322170
Si Si6 0.937245 0.326287 0.081202
Si Si7 0.339622 0.235176 0.922353
Si Si8 0.708225 0.665786 0.845704
O O1 0.912663 0.806663 0.436434
O O2 0.665583 0.730541 0.770458
O O3 0.562371 0.915009 0.717834
O O4 0.000000 0.000000 0.500000
O O5 0.500000 0.500000 0.500000
O O6 0.438168 0.720295 0.431179
O O7 0.766835 0.774250 0.355001
O O8 0.311000 0.712614 0.691149
O O9 0.790927 0.189495 0.910663
O O10 0.900470 0.211915 0.020768
O O11 0.742548 0.938259 0.054746
O O12 0.129964 0.446058 0.606181
O O13 0.374990 0.660372 0.300284
O O14 0.990633 0.673175 0.656029
O O15 0.000000 0.500000 0.000000
O O16 0.159654 0.318127 0.997362
O O17 0.324137 0.231556 0.047694
O O18 0.500000 0.500000 0.000000
#
# Coordination Sequence:
#
# PCOD8007237 Si02
#       8
#     2   2   2   2   2   2   2   2
#     4  12  27  46  68  98 141 195 240 282 348 419
#     4  10  20  40  69 106 131 170 224 288 353 413
#     4  12  27  46  72 106 145 186 232 293 362 420
#     4  11  23  44  71 102 140 179 235 298 355 418
#     4  11  23  44  73 101 136 184 239 288 354 421
#     4  12  23  44  78 106 144 180 233 293 357 437
#     4  12  27  46  70 107 147 182 230 298 361 418
#     4  12  27  44  70 104 139 189 250 293 342 412
#
# _framework density 22.890342
#
# number of rings (size 3 to 8) (size 9 to 14) (size 15 to 20)
#    0.000    0.500    2.500    7.125    1.750    6.000 
#    0.000    1.250    0.000    0.000    0.000    0.000 
#    0.000    0.000    0.000    0.000    0.000    0.000 
#
# Total GULP energy -198384.091427 kJ/mol
# GULP energy per Si atom -12399.005714 kJ/mol
# Density = 2.283824 g / cm^3
# Si number density = 22.890342 Si / 1000 Ang^3
#
#
#
# Elastic Constant Matrix: (Units=GPa)
#
#
# Indices 1 2 3 4 5 6 
#
# 1 79.5338 14.3843 7.6203 12.4234 5.6231 12.1253
# 2 14.3843 93.7247 15.8404 4.2865 6.7624 2.7211
# 3 7.6203 15.8404 117.7987 13.7347 14.3601 -0.6742
# 4 12.4234 4.2865 13.7347 41.3919 6.5862 2.6889
# 5 5.6231 6.7624 14.3601 6.5862 38.3844 2.0104
# 6 12.1253 2.7211 -0.6742 2.6889 2.0104 23.7040
#
#
#
# Elastic Compliance Matrix: (Units=1/GPa)
#
#
# Indices 1 2 3 4 5 6 
#
# 1 0.014560 -0.001780 -0.000234 -0.003545 -0.000768 -0.006783
# 2 -0.001780 0.011252 -0.001249 0.000001 -0.001238 -0.000312
# 3 -0.000234 -0.001249 0.009319 -0.002506 -0.002857 0.001055
# 4 -0.003545 0.000001 -0.002506 0.026607 -0.003055 -0.001017
# 5 -0.000768 -0.001238 -0.002857 -0.003055 0.028059 -0.001579
# 6 -0.006783 -0.000312 0.001055 -0.001017 -0.001579 0.045972
#
#
# Mechanical properties :
#
#
# Convention : Reuss Voigt Hill
#
# Bulk Modulus (GPa) = 34.96071 40.74968 37.85519
# Shear Modulus (GPa) = 32.93152 37.57687 35.25420
#
# Velocity S-wave (km/s) = 3.79709 4.05607 3.92871
# Velocity P-wave (km/s) = 5.87623 6.30685 6.09534
#
# Compressibility (1/GPa) = 0.02860354
#
# Stress axis : x y z
#
# Youngs Moduli (GPa) = 68.68195 88.87143 107.31100
#
# Poissons Ratio (x) = 0.15823 0.02514
# Poissons Ratio (y) = 0.12229 0.13402
# Poissons Ratio (z) = 0.01609 0.11099
#
# Static dielectric constant tensor:
#      x y z
#    x 3.764770 0.207470 0.106180 
#    y 0.207470 3.933550 0.147920 
#    z 0.106180 0.147920 4.387890 
# 
# 
# High freq. dielectric constant tensor:
#      x y z
#    x 1.909610 0.006040 0.001750 
#    y 0.006040 1.895450 0.013220 
#    z 0.001750 0.013220 1.926180 
# 
# From -- ./inp_files/515626.got.cif
#   From: 2010.06.25/outbox.cif.g09.slc.cpg/sg2_258_cif.got.tgz:515626.got - 2010.06.27 13:26:56.
