data_PCOD8007949
_publ_section_title
;
Structure prediction by ZEFSAII (Michael W. Deem and Ramdas Pophale) SiO2 
 PCOD8007949
Probable space group: P -1
;
_chemical_formula_sum "Si O2"
_cell_formula_units_Z 14
_cell_length_a 9.974966
_cell_length_b 15.612750
_cell_length_c 9.040111
_cell_angle_alpha 84.693846
_cell_angle_beta 120.340482
_cell_angle_gamma 46.499813
_cell_volume 626.682342
_symmetry_space_group_name_H-M "P -1"
_symmetry_group_IT_number 2
_symmetry_cell_setting 'triclinic'
loop_
_space_group_symop_operation_xyz
x,y,z
-x,-y,-z
loop_
_atom_site_type_symbol
_atom_site_label
_atom_site_fract_x
_atom_site_fract_y
_atom_site_fract_z
Si Si1 0.236534 0.518504 0.036272
Si Si2 0.648391 0.168120 0.802260
Si Si3 0.222296 0.215453 0.493889
Si Si4 0.663325 0.982132 0.215358
Si Si5 0.224579 0.629199 0.555548
Si Si6 0.399873 0.289757 0.961142
Si Si7 0.785876 0.509676 0.641475
O O1 0.451264 0.499035 0.180848
O O2 0.422181 0.359575 0.072746
O O3 0.146490 0.520321 0.142401
O O4 0.923396 0.699671 0.761492
O O5 0.497117 0.148230 0.690036
O O6 0.524584 0.296215 0.597564
O O7 0.571435 0.233362 0.916071
O O8 0.000000 0.000000 0.000000
O O9 0.939635 0.361358 0.426794
O O10 0.357397 0.055399 0.627555
O O11 0.543665 0.135041 0.136589
O O12 0.016801 0.813331 0.392793
O O13 0.500000 0.000000 0.000000
O O14 0.246649 0.572934 0.417850
O O15 0.048665 0.437059 0.715092
#
# Coordination Sequence:
#
# PCOD8007949 Si02
#       7
#     2   2   2   2   2   2   2
#     4  12  26  42  74 110 143 183 244 289 358 419
#     4  12  26  44  74 107 139 186 248 290 355 428
#     4  10  22  45  71  99 144 184 235 292 350 415
#     4  10  20  41  77  98 133 193 233 282 358 409
#     4  10  23  45  74 100 143 190 239 283 357 424
#     4  12  23  47  75  99 145 188 236 295 355 414
#     4  12  24  46  75 102 143 194 238 288 350 437
#
# _framework density 22.339866000000001
#
# number of rings (size 3 to 8) (size 9 to 14) (size 15 to 20)
#    0.857    0.000    5.714    2.571    2.000    0.571 
#    2.571    0.714    0.000    0.000    0.000    0.000 
#    0.000    0.000    0.000    0.000    0.000    0.000 
#
# Total GULP energy -173490.893021 kJ/mol
# GULP energy per Si atom -12392.206644 kJ/mol
# Density = 2.228902 g / cm^3
# Si number density = 22.339866 Si / 1000 Ang^3
#
#
#
# Elastic Constant Matrix: (Units=GPa)
#
#
# Indices 1 2 3 4 5 6 
#
# 1 94.0142 31.8689 52.8756 0.0187 -5.1783 -16.7182
# 2 31.8689 64.8912 51.6046 5.6020 -10.5181 -8.4640
# 3 52.8756 51.6046 125.9414 -1.5637 -11.1735 -6.5310
# 4 0.0187 5.6020 -1.5637 42.3574 4.3312 1.4598
# 5 -5.1783 -10.5181 -11.1735 4.3312 56.6682 -7.7436
# 6 -16.7182 -8.4640 -6.5310 1.4598 -7.7436 28.7831
#
#
#
# Elastic Compliance Matrix: (Units=1/GPa)
#
#
# Indices 1 2 3 4 5 6 
#
# 1 0.015757 -0.002507 -0.005110 -0.000228 0.001015 0.007540
# 2 -0.002507 0.025249 -0.008741 -0.004226 0.003769 0.005213
# 3 -0.005110 -0.008741 0.013568 0.001735 0.000109 -0.002518
# 4 -0.000228 -0.004226 0.001735 0.024615 -0.002750 -0.002970
# 5 0.001015 0.003769 0.000109 -0.002750 0.019647 0.007148
# 6 0.007540 0.005213 -0.002518 -0.002970 0.007148 0.042157
#
#
# Mechanical properties :
#
#
# Convention : Reuss Voigt Hill
#
# Bulk Modulus (GPa) = 45.75055 61.94946 53.85000
# Shear Modulus (GPa) = 27.62500 35.46158 31.54329
#
# Velocity S-wave (km/s) = 3.52032 3.98850 3.76170
# Velocity P-wave (km/s) = 6.08665 7.00011 6.55930
#
# Compressibility (1/GPa) = 0.02185766
#
# Stress axis : x y z
#
# Youngs Moduli (GPa) = 63.46230 39.60627 73.70415
#
# Poissons Ratio (x) = 0.09930 0.37663
# Poissons Ratio (y) = 0.15912 0.64422
# Poissons Ratio (z) = 0.32430 0.34619
#
# Static dielectric constant tensor:
#      x y z
#    x 3.894910 0.035690 -0.127360 
#    y 0.035690 3.846790 -0.092100 
#    z -0.127360 -0.092100 4.081110 
# 
# 
# High freq. dielectric constant tensor:
#      x y z
#    x 1.877330 0.004110 -0.004750 
#    y 0.004110 1.861670 -0.006420 
#    z -0.004750 -0.006420 1.886180 
# 
# From -- ./inp_files/279547.got.cif
#   From: 2010.06.25/outbox.cif.g09.slc.cpg/sg2_140_cif.got.tgz:279547.got - 2010.06.27 13:26:56.
