data_PCOD8007323
_publ_section_title
;
Structure prediction by ZEFSAII (Michael W. Deem and Ramdas Pophale) SiO2 
 PCOD8007323
Probable space group: P -1
;
_chemical_formula_sum "Si O2"
_cell_formula_units_Z 12
_cell_length_a 8.213133
_cell_length_b 19.368847
_cell_length_c 18.708732
_cell_angle_alpha 159.849422
_cell_angle_beta 30.326513
_cell_angle_gamma 149.308373
_cell_volume 496.187127
_symmetry_space_group_name_H-M "P -1"
_symmetry_group_IT_number 2
_symmetry_cell_setting 'triclinic'
loop_
_space_group_symop_operation_xyz
x,y,z
-x,-y,-z
loop_
_atom_site_type_symbol
_atom_site_label
_atom_site_fract_x
_atom_site_fract_y
_atom_site_fract_z
Si Si1 0.703904 0.503185 0.771465
Si Si2 0.294861 0.809167 0.258156
Si Si3 0.547464 0.827277 0.555870
Si Si4 0.690639 0.038718 0.848929
Si Si5 0.448130 0.264254 0.765259
Si Si6 0.575745 0.285972 0.252549
O O1 0.713852 0.395253 0.585041
O O2 0.644451 0.301101 0.651283
O O3 0.042681 0.685914 0.837646
O O4 0.395190 0.604950 0.994599
O O5 0.405945 0.859864 0.349234
O O6 0.899077 0.771599 0.368139
O O7 0.476978 0.998442 0.322018
O O8 0.463767 0.908225 0.743912
O O9 0.059380 0.144126 0.780568
O O10 0.691396 0.884786 0.765423
O O11 0.544676 0.218245 0.114451
O O12 0.500000 0.500000 0.000000
O O13 0.500000 0.500000 0.500000
#
# Coordination Sequence:
#
# PCOD8007323 Si02
#       6
#     2   2   2   2   2   2
#     4  11  24  45  68 105 133 179 225 279 332 404
#     4  10  22  42  65 106 141 170 220 279 337 405
#     4  11  25  38  70 103 140 174 213 283 349 393
#     4  11  25  47  65 103 134 178 227 284 330 398
#     4  10  20  40  75  97 131 175 228 275 329 394
#     4  11  27  46  71  94 134 183 235 272 332 403
#
# _framework density 24.184425000000001
#
# number of rings (size 3 to 8) (size 9 to 14) (size 15 to 20)
#    0.000    1.333    3.333    2.500    4.667    4.667 
#    0.000    1.667    0.000    0.000    0.000    0.000 
#    0.000    0.000    0.000    0.000    0.000    0.000 
#
# Total GULP energy -148717.052008 kJ/mol
# GULP energy per Si atom -12393.087667 kJ/mol
# Density = 2.412938 g / cm^3
# Si number density = 24.184425 Si / 1000 Ang^3
#
#
#
# Elastic Constant Matrix: (Units=GPa)
#
#
# Indices 1 2 3 4 5 6 
#
# 1 116.6264 8.5706 65.4722 7.2013 30.5202 -5.1199
# 2 8.5706 74.7567 7.0557 5.7566 5.4205 0.3949
# 3 65.4722 7.0557 139.0650 -0.0924 29.5443 -0.1811
# 4 7.2013 5.7566 -0.0924 14.1506 1.8025 2.9139
# 5 30.5202 5.4205 29.5443 1.8025 65.4537 10.4396
# 6 -5.1199 0.3949 -0.1811 2.9139 10.4396 16.8340
#
#
#
# Elastic Compliance Matrix: (Units=1/GPa)
#
#
# Indices 1 2 3 4 5 6 
#
# 1 0.013877 -0.000118 -0.005418 -0.008201 -0.005194 0.008805
# 2 -0.000118 0.013936 -0.000457 -0.005742 -0.000926 0.001200
# 3 -0.005418 -0.000457 0.010188 0.003446 -0.001987 -0.000892
# 4 -0.008201 -0.005742 0.003446 0.080551 0.003463 -0.018413
# 5 -0.005194 -0.000926 -0.001987 0.003463 0.021003 -0.015204
# 6 0.008805 0.001200 -0.000892 -0.018413 -0.015204 0.074660
#
#
# Mechanical properties :
#
#
# Convention : Reuss Voigt Hill
#
# Bulk Modulus (GPa) = 38.43846 54.73835 46.58840
# Shear Modulus (GPa) = 21.28816 35.91096 28.59956
#
# Velocity S-wave (km/s) = 2.97011 3.85759 3.44257
# Velocity P-wave (km/s) = 5.26217 6.52106 5.92514
#
# Compressibility (1/GPa) = 0.02601561
#
# Stress axis : x y z
#
# Youngs Moduli (GPa) = 72.06377 71.75488 98.15404
#
# Poissons Ratio (x) = 0.00847 0.53177
# Poissons Ratio (y) = 0.00850 0.04486
# Poissons Ratio (z) = 0.39042 0.03279
#
# Static dielectric constant tensor:
#      x y z
#    x 5.037380 -0.154580 0.258560 
#    y -0.154580 4.667000 0.231680 
#    z 0.258560 0.231680 4.547870 
# 
# 
# High freq. dielectric constant tensor:
#      x y z
#    x 1.956110 -0.002790 0.026950 
#    y -0.002790 1.937460 0.020150 
#    z 0.026950 0.020150 1.978380 
# 
# From -- ./inp_files/591510.got.cif
#   From: 2010.06.25/outbox.cif.g09.slc.cpg/sg2_296_cif.got.tgz:591510.got - 2010.06.27 13:26:56.
