data_PCOD8007331
_publ_section_title
;
Structure prediction by ZEFSAII (Michael W. Deem and Ramdas Pophale) SiO2 
 PCOD8007331
Probable space group: P -1
;
_chemical_formula_sum "Si O2"
_cell_formula_units_Z 16
_cell_length_a 18.711324
_cell_length_b 9.640395
_cell_length_c 22.338096
_cell_angle_alpha 44.841490
_cell_angle_beta 17.222968
_cell_angle_gamma 44.567458
_cell_volume 829.285789
_symmetry_space_group_name_H-M "P -1"
_symmetry_group_IT_number 2
_symmetry_cell_setting 'triclinic'
loop_
_space_group_symop_operation_xyz
x,y,z
-x,-y,-z
loop_
_atom_site_type_symbol
_atom_site_label
_atom_site_fract_x
_atom_site_fract_y
_atom_site_fract_z
Si Si1 0.365709 0.627294 0.788026
Si Si2 0.508709 0.163671 0.029374
Si Si3 0.463401 0.746408 0.154469
Si Si4 0.967136 0.751349 0.395165
Si Si5 0.196888 0.354085 0.794142
Si Si6 0.445231 0.995066 0.425468
Si Si7 0.545618 0.400664 0.404440
Si Si8 0.055682 0.306354 0.433095
O O1 0.421775 0.463167 0.844645
O O2 0.438719 0.832425 0.688542
O O3 0.514269 0.552226 0.631691
O O4 0.083206 0.661492 0.985201
O O5 0.288398 0.247625 0.223407
O O6 0.556856 0.923997 0.060771
O O7 0.448099 0.261529 0.982750
O O8 0.752570 0.223054 0.842968
O O9 0.168019 0.797248 0.378946
O O10 0.948670 0.540989 0.444045
O O11 0.795819 0.922918 0.444141
O O12 0.871547 0.759241 0.537398
O O13 0.296720 0.466669 0.622281
O O14 0.244152 0.478039 0.777704
O O15 0.349976 0.128328 0.744718
O O16 0.366093 0.839742 0.584996
#
# Coordination Sequence:
#
# PCOD8007331 Si02
#       8
#     2   2   2   2   2   2   2   2
#     4  12  21  39  62  87 118 159 191 240 295 344
#     4  10  22  40  59  87 116 156 192 239 294 351
#     4  10  23  37  60  88 121 146 198 243 285 349
#     4  10  21  38  61  85 119 148 197 241 287 348
#     4   9  22  40  59  84 119 155 195 240 285 351
#     4  10  21  41  58  88 123 151 190 250 284 340
#     4   9  22  40  59  83 121 152 195 244 283 342
#     4  10  20  41  59  85 117 153 191 244 290 348
#
# _framework density 19.293710999999998
#
# number of rings (size 3 to 8) (size 9 to 14) (size 15 to 20)
#    0.750    1.250    1.250    1.875    1.750    2.000 
#    2.250    0.000    0.000    0.000    0.000    0.000 
#    0.000    0.000    0.000    0.000    0.000    0.000 
#
# Total GULP energy -198360.015645 kJ/mol
# GULP energy per Si atom -12397.500978 kJ/mol
# Density = 1.924980 g / cm^3
# Si number density = 19.293711 Si / 1000 Ang^3
#
#
#
# Elastic Constant Matrix: (Units=GPa)
#
#
# Indices 1 2 3 4 5 6 
#
# 1 51.7756 36.4425 29.8940 -2.0945 4.5284 19.6868
# 2 36.4425 62.7805 20.4206 -2.6176 1.0510 17.8561
# 3 29.8940 20.4206 82.0649 4.9001 13.9870 7.9236
# 4 -2.0945 -2.6176 4.9001 18.3515 5.7904 -15.9817
# 5 4.5284 1.0510 13.9870 5.7904 22.5942 0.8281
# 6 19.6868 17.8561 7.9236 -15.9817 0.8281 6.8145
#
#
#
# Elastic Compliance Matrix: (Units=1/GPa)
#
#
# Indices 1 2 3 4 5 6 
#
# 1 0.033617 -0.020784 -0.009033 0.021175 -0.006275 0.018271
# 2 -0.020784 0.026510 -0.000235 0.006686 0.001130 0.006397
# 3 -0.009033 -0.000235 0.017118 -0.003464 -0.007875 -0.000360
# 4 0.021175 0.006686 -0.003464 0.005371 -0.001519 -0.061887
# 5 -0.006275 0.001130 -0.007875 -0.001519 0.050191 0.014663
# 6 0.018271 0.006397 -0.000360 -0.061887 0.014663 -0.069303
#
#
# Mechanical properties :
#
#
# Convention : Reuss Voigt Hill
#
# Bulk Modulus (GPa) = 58.33940 41.12615 49.73277
# Shear Modulus (GPa) = 38.66334 16.87629 27.76981
#
# Velocity S-wave (km/s) = 4.48139 2.96075 3.79795
# Velocity P-wave (km/s) = 7.55515 5.74893 6.71306
#
# Compressibility (1/GPa) = 0.01714108
#
# Stress axis : x y z
#
# Youngs Moduli (GPa) = 29.74700 37.72144 58.41779
#
# Poissons Ratio (x) = 0.78401 0.52768
# Poissons Ratio (y) = 0.61827 0.01373
# Poissons Ratio (z) = 0.26870 0.00886
#
# Static dielectric constant tensor:
#      x y z
#    x 3.421300 0.123350 0.008540 
#    y 0.123350 3.433020 -0.220730 
#    z 0.008540 -0.220730 3.466340 
# 
# 
# High freq. dielectric constant tensor:
#      x y z
#    x 1.746960 0.013370 -0.005210 
#    y 0.013370 1.748570 -0.015600 
#    z -0.005210 -0.015600 1.752780 
# 
# From -- ./inp_files/599731.got.cif
#   From: 2010.06.25/outbox.cif.g09.slc.cpg/sg2_300_cif.got.tgz:599731.got - 2010.06.27 13:26:56.
