data_PCOD8007077
_publ_section_title
;
Structure prediction by ZEFSAII (Michael W. Deem and Ramdas Pophale) SiO2 
 PCOD8007077
Probable space group: P -1
;
_chemical_formula_sum "Si O2"
_cell_formula_units_Z 16
_cell_length_a 6.835731
_cell_length_b 24.854458
_cell_length_c 14.858930
_cell_angle_alpha 17.456463
_cell_angle_beta 107.801762
_cell_angle_gamma 111.013356
_cell_volume 700.961402
_symmetry_space_group_name_H-M "P -1"
_symmetry_group_IT_number 2
_symmetry_cell_setting 'triclinic'
loop_
_space_group_symop_operation_xyz
x,y,z
-x,-y,-z
loop_
_atom_site_type_symbol
_atom_site_label
_atom_site_fract_x
_atom_site_fract_y
_atom_site_fract_z
Si Si1 0.659104 0.780371 0.364825
Si Si2 0.347351 0.817745 0.840098
Si Si3 0.772542 0.365826 0.696116
Si Si4 0.088453 0.275463 0.137453
Si Si5 0.105440 0.504668 0.103036
Si Si6 0.469089 0.985392 0.872050
Si Si7 0.605662 0.556977 0.225362
Si Si8 0.491287 0.832380 0.594564
O O1 0.867258 0.697703 0.537949
O O2 0.469929 0.603744 0.601818
O O3 0.628322 0.882779 0.288469
O O4 0.655867 0.915191 0.063244
O O5 0.140232 0.863949 0.689732
O O6 0.511534 0.007394 0.587398
O O7 0.276377 0.683394 0.129399
O O8 0.458449 0.703378 0.969247
O O9 0.613581 0.484038 0.444546
O O10 0.000000 0.500000 0.500000
O O11 0.727252 0.178348 0.928452
O O12 0.264770 0.185131 0.352395
O O13 0.164104 0.347533 0.933252
O O14 0.046991 0.436408 0.939391
O O15 0.334951 0.644834 0.902093
O O16 0.000000 0.500000 0.000000
O O17 0.579859 0.102452 0.615524
#
# Coordination Sequence:
#
# PCOD8007077 Si02
#       8
#     2   2   2   2   2   2   2   2
#     4  10  20  45  68  95 129 175 229 272 332 397
#     4  11  23  42  67 102 137 177 227 272 341 404
#     4  10  20  40  67 102 137 177 220 272 342 403
#     4  12  23  41  69  97 131 181 226 274 336 400
#     4  12  27  44  69 100 135 182 230 273 341 407
#     4   9  22  40  73  95 133 177 219 283 339 386
#     4  11  22  40  69  95 135 180 218 284 327 397
#     4  11  25  45  65 102 138 176 221 287 333 396
#
# _framework density 22.825793999999998
#
# number of rings (size 3 to 8) (size 9 to 14) (size 15 to 20)
#    0.000    1.250    3.750    1.500    1.750    4.000 
#    2.250    0.625    2.750    0.000    0.000    0.000 
#    0.000    0.000    0.000    0.000    0.000    0.000 
#
# Total GULP energy -198255.042273 kJ/mol
# GULP energy per Si atom -12390.940142 kJ/mol
# Density = 2.277384 g / cm^3
# Si number density = 22.825794 Si / 1000 Ang^3
#
#
#
# Elastic Constant Matrix: (Units=GPa)
#
#
# Indices 1 2 3 4 5 6 
#
# 1 99.5570 40.7283 38.8288 -5.8622 13.3605 -1.4119
# 2 40.7283 123.3369 41.0310 -2.7815 17.0011 -3.1289
# 3 38.8288 41.0310 117.8483 8.2718 16.6867 -4.1154
# 4 -5.8622 -2.7815 8.2718 34.8146 3.7333 9.8401
# 5 13.3605 17.0011 16.6867 3.7333 30.2185 -0.4698
# 6 -1.4119 -3.1289 -4.1154 9.8401 -0.4698 27.8385
#
#
#
# Elastic Compliance Matrix: (Units=1/GPa)
#
#
# Indices 1 2 3 4 5 6 
#
# 1 0.012998 -0.002794 -0.003194 0.003422 -0.002856 -0.001385
# 2 -0.002794 0.010287 -0.002249 0.001200 -0.003456 0.000200
# 3 -0.003194 -0.002249 0.011088 -0.003742 -0.002944 0.002497
# 4 0.003422 0.001200 -0.003742 0.034289 -0.004551 -0.012442
# 5 -0.002856 -0.003456 -0.002944 -0.004551 0.038507 0.001290
# 6 -0.001385 0.000200 0.002497 -0.012442 0.001290 0.040663
#
#
# Mechanical properties :
#
#
# Convention : Reuss Voigt Hill
#
# Bulk Modulus (GPa) = 55.86997 64.65761 60.26379
# Shear Modulus (GPa) = 29.36463 33.25125 31.30794
#
# Velocity S-wave (km/s) = 3.59063 3.82087 3.70753
# Velocity P-wave (km/s) = 6.45910 6.91762 6.69229
#
# Compressibility (1/GPa) = 0.01789870
#
# Stress axis : x y z
#
# Youngs Moduli (GPa) = 76.93267 97.20849 90.19037
#
# Poissons Ratio (x) = 0.27161 0.28808
# Poissons Ratio (y) = 0.21495 0.20284
# Poissons Ratio (z) = 0.24573 0.21863
#
# Static dielectric constant tensor:
#      x y z
#    x 3.792050 0.103310 0.120430 
#    y 0.103310 4.431960 0.200800 
#    z 0.120430 0.200800 4.406520 
# 
# 
# High freq. dielectric constant tensor:
#      x y z
#    x 1.869580 0.005070 0.008710 
#    y 0.005070 1.928280 0.011460 
#    z 0.008710 0.011460 1.913310 
# 
# From -- ./inp_files/72366.got.cif
#   From: 2010.06.25/outbox.cif.g09.slc.cpg/sg2_37_cif.got.tgz:72366.got - 2010.06.27 13:26:56.
