data_PCOD8007651
_publ_section_title
;
Structure prediction by ZEFSAII (Michael W. Deem and Ramdas Pophale) SiO2 
 PCOD8007651
Probable space group: P -1
;
_chemical_formula_sum "Si O2"
_cell_formula_units_Z 16
_cell_length_a 18.950373
_cell_length_b 9.030911
_cell_length_c 18.938200
_cell_angle_alpha 128.578665
_cell_angle_beta 21.559524
_cell_angle_gamma 139.075269
_cell_volume 736.829526
_symmetry_space_group_name_H-M "P -1"
_symmetry_group_IT_number 2
_symmetry_cell_setting 'triclinic'
loop_
_space_group_symop_operation_xyz
x,y,z
-x,-y,-z
loop_
_atom_site_type_symbol
_atom_site_label
_atom_site_fract_x
_atom_site_fract_y
_atom_site_fract_z
Si Si1 0.261292 0.713054 0.846210
Si Si2 0.404000 0.019118 0.521761
Si Si3 0.860997 0.682776 0.751171
Si Si4 0.148636 0.584029 0.538617
Si Si5 0.496502 0.479805 0.579526
Si Si6 0.047444 0.834795 0.197343
Si Si7 0.246259 0.930983 0.193611
Si Si8 0.386383 0.424316 0.195997
O O1 0.413806 0.871370 0.682809
O O2 0.379600 0.609180 0.751278
O O3 0.218450 0.857852 0.983213
O O4 0.000000 0.500000 0.000000
O O5 0.329274 0.191310 0.662410
O O6 0.500000 0.000000 0.500000
O O7 0.186659 0.747368 0.618820
O O8 0.749069 0.577645 0.747848
O O9 0.074903 0.664510 0.563262
O O10 0.978441 0.958819 0.729521
O O11 0.659781 0.532047 0.954736
O O12 0.386474 0.600844 0.303389
O O13 0.951723 0.301428 0.647630
O O14 0.500000 0.500000 0.500000
O O15 0.767285 0.595077 0.390754
O O16 0.191492 0.868236 0.143515
O O17 0.248420 0.157037 0.276414
O O18 0.500000 0.000000 0.000000
#
# Coordination Sequence:
#
# PCOD8007651 Si02
#       8
#     2   2   2   2   2   2   2   2
#     4  11  22  41  72  95 128 177 222 258 318 403
#     4  11  24  43  64  97 138 167 212 274 326 375
#     4  10  21  38  66  93 125 158 211 272 313 377
#     4  12  23  40  67  89 129 171 210 262 333 382
#     4  10  20  41  66  94 133 174 214 264 322 385
#     4  11  22  42  68  95 130 172 219 263 325 384
#     4  11  24  46  64  92 134 172 212 278 325 385
#     4  10  22  42  62  92 124 164 213 262 322 388
#
# _framework density 21.714656000000002
#
# number of rings (size 3 to 8) (size 9 to 14) (size 15 to 20)
#    0.000    1.250    3.750    3.750    0.000    0.000 
#   11.250    0.625    0.000    0.000    0.000    0.000 
#    0.000    0.000    0.000    0.000    0.000    0.000 
#
# Total GULP energy -198233.730769 kJ/mol
# GULP energy per Si atom -12389.608173 kJ/mol
# Density = 2.166523 g / cm^3
# Si number density = 21.714656 Si / 1000 Ang^3
#
#
#
# Elastic Constant Matrix: (Units=GPa)
#
#
# Indices 1 2 3 4 5 6 
#
# 1 93.3307 32.9858 15.9086 13.4776 -21.1717 -9.2054
# 2 32.9858 115.7160 30.9445 5.2701 -1.4288 -7.3320
# 3 15.9086 30.9445 68.0131 15.9629 -12.5131 -2.9056
# 4 13.4776 5.2701 15.9629 29.1057 4.7823 -3.6327
# 5 -21.1717 -1.4288 -12.5131 4.7823 28.1660 -2.2427
# 6 -9.2054 -7.3320 -2.9056 -3.6327 -2.2427 34.7559
#
#
#
# Elastic Compliance Matrix: (Units=1/GPa)
#
#
# Indices 1 2 3 4 5 6 
#
# 1 0.017968 -0.005302 0.004487 -0.012232 0.017616 0.003874
# 2 -0.005302 0.011618 -0.006554 0.005192 -0.007143 0.000581
# 3 0.004487 -0.006554 0.023528 -0.016343 0.016357 0.001120
# 4 -0.012232 0.005192 -0.016343 0.052198 -0.025028 0.000330
# 5 0.017616 -0.007143 0.016357 -0.025028 0.060361 0.005805
# 6 0.003874 0.000581 0.001120 0.000330 0.005805 0.030423
#
#
# Mechanical properties :
#
#
# Convention : Reuss Voigt Hill
#
# Bulk Modulus (GPa) = 26.05737 48.52638 37.29188
# Shear Modulus (GPa) = 22.35874 31.55359 26.95617
#
# Velocity S-wave (km/s) = 3.21231 3.81609 3.52715
# Velocity P-wave (km/s) = 5.07785 6.46626 5.81365
#
# Compressibility (1/GPa) = 0.03837686
#
# Stress axis : x y z
#
# Youngs Moduli (GPa) = 55.65411 86.07464 42.50223
#
# Poissons Ratio (x) = 0.45634 -0.19069
# Poissons Ratio (y) = 0.29506 0.27854
# Poissons Ratio (z) = -0.24970 0.56410
#
# Static dielectric constant tensor:
#      x y z
#    x 3.444810 0.864700 0.026930 
#    y 0.864700 2.640490 0.272800 
#    z 0.026930 0.272800 4.223550 
# 
# 
# High freq. dielectric constant tensor:
#      x y z
#    x 1.843890 -0.004500 -0.011200 
#    y -0.004500 1.881560 0.004560 
#    z -0.011200 0.004560 1.830380 
# 
# From -- ./inp_files/601188.got.cif
#   From: 2010.06.25/outbox.cif.g09.slc.cpg/sg2_301_cif.got.tgz:601188.got - 2010.06.27 13:26:56.
