data_PCOD8007934
_publ_section_title
;
Structure prediction by ZEFSAII (Michael W. Deem and Ramdas Pophale) SiO2 
 PCOD8007934
Probable space group: P -1
;
_chemical_formula_sum "Si O2"
_cell_formula_units_Z 12
_cell_length_a 26.224677
_cell_length_b 10.614008
_cell_length_c 16.210708
_cell_angle_alpha 24.854153
_cell_angle_beta 163.128874
_cell_angle_gamma 155.687938
_cell_volume 515.098122
_symmetry_space_group_name_H-M "P -1"
_symmetry_group_IT_number 2
_symmetry_cell_setting 'triclinic'
loop_
_space_group_symop_operation_xyz
x,y,z
-x,-y,-z
loop_
_atom_site_type_symbol
_atom_site_label
_atom_site_fract_x
_atom_site_fract_y
_atom_site_fract_z
Si Si1 0.229546 0.667161 0.668059
Si Si2 0.833280 0.351782 0.943747
Si Si3 0.806261 0.692591 0.537231
Si Si4 0.194185 0.237181 0.192540
Si Si5 0.783873 0.340266 0.163095
Si Si6 0.452189 0.322637 0.117507
O O1 0.306071 0.693454 0.865015
O O2 0.006252 0.518958 0.408632
O O3 0.305076 0.026062 0.531646
O O4 0.305665 0.434102 0.874371
O O5 0.849565 0.615292 0.742747
O O6 0.847181 0.521093 0.951832
O O7 0.638012 0.056473 0.810832
O O8 0.008389 0.229331 0.278524
O O9 0.642612 0.392188 0.422670
O O10 0.738201 0.994880 0.255047
O O11 0.302394 0.450681 0.154346
O O12 0.000000 0.000000 0.000000
O O13 0.500000 0.500000 0.000000
#
# Coordination Sequence:
#
# PCOD8007934 Si02
#       6
#     2   2   2   2   2   2
#     4  10  22  44  66 103 140 173 236 282 344 414
#     4  11  24  47  69 101 144 179 241 284 342 423
#     4  11  24  43  74 101 138 192 226 290 352 404
#     4  10  22  39  73 101 130 185 230 283 346 411
#     4  10  20  41  72  99 134 186 225 286 348 399
#     4  12  27  44  69 104 142 184 232 286 349 419
#
# _framework density 23.296533
#
# number of rings (size 3 to 8) (size 9 to 14) (size 15 to 20)
#    0.000    1.333    3.333    1.500    4.667    2.000 
#    3.000    1.667    0.000    0.000    0.000    0.000 
#    0.000    0.000    0.000    0.000    0.000    0.000 
#
# Total GULP energy -148830.387844 kJ/mol
# GULP energy per Si atom -12402.532320 kJ/mol
# Density = 2.324351 g / cm^3
# Si number density = 23.296533 Si / 1000 Ang^3
#
#
#
# Elastic Constant Matrix: (Units=GPa)
#
#
# Indices 1 2 3 4 5 6 
#
# 1 129.2166 38.1407 37.2194 -13.4372 -31.4814 -14.3333
# 2 38.1407 142.3546 15.1864 -6.2778 -7.1233 -13.2458
# 3 37.2194 15.1864 40.7412 -12.3562 -14.0221 1.5672
# 4 -13.4372 -6.2778 -12.3562 35.7433 6.2531 -3.0290
# 5 -31.4814 -7.1233 -14.0221 6.2531 29.9589 -6.8039
# 6 -14.3333 -13.2458 1.5672 -3.0290 -6.8039 39.1043
#
#
#
# Elastic Compliance Matrix: (Units=1/GPa)
#
#
# Indices 1 2 3 4 5 6 
#
# 1 0.014617 -0.001668 -0.008496 0.000700 0.012513 0.007365
# 2 -0.001668 0.007828 -0.001387 0.000475 -0.000161 0.002105
# 3 -0.008496 -0.001387 0.037428 0.008200 0.005767 -0.003445
# 4 0.000700 0.000475 0.008200 0.031596 -0.001387 0.002295
# 5 0.012513 -0.000161 0.005767 -0.001387 0.052505 0.013329
# 6 0.007365 0.002105 -0.003445 0.002295 0.013329 0.031620
#
#
# Mechanical properties :
#
#
# Convention : Reuss Voigt Hill
#
# Bulk Modulus (GPa) = 27.19469 54.82281 41.00875
# Shear Modulus (GPa) = 23.70219 35.74570 29.72394
#
# Velocity S-wave (km/s) = 3.19315 3.92136 3.57584
# Velocity P-wave (km/s) = 5.02927 6.63977 5.88982
#
# Compressibility (1/GPa) = 0.03677189
#
# Stress axis : x y z
#
# Youngs Moduli (GPa) = 68.41577 127.74361 26.71810
#
# Poissons Ratio (x) = 0.21302 0.22699
# Poissons Ratio (y) = 0.11409 0.03706
# Poissons Ratio (z) = 0.58125 0.17717
#
# Static dielectric constant tensor:
#      x y z
#    x 4.538270 0.134950 -0.388850 
#    y 0.134950 4.320210 -0.163820 
#    z -0.388850 -0.163820 4.080980 
# 
# 
# High freq. dielectric constant tensor:
#      x y z
#    x 1.933890 -0.002110 -0.015520 
#    y -0.002110 1.935130 -0.003120 
#    z -0.015520 -0.003120 1.900730 
# 
# From -- ./inp_files/181389.got.cif
#   From: 2010.06.25/outbox.cif.g09.slc.cpg/sg2_91_cif.got.tgz:181389.got - 2010.06.27 13:26:56.
