data_PCOD8007564
_publ_section_title
;
Structure prediction by ZEFSAII (Michael W. Deem and Ramdas Pophale) SiO2 
 PCOD8007564
Probable space group: P -1
;
_chemical_formula_sum "Si O2"
_cell_formula_units_Z 14
_cell_length_a 11.128527
_cell_length_b 22.362237
_cell_length_c 10.262121
_cell_angle_alpha 32.610997
_cell_angle_beta 36.082392
_cell_angle_gamma 27.620543
_cell_volume 618.249811
_symmetry_space_group_name_H-M "P -1"
_symmetry_group_IT_number 2
_symmetry_cell_setting 'triclinic'
loop_
_space_group_symop_operation_xyz
x,y,z
-x,-y,-z
loop_
_atom_site_type_symbol
_atom_site_label
_atom_site_fract_x
_atom_site_fract_y
_atom_site_fract_z
Si Si1 0.970350 0.943851 0.459316
Si Si2 0.388873 0.207443 0.539348
Si Si3 0.927343 0.685540 0.626632
Si Si4 0.394118 0.410749 0.857221
Si Si5 0.925030 0.146186 0.745439
Si Si6 0.897147 0.867234 0.920993
Si Si7 0.533757 0.393025 0.059432
O O1 0.127203 0.844823 0.378478
O O2 0.961304 0.845039 0.751118
O O3 0.148079 0.986655 0.273341
O O4 0.661377 0.087521 0.438502
O O5 0.129120 0.298464 0.507519
O O6 0.421045 0.320256 0.361773
O O7 0.351803 0.125845 0.833879
O O8 0.238515 0.549874 0.641517
O O9 0.847749 0.838631 0.462266
O O10 0.745522 0.659809 0.904893
O O11 0.687675 0.283556 0.782688
O O12 0.392279 0.458325 0.921455
O O13 0.000000 0.000000 0.000000
O O14 0.153497 0.728401 0.025517
O O15 0.500000 0.500000 0.000000
#
# Coordination Sequence:
#
# PCOD8007564 Si02
#       7
#     2   2   2   2   2   2   2
#     4  10  23  38  63  94 128 164 211 258 314 383
#     4  10  20  41  65  91 125 168 206 261 321 369
#     4  10  22  40  65  91 132 165 209 261 312 386
#     4  10  23  43  64  94 130 170 207 263 323 375
#     4  12  23  38  65  97 126 169 210 260 324 377
#     4  10  21  41  61  90 129 168 206 263 315 370
#     4  10  22  39  66  91 125 164 213 262 311 378
#
# _framework density 22.644566999999999
#
# number of rings (size 3 to 8) (size 9 to 14) (size 15 to 20)
#    0.000    1.714    0.000    5.143    2.000    4.000 
#    0.000    0.000    0.000    0.000    0.000    0.000 
#    0.000    0.000    0.000    0.000    0.000    0.000 
#
# Total GULP energy -173455.740682 kJ/mol
# GULP energy per Si atom -12389.695763 kJ/mol
# Density = 2.259303 g / cm^3
# Si number density = 22.644567 Si / 1000 Ang^3
#
#
#
# Elastic Constant Matrix: (Units=GPa)
#
#
# Indices 1 2 3 4 5 6 
#
# 1 106.6361 35.2182 52.5492 -3.8002 -4.9499 18.7010
# 2 35.2182 49.3696 40.7097 3.7224 -2.8725 13.6093
# 3 52.5492 40.7097 162.9535 -5.4998 -12.5820 18.2272
# 4 -3.8002 3.7224 -5.4998 29.5167 2.7143 5.9846
# 5 -4.9499 -2.8725 -12.5820 2.7143 41.2700 -5.2739
# 6 18.7010 13.6093 18.2272 5.9846 -5.2739 32.7021
#
#
#
# Elastic Compliance Matrix: (Units=1/GPa)
#
#
# Indices 1 2 3 4 5 6 
#
# 1 0.013573 -0.007064 -0.002044 0.003151 -0.000243 -0.004299
# 2 -0.007064 0.031345 -0.005157 -0.004677 -0.000617 -0.005374
# 3 -0.002044 -0.005157 0.008452 0.002120 0.001639 -0.001520
# 4 0.003151 -0.004677 0.002120 0.037211 -0.002809 -0.008300
# 5 -0.000243 -0.000617 0.001639 -0.002809 0.025365 0.004087
# 6 -0.004299 -0.005374 -0.001520 -0.008300 0.004087 0.038299
#
#
# Mechanical properties :
#
#
# Convention : Reuss Voigt Hill
#
# Bulk Modulus (GPa) = 40.25650 63.99038 52.12344
# Shear Modulus (GPa) = 26.17052 33.39656 29.78354
#
# Velocity S-wave (km/s) = 3.40326 3.84450 3.63059
# Velocity P-wave (km/s) = 5.76707 6.93014 6.37518
#
# Compressibility (1/GPa) = 0.02484071
#
# Stress axis : x y z
#
# Youngs Moduli (GPa) = 73.67767 31.90296 118.31112
#
# Poissons Ratio (x) = 0.22535 0.24181
# Poissons Ratio (y) = 0.52043 0.61016
# Poissons Ratio (z) = 0.15059 0.16453
#
# Static dielectric constant tensor:
#      x y z
#    x 4.155330 -0.209150 -0.119550 
#    y -0.209150 3.722060 -0.033210 
#    z -0.119550 -0.033210 4.481620 
# 
# 
# High freq. dielectric constant tensor:
#      x y z
#    x 1.893550 -0.018430 -0.004690 
#    y -0.018430 1.855680 0.003390 
#    z -0.004690 0.003390 1.924730 
# 
# From -- ./inp_files/439081.got.cif
#   From: 2010.06.25/outbox.cif.g09.slc.cpg/sg2_220_cif.got.tgz:439081.got - 2010.06.27 13:26:56.
