data_PCOD8007927
_publ_section_title
;
Structure prediction by ZEFSAII (Michael W. Deem and Ramdas Pophale) SiO2 
 PCOD8007927
Probable space group: P -1
;
_chemical_formula_sum "Si O2"
_cell_formula_units_Z 14
_cell_length_a 20.033674
_cell_length_b 6.868054
_cell_length_c 10.365036
_cell_angle_alpha 52.561361
_cell_angle_beta 35.821684
_cell_angle_gamma 52.999062
_cell_volume 644.278663
_symmetry_space_group_name_H-M "P -1"
_symmetry_group_IT_number 2
_symmetry_cell_setting 'triclinic'
loop_
_space_group_symop_operation_xyz
x,y,z
-x,-y,-z
loop_
_atom_site_type_symbol
_atom_site_label
_atom_site_fract_x
_atom_site_fract_y
_atom_site_fract_z
Si Si1 0.946205 0.539156 0.209450
Si Si2 0.662043 0.047412 0.045435
Si Si3 0.512868 0.232176 0.655163
Si Si4 0.830788 0.087455 0.556004
Si Si5 0.682692 0.535469 0.951162
Si Si6 0.243884 0.088244 0.509316
Si Si7 0.145717 0.373198 0.150668
O O1 0.894171 0.299265 0.416921
O O2 0.846154 0.796275 0.280686
O O3 0.000000 0.500000 0.000000
O O4 0.183758 0.926184 0.569949
O O5 0.537476 0.969988 0.268888
O O6 0.701054 0.133303 0.807893
O O7 0.654959 0.269126 0.068796
O O8 0.762884 0.797603 0.026357
O O9 0.500000 0.500000 0.500000
O O10 0.647803 0.106828 0.519215
O O11 0.436973 0.279956 0.885748
O O12 0.907341 0.816841 0.597637
O O13 0.782285 0.476847 0.930337
O O14 0.722550 0.675854 0.710136
O O15 0.044240 0.556887 0.155877
#
# Coordination Sequence:
#
# PCOD8007927 Si02
#       7
#     2   2   2   2   2   2   2
#     4  12  25  40  64  98 133 171 214 268 321 380
#     4   9  20  40  69  97 124 169 214 262 320 384
#     4  11  25  41  63  99 136 169 209 270 331 382
#     4   9  21  40  66  98 124 170 217 261 320 384
#     4  10  20  41  72  95 125 170 218 266 318 384
#     4  11  23  43  65  95 131 171 221 264 322 383
#     4   8  20  39  62  95 129 165 215 256 319 382
#
# _framework density 21.729728000000001
#
# number of rings (size 3 to 8) (size 9 to 14) (size 15 to 20)
#    0.857    1.143    2.857    0.857    0.000    9.714 
#    0.000    0.000    0.000    0.000    0.000    0.000 
#    0.000    0.000    0.000    0.000    0.000    0.000 
#
# Total GULP energy -173478.572732 kJ/mol
# GULP energy per Si atom -12391.326624 kJ/mol
# Density = 2.168027 g / cm^3
# Si number density = 21.729728 Si / 1000 Ang^3
#
#
#
# Elastic Constant Matrix: (Units=GPa)
#
#
# Indices 1 2 3 4 5 6 
#
# 1 137.1088 76.3411 43.3578 6.4692 -8.2740 -10.2889
# 2 76.3411 130.7299 31.1877 5.7440 -12.7486 13.1276
# 3 43.3578 31.1877 49.4705 11.7664 1.1539 -3.5579
# 4 6.4692 5.7440 11.7664 36.1919 -0.8326 -10.1605
# 5 -8.2740 -12.7486 1.1539 -0.8326 14.1231 -1.0843
# 6 -10.2889 13.1276 -3.5579 -10.1605 -1.0843 35.1412
#
#
#
# Elastic Compliance Matrix: (Units=1/GPa)
#
#
# Indices 1 2 3 4 5 6 
#
# 1 0.014465 -0.006846 -0.008754 0.003400 0.003748 0.007005
# 2 -0.006846 0.014089 -0.003164 -0.002017 0.008239 -0.007917
# 3 -0.008754 -0.003164 0.032197 -0.008956 -0.011224 -0.001057
# 4 0.003400 -0.002017 -0.008956 0.033311 0.003680 0.010587
# 5 0.003748 0.008239 -0.011224 0.003680 0.081609 0.000465
# 6 0.007005 -0.007917 -0.001057 0.010587 0.000465 0.036433
#
#
# Mechanical properties :
#
#
# Convention : Reuss Voigt Hill
#
# Bulk Modulus (GPa) = 43.06061 68.78691 55.92376
# Shear Modulus (GPa) = 19.42707 28.18608 23.80657
#
# Velocity S-wave (km/s) = 2.99328 3.60546 3.31354
# Velocity P-wave (km/s) = 5.63966 7.00406 6.35856
#
# Compressibility (1/GPa) = 0.02322308
#
# Stress axis : x y z
#
# Youngs Moduli (GPa) = 69.13309 70.97784 31.05880
#
# Poissons Ratio (x) = 0.48590 0.27189
# Poissons Ratio (y) = 0.47327 0.09827
# Poissons Ratio (z) = 0.60519 0.22458
#
# Static dielectric constant tensor:
#      x y z
#    x 3.596570 0.127750 -0.179640 
#    y 0.127750 3.870290 0.026970 
#    z -0.179640 0.026970 3.894290 
# 
# 
# High freq. dielectric constant tensor:
#      x y z
#    x 1.831780 0.015070 -0.014150 
#    y 0.015070 1.853630 -0.002650 
#    z -0.014150 -0.002650 1.843630 
# 
# From -- ./inp_files/475962.got.cif
#   From: 2010.06.25/outbox.cif.g09.slc.cpg/sg2_238_cif.got.tgz:475962.got - 2010.06.27 13:26:56.
