data_PCOD8007078
_publ_section_title
;
Structure prediction by ZEFSAII (Michael W. Deem and Ramdas Pophale) SiO2 
 PCOD8007078
Probable space group: P -1
;
_chemical_formula_sum "Si O2"
_cell_formula_units_Z 16
_cell_length_a 13.520043
_cell_length_b 13.453133
_cell_length_c 10.823306
_cell_angle_alpha 96.269700
_cell_angle_beta 107.376858
_cell_angle_gamma 147.646833
_cell_volume 710.188777
_symmetry_space_group_name_H-M "P -1"
_symmetry_group_IT_number 2
_symmetry_cell_setting 'triclinic'
loop_
_space_group_symop_operation_xyz
x,y,z
-x,-y,-z
loop_
_atom_site_type_symbol
_atom_site_label
_atom_site_fract_x
_atom_site_fract_y
_atom_site_fract_z
Si Si1 0.676461 0.697283 0.980864
Si Si2 0.762380 0.289205 0.080947
Si Si3 0.037574 0.739240 0.855648
Si Si4 0.042124 0.433814 0.576138
Si Si5 0.566189 0.780601 0.783237
Si Si6 0.268416 0.209777 0.370573
Si Si7 0.525935 0.381360 0.719803
Si Si8 0.635389 0.943245 0.232254
O O1 0.547021 0.681770 0.873048
O O2 0.676736 0.614603 0.860825
O O3 0.500000 0.500000 0.000000
O O4 0.978312 0.991857 0.184793
O O5 0.977144 0.393820 0.143426
O O6 0.899202 0.491690 0.249850
O O7 0.654361 0.259590 0.923479
O O8 0.500000 0.000000 0.000000
O O9 0.734202 0.511073 0.722880
O O10 0.170698 0.884098 0.792378
O O11 0.214475 0.940882 0.060503
O O12 0.000000 0.500000 0.500000
O O13 0.283726 0.584501 0.627832
O O14 0.774549 0.127089 0.421623
O O15 0.649624 0.807996 0.688767
O O16 0.500000 0.500000 0.500000
O O17 0.260619 0.167343 0.505695
O O18 0.424325 0.223878 0.774810
#
# Coordination Sequence:
#
# PCOD8007078 Si02
#       8
#     2   2   2   2   2   2   2   2
#     4  12  28  47  72 104 144 187 241 300 359 435
#     4  10  20  40  67 102 138 185 234 286 355 423
#     4  11  21  45  73  97 142 188 232 292 357 421
#     4  12  22  41  73 109 139 182 240 290 355 435
#     4  12  23  44  76  97 138 195 230 287 365 425
#     4  12  26  48  72 103 143 190 246 296 359 431
#     4  12  27  46  70 107 142 182 243 298 356 428
#     4  11  24  43  71 103 142 187 238 292 357 421
#
# _framework density 22.529219000000001
#
# number of rings (size 3 to 8) (size 9 to 14) (size 15 to 20)
#    0.000    0.500    7.500    2.625    1.750    2.000 
#    0.000    0.625    0.000    0.000    0.000    0.000 
#    0.000    0.000    0.000    0.000    0.000    0.000 
#
# Total GULP energy -198388.224352 kJ/mol
# GULP energy per Si atom -12399.264022 kJ/mol
# Density = 2.247794 g / cm^3
# Si number density = 22.529219 Si / 1000 Ang^3
#
#
#
# Elastic Constant Matrix: (Units=GPa)
#
#
# Indices 1 2 3 4 5 6 
#
# 1 104.4746 18.3955 33.7039 0.7795 4.3431 -1.3431
# 2 18.3955 60.0762 30.1524 -6.2780 7.9828 -2.7169
# 3 33.7039 30.1524 153.2892 -1.8035 -8.0584 -8.9879
# 4 0.7795 -6.2780 -1.8035 31.1425 -9.9184 -0.6729
# 5 4.3431 7.9828 -8.0584 -9.9184 51.7836 -4.2115
# 6 -1.3431 -2.7169 -8.9879 -0.6729 -4.2115 31.8027
#
#
#
# Elastic Compliance Matrix: (Units=1/GPa)
#
#
# Indices 1 2 3 4 5 6 
#
# 1 0.010665 -0.002259 -0.002003 -0.001208 -0.001129 -0.000484
# 2 -0.002259 0.019785 -0.003491 0.002953 -0.002814 0.000298
# 3 -0.002003 -0.003491 0.007900 0.000557 0.002217 0.002155
# 4 -0.001208 0.002953 0.000557 0.034906 0.006579 0.001968
# 5 -0.001129 -0.002814 0.002217 0.006579 0.021717 0.003354
# 6 -0.000484 0.000298 0.002155 0.001968 0.003354 0.032544
#
#
# Mechanical properties :
#
#
# Convention : Reuss Voigt Hill
#
# Bulk Modulus (GPa) = 43.77117 53.59372 48.68244
# Shear Modulus (GPa) = 33.19230 38.65166 35.92198
#
# Velocity S-wave (km/s) = 3.84252 4.14650 3.99740
# Velocity P-wave (km/s) = 6.25759 6.83848 6.55447
#
# Compressibility (1/GPa) = 0.02284609
#
# Stress axis : x y z
#
# Youngs Moduli (GPa) = 93.76322 50.54276 126.58111
#
# Poissons Ratio (x) = 0.11416 0.25349
# Poissons Ratio (y) = 0.21179 0.44188
# Poissons Ratio (z) = 0.18777 0.17644
#
# Static dielectric constant tensor:
#      x y z
#    x 4.486470 -0.238390 0.020230 
#    y -0.238390 3.796470 -0.144920 
#    z 0.020230 -0.144920 4.694030 
# 
# 
# High freq. dielectric constant tensor:
#      x y z
#    x 1.903800 -0.017030 -0.004050 
#    y -0.017030 1.852960 -0.009160 
#    z -0.004050 -0.009160 1.910660 
# 
# From -- ./inp_files/428414.got.cif
#   From: 2010.06.25/outbox.cif.g09.slc.cpg/sg2_215_cif.got.tgz:428414.got - 2010.06.27 13:26:56.
