data_PCOD8007220
_publ_section_title
;
Structure prediction by ZEFSAII (Michael W. Deem and Ramdas Pophale) SiO2 
 PCOD8007220
Probable space group: P -1
;
_chemical_formula_sum "Si O2"
_cell_formula_units_Z 16
_cell_length_a 18.157117
_cell_length_b 9.137716
_cell_length_c 11.915243
_cell_angle_alpha 130.818724
_cell_angle_beta 151.858056
_cell_angle_gamma 50.046821
_cell_volume 693.560581
_symmetry_space_group_name_H-M "P -1"
_symmetry_group_IT_number 2
_symmetry_cell_setting 'triclinic'
loop_
_space_group_symop_operation_xyz
x,y,z
-x,-y,-z
loop_
_atom_site_type_symbol
_atom_site_label
_atom_site_fract_x
_atom_site_fract_y
_atom_site_fract_z
Si Si1 0.062533 0.542025 0.420330
Si Si2 0.069834 0.929788 0.764639
Si Si3 0.290718 0.966308 0.277213
Si Si4 0.826640 0.890402 0.587076
Si Si5 0.406496 0.307924 0.484012
Si Si6 0.469167 0.977731 0.076548
Si Si7 0.205689 0.258240 0.988769
Si Si8 0.385820 0.577768 0.783058
O O1 0.058461 0.725119 0.588848
O O2 0.078768 0.335769 0.405023
O O3 0.214687 0.519359 0.534096
O O4 0.903571 0.574622 0.147581
O O5 0.906237 0.002464 0.652032
O O6 0.098995 0.095602 0.798231
O O7 0.215574 0.891416 0.027400
O O8 0.435553 0.793822 0.421399
O O9 0.159518 0.011054 0.222495
O O10 0.360678 0.161573 0.443505
O O11 0.638163 0.910897 0.329397
O O12 0.447182 0.493576 0.700806
O O13 0.264220 0.362062 0.229573
O O14 0.364504 0.811154 0.870152
O O15 0.500000 0.000000 0.000000
O O16 0.361853 0.170352 0.082086
O O17 0.500000 0.500000 0.000000
#
# Coordination Sequence:
#
# PCOD8007220 Si02
#       8
#     2   2   2   2   2   2   2   2
#     4  12  24  42  67  99 138 174 223 278 330 399
#     4  11  24  40  69  99 135 176 218 280 334 395
#     4  10  20  40  68  98 133 175 226 272 335 393
#     4  12  24  44  66 103 134 174 228 275 330 398
#     4  10  21  41  69  98 133 180 224 277 327 402
#     4  12  26  45  71  98 136 178 226 279 335 400
#     4  11  25  46  67  97 139 180 220 270 345 400
#     4  12  23  43  72 103 132 176 231 276 331 399
#
# _framework density 23.069362000000002
#
# number of rings (size 3 to 8) (size 9 to 14) (size 15 to 20)
#    0.000    0.750    5.000    2.625    3.500    0.500 
#    0.000    1.875    0.000    0.000    0.000    0.000 
#    0.000    0.000    0.000    0.000    0.000    0.000 
#
# Total GULP energy -198405.652928 kJ/mol
# GULP energy per Si atom -12400.353308 kJ/mol
# Density = 2.301686 g / cm^3
# Si number density = 23.069362 Si / 1000 Ang^3
#
#
#
# Elastic Constant Matrix: (Units=GPa)
#
#
# Indices 1 2 3 4 5 6 
#
# 1 108.4769 20.5758 14.2422 -7.1844 0.7804 -11.8060
# 2 20.5758 61.4891 33.8297 -30.0421 -5.9989 -9.7281
# 3 14.2422 33.8297 101.1439 -24.4732 -12.2903 -7.7032
# 4 -7.1844 -30.0421 -24.4732 29.6618 -5.1103 -1.3106
# 5 0.7804 -5.9989 -12.2903 -5.1103 43.9707 2.1329
# 6 -11.8060 -9.7281 -7.7032 -1.3106 2.1329 30.9479
#
#
#
# Elastic Compliance Matrix: (Units=1/GPa)
#
#
# Indices 1 2 3 4 5 6 
#
# 1 0.010162 -0.003691 -0.000595 -0.001860 -0.001191 0.002572
# 2 -0.003691 0.042177 -0.000910 0.043357 0.009985 0.012771
# 3 -0.000595 -0.000910 0.013855 0.011350 0.004929 0.003076
# 4 -0.001860 0.043357 0.011350 0.090580 0.018761 0.018287
# 5 -0.001191 0.009985 0.004929 0.018761 0.027548 0.002807
# 6 0.002572 0.012771 0.003076 0.018287 0.002807 0.038655
#
#
# Mechanical properties :
#
#
# Convention : Reuss Voigt Hill
#
# Bulk Modulus (GPa) = 17.92104 45.37836 31.64970
# Shear Modulus (GPa) = 19.84366 34.41356 27.12861
#
# Velocity S-wave (km/s) = 2.93605 3.86650 3.43295
# Velocity P-wave (km/s) = 4.39079 6.29652 5.42795
#
# Compressibility (1/GPa) = 0.05580033
#
# Stress axis : x y z
#
# Youngs Moduli (GPa) = 98.40502 23.70973 72.17751
#
# Poissons Ratio (x) = 0.08751 0.04297
# Poissons Ratio (y) = 0.36320 0.06572
# Poissons Ratio (z) = 0.05858 0.02159
#
# Static dielectric constant tensor:
#      x y z
#    x 4.105990 -0.239510 -0.093580 
#    y -0.239510 3.830490 -0.109550 
#    z -0.093580 -0.109550 4.204110 
# 
# 
# High freq. dielectric constant tensor:
#      x y z
#    x 1.920250 -0.014970 -0.007090 
#    y -0.014970 1.887090 -0.005380 
#    z -0.007090 -0.005380 1.919460 
# 
# From -- ./inp_files/263437.got.cif
#   From: 2010.06.25/outbox.cif.g09.slc.cpg/sg2_132_cif.got.tgz:263437.got - 2010.06.27 13:26:56.
