data_PCOD8007062
_publ_section_title
;
Structure prediction by ZEFSAII (Michael W. Deem and Ramdas Pophale) SiO2 
 PCOD8007062
Probable space group: P -1
;
_chemical_formula_sum "Si O2"
_cell_formula_units_Z 16
_cell_length_a 9.088518
_cell_length_b 11.451703
_cell_length_c 8.525928
_cell_angle_alpha 73.909120
_cell_angle_beta 87.337261
_cell_angle_gamma 58.651051
_cell_volume 722.954413
_symmetry_space_group_name_H-M "P -1"
_symmetry_group_IT_number 2
_symmetry_cell_setting 'triclinic'
loop_
_space_group_symop_operation_xyz
x,y,z
-x,-y,-z
loop_
_atom_site_type_symbol
_atom_site_label
_atom_site_fract_x
_atom_site_fract_y
_atom_site_fract_z
Si Si1 0.294712 0.325185 0.645441
Si Si2 0.245517 0.668890 0.776341
Si Si3 0.195203 0.422021 0.952589
Si Si4 0.297360 0.580593 0.462531
Si Si5 0.922161 0.943846 0.651673
Si Si6 0.443882 0.787348 0.867195
Si Si7 0.322750 0.064382 0.571229
Si Si8 0.320903 0.800068 0.213354
O O1 0.189896 0.369242 0.797794
O O2 0.232987 0.468192 0.487790
O O3 0.258333 0.214623 0.603732
O O4 0.497886 0.255911 0.688312
O O5 0.267105 0.528246 0.906111
O O6 0.217849 0.670797 0.591008
O O7 0.411442 0.680939 0.803614
O O8 0.070557 0.809668 0.792398
O O9 0.346267 0.286138 0.096150
O O10 0.000000 0.500000 0.000000
O O11 0.500000 0.500000 0.500000
O O12 0.250130 0.691519 0.279796
O O13 0.812932 0.896816 0.573945
O O14 0.814266 0.051404 0.755718
O O15 0.000000 0.000000 0.500000
O O16 0.348007 0.944213 0.737404
O O17 0.343233 0.815297 0.024625
O O18 0.500000 0.000000 0.500000
#
# Coordination Sequence:
#
# PCOD8007062 Si02
#       8
#     2   2   2   2   2   2   2   2
#     4   9  21  41  65  97 130 176 225 264 337 398
#     4  11  23  44  65  97 134 174 223 269 324 406
#     4  10  24  44  67  99 137 173 213 284 339 383
#     4   9  18  37  66  89 128 173 220 266 322 391
#     4  12  23  43  69  97 134 170 227 273 327 389
#     4  11  25  43  68  98 132 178 226 265 338 401
#     4  12  25  44  70  98 131 180 226 273 332 403
#     4  10  20  40  66  98 130 176 215 282 327 389
#
# _framework density 22.131409000000001
#
# number of rings (size 3 to 8) (size 9 to 14) (size 15 to 20)
#    0.000    1.500    3.750    1.125    3.500    3.500 
#    2.250    3.750    0.000    0.000    0.000    0.000 
#    0.000    0.000    0.000    0.000    0.000    0.000 
#
# Total GULP energy -198298.276395 kJ/mol
# GULP energy per Si atom -12393.642275 kJ/mol
# Density = 2.208104 g / cm^3
# Si number density = 22.131409 Si / 1000 Ang^3
#
#
#
# Elastic Constant Matrix: (Units=GPa)
#
#
# Indices 1 2 3 4 5 6 
#
# 1 81.4995 34.2312 15.9431 10.7767 -1.0420 5.7573
# 2 34.2312 131.5650 31.0431 13.8802 -4.3134 9.2554
# 3 15.9431 31.0431 61.9017 -4.8988 -10.0918 3.5844
# 4 10.7767 13.8802 -4.8988 28.6823 -6.5359 -5.4533
# 5 -1.0420 -4.3134 -10.0918 -6.5359 28.9274 2.3460
# 6 5.7573 9.2554 3.5844 -5.4533 2.3460 50.4914
#
#
#
# Elastic Compliance Matrix: (Units=1/GPa)
#
#
# Indices 1 2 3 4 5 6 
#
# 1 0.014771 -0.002423 -0.003304 -0.005721 -0.002151 -0.001523
# 2 -0.002423 0.010059 -0.004983 -0.005462 -0.001419 -0.001738
# 3 -0.003304 -0.004983 0.021664 0.009427 0.008796 0.000362
# 4 -0.005721 -0.005462 0.009427 0.045010 0.012009 0.005288
# 5 -0.002151 -0.001419 0.008796 0.012009 0.040118 -0.000686
# 6 -0.001523 -0.001738 0.000362 0.005288 -0.000686 0.020875
#
#
# Mechanical properties :
#
#
# Convention : Reuss Voigt Hill
#
# Bulk Modulus (GPa) = 39.88538 48.60013 44.24275
# Shear Modulus (GPa) = 27.43095 34.53681 30.98388
#
# Velocity S-wave (km/s) = 3.52441 3.95464 3.74571
# Velocity P-wave (km/s) = 5.88415 6.54674 6.22426
#
# Compressibility (1/GPa) = 0.02507185
#
# Stress axis : x y z
#
# Youngs Moduli (GPa) = 67.70079 99.41173 46.15960
#
# Poissons Ratio (x) = 0.24090 0.15253
# Poissons Ratio (y) = 0.16405 0.23004
# Poissons Ratio (z) = 0.22371 0.49542
#
# Static dielectric constant tensor:
#      x y z
#    x 3.896880 0.247390 -0.198480 
#    y 0.247390 3.742730 -0.067940 
#    z -0.198480 -0.067940 3.807440 
# 
# 
# High freq. dielectric constant tensor:
#      x y z
#    x 1.860760 -0.001760 -0.013660 
#    y -0.001760 1.890100 0.000370 
#    z -0.013660 0.000370 1.859220 
# 
# From -- ./inp_files/177779.got.cif
#   From: 2010.06.25/outbox.cif.g09.slc.cpg/sg2_89_cif.got.tgz:177779.got - 2010.06.27 13:26:56.
