data_PCOD8007825
_publ_section_title
;
Structure prediction by ZEFSAII (Michael W. Deem and Ramdas Pophale) SiO2 
 PCOD8007825
Probable space group: P -1
;
_chemical_formula_sum "Si O2"
_cell_formula_units_Z 16
_cell_length_a 8.927553
_cell_length_b 12.544053
_cell_length_c 6.051615
_cell_angle_alpha 96.715540
_cell_angle_beta 77.975883
_cell_angle_gamma 78.756134
_cell_volume 641.286094
_symmetry_space_group_name_H-M "P -1"
_symmetry_group_IT_number 2
_symmetry_cell_setting 'triclinic'
loop_
_space_group_symop_operation_xyz
x,y,z
-x,-y,-z
loop_
_atom_site_type_symbol
_atom_site_label
_atom_site_fract_x
_atom_site_fract_y
_atom_site_fract_z
Si Si1 0.501716 0.717917 0.847165
Si Si2 0.252390 0.827760 0.304366
Si Si3 0.149609 0.025841 0.075285
Si Si4 0.584205 0.076868 0.348444
Si Si5 0.998393 0.250824 0.375437
Si Si6 0.204432 0.443131 0.075240
Si Si7 0.892350 0.573275 0.364329
Si Si8 0.269115 0.594541 0.749255
O O1 0.527861 0.830542 0.750285
O O2 0.428178 0.639196 0.682027
O O3 0.370959 0.747808 0.086716
O O4 0.664169 0.652139 0.880408
O O5 0.333903 0.845637 0.512017
O O6 0.104484 0.775988 0.394060
O O7 0.192087 0.947658 0.251981
O O8 0.293824 0.008792 0.857489
O O9 0.115405 0.148394 0.205576
O O10 0.000000 0.000000 0.000000
O O11 0.500000 0.000000 0.500000
O O12 0.883820 0.308347 0.228290
O O13 0.118439 0.320478 0.453907
O O14 0.123784 0.390934 0.882413
O O15 0.267822 0.547667 0.990360
O O16 0.067248 0.487916 0.312411
O O17 0.250085 0.492617 0.565442
#
# Coordination Sequence:
#
# PCOD8007825 Si02
#       8
#     2   2   2   2   2   2   2   2
#     4  11  22  45  78 104 149 210 240 304 389 441
#     4  11  24  45  70 111 149 188 256 308 373 453
#     4  11  24  46  77 110 142 194 258 309 375 449
#     4  11  26  52  71 109 152 190 256 323 372 454
#     4  12  21  42  74 111 150 200 242 311 381 438
#     4   9  21  44  65 106 156 191 250 305 368 445
#     4   9  22  41  66 109 158 185 250 312 359 441
#     4  10  20  41  69 105 152 188 249 306 350 447
#
# _framework density 24.949864000000002
#
# number of rings (size 3 to 8) (size 9 to 14) (size 15 to 20)
#    0.750    0.750    2.500    2.625    0.000    2.000 
#    9.000    1.250    0.000    0.000    0.000    0.875 
#    0.000    0.000    0.000    0.000    0.000    0.000 
#
# Total GULP energy -198298.254782 kJ/mol
# GULP energy per Si atom -12393.640924 kJ/mol
# Density = 2.489308 g / cm^3
# Si number density = 24.949864 Si / 1000 Ang^3
#
#
#
# Elastic Constant Matrix: (Units=GPa)
#
#
# Indices 1 2 3 4 5 6 
#
# 1 107.9242 90.4439 53.3313 12.1538 4.6057 -4.8461
# 2 90.4439 182.1649 82.3620 -3.0172 -8.1116 -5.8833
# 3 53.3313 82.3620 112.9378 -2.6772 -5.2975 -0.4979
# 4 12.1538 -3.0172 -2.6772 43.5094 17.0936 2.4276
# 5 4.6057 -8.1116 -5.2975 17.0936 42.9826 -4.5168
# 6 -4.8461 -5.8833 -0.4979 2.4276 -4.5168 49.4743
#
#
#
# Elastic Compliance Matrix: (Units=1/GPa)
#
#
# Indices 1 2 3 4 5 6 
#
# 1 0.017832 -0.007587 -0.003079 -0.005124 -0.001587 0.000920
# 2 -0.007587 0.011498 -0.004674 0.001922 0.001710 0.000639
# 3 -0.003079 -0.004674 0.013770 0.001190 0.000596 -0.000723
# 4 -0.005124 0.001922 0.001190 0.028994 -0.010752 -0.002666
# 5 -0.001587 0.001710 0.000596 -0.010752 0.028442 0.003178
# 6 0.000920 0.000639 -0.000723 -0.002666 0.003178 0.020792
#
#
# Mechanical properties :
#
#
# Convention : Reuss Voigt Hill
#
# Bulk Modulus (GPa) = 80.51962 95.03350 87.77656
# Shear Modulus (GPa) = 32.02069 38.98591 35.50330
#
# Velocity S-wave (km/s) = 3.58635 3.95722 3.77634
# Velocity P-wave (km/s) = 7.03504 7.68453 7.36695
#
# Compressibility (1/GPa) = 0.01241933
#
# Stress axis : x y z
#
# Youngs Moduli (GPa) = 56.08006 86.96972 72.62041
#
# Poissons Ratio (x) = 0.65983 0.22363
# Poissons Ratio (y) = 0.42547 0.33943
# Poissons Ratio (z) = 0.17270 0.40650
#
# Static dielectric constant tensor:
#      x y z
#    x 4.478710 -0.178490 -0.032890 
#    y -0.178490 5.127850 0.243810 
#    z -0.032890 0.243810 4.932050 
# 
# 
# High freq. dielectric constant tensor:
#      x y z
#    x 1.989990 0.002840 0.010830 
#    y 0.002840 2.006730 -0.017450 
#    z 0.010830 -0.017450 2.002380 
# 
# From -- ./inp_files/39265.got.cif
#   From: 2010.06.25/outbox.cif.g09.slc.cpg/sg2_20_cif.got.tgz:39265.got - 2010.06.27 13:26:56.
