data_PCOD8007939
_publ_section_title
;
Structure prediction by ZEFSAII (Michael W. Deem and Ramdas Pophale) SiO2 
 PCOD8007939
Probable space group: P -1
;
_chemical_formula_sum "Si O2"
_cell_formula_units_Z 16
_cell_length_a 11.672794
_cell_length_b 9.373291
_cell_length_c 14.026224
_cell_angle_alpha 118.989588
_cell_angle_beta 148.147962
_cell_angle_gamma 68.963292
_cell_volume 703.770706
_symmetry_space_group_name_H-M "P -1"
_symmetry_group_IT_number 2
_symmetry_cell_setting 'triclinic'
loop_
_space_group_symop_operation_xyz
x,y,z
-x,-y,-z
loop_
_atom_site_type_symbol
_atom_site_label
_atom_site_fract_x
_atom_site_fract_y
_atom_site_fract_z
Si Si1 0.031030 0.303889 0.703022
Si Si2 0.041981 0.672324 0.901057
Si Si3 0.221543 0.312569 0.099635
Si Si4 0.567046 0.827650 0.956157
Si Si5 0.800231 0.181336 0.667595
Si Si6 0.440415 0.656796 0.311006
Si Si7 0.100353 0.676818 0.593291
Si Si8 0.099802 0.172511 0.330996
O O1 0.010302 0.275711 0.567338
O O2 0.021324 0.493435 0.782107
O O3 0.824860 0.194433 0.574607
O O4 0.256617 0.238154 0.870533
O O5 0.833596 0.698279 0.830666
O O6 0.032205 0.802057 0.850840
O O7 0.273942 0.711814 0.131061
O O8 0.331550 0.161174 0.077494
O O9 0.389950 0.468109 0.241822
O O10 0.989991 0.322828 0.885796
O O11 0.360251 0.688429 0.768046
O O12 0.500000 0.000000 0.000000
O O13 0.576597 0.235297 0.568951
O O14 0.829091 0.007701 0.677377
O O15 0.688927 0.691865 0.463517
O O16 0.054275 0.812328 0.682447
O O17 0.000000 0.500000 0.500000
#
# Coordination Sequence:
#
# PCOD8007939 Si02
#       8
#     2   2   2   2   2   2   2   2
#     4  11  23  45  74  91 129 181 223 268 328 387
#     4  11  22  42  71  98 127 173 219 274 330 379
#     4  10  20  41  73  96 124 174 225 260 322 405
#     4  11  25  44  68 100 134 172 220 272 324 389
#     4  10  21  43  67  97 134 166 214 283 330 380
#     4  11  21  42  70  98 127 174 218 266 330 400
#     4  12  26  43  65  99 131 175 228 263 318 402
#     4  12  27  40  62 102 140 163 218 281 326 382
#
# _framework density 22.734677999999999
#
# number of rings (size 3 to 8) (size 9 to 14) (size 15 to 20)
#    0.000    1.000    5.000    3.375    0.000    7.000 
#    0.000    3.750    0.000    0.000    0.000    0.000 
#    0.000    0.000    0.000    0.000    0.000    0.000 
#
# Total GULP energy -198344.024906 kJ/mol
# GULP energy per Si atom -12396.501557 kJ/mol
# Density = 2.268293 g / cm^3
# Si number density = 22.734678 Si / 1000 Ang^3
#
#
#
# Elastic Constant Matrix: (Units=GPa)
#
#
# Indices 1 2 3 4 5 6 
#
# 1 159.5875 33.5478 30.7717 -25.6764 -13.5127 -2.4666
# 2 33.5478 83.0799 -0.3413 -10.3047 -20.0395 2.2155
# 3 30.7717 -0.3413 72.9859 -14.1652 -1.3865 13.8525
# 4 -25.6764 -10.3047 -14.1652 23.6561 3.3512 -1.3962
# 5 -13.5127 -20.0395 -1.3865 3.3512 26.8895 -1.4743
# 6 -2.4666 2.2155 13.8525 -1.3962 -1.4743 42.7270
#
#
#
# Elastic Compliance Matrix: (Units=1/GPa)
#
#
# Indices 1 2 3 4 5 6 
#
# 1 0.008461 -0.002252 -0.002611 0.006497 0.001724 0.001724
# 2 -0.002252 0.016018 0.002299 0.004378 0.010313 -0.001207
# 3 -0.002611 0.002299 0.017504 0.008320 -0.000044 -0.005675
# 4 0.006497 0.004378 0.008320 0.056182 -0.000085 -0.000716
# 5 0.001724 0.010313 -0.000044 -0.000085 0.045813 0.001157
# 6 0.001724 -0.001207 -0.005675 -0.000716 0.001157 0.025423
#
#
# Mechanical properties :
#
#
# Convention : Reuss Voigt Hill
#
# Bulk Modulus (GPa) = 27.13355 49.28997 38.21176
# Shear Modulus (GPa) = 26.76468 35.43286 31.09877
#
# Velocity S-wave (km/s) = 3.43485 3.95212 3.70253
# Velocity P-wave (km/s) = 5.26229 6.52328 5.92642
#
# Compressibility (1/GPa) = 0.03685475
#
# Stress axis : x y z
#
# Youngs Moduli (GPa) = 118.19191 62.43002 57.13032
#
# Poissons Ratio (x) = 0.14056 0.14918
# Poissons Ratio (y) = 0.26611 -0.13133
# Poissons Ratio (z) = 0.30863 -0.14352
#
# Static dielectric constant tensor:
#      x y z
#    x 4.676800 -0.049490 0.046690 
#    y -0.049490 3.916480 0.034480 
#    z 0.046690 0.034480 3.994240 
# 
# 
# High freq. dielectric constant tensor:
#      x y z
#    x 1.919740 -0.009730 0.005010 
#    y -0.009730 1.886930 0.006100 
#    z 0.005010 0.006100 1.880820 
# 
# From -- ./inp_files/283392.got.cif
#   From: 2010.06.25/outbox.cif.g09.slc.cpg/sg2_142_cif.got.tgz:283392.got - 2010.06.27 13:26:56.
