data_PCOD8007384
_publ_section_title
;
Structure prediction by ZEFSAII (Michael W. Deem and Ramdas Pophale) SiO2 
 PCOD8007384
Probable space group: P -1
;
_chemical_formula_sum "Si O2"
_cell_formula_units_Z 14
_cell_length_a 9.473211
_cell_length_b 27.523807
_cell_length_c 9.469454
_cell_angle_alpha 143.560081
_cell_angle_beta 48.319338
_cell_angle_gamma 150.710986
_cell_volume 711.734795
_symmetry_space_group_name_H-M "P -1"
_symmetry_group_IT_number 2
_symmetry_cell_setting 'triclinic'
loop_
_space_group_symop_operation_xyz
x,y,z
-x,-y,-z
loop_
_atom_site_type_symbol
_atom_site_label
_atom_site_fract_x
_atom_site_fract_y
_atom_site_fract_z
Si Si1 0.550427 0.880659 0.943331
Si Si2 0.651808 0.477938 0.266751
Si Si3 0.903157 0.140140 0.738429
Si Si4 0.851912 0.956696 0.199995
Si Si5 0.524759 0.582413 0.068348
Si Si6 0.286936 0.674066 0.428688
Si Si7 0.322928 0.209399 0.821696
O O1 0.311080 0.746824 0.709501
O O2 0.408559 0.921639 0.168178
O O3 0.642984 0.869134 0.002028
O O4 0.837020 0.983797 0.896456
O O5 0.500000 0.500000 0.500000
O O6 0.978004 0.576056 0.331210
O O7 0.634108 0.494016 0.150672
O O8 0.493951 0.340759 0.085420
O O9 0.135323 0.284879 0.871127
O O10 0.005548 0.134424 0.805425
O O11 0.879518 0.063458 0.453060
O O12 0.704444 0.871569 0.237895
O O13 0.355748 0.607603 0.295020
O O14 0.500000 0.500000 0.000000
O O15 0.519143 0.771324 0.379334
#
# Coordination Sequence:
#
# PCOD8007384 Si02
#       7
#     2   2   2   2   2   2   2
#     4  11  23  39  64  85 123 160 197 250 299 351
#     4  10  21  40  59  91 121 157 202 247 295 364
#     4  10  21  41  61  88 123 155 199 248 300 354
#     4  11  23  42  59  89 123 156 204 246 300 352
#     4  10  21  38  63  90 121 156 199 248 303 355
#     4  10  20  41  62  85 123 159 198 249 303 352
#     4  10  21  39  63  86 121 157 198 248 298 357
#
# _framework density 19.670247
#
# number of rings (size 3 to 8) (size 9 to 14) (size 15 to 20)
#    0.000    2.000    2.857    4.286    0.000    4.000 
#    2.571    2.143    0.000    0.000    0.000    0.000 
#    0.000    0.000    0.000    0.000    0.000    0.000 
#
# Total GULP energy -173576.728993 kJ/mol
# GULP energy per Si atom -12398.337785 kJ/mol
# Density = 1.962548 g / cm^3
# Si number density = 19.670247 Si / 1000 Ang^3
#
#
#
# Elastic Constant Matrix: (Units=GPa)
#
#
# Indices 1 2 3 4 5 6 
#
# 1 108.8178 61.5956 44.2903 3.3674 2.3054 -0.0656
# 2 61.5956 72.8655 46.5637 -3.1496 -6.8926 5.9500
# 3 44.2903 46.5637 105.7279 -0.6923 6.5428 5.9119
# 4 3.3674 -3.1496 -0.6923 27.0968 16.1944 -6.1014
# 5 2.3054 -6.8926 6.5428 16.1944 31.4392 -2.2081
# 6 -0.0656 5.9500 5.9119 -6.1014 -2.2081 43.7910
#
#
#
# Elastic Compliance Matrix: (Units=1/GPa)
#
#
# Indices 1 2 3 4 5 6 
#
# 1 0.018549 -0.015820 -0.000683 -0.001470 -0.003798 0.001873
# 2 -0.015820 0.033995 -0.008867 -0.001633 0.011081 -0.003114
# 3 -0.000683 -0.008867 0.014105 0.003169 -0.006503 -0.000587
# 4 -0.001470 -0.001633 0.003169 0.055825 -0.029237 0.006096
# 5 -0.003798 0.011081 -0.006503 -0.029237 0.050778 -0.002146
# 6 0.001873 -0.003114 -0.000587 0.006096 -0.002146 0.024082
#
#
# Mechanical properties :
#
#
# Convention : Reuss Voigt Hill
#
# Bulk Modulus (GPa) = 62.85011 65.81225 64.33118
# Shear Modulus (GPa) = 19.73347 29.46286 24.59817
#
# Velocity S-wave (km/s) = 3.17079 3.87439 3.54011
# Velocity P-wave (km/s) = 6.73992 7.31744 7.03461
#
# Compressibility (1/GPa) = 0.01591087
#
# Stress axis : x y z
#
# Youngs Moduli (GPa) = 53.91044 29.41594 70.89538
#
# Poissons Ratio (x) = 0.46536 0.04839
# Poissons Ratio (y) = 0.85286 0.62863
# Poissons Ratio (z) = 0.03680 0.26083
#
# Static dielectric constant tensor:
#      x y z
#    x 3.424460 0.085470 0.144250 
#    y 0.085470 3.185650 0.071390 
#    z 0.144250 0.071390 3.744160 
# 
# 
# High freq. dielectric constant tensor:
#      x y z
#    x 1.764670 0.021960 0.008860 
#    y 0.021960 1.749110 0.000090 
#    z 0.008860 0.000090 1.780660 
# 
# From -- ./inp_files/178334.got.cif
#   From: 2010.06.25/outbox.cif.g09.slc.cpg/sg2_90_cif.got.tgz:178334.got - 2010.06.27 13:26:56.
