data_PCOD8007870
_publ_section_title
;
Structure prediction by ZEFSAII (Michael W. Deem and Ramdas Pophale) SiO2 
 PCOD8007870
Probable space group: P -1
;
_chemical_formula_sum "Si O2"
_cell_formula_units_Z 12
_cell_length_a 9.023832
_cell_length_b 12.535059
_cell_length_c 15.774262
_cell_angle_alpha 140.551450
_cell_angle_beta 151.501324
_cell_angle_gamma 46.303436
_cell_volume 540.499415
_symmetry_space_group_name_H-M "P -1"
_symmetry_group_IT_number 2
_symmetry_cell_setting 'triclinic'
loop_
_space_group_symop_operation_xyz
x,y,z
-x,-y,-z
loop_
_atom_site_type_symbol
_atom_site_label
_atom_site_fract_x
_atom_site_fract_y
_atom_site_fract_z
Si Si1 0.013780 0.412610 0.656167
Si Si2 0.150568 0.963455 0.642220
Si Si3 0.700480 0.148981 0.659438
Si Si4 0.834263 0.633143 0.559552
Si Si5 0.758644 0.125438 0.998072
Si Si6 0.696178 0.343798 0.936790
O O1 0.346187 0.399136 0.765097
O O2 0.852177 0.236054 0.468641
O O3 0.780037 0.539363 0.564603
O O4 0.086076 0.498532 0.837043
O O5 0.499675 0.021290 0.850603
O O6 0.000000 0.000000 0.500000
O O7 0.975168 0.070403 0.692417
O O8 0.494245 0.287077 0.588144
O O9 0.849558 0.236582 0.871032
O O10 0.500000 0.000000 0.500000
O O11 0.000000 0.500000 0.500000
O O12 0.075862 0.778894 0.784348
O O13 0.631679 0.244002 0.930702
O O14 0.000000 0.000000 0.000000
#
# Coordination Sequence:
#
# PCOD8007870 Si02
#       6
#     2   2   2   2   2   2
#     4  10  21  40  69  93 132 177 214 264 329 387
#     4  12  23  42  69  98 132 172 224 269 326 392
#     4  12  22  41  69 102 129 171 219 272 327 386
#     4  11  22  41  67  96 133 171 215 268 329 384
#     4  11  24  44  68  95 129 176 222 271 327 386
#     4  10  20  41  70  92 131 175 216 263 332 387
#
# _framework density 22.201691
#
# number of rings (size 3 to 8) (size 9 to 14) (size 15 to 20)
#    0.000    1.000    5.000    2.000    0.000    0.000 
#    0.000   20.000    0.000    0.000    0.000    0.000 
#    0.000    0.000    0.000    0.000    0.000    0.000 
#
# Total GULP energy -148757.041133 kJ/mol
# GULP energy per Si atom -12396.420094 kJ/mol
# Density = 2.215116 g / cm^3
# Si number density = 22.201691 Si / 1000 Ang^3
#
#
#
# Elastic Constant Matrix: (Units=GPa)
#
#
# Indices 1 2 3 4 5 6 
#
# 1 135.0520 36.9090 74.0723 21.5051 -6.7027 -28.0092
# 2 36.9090 111.5314 47.5813 20.6450 8.1494 -7.2084
# 3 74.0723 47.5813 143.7183 39.4271 -9.1873 -17.2666
# 4 21.5051 20.6450 39.4271 38.4875 -6.4924 -10.1723
# 5 -6.7027 8.1494 -9.1873 -6.4924 40.6936 5.0245
# 6 -28.0092 -7.2084 -17.2666 -10.1723 5.0245 33.2656
#
#
#
# Elastic Compliance Matrix: (Units=1/GPa)
#
#
# Indices 1 2 3 4 5 6 
#
# 1 0.011992 -0.001603 -0.005124 0.001458 0.000450 0.007468
# 2 -0.001603 0.011344 -0.002224 -0.003677 -0.003546 -0.000634
# 3 -0.005124 -0.002224 0.012781 -0.009140 0.001169 -0.001134
# 4 0.001458 -0.003677 -0.009140 0.039073 0.004284 0.006988
# 5 0.000450 -0.003546 0.001169 0.004284 0.026613 -0.002493
# 6 0.007468 -0.000634 -0.001134 0.006988 -0.002493 0.038137
#
#
# Mechanical properties :
#
#
# Convention : Reuss Voigt Hill
#
# Bulk Modulus (GPa) = 54.89636 78.60298 66.74967
# Shear Modulus (GPa) = 30.50413 37.93861 34.22137
#
# Velocity S-wave (km/s) = 3.71071 4.13827 3.93031
# Velocity P-wave (km/s) = 6.56803 7.63640 7.12228
#
# Compressibility (1/GPa) = 0.01821614
#
# Stress axis : x y z
#
# Youngs Moduli (GPa) = 83.38949 88.15291 78.24067
#
# Poissons Ratio (x) = 0.14127 0.40091
# Poissons Ratio (y) = 0.13363 0.17399
# Poissons Ratio (z) = 0.42729 0.19604
#
# Static dielectric constant tensor:
#      x y z
#    x -4.472040 -2.553880 -4.178980 
#    y -2.553880 3.730970 -0.973660 
#    z -4.178980 -0.973660 2.405430 
# 
# 
# High freq. dielectric constant tensor:
#      x y z
#    x 1.852160 -0.004950 -0.027220 
#    y -0.004950 1.892690 0.011150 
#    z -0.027220 0.011150 1.877610 
# 
# From -- ./inp_files/152417.got.cif
#   From: 2010.06.25/outbox.cif.g09.slc.cpg/sg2_77_cif.got.tgz:152417.got - 2010.06.27 13:26:56.
