data_PCOD8007303
_publ_section_title
;
Structure prediction by ZEFSAII (Michael W. Deem and Ramdas Pophale) SiO2 
 PCOD8007303
Probable space group: P -1
;
_chemical_formula_sum "Si O2"
_cell_formula_units_Z 16
_cell_length_a 22.300419
_cell_length_b 18.810935
_cell_length_c 11.652871
_cell_angle_alpha 155.396267
_cell_angle_beta 26.942974
_cell_angle_gamma 161.622328
_cell_volume 626.215430
_symmetry_space_group_name_H-M "P -1"
_symmetry_group_IT_number 2
_symmetry_cell_setting 'triclinic'
loop_
_space_group_symop_operation_xyz
x,y,z
-x,-y,-z
loop_
_atom_site_type_symbol
_atom_site_label
_atom_site_fract_x
_atom_site_fract_y
_atom_site_fract_z
Si Si1 0.115151 0.225671 0.989755
Si Si2 0.845247 0.758135 0.485692
Si Si3 0.085621 0.842724 0.402250
Si Si4 0.100358 0.503177 0.592108
Si Si5 0.474202 0.010693 0.412371
Si Si6 0.085852 0.739067 0.771589
Si Si7 0.529216 0.702559 0.940357
Si Si8 0.510341 0.252885 0.174321
O O1 0.347069 0.432921 0.908921
O O2 0.040970 0.962057 0.738837
O O3 0.024663 0.275365 0.306520
O O4 0.054638 0.232838 0.973837
O O5 0.726252 0.810081 0.818839
O O6 0.685108 0.491333 0.302202
O O7 0.949312 0.734519 0.364937
O O8 0.000000 0.000000 0.500000
O O9 0.016025 0.612908 0.258795
O O10 0.312260 0.041974 0.276288
O O11 0.078057 0.673000 0.822747
O O12 0.330183 0.693400 0.503128
O O13 0.303013 0.974503 0.693810
O O14 0.504180 0.883460 0.269082
O O15 0.423607 0.870219 0.170356
O O16 0.000000 0.500000 0.500000
O O17 0.538080 0.672632 0.743833
#
# Coordination Sequence:
#
# PCOD8007303 Si02
#       8
#     2   2   2   2   2   2   2   2
#     4  11  23  43  72  99 132 180 234 281 338 403
#     4  12  22  40  70 104 134 179 232 277 339 407
#     4  12  26  44  68 103 145 180 222 282 358 403
#     4  11  24  44  65 100 144 182 220 287 343 411
#     4  10  22  41  71  95 132 176 231 283 336 398
#     4  10  20  42  69  98 126 179 235 272 335 405
#     4  10  20  40  71  97 133 167 232 293 321 393
#     4  10  22  44  65 103 137 175 224 293 336 397
#
# _framework density 25.550312000000002
#
# number of rings (size 3 to 8) (size 9 to 14) (size 15 to 20)
#    0.750    0.500    5.000    1.875    1.750    0.500 
#   13.500    1.875    0.000    0.000    0.000    0.000 
#    0.000    0.000    0.000    0.000    0.000    0.000 
#
# Total GULP energy -198265.838688 kJ/mol
# GULP energy per Si atom -12391.614918 kJ/mol
# Density = 2.549216 g / cm^3
# Si number density = 25.550312 Si / 1000 Ang^3
#
#
#
# Elastic Constant Matrix: (Units=GPa)
#
#
# Indices 1 2 3 4 5 6 
#
# 1 106.8025 71.9692 19.1499 -6.5941 -3.9441 -9.0850
# 2 71.9692 138.8579 11.2817 -9.3760 -3.8592 11.0653
# 3 19.1499 11.2817 83.9207 -4.7647 0.5376 3.6274
# 4 -6.5941 -9.3760 -4.7647 30.5665 7.1041 1.0552
# 5 -3.9441 -3.8592 0.5376 7.1041 27.4805 3.7570
# 6 -9.0850 11.0653 3.6274 1.0552 3.7570 45.2911
#
#
#
# Elastic Compliance Matrix: (Units=1/GPa)
#
#
# Indices 1 2 3 4 5 6 
#
# 1 0.016104 -0.008541 -0.002759 0.000147 0.000375 0.005503
# 2 -0.008541 0.012112 0.000639 0.001998 0.000605 -0.004820
# 3 -0.002759 0.000639 0.012641 0.001814 -0.000790 -0.001698
# 4 0.000147 0.001998 0.001814 0.035730 -0.008875 -0.000700
# 5 0.000375 0.000605 -0.000790 -0.008875 0.039256 -0.003059
# 6 0.005503 -0.004820 -0.001698 -0.000700 -0.003059 0.024767
#
#
# Mechanical properties :
#
#
# Convention : Reuss Voigt Hill
#
# Bulk Modulus (GPa) = 51.18789 59.37587 55.28188
# Shear Modulus (GPa) = 29.68363 35.81298 32.74831
#
# Velocity S-wave (km/s) = 3.41218 3.74794 3.58399
# Velocity P-wave (km/s) = 5.96670 6.48218 6.22978
#
# Compressibility (1/GPa) = 0.01953587
#
# Stress axis : x y z
#
# Youngs Moduli (GPa) = 62.09699 82.56210 79.10711
#
# Poissons Ratio (x) = 0.70513 0.21822
# Poissons Ratio (y) = 0.53034 -0.05051
# Poissons Ratio (z) = 0.17130 -0.05272
#
# Static dielectric constant tensor:
#      x y z
#    x 3.537710 0.146850 0.700980 
#    y 0.146850 4.540280 0.231920 
#    z 0.700980 0.231920 4.764820 
# 
# 
# High freq. dielectric constant tensor:
#      x y z
#    x 1.991670 0.029800 0.026850 
#    y 0.029800 2.026480 0.007380 
#    z 0.026850 0.007380 2.033190 
# 
# From -- ./inp_files/472464.got.cif
#   From: 2010.06.25/outbox.cif.g09.slc.cpg/sg2_237_cif.got.tgz:472464.got - 2010.06.27 13:26:56.
