data_PCOD8007015
_publ_section_title
;
Structure prediction by ZEFSAII (Michael W. Deem and Ramdas Pophale) SiO2 
 PCOD8007015
Probable space group: P -1
;
_chemical_formula_sum "Si O2"
_cell_formula_units_Z 16
_cell_length_a 8.566481
_cell_length_b 21.522654
_cell_length_c 8.561973
_cell_angle_alpha 118.948440
_cell_angle_beta 126.069975
_cell_angle_gamma 37.142979
_cell_volume 770.095395
_symmetry_space_group_name_H-M "P -1"
_symmetry_group_IT_number 2
_symmetry_cell_setting 'triclinic'
loop_
_space_group_symop_operation_xyz
x,y,z
-x,-y,-z
loop_
_atom_site_type_symbol
_atom_site_label
_atom_site_fract_x
_atom_site_fract_y
_atom_site_fract_z
Si Si1 0.160940 0.823666 0.995901
Si Si2 0.643678 0.751587 0.638771
Si Si3 0.752406 0.364195 0.125210
Si Si4 0.364424 0.278904 0.065248
Si Si5 0.742777 0.411010 0.825149
Si Si6 0.190439 0.927144 0.382601
Si Si7 0.819659 0.931795 0.631228
Si Si8 0.329915 0.714169 0.529012
O O1 0.221879 0.724992 0.933376
O O2 0.430129 0.794719 0.046542
O O3 0.894883 0.902568 0.821797
O O4 0.100824 0.875542 0.191134
O O5 0.602333 0.783514 0.839723
O O6 0.500992 0.841986 0.539458
O O7 0.494468 0.713386 0.485597
O O8 0.974160 0.664527 0.691769
O O9 0.489340 0.466621 0.188415
O O10 0.706885 0.384967 0.940037
O O11 0.477684 0.326059 0.250727
O O12 0.046129 0.366236 0.925508
O O13 0.699864 0.360817 0.611688
O O14 0.151294 0.993833 0.304010
O O15 0.000000 0.000000 0.500000
O O16 0.021331 0.829983 0.516920
O O17 0.500000 0.000000 0.500000
#
# Coordination Sequence:
#
# PCOD8007015 Si02
#       8
#     2   2   2   2   2   2   2   2
#     4  11  23  42  61  92 130 159 201 273 307 368
#     4   9  19  41  61  88 128 160 207 257 298 378
#     4  10  22  38  63  94 126 156 216 252 314 374
#     4   8  20  40  62  89 127 163 204 252 316 364
#     4  10  20  40  66  93 120 170 208 255 310 382
#     4  12  22  40  63  91 120 167 209 247 315 373
#     4  11  24  41  63  91 124 162 211 254 316 376
#     4   9  19  39  62  87 126 159 203 257 303 358
#
# _framework density 20.776647000000001
#
# number of rings (size 3 to 8) (size 9 to 14) (size 15 to 20)
#    0.750    1.250    1.250    1.875    1.750    1.000 
#    4.500    3.750    0.000    0.000    0.000    0.000 
#    0.000    0.000    0.000    0.000    0.000    0.000 
#
# Total GULP energy -198212.858977 kJ/mol
# GULP energy per Si atom -12388.303686 kJ/mol
# Density = 2.072936 g / cm^3
# Si number density = 20.776647 Si / 1000 Ang^3
#
#
#
# Elastic Constant Matrix: (Units=GPa)
#
#
# Indices 1 2 3 4 5 6 
#
# 1 72.0760 54.1072 44.2633 -3.3538 17.5893 -12.2386
# 2 54.1072 127.6600 84.3320 -1.9597 16.9998 -5.4393
# 3 44.2633 84.3320 123.3300 4.5662 14.5407 -14.6208
# 4 -3.3538 -1.9597 4.5662 31.7822 1.6331 2.9980
# 5 17.5893 16.9998 14.5407 1.6331 30.5287 -11.2292
# 6 -12.2386 -5.4393 -14.6208 2.9980 -11.2292 36.3979
#
#
#
# Elastic Compliance Matrix: (Units=1/GPa)
#
#
# Indices 1 2 3 4 5 6 
#
# 1 0.023039 -0.007183 -0.002204 0.002348 -0.007098 0.003405
# 2 -0.007183 0.017501 -0.009702 0.002312 -0.002864 -0.004771
# 3 -0.002204 -0.009702 0.016134 -0.003661 0.000985 0.004895
# 4 0.002348 0.002312 -0.003661 0.033012 -0.004271 -0.004372
# 5 -0.007098 -0.002864 0.000985 -0.004271 0.042232 0.010962
# 6 0.003405 -0.004771 0.004895 -0.004372 0.010962 0.033614
#
#
# Mechanical properties :
#
#
# Convention : Reuss Voigt Hill
#
# Bulk Modulus (GPa) = 54.06712 76.49676 65.28194
# Shear Modulus (GPa) = 23.82361 29.09933 26.46147
#
# Velocity S-wave (km/s) = 3.38990 3.74649 3.57265
# Velocity P-wave (km/s) = 6.43439 7.45744 6.96473
#
# Compressibility (1/GPa) = 0.01849553
#
# Stress axis : x y z
#
# Youngs Moduli (GPa) = 43.40387 57.14037 61.98280
#
# Poissons Ratio (x) = 0.41043 0.13659
# Poissons Ratio (y) = 0.31177 0.60139
# Poissons Ratio (z) = 0.09565 0.55440
#
# Static dielectric constant tensor:
#      x y z
#    x 3.626440 -0.171370 -0.046770 
#    y -0.171370 3.630730 -0.216690 
#    z -0.046770 -0.216690 3.668000 
# 
# 
# High freq. dielectric constant tensor:
#      x y z
#    x 1.807250 -0.005740 0.001530 
#    y -0.005740 1.799880 -0.017310 
#    z 0.001530 -0.017310 1.806950 
# 
# From -- ./inp_files/223908.got.cif
#   From: 2010.06.25/outbox.cif.g09.slc.cpg/sg2_112_cif.got.tgz:223908.got - 2010.06.27 13:26:56.
