data_PCOD8007483
_publ_section_title
;
Structure prediction by ZEFSAII (Michael W. Deem and Ramdas Pophale) SiO2 
 PCOD8007483
Probable space group: P -1
;
_chemical_formula_sum "Si O2"
_cell_formula_units_Z 16
_cell_length_a 16.412340
_cell_length_b 10.058449
_cell_length_c 12.926665
_cell_angle_alpha 78.870660
_cell_angle_beta 26.253237
_cell_angle_gamma 63.388227
_cell_volume 716.844613
_symmetry_space_group_name_H-M "P -1"
_symmetry_group_IT_number 2
_symmetry_cell_setting 'triclinic'
loop_
_space_group_symop_operation_xyz
x,y,z
-x,-y,-z
loop_
_atom_site_type_symbol
_atom_site_label
_atom_site_fract_x
_atom_site_fract_y
_atom_site_fract_z
Si Si1 0.212830 0.306559 0.749818
Si Si2 0.334694 0.301765 0.079811
Si Si3 0.731314 0.164523 0.796233
Si Si4 0.383057 0.798671 0.551714
Si Si5 0.130076 0.602805 0.423638
Si Si6 0.583732 0.643761 0.687220
Si Si7 0.995381 0.827627 0.108907
Si Si8 0.367355 0.491447 0.844995
O O1 0.408136 0.210488 0.632170
O O2 0.332382 0.294356 0.506683
O O3 0.104832 0.207406 0.871119
O O4 0.000000 0.500000 0.000000
O O5 0.204998 0.487580 0.254242
O O6 0.159914 0.251828 0.274890
O O7 0.572758 0.154357 0.895143
O O8 0.376532 0.340948 0.912380
O O9 0.724185 0.326240 0.751784
O O10 0.631822 0.190718 0.022609
O O11 0.000000 0.000000 0.500000
O O12 0.488814 0.614208 0.406539
O O13 0.223165 0.973415 0.633715
O O14 0.214892 0.821863 0.831012
O O15 0.195324 0.486778 0.468645
O O16 0.509610 0.536376 0.739222
O O17 0.099286 0.672938 0.098952
#
# Coordination Sequence:
#
# PCOD8007483 Si02
#       8
#     2   2   2   2   2   2   2   2
#     4  12  23  43  69  94 130 174 219 271 326 385
#     4  10  21  39  66  89 120 164 214 262 317 389
#     4  11  23  43  63  95 134 166 209 273 327 384
#     4  11  25  42  63  97 130 171 224 267 327 386
#     4  10  20  41  64  90 121 162 217 265 313 382
#     4  11  22  41  69  92 125 174 218 263 328 390
#     4  11  24  43  64  90 134 171 214 280 319 380
#     4  12  20  41  66  92 129 173 214 263 329 386
#
# _framework density 22.320039999999999
#
# number of rings (size 3 to 8) (size 9 to 14) (size 15 to 20)
#    0.000    1.000    5.000    3.000    0.000    1.500 
#    2.250    0.000    0.000    0.000    0.000    0.000 
#    0.000    0.000    0.000    0.000    0.000    0.000 
#
# Total GULP energy -198289.098959 kJ/mol
# GULP energy per Si atom -12393.068685 kJ/mol
# Density = 2.226924 g / cm^3
# Si number density = 22.320040 Si / 1000 Ang^3
#
#
#
# Elastic Constant Matrix: (Units=GPa)
#
#
# Indices 1 2 3 4 5 6 
#
# 1 79.9353 6.3667 40.8894 11.1984 -12.6305 -0.3290
# 2 6.3667 43.9735 25.2466 17.1001 9.8153 -7.6660
# 3 40.8894 25.2466 119.3752 21.8156 -15.9479 -9.4365
# 4 11.1984 17.1001 21.8156 37.6576 -0.3223 -4.8459
# 5 -12.6305 9.8153 -15.9479 -0.3223 36.4091 -8.8279
# 6 -0.3290 -7.6660 -9.4365 -4.8459 -8.8279 26.1567
#
#
#
# Elastic Compliance Matrix: (Units=1/GPa)
#
#
# Indices 1 2 3 4 5 6 
#
# 1 0.015673 0.000498 -0.004722 -0.002222 0.003034 -0.000748
# 2 0.000498 0.033829 -0.006645 -0.011571 -0.011606 0.001463
# 3 -0.004722 -0.006645 0.013172 -0.002551 0.007026 0.004644
# 4 -0.002222 -0.011571 -0.002551 0.034323 0.002205 0.002763
# 5 0.003034 -0.011606 0.007026 0.002205 0.037730 0.012314
# 6 -0.000748 0.001463 0.004644 0.002763 0.012314 0.044994
#
#
# Mechanical properties :
#
#
# Convention : Reuss Voigt Hill
#
# Bulk Modulus (GPa) = 24.42808 43.14326 33.78567
# Shear Modulus (GPa) = 23.24463 31.43012 27.33737
#
# Velocity S-wave (km/s) = 3.23061 3.75661 3.50350
# Velocity P-wave (km/s) = 4.98839 6.17961 5.61567
#
# Compressibility (1/GPa) = 0.04093650
#
# Stress axis : x y z
#
# Youngs Moduli (GPa) = 63.80284 29.56006 75.92058
#
# Poissons Ratio (x) = -0.01473 0.35847
# Poissons Ratio (y) = -0.03179 0.50452
# Poissons Ratio (z) = 0.30126 0.19644
#
# Static dielectric constant tensor:
#      x y z
#    x 4.212050 0.075650 -0.277410 
#    y 0.075650 4.043340 -0.083980 
#    z -0.277410 -0.083980 4.316220 
# 
# 
# High freq. dielectric constant tensor:
#      x y z
#    x 1.882210 0.001900 -0.021290 
#    y 0.001900 1.856660 -0.000630 
#    z -0.021290 -0.000630 1.886620 
# 
# From -- ./inp_files/305999.got.cif
#   From: 2010.06.25/outbox.cif.g09.slc.cpg/sg2_153_cif.got.tgz:305999.got - 2010.06.27 13:26:56.
