data_PCOD8007674
_publ_section_title
;
Structure prediction by ZEFSAII (Michael W. Deem and Ramdas Pophale) SiO2 
 PCOD8007674
Probable space group: P -1
;
_chemical_formula_sum "Si O2"
_cell_formula_units_Z 16
_cell_length_a 10.947727
_cell_length_b 16.286094
_cell_length_c 9.198836
_cell_angle_alpha 113.036242
_cell_angle_beta 130.176884
_cell_angle_gamma 105.723299
_cell_volume 769.967294
_symmetry_space_group_name_H-M "P -1"
_symmetry_group_IT_number 2
_symmetry_cell_setting 'triclinic'
loop_
_space_group_symop_operation_xyz
x,y,z
-x,-y,-z
loop_
_atom_site_type_symbol
_atom_site_label
_atom_site_fract_x
_atom_site_fract_y
_atom_site_fract_z
Si Si1 0.425116 0.814910 0.290919
Si Si2 0.913246 0.484268 0.085947
Si Si3 0.394433 0.735111 0.753495
Si Si4 0.342121 0.058523 0.149682
Si Si5 0.073992 0.018249 0.337331
Si Si6 0.213602 0.808721 0.858114
Si Si7 0.163316 0.189393 0.767245
Si Si8 0.247442 0.404936 0.822466
O O1 0.531030 0.908640 0.577012
O O2 0.652340 0.870735 0.418585
O O3 0.262659 0.665309 0.104552
O O4 0.261392 0.814767 0.071457
O O5 0.768306 0.516158 0.027513
O O6 0.142513 0.580891 0.433884
O O7 0.000000 0.500000 0.000000
O O8 0.468423 0.809547 0.709913
O O9 0.391958 0.814555 0.920904
O O10 0.568880 0.732993 0.946500
O O11 0.274532 0.934555 0.945471
O O12 0.105068 0.023397 0.958424
O O13 0.030223 0.077315 0.463816
O O14 0.988624 0.888182 0.253178
O O15 0.943417 0.672678 0.509477
O O16 0.182729 0.299390 0.811580
O O17 0.500000 0.500000 0.000000
#
# Coordination Sequence:
#
# PCOD8007674 Si02
#       8
#     2   2   2   2   2   2   2   2
#     4  12  24  41  64  95 137 171 216 269 337 394
#     4  11  25  46  66  94 137 180 214 270 344 391
#     4  10  22  41  70  91 129 173 221 269 328 397
#     4  11  22  41  64  95 133 167 218 270 334 389
#     4  10  21  39  66  95 131 167 215 275 331 387
#     4  11  24  38  65 100 125 172 218 280 320 392
#     4  10  20  41  66  98 126 166 224 274 322 381
#     4  11  25  43  71  97 132 175 231 273 315 402
#
# _framework density 20.780104000000001
#
# number of rings (size 3 to 8) (size 9 to 14) (size 15 to 20)
#    0.000    1.250    3.750    1.875    1.750    3.000 
#    2.250    0.625    0.000    0.000    0.000    0.000 
#    0.000    0.000    0.000    0.000    0.000    0.000 
#
# Total GULP energy -198321.325090 kJ/mol
# GULP energy per Si atom -12395.082818 kJ/mol
# Density = 2.073281 g / cm^3
# Si number density = 20.780104 Si / 1000 Ang^3
#
#
#
# Elastic Constant Matrix: (Units=GPa)
#
#
# Indices 1 2 3 4 5 6 
#
# 1 86.3708 35.3385 36.1868 5.3955 9.3745 7.2486
# 2 35.3385 115.2824 44.5858 3.0777 10.9385 -1.6668
# 3 36.1868 44.5858 101.0601 -3.8126 9.4601 4.6753
# 4 5.3955 3.0777 -3.8126 45.2746 4.1828 -0.2551
# 5 9.3745 10.9385 9.4601 4.1828 35.0330 4.9389
# 6 7.2486 -1.6668 4.6753 -0.2551 4.9389 21.2497
#
#
#
# Elastic Compliance Matrix: (Units=1/GPa)
#
#
# Indices 1 2 3 4 5 6 
#
# 1 0.015012 -0.003031 -0.003795 -0.001813 -0.001229 -0.004260
# 2 -0.003031 0.011374 -0.003909 -0.000530 -0.002082 0.003263
# 3 -0.003795 -0.003909 0.013252 0.001950 -0.001351 -0.001590
# 4 -0.001813 -0.000530 0.001950 0.022763 -0.002743 0.001059
# 5 -0.001229 -0.002082 -0.001351 -0.002743 0.031163 -0.006723
# 6 -0.004260 0.003263 -0.001590 0.001059 -0.006723 0.050694
#
#
# Mechanical properties :
#
#
# Convention : Reuss Voigt Hill
#
# Bulk Modulus (GPa) = 55.03710 59.43728 57.23719
# Shear Modulus (GPa) = 29.10644 32.75160 30.92902
#
# Velocity S-wave (km/s) = 3.74664 3.97432 3.86216
# Velocity P-wave (km/s) = 6.72751 7.05162 6.89147
#
# Compressibility (1/GPa) = 0.01816956
#
# Stress axis : x y z
#
# Youngs Moduli (GPa) = 66.61349 87.91950 75.46042
#
# Poissons Ratio (x) = 0.26646 0.28634
# Poissons Ratio (y) = 0.20189 0.29497
# Poissons Ratio (z) = 0.25277 0.34367
#
# Static dielectric constant tensor:
#      x y z
#    x 3.646040 0.067280 0.036630 
#    y 0.067280 3.870870 -0.123450 
#    z 0.036630 -0.123450 3.918990 
# 
# 
# High freq. dielectric constant tensor:
#      x y z
#    x 1.797080 0.002050 0.010280 
#    y 0.002050 1.819640 -0.004020 
#    z 0.010280 -0.004020 1.829000 
# 
# From -- ./inp_files/185955.got.cif
#   From: 2010.06.25/outbox.cif.g09.slc.cpg/sg2_93_cif.got.tgz:185955.got - 2010.06.27 13:26:56.
