data_PCOD8007002
_publ_section_title
;
Structure prediction by ZEFSAII (Michael W. Deem and Ramdas Pophale) SiO2 
 PCOD8007002
Probable space group: P -1
;
_chemical_formula_sum "Si O2"
_cell_formula_units_Z 16
_cell_length_a 10.109644
_cell_length_b 13.150452
_cell_length_c 10.762346
_cell_angle_alpha 49.378605
_cell_angle_beta 87.817507
_cell_angle_gamma 54.603008
_cell_volume 740.548243
_symmetry_space_group_name_H-M "P -1"
_symmetry_group_IT_number 2
_symmetry_cell_setting 'triclinic'
loop_
_space_group_symop_operation_xyz
x,y,z
-x,-y,-z
loop_
_atom_site_type_symbol
_atom_site_label
_atom_site_fract_x
_atom_site_fract_y
_atom_site_fract_z
Si Si1 0.211753 0.899350 0.593201
Si Si2 0.579012 0.249496 0.045820
Si Si3 0.873347 0.741592 0.715235
Si Si4 0.758032 0.546932 0.924074
Si Si5 0.482918 0.047722 0.104781
Si Si6 0.435884 0.461183 0.279235
Si Si7 0.899689 0.556501 0.264933
Si Si8 0.726870 0.619565 0.476544
O O1 0.266745 0.830444 0.788687
O O2 0.346318 0.727654 0.624243
O O3 0.241936 0.035258 0.464539
O O4 0.000000 0.000000 0.500000
O O5 0.367309 0.406093 0.991533
O O6 0.610455 0.084480 0.107287
O O7 0.592819 0.357317 0.857442
O O8 0.721683 0.731511 0.746812
O O9 0.001323 0.629328 0.675221
O O10 0.015729 0.642258 0.907565
O O11 0.712104 0.493548 0.848952
O O12 0.581037 0.851371 0.331963
O O13 0.250751 0.245958 0.974541
O O14 0.500000 0.000000 0.000000
O O15 0.385594 0.432841 0.437268
O O16 0.773641 0.578189 0.360810
O O17 0.068253 0.523535 0.343989
#
# Coordination Sequence:
#
# PCOD8007002 Si02
#       8
#     2   2   2   2   2   2   2   2
#     4  11  24  38  61  92 134 169 214 257 325 391
#     4  11  22  39  62  85 135 168 203 265 330 373
#     4  11  20  35  62  94 120 164 214 258 317 386
#     4  10  21  34  60  90 124 162 205 254 324 378
#     4  10  22  41  67  93 121 168 222 267 314 379
#     4  11  23  40  59  93 131 168 206 264 323 389
#     4  10  20  40  66  91 127 161 211 279 314 365
#     4  10  22  40  66  95 123 166 219 264 320 377
#
# _framework density 21.605613000000002
#
# number of rings (size 3 to 8) (size 9 to 14) (size 15 to 20)
#    0.000    1.500    2.500    3.750    1.750    1.000 
#    2.250    2.500    0.000    7.500    0.000    0.000 
#    0.000    0.000    0.000    0.000    0.000    0.000 
#
# Total GULP energy -198320.710744 kJ/mol
# GULP energy per Si atom -12395.044422 kJ/mol
# Density = 2.155644 g / cm^3
# Si number density = 21.605613 Si / 1000 Ang^3
#
#
#
# Elastic Constant Matrix: (Units=GPa)
#
#
# Indices 1 2 3 4 5 6 
#
# 1 106.1311 24.3733 52.2237 3.0501 -13.3205 -12.1400
# 2 24.3733 45.2549 15.2802 6.3948 -7.2782 -8.5276
# 3 52.2237 15.2802 97.3793 -14.9905 -27.3624 -16.8662
# 4 3.0501 6.3948 -14.9905 25.9616 -0.4779 -6.6096
# 5 -13.3205 -7.2782 -27.3624 -0.4779 53.7235 -2.1184
# 6 -12.1400 -8.5276 -16.8662 -6.6096 -2.1184 22.2495
#
#
#
# Elastic Compliance Matrix: (Units=1/GPa)
#
#
# Indices 1 2 3 4 5 6 
#
# 1 0.014629 -0.004698 -0.009142 -0.006609 -0.001838 -0.002887
# 2 -0.004698 0.027108 -0.000869 -0.005091 0.002251 0.005870
# 3 -0.009142 -0.000869 0.025804 0.021979 0.011817 0.021894
# 4 -0.006609 -0.005091 0.021979 0.061143 0.010604 0.030277
# 5 -0.001838 0.002251 0.011817 0.010604 0.025142 0.014362
# 6 -0.002887 0.005870 0.021894 0.030277 0.014362 0.072578
#
#
# Mechanical properties :
#
#
# Convention : Reuss Voigt Hill
#
# Bulk Modulus (GPa) = 26.23015 48.05774 37.14395
# Shear Modulus (GPa) = 18.61997 30.84615 24.73306
#
# Velocity S-wave (km/s) = 2.93885 3.78258 3.38709
# Velocity P-wave (km/s) = 4.86647 6.43185 5.70312
#
# Compressibility (1/GPa) = 0.03812407
#
# Stress axis : x y z
#
# Youngs Moduli (GPa) = 68.35923 36.88943 38.75342
#
# Poissons Ratio (x) = 0.17329 0.35428
# Poissons Ratio (y) = 0.32113 0.03367
# Poissons Ratio (z) = 0.62494 0.03205
#
# Static dielectric constant tensor:
#      x y z
#    x 3.917030 -0.055410 0.065210 
#    y -0.055410 4.014540 -0.060260 
#    z 0.065210 -0.060260 4.418740 
# 
# 
# High freq. dielectric constant tensor:
#      x y z
#    x 1.845860 -0.001130 0.007700 
#    y -0.001130 1.828690 0.000560 
#    z 0.007700 0.000560 1.853620 
# 
# From -- ./inp_files/398404.got.cif
#   From: 2010.06.25/outbox.cif.g09.slc.cpg/sg2_200_cif.got.tgz:398404.got - 2010.06.27 13:26:56.
