data_PCOD8007283
_publ_section_title
;
Structure prediction by ZEFSAII (Michael W. Deem and Ramdas Pophale) SiO2 
 PCOD8007283
Probable space group: P -1
;
_chemical_formula_sum "Si O2"
_cell_formula_units_Z 16
_cell_length_a 6.200831
_cell_length_b 27.768145
_cell_length_c 8.649687
_cell_angle_alpha 136.780932
_cell_angle_beta 110.449926
_cell_angle_gamma 47.324074
_cell_volume 718.236501
_symmetry_space_group_name_H-M "P -1"
_symmetry_group_IT_number 2
_symmetry_cell_setting 'triclinic'
loop_
_space_group_symop_operation_xyz
x,y,z
-x,-y,-z
loop_
_atom_site_type_symbol
_atom_site_label
_atom_site_fract_x
_atom_site_fract_y
_atom_site_fract_z
Si Si1 0.157568 0.898424 0.365889
Si Si2 0.680129 0.898146 0.107920
Si Si3 0.942490 0.189948 0.288717
Si Si4 0.815622 0.369233 0.682688
Si Si5 0.834415 0.433803 0.500161
Si Si6 0.982384 0.936669 0.736265
Si Si7 0.612759 0.762244 0.909447
Si Si8 0.887159 0.495697 0.123720
O O1 0.918780 0.882582 0.251919
O O2 0.225259 0.894149 0.556222
O O3 0.474393 0.816800 0.166008
O O4 0.000000 0.000000 0.500000
O O5 0.348841 0.000161 0.280633
O O6 0.667179 0.817585 0.942075
O O7 0.790744 0.892893 0.949033
O O8 0.006374 0.259518 0.494165
O O9 0.618097 0.243862 0.249209
O O10 0.950799 0.148256 0.355430
O O11 0.842751 0.395116 0.578192
O O12 0.470160 0.417858 0.747316
O O13 0.942043 0.400012 0.913640
O O14 0.500000 0.500000 0.500000
O O15 0.069090 0.344332 0.237241
O O16 0.931853 0.496786 0.682103
O O17 0.000000 0.000000 0.000000
O O18 0.000000 0.500000 0.000000
#
# Coordination Sequence:
#
# PCOD8007283 Si02
#       8
#     2   2   2   2   2   2   2   2
#     4  11  24  43  70  96 139 185 224 279 346 405
#     4  11  22  43  69  95 141 181 219 275 344 404
#     4  11  22  39  70 101 133 180 233 279 330 414
#     4  10  20  40  70  95 132 178 217 284 358 397
#     4  11  23  42  73  97 132 178 238 288 340 417
#     4  12  23  42  69 105 134 181 232 273 332 413
#     4  11  22  43  70  99 136 183 229 280 351 407
#     4   9  20  40  68  95 129 168 222 277 356 407
#
# _framework density 22.276786000000001
#
# number of rings (size 3 to 8) (size 9 to 14) (size 15 to 20)
#    0.000    1.250    5.000    1.500    0.000    0.500 
#    0.000    5.000    5.500    0.000    0.000    0.000 
#    0.000    0.000    0.000    0.000    0.000    0.000 
#
# Total GULP energy -198372.191674 kJ/mol
# GULP energy per Si atom -12398.261980 kJ/mol
# Density = 2.222608 g / cm^3
# Si number density = 22.276786 Si / 1000 Ang^3
#
#
#
# Elastic Constant Matrix: (Units=GPa)
#
#
# Indices 1 2 3 4 5 6 
#
# 1 107.0620 33.8676 62.3059 -0.9536 1.2877 1.4015
# 2 33.8676 84.7316 60.7725 8.5498 0.6225 6.0501
# 3 62.3059 60.7725 158.8769 6.3620 -5.6146 7.2682
# 4 -0.9536 8.5498 6.3620 30.5168 4.9518 -6.5834
# 5 1.2877 0.6225 -5.6146 4.9518 50.2011 3.6866
# 6 1.4015 6.0501 7.2682 -6.5834 3.6866 41.0338
#
#
#
# Elastic Compliance Matrix: (Units=1/GPa)
#
#
# Indices 1 2 3 4 5 6 
#
# 1 0.012543 -0.002291 -0.004226 0.002334 -0.001079 0.001129
# 2 -0.002291 0.017177 -0.005413 -0.004189 -0.000188 -0.002151
# 3 -0.004226 -0.005413 0.010180 -0.001244 0.001525 -0.001197
# 4 0.002334 -0.004189 -0.001244 0.036474 -0.004258 0.006993
# 5 -0.001079 -0.000188 0.001525 -0.004258 0.020743 -0.002752
# 6 0.001129 -0.002151 -0.001197 0.006993 -0.002752 0.026230
#
#
# Mechanical properties :
#
#
# Convention : Reuss Voigt Hill
#
# Bulk Modulus (GPa) = 62.33587 73.84029 68.08808
# Shear Modulus (GPa) = 32.77514 37.26531 35.02023
#
# Velocity S-wave (km/s) = 3.83987 4.09446 3.96921
# Velocity P-wave (km/s) = 6.90671 7.45463 7.18590
#
# Compressibility (1/GPa) = 0.01604213
#
# Stress axis : x y z
#
# Youngs Moduli (GPa) = 79.72310 58.21571 98.22773
#
# Poissons Ratio (x) = 0.13336 0.41512
# Poissons Ratio (y) = 0.18262 0.53169
# Poissons Ratio (z) = 0.33692 0.31511
#
# Static dielectric constant tensor:
#      x y z
#    x 5.308840 -1.858530 -1.057610 
#    y -1.858530 7.215570 2.223770 
#    z -1.057610 2.223770 5.834840 
# 
# 
# High freq. dielectric constant tensor:
#      x y z
#    x 1.898640 0.000880 -0.001560 
#    y 0.000880 1.830410 0.004070 
#    z -0.001560 0.004070 1.896210 
# 
# From -- ./inp_files/38248.got.cif
#   From: 2010.06.25/outbox.cif.g09.slc.cpg/sg2_20_cif.got.tgz:38248.got - 2010.06.27 13:26:56.
