data_PCOD8007374
_publ_section_title
;
Structure prediction by ZEFSAII (Michael W. Deem and Ramdas Pophale) SiO2 
 PCOD8007374
Probable space group: P -1
;
_chemical_formula_sum "Si O2"
_cell_formula_units_Z 14
_cell_length_a 7.155904
_cell_length_b 17.667172
_cell_length_c 25.713659
_cell_angle_alpha 19.500996
_cell_angle_beta 129.690956
_cell_angle_gamma 139.430054
_cell_volume 659.428064
_symmetry_space_group_name_H-M "P -1"
_symmetry_group_IT_number 2
_symmetry_cell_setting 'triclinic'
loop_
_space_group_symop_operation_xyz
x,y,z
-x,-y,-z
loop_
_atom_site_type_symbol
_atom_site_label
_atom_site_fract_x
_atom_site_fract_y
_atom_site_fract_z
Si Si1 0.356709 0.127634 0.731278
Si Si2 0.095960 0.288055 0.214263
Si Si3 0.235006 0.346202 0.398355
Si Si4 0.296193 0.527797 0.521105
Si Si5 0.842762 0.255882 0.814205
Si Si6 0.475965 0.388457 0.824936
Si Si7 0.227349 0.456886 0.011680
O O1 0.208545 0.279828 0.625362
O O2 0.437615 0.174090 0.653843
O O3 0.674008 0.261963 0.730147
O O4 0.095125 0.793854 0.910087
O O5 0.364166 0.531364 0.142446
O O6 0.247572 0.378525 0.125160
O O7 0.005936 0.983234 0.413153
O O8 0.792016 0.279309 0.166552
O O9 0.568476 0.495110 0.386921
O O10 0.120593 0.531209 0.273376
O O11 0.277898 0.370032 0.328544
O O12 0.000000 0.500000 0.500000
O O13 0.185384 0.386807 0.774995
O O14 0.642572 0.926415 0.011344
O O15 0.500000 0.500000 0.000000
#
# Coordination Sequence:
#
# PCOD8007374 Si02
#       7
#     2   2   2   2   2   2   2
#     4  10  20  41  61  93 126 156 213 265 304 380
#     4  11  25  44  64  94 129 162 217 261 305 387
#     4  11  23  40  63  94 129 165 209 258 309 376
#     4  10  21  35  65  94 124 161 203 262 322 367
#     4  10  23  42  64  92 127 164 212 263 308 374
#     4  11  23  43  66  92 126 171 208 255 318 370
#     4  11  25  43  66  91 128 170 207 262 321 370
#
# _framework density 21.230519000000001
#
# number of rings (size 3 to 8) (size 9 to 14) (size 15 to 20)
#    0.000    1.429    2.857    1.714    2.000    2.857 
#   10.286    0.000    0.000    0.000    0.000    0.000 
#    0.000    0.000    0.000    0.000    0.000    0.000 
#
# Total GULP energy -173584.080534 kJ/mol
# GULP energy per Si atom -12398.862895 kJ/mol
# Density = 2.118220 g / cm^3
# Si number density = 21.230519 Si / 1000 Ang^3
#
#
#
# Elastic Constant Matrix: (Units=GPa)
#
#
# Indices 1 2 3 4 5 6 
#
# 1 163.3956 53.9153 65.7036 9.4399 7.2985 3.2505
# 2 53.9153 81.0339 28.1235 2.9565 -1.3090 -3.1394
# 3 65.7036 28.1235 111.7252 -0.1138 3.3383 2.2961
# 4 9.4399 2.9565 -0.1138 30.4799 -4.0360 0.5175
# 5 7.2985 -1.3090 3.3383 -4.0360 30.9672 12.0727
# 6 3.2505 -3.1394 2.2961 0.5175 12.0727 24.8361
#
#
#
# Elastic Compliance Matrix: (Units=1/GPa)
#
#
# Indices 1 2 3 4 5 6 
#
# 1 0.009813 -0.004926 -0.004459 -0.002876 -0.002290 -0.000322
# 2 -0.004926 0.016155 -0.001249 0.000062 0.001104 0.002264
# 3 -0.004459 -0.001249 0.011898 0.001593 0.000245 -0.000827
# 4 -0.002876 0.000062 0.001593 0.034611 0.006426 -0.003608
# 5 -0.002290 0.001104 0.000245 0.006426 0.041431 -0.019857
# 6 -0.000322 0.002264 -0.000827 -0.003608 -0.019857 0.050396
#
#
# Mechanical properties :
#
#
# Convention : Reuss Voigt Hill
#
# Bulk Modulus (GPa) = 60.24654 72.40438 66.32546
# Shear Modulus (GPa) = 26.16345 31.15080 28.65713
#
# Velocity S-wave (km/s) = 3.51429 3.83465 3.67796
# Velocity P-wave (km/s) = 6.70119 7.33375 7.02460
#
# Compressibility (1/GPa) = 0.01659846
#
# Stress axis : x y z
#
# Youngs Moduli (GPa) = 101.90049 61.90045 84.04476
#
# Poissons Ratio (x) = 0.30494 0.37475
# Poissons Ratio (y) = 0.50200 0.10496
# Poissons Ratio (z) = 0.45437 0.07731
#
# Static dielectric constant tensor:
#      x y z
#    x 3.768930 -0.120500 0.228290 
#    y -0.120500 3.737900 0.022270 
#    z 0.228290 0.022270 3.890890 
# 
# 
# High freq. dielectric constant tensor:
#      x y z
#    x 1.829800 -0.007350 0.015040 
#    y -0.007350 1.830610 0.004550 
#    z 0.015040 0.004550 1.837150 
# 
# From -- ./inp_files/427510.got.cif
#   From: 2010.06.25/outbox.cif.g09.slc.cpg/sg2_214_cif.got.tgz:427510.got - 2010.06.27 13:26:56.
