data_PCOD8007350
_publ_section_title
;
Structure prediction by ZEFSAII (Michael W. Deem and Ramdas Pophale) SiO2 
 PCOD8007350
Probable space group: P -1
;
_chemical_formula_sum "Si O2"
_cell_formula_units_Z 16
_cell_length_a 17.383859
_cell_length_b 6.738665
_cell_length_c 7.646759
_cell_angle_alpha 97.465718
_cell_angle_beta 50.079063
_cell_angle_gamma 92.990221
_cell_volume 680.597016
_symmetry_space_group_name_H-M "P -1"
_symmetry_group_IT_number 2
_symmetry_cell_setting 'triclinic'
loop_
_space_group_symop_operation_xyz
x,y,z
-x,-y,-z
loop_
_atom_site_type_symbol
_atom_site_label
_atom_site_fract_x
_atom_site_fract_y
_atom_site_fract_z
Si Si1 0.048866 0.707352 0.483743
Si Si2 0.657578 0.765265 0.701081
Si Si3 0.042435 0.910200 0.163378
Si Si4 0.155333 0.109168 0.744963
Si Si5 0.465012 0.288106 0.464095
Si Si6 0.354181 0.936286 0.959229
Si Si7 0.742843 0.753805 0.069643
Si Si8 0.744815 0.418852 0.756542
O O1 0.081467 0.776569 0.250587
O O2 0.148497 0.692437 0.458845
O O3 0.000000 0.500000 0.500000
O O4 0.973779 0.862764 0.711325
O O5 0.573943 0.712057 0.678590
O O6 0.703433 0.547561 0.668327
O O7 0.744628 0.913650 0.522164
O O8 0.606866 0.887933 0.949826
O O9 0.122734 0.915778 0.886105
O O10 0.938718 0.821124 0.230551
O O11 0.186942 0.269356 0.865024
O O12 0.500000 0.500000 0.500000
O O13 0.558755 0.126928 0.314482
O O14 0.375914 0.233922 0.715275
O O15 0.253666 0.032520 0.017310
O O16 0.333046 0.739701 0.081062
O O17 0.774211 0.565488 0.886885
#
# Coordination Sequence:
#
# PCOD8007350 Si02
#       8
#     2   2   2   2   2   2   2   2
#     4  11  22  39  63  90 121 165 203 253 309 367
#     4  10  24  42  63  90 127 163 209 254 304 372
#     4  10  22  40  62  90 125 159 208 252 303 370
#     4  10  20  41  61  87 127 160 200 261 302 354
#     4  11  22  44  63  93 126 159 205 263 310 363
#     4  11  22  42  65  90 121 170 206 249 313 369
#     4  10  22  41  63  90 125 160 206 257 307 367
#     4  11  22  40  63  91 122 165 208 252 304 373
#
# _framework density 23.508772
#
# number of rings (size 3 to 8) (size 9 to 14) (size 15 to 20)
#    0.000    1.500    1.250    3.750    0.000    4.500 
#    9.000   16.250    0.000    0.000    0.000    0.000 
#    0.000    0.000    0.000    0.000    0.000    0.000 
#
# Total GULP energy -198265.407540 kJ/mol
# GULP energy per Si atom -12391.587971 kJ/mol
# Density = 2.345527 g / cm^3
# Si number density = 23.508772 Si / 1000 Ang^3
#
#
#
# Elastic Constant Matrix: (Units=GPa)
#
#
# Indices 1 2 3 4 5 6 
#
# 1 76.1160 28.4247 -10.9383 7.7931 9.2354 8.3562
# 2 28.4247 98.5314 18.5280 -3.1376 -3.5420 -5.8216
# 3 -10.9383 18.5280 68.4772 -5.7877 -0.2533 -3.6146
# 4 7.7931 -3.1376 -5.7877 31.8507 5.4866 -2.5398
# 5 9.2354 -3.5420 -0.2533 5.4866 34.5903 -1.5011
# 6 8.3562 -5.8216 -3.6146 -2.5398 -1.5011 38.6438
#
#
#
# Elastic Compliance Matrix: (Units=1/GPa)
#
#
# Indices 1 2 3 4 5 6 
#
# 1 0.017617 -0.006410 0.003957 -0.003757 -0.004945 -0.004844
# 2 -0.006410 0.013148 -0.004245 0.001853 0.002872 0.003203
# 3 0.003957 -0.004245 0.016546 0.001917 -0.001669 0.000114
# 4 -0.003757 0.001853 0.001917 0.033803 -0.004010 0.003337
# 5 -0.004945 0.002872 -0.001669 -0.004010 0.031248 0.002296
# 6 -0.004844 0.003203 0.000114 0.003337 0.002296 0.027726
#
#
# Mechanical properties :
#
#
# Convention : Reuss Voigt Hill
#
# Bulk Modulus (GPa) = 29.48606 35.01705 32.25156
# Shear Modulus (GPa) = 30.34190 34.82431 32.58311
#
# Velocity S-wave (km/s) = 3.59648 3.85298 3.72694
# Velocity P-wave (km/s) = 5.46040 5.89251 5.68056
#
# Compressibility (1/GPa) = 0.03391433
#
# Stress axis : x y z
#
# Youngs Moduli (GPa) = 56.76482 76.05796 60.43801
#
# Poissons Ratio (x) = 0.48751 -0.23914
# Poissons Ratio (y) = 0.36385 0.25656
# Poissons Ratio (z) = -0.22460 0.32287
#
# Static dielectric constant tensor:
#      x y z
#    x 4.385900 -0.097570 0.140870 
#    y -0.097570 4.098540 -0.159690 
#    z 0.140870 -0.159690 4.474400 
# 
# 
# High freq. dielectric constant tensor:
#      x y z
#    x 1.936000 0.006340 0.004210 
#    y 0.006340 1.917820 -0.008730 
#    z 0.004210 -0.008730 1.935770 
# 
# From -- ./inp_files/38239.got.cif
#   From: 2010.06.25/outbox.cif.g09.slc.cpg/sg2_20_cif.got.tgz:38239.got - 2010.06.27 13:26:56.
