data_PCOD8007473
_publ_section_title
;
Structure prediction by ZEFSAII (Michael W. Deem and Ramdas Pophale) SiO2 
 PCOD8007473
Probable space group: P -1
;
_chemical_formula_sum "Si O2"
_cell_formula_units_Z 10
_cell_length_a 13.149264
_cell_length_b 9.085355
_cell_length_c 8.710630
_cell_angle_alpha 50.029449
_cell_angle_beta 62.815696
_cell_angle_gamma 103.245036
_cell_volume 455.547705
_symmetry_space_group_name_H-M "P -1"
_symmetry_group_IT_number 2
_symmetry_cell_setting 'triclinic'
loop_
_space_group_symop_operation_xyz
x,y,z
-x,-y,-z
loop_
_atom_site_type_symbol
_atom_site_label
_atom_site_fract_x
_atom_site_fract_y
_atom_site_fract_z
Si Si1 0.729951 0.116425 0.300311
Si Si2 0.625097 0.382797 0.295836
Si Si3 0.331408 0.161257 0.159963
Si Si4 0.073693 0.536555 0.588183
Si Si5 0.376663 0.657143 0.327195
O O1 0.745361 0.349424 0.206180
O O2 0.577852 0.920604 0.407979
O O3 0.686166 0.907271 0.603030
O O4 0.915412 0.296524 0.977136
O O5 0.626194 0.434875 0.439310
O O6 0.710718 0.668857 0.950594
O O7 0.200234 0.866253 0.344360
O O8 0.538584 0.392531 0.811603
O O9 0.178608 0.469414 0.541414
O O10 0.000000 0.500000 0.500000
O O11 0.500000 0.000000 0.000000
#
# Coordination Sequence:
#
# PCOD8007473 Si02
#       5
#     2   2   2   2   2
#     4  11  23  42  65  92 130 160 206 262 309 363
#     4  11  23  40  69  92 124 167 208 251 314 371
#     4  11  23  42  67  93 124 165 212 251 306 379
#     4  11  24  42  65  90 130 166 204 261 314 358
#     4  10  20  41  64  87 127 166 202 250 313 367
#
# _framework density 21.951597
#
# number of rings (size 3 to 8) (size 9 to 14) (size 15 to 20)
#    0.000    1.200    4.000    4.200    2.800    0.800 
#    0.000    2.000    0.000    0.000    0.000    0.000 
#    0.000    0.000    0.000    0.000    0.000    0.000 
#
# Total GULP energy -124032.825924 kJ/mol
# GULP energy per Si atom -12403.282592 kJ/mol
# Density = 2.190163 g / cm^3
# Si number density = 21.951597 Si / 1000 Ang^3
#
#
#
# Elastic Constant Matrix: (Units=GPa)
#
#
# Indices 1 2 3 4 5 6 
#
# 1 137.5021 30.6797 70.6188 23.0542 19.8631 9.9930
# 2 30.6797 44.6681 34.9402 21.1236 2.1865 13.0477
# 3 70.6188 34.9402 120.6269 40.5575 -2.3920 -2.4723
# 4 23.0542 21.1236 40.5575 38.7993 1.8932 5.2503
# 5 19.8631 2.1865 -2.3920 1.8932 46.0000 -6.5465
# 6 9.9930 13.0477 -2.4723 5.2503 -6.5465 32.0171
#
#
#
# Elastic Compliance Matrix: (Units=1/GPa)
#
#
# Indices 1 2 3 4 5 6 
#
# 1 0.012817 -0.001749 -0.008311 0.003149 -0.006845 -0.005846
# 2 -0.001749 0.038354 -0.006913 -0.010501 -0.003062 -0.014522
# 3 -0.008311 -0.006913 0.020357 -0.014384 0.007104 0.010795
# 4 0.003149 -0.010501 -0.014384 0.045708 -0.004373 -0.006204
# 5 -0.006845 -0.003062 0.007104 -0.004373 0.026832 0.010136
# 6 -0.005846 -0.014522 0.010795 -0.006204 0.010136 0.042899
#
#
# Mechanical properties :
#
#
# Convention : Reuss Voigt Hill
#
# Bulk Modulus (GPa) = 26.60941 63.91939 45.26440
# Shear Modulus (GPa) = 21.41865 34.46718 27.94292
#
# Velocity S-wave (km/s) = 3.12704 3.96680 3.57169
# Velocity P-wave (km/s) = 5.01857 7.08253 6.13793
#
# Compressibility (1/GPa) = 0.03758068
#
# Stress axis : x y z
#
# Youngs Moduli (GPa) = 78.02159 26.07290 49.12395
#
# Poissons Ratio (x) = 0.04559 0.40829
# Poissons Ratio (y) = 0.13643 0.33962
# Poissons Ratio (z) = 0.64847 0.18025
#
# Static dielectric constant tensor:
#      x y z
#    x 4.300110 -0.211060 -0.282230 
#    y -0.211060 4.075420 0.365230 
#    z -0.282230 0.365230 4.071800 
# 
# 
# High freq. dielectric constant tensor:
#      x y z
#    x 1.879020 0.004190 0.002520 
#    y 0.004190 1.850720 0.017090 
#    z 0.002520 0.017090 1.857760 
# 
# From -- ./inp_files/143891.got.cif
#   From: 2010.06.25/outbox.cif.g09.slc.cpg/sg2_72_cif.got.tgz:143891.got - 2010.06.27 13:26:56.
