data_PCOD8007247
_publ_section_title
;
Structure prediction by ZEFSAII (Michael W. Deem and Ramdas Pophale) SiO2 
 PCOD8007247
Probable space group: P -1
;
_chemical_formula_sum "Si O2"
_cell_formula_units_Z 16
_cell_length_a 12.994418
_cell_length_b 14.170945
_cell_length_c 9.883427
_cell_angle_alpha 129.910328
_cell_angle_beta 144.296086
_cell_angle_gamma 50.596430
_cell_volume 787.946697
_symmetry_space_group_name_H-M "P -1"
_symmetry_group_IT_number 2
_symmetry_cell_setting 'triclinic'
loop_
_space_group_symop_operation_xyz
x,y,z
-x,-y,-z
loop_
_atom_site_type_symbol
_atom_site_label
_atom_site_fract_x
_atom_site_fract_y
_atom_site_fract_z
Si Si1 0.587667 0.112463 0.160047
Si Si2 0.716594 0.210428 0.878653
Si Si3 0.674748 0.765501 0.591551
Si Si4 0.392996 0.359206 0.330499
Si Si5 0.121919 0.858464 0.306602
Si Si6 0.048171 0.606993 0.739245
Si Si7 0.261624 0.979081 0.037349
Si Si8 0.766302 0.421066 0.818480
O O1 0.462588 0.250911 0.192088
O O2 0.773302 0.080117 0.414698
O O3 0.621421 0.113760 0.036110
O O4 0.500000 0.000000 0.000000
O O5 0.496607 0.261346 0.697195
O O6 0.772424 0.157946 0.739342
O O7 0.783481 0.100143 0.958059
O O8 0.811853 0.323672 0.120750
O O9 0.702610 0.695598 0.701038
O O10 0.862598 0.715705 0.666176
O O11 0.632839 0.917942 0.704860
O O12 0.558916 0.411361 0.614522
O O13 0.238118 0.474292 0.205775
O O14 0.112050 0.718980 0.221748
O O15 0.923024 0.947212 0.163794
O O16 0.000000 0.500000 0.500000
O O17 0.146368 0.537709 0.914718
#
# Coordination Sequence:
#
# PCOD8007247 Si02
#       8
#     2   2   2   2   2   2   2   2
#     4  11  21  38  60  98 137 162 218 271 319 387
#     4  11  23  45  65  95 132 172 219 267 323 400
#     4  12  22  42  71  92 128 177 215 264 340 386
#     4  10  20  40  69  93 127 176 214 273 323 385
#     4  10  20  42  65  87 131 171 216 273 315 383
#     4  11  25  45  63  96 134 171 220 278 322 389
#     4  12  23  39  67  99 130 177 214 262 338 387
#     4   9  19  42  66  87 127 169 220 267 321 376
#
# _framework density 20.30594
#
# number of rings (size 3 to 8) (size 9 to 14) (size 15 to 20)
#    0.000    1.250    7.500    1.125    0.000    2.000 
#    9.000    0.000    0.000    0.000    0.000    0.000 
#    0.000    0.000    0.000    0.000    0.000    0.000 
#
# Total GULP energy -198392.935334 kJ/mol
# GULP energy per Si atom -12399.558458 kJ/mol
# Density = 2.025972 g / cm^3
# Si number density = 20.305940 Si / 1000 Ang^3
#
#
#
# Elastic Constant Matrix: (Units=GPa)
#
#
# Indices 1 2 3 4 5 6 
#
# 1 65.9628 42.5336 37.2194 6.8086 3.6962 12.0211
# 2 42.5336 118.4128 56.2317 -7.8307 -1.7460 20.1912
# 3 37.2194 56.2317 142.2942 17.8868 8.2425 3.7202
# 4 6.8086 -7.8307 17.8868 33.3840 -4.1592 3.6807
# 5 3.6962 -1.7460 8.2425 -4.1592 28.5000 3.2287
# 6 12.0211 20.1912 3.7202 3.6807 3.2287 33.8300
#
#
#
# Elastic Compliance Matrix: (Units=1/GPa)
#
#
# Indices 1 2 3 4 5 6 
#
# 1 0.021922 -0.006742 -0.002200 -0.004955 -0.003038 -0.002695
# 2 -0.006742 0.015716 -0.005807 0.009779 0.005846 -0.007967
# 3 -0.002200 -0.005807 0.011067 -0.007937 -0.004924 0.004364
# 4 -0.004955 0.009779 -0.007937 0.039733 0.010300 -0.008509
# 5 -0.003038 0.005846 -0.004924 0.010300 0.039533 -0.006762
# 6 -0.002695 -0.007967 0.004364 -0.008509 -0.006762 0.036364
#
#
# Mechanical properties :
#
#
# Convention : Reuss Voigt Hill
#
# Bulk Modulus (GPa) = 52.06779 66.51546 59.29162
# Shear Modulus (GPa) = 24.97072 31.85515 28.41294
#
# Velocity S-wave (km/s) = 3.51055 3.96505 3.74470
# Velocity P-wave (km/s) = 6.49070 7.33416 6.92529
#
# Compressibility (1/GPa) = 0.01920573
#
# Stress axis : x y z
#
# Youngs Moduli (GPa) = 45.61660 63.63011 90.36087
#
# Poissons Ratio (x) = 0.42902 0.19882
# Poissons Ratio (y) = 0.30756 0.52469
# Poissons Ratio (z) = 0.10037 0.36948
#
# Static dielectric constant tensor:
#      x y z
#    x 3.567440 0.161280 0.036980 
#    y 0.161280 3.838680 -0.099290 
#    z 0.036980 -0.099290 3.897770 
# 
# 
# High freq. dielectric constant tensor:
#      x y z
#    x 1.778320 0.011210 0.011700 
#    y 0.011210 1.788930 -0.007070 
#    z 0.011700 -0.007070 1.803270 
# 
# From -- ./inp_files/274518.got.cif
#   From: 2010.06.25/outbox.cif.g09.slc.cpg/sg2_138_cif.got.tgz:274518.got - 2010.06.27 13:26:56.
