data_PCOD8007493
_publ_section_title
;
Structure prediction by ZEFSAII (Michael W. Deem and Ramdas Pophale) SiO2 
 PCOD8007493
Probable space group: P -1
;
_chemical_formula_sum "Si O2"
_cell_formula_units_Z 16
_cell_length_a 11.053431
_cell_length_b 23.875941
_cell_length_c 6.924387
_cell_angle_alpha 125.144527
_cell_angle_beta 42.471781
_cell_angle_gamma 147.301626
_cell_volume 661.477103
_symmetry_space_group_name_H-M "P -1"
_symmetry_group_IT_number 2
_symmetry_cell_setting 'triclinic'
loop_
_space_group_symop_operation_xyz
x,y,z
-x,-y,-z
loop_
_atom_site_type_symbol
_atom_site_label
_atom_site_fract_x
_atom_site_fract_y
_atom_site_fract_z
Si Si1 0.809073 0.701455 0.938680
Si Si2 0.608566 0.097018 0.269692
Si Si3 0.120809 0.638410 0.750955
Si Si4 0.303140 0.175764 0.715084
Si Si5 0.268800 0.526785 0.435134
Si Si6 0.258652 0.018466 0.171576
Si Si7 0.035864 0.364347 0.670319
Si Si8 0.459492 0.153378 0.852893
O O1 0.833471 0.665801 0.639848
O O2 0.088300 0.785891 0.904162
O O3 0.722557 0.751483 0.072615
O O4 0.580347 0.604820 0.158410
O O5 0.378360 0.066180 0.340381
O O6 0.542093 0.102131 0.573929
O O7 0.599860 0.012611 0.113932
O O8 0.398476 0.755960 0.587474
O O9 0.187034 0.582234 0.643070
O O10 0.919987 0.575420 0.681300
O O11 0.965415 0.637298 0.097835
O O12 0.253458 0.128950 0.893547
O O13 0.072941 0.082215 0.647138
O O14 0.212524 0.481024 0.624337
O O15 0.337910 0.103859 0.107602
O O16 0.718076 0.278775 0.812932
#
# Coordination Sequence:
#
# PCOD8007493 Si02
#       8
#     2   2   2   2   2   2   2   2
#     4   9  21  40  67  90 131 165 209 264 313 365
#     4   9  21  41  62  92 125 163 207 263 312 367
#     4  10  22  39  64  91 128 164 205 260 319 369
#     4  10  21  42  62  94 130 167 207 263 311 371
#     4  10  20  41  64  91 127 163 204 267 313 367
#     4  10  21  40  65  90 125 166 212 254 316 371
#     4  11  22  38  64  94 123 168 212 253 312 382
#     4  11  22  37  64  91 128 166 205 261 312 371
#
# _framework density 24.188289000000001
#
# number of rings (size 3 to 8) (size 9 to 14) (size 15 to 20)
#    0.000    2.000    1.250    1.500    1.750    1.000 
#    2.250    2.500   11.000    0.000    0.000    0.000 
#    0.000    0.000    0.000    0.000    0.000    0.000 
#
# Total GULP energy -198374.981911 kJ/mol
# GULP energy per Si atom -12398.436369 kJ/mol
# Density = 2.413324 g / cm^3
# Si number density = 24.188289 Si / 1000 Ang^3
#
#
#
# Elastic Constant Matrix: (Units=GPa)
#
#
# Indices 1 2 3 4 5 6 
#
# 1 93.2411 33.9026 31.7414 -24.3826 10.2482 6.0271
# 2 33.9026 101.0184 30.0925 -11.2590 3.4243 -1.5377
# 3 31.7414 30.0925 108.1069 -12.1782 8.8287 -0.3720
# 4 -24.3826 -11.2590 -12.1782 32.6068 4.0599 6.3546
# 5 10.2482 3.4243 8.8287 4.0599 29.8079 -7.6947
# 6 6.0271 -1.5377 -0.3720 6.3546 -7.6947 25.8486
#
#
#
# Elastic Compliance Matrix: (Units=1/GPa)
#
#
# Indices 1 2 3 4 5 6 
#
# 1 0.018724 -0.003814 -0.001860 0.015563 -0.010560 -0.011589
# 2 -0.003814 0.011833 -0.002276 -0.000135 0.001144 0.001934
# 3 -0.001860 -0.002276 0.010946 0.002478 -0.002944 -0.001030
# 4 0.015563 -0.000135 0.002478 0.049606 -0.018311 -0.021247
# 5 -0.010560 0.001144 -0.002944 -0.018311 0.045732 0.020603
# 6 -0.011589 0.001934 -0.001030 -0.021247 0.020603 0.052846
#
#
# Mechanical properties :
#
#
# Convention : Reuss Voigt Hill
#
# Bulk Modulus (GPa) = 39.05802 54.87103 46.96453
# Shear Modulus (GPa) = 23.35127 31.42800 27.38964
#
# Velocity S-wave (km/s) = 3.11045 3.60850 3.36869
# Velocity P-wave (km/s) = 5.39281 6.33213 5.88126
#
# Compressibility (1/GPa) = 0.02560293
#
# Stress axis : x y z
#
# Youngs Moduli (GPa) = 53.40603 84.51184 91.35777
#
# Poissons Ratio (x) = 0.32230 0.16996
# Poissons Ratio (y) = 0.20367 0.20793
# Poissons Ratio (z) = 0.09936 0.19235
#
# Static dielectric constant tensor:
#      x y z
#    x 4.187710 0.066700 -0.188710 
#    y 0.066700 4.574020 0.058510 
#    z -0.188710 0.058510 4.214870 
# 
# 
# High freq. dielectric constant tensor:
#      x y z
#    x 1.951100 -0.007530 -0.012820 
#    y -0.007530 1.978450 0.007870 
#    z -0.012820 0.007870 1.957890 
# 
# From -- ./inp_files/85094.got.cif
#   From: 2010.06.25/outbox.cif.g09.slc.cpg/sg2_43_cif.got.tgz:85094.got - 2010.06.27 13:26:56.
