data_PCOD8007647
_publ_section_title
;
Structure prediction by ZEFSAII (Michael W. Deem and Ramdas Pophale) SiO2 
 PCOD8007647
Probable space group: P -1
;
_chemical_formula_sum "Si O2"
_cell_formula_units_Z 16
_cell_length_a 13.934239
_cell_length_b 22.892924
_cell_length_c 13.611638
_cell_angle_alpha 149.243314
_cell_angle_beta 30.913328
_cell_angle_gamma 158.623269
_cell_volume 769.589353
_symmetry_space_group_name_H-M "P -1"
_symmetry_group_IT_number 2
_symmetry_cell_setting 'triclinic'
loop_
_space_group_symop_operation_xyz
x,y,z
-x,-y,-z
loop_
_atom_site_type_symbol
_atom_site_label
_atom_site_fract_x
_atom_site_fract_y
_atom_site_fract_z
Si Si1 0.103072 0.995491 0.266192
Si Si2 0.568351 0.814593 0.249140
Si Si3 0.174439 0.687993 0.589260
Si Si4 0.068743 0.708455 0.192336
Si Si5 0.865864 0.822560 0.661178
Si Si6 0.675805 0.981209 0.704224
Si Si7 0.751510 0.678636 0.989727
Si Si8 0.619795 0.326681 0.999237
O O1 0.244541 0.126555 0.241089
O O2 0.328724 0.034406 0.195113
O O3 0.919361 0.007503 0.497117
O O4 0.901233 0.805887 0.132926
O O5 0.330839 0.744929 0.432091
O O6 0.643110 0.716974 0.059441
O O7 0.459160 0.775298 0.178115
O O8 0.833375 0.013901 0.321728
O O9 0.383086 0.810575 0.671799
O O10 0.000000 0.500000 0.500000
O O11 0.960732 0.693249 0.768210
O O12 0.891868 0.712473 0.424821
O O13 0.859544 0.527919 0.060263
O O14 0.243266 0.856174 0.170343
O O15 0.284875 0.731637 0.097713
O O16 0.640969 0.719652 0.796399
O O17 0.500000 0.500000 0.000000
#
# Coordination Sequence:
#
# PCOD8007647 Si02
#       8
#     2   2   2   2   2   2   2   2
#     4   9  20  38  66  95 127 161 212 262 323 392
#     4  11  24  43  62  96 126 171 217 264 319 387
#     4  12  23  42  64  94 136 164 211 268 323 394
#     4  10  23  43  64  91 133 166 220 271 315 381
#     4  10  21  44  66  93 131 166 218 267 319 379
#     4  10  20  41  66  94 128 173 205 268 330 382
#     4  11  22  39  63  92 129 165 207 263 322 385
#     4  11  25  42  66  93 130 171 224 265 315 377
#
# _framework density 20.790309000000001
#
# number of rings (size 3 to 8) (size 9 to 14) (size 15 to 20)
#    0.000    1.500    5.000    0.750    5.250    2.000 
#    6.750    0.000    0.000    0.000    0.000    0.000 
#    0.000    0.000    0.000    0.000    0.000    0.000 
#
# Total GULP energy -198388.306976 kJ/mol
# GULP energy per Si atom -12399.269186 kJ/mol
# Density = 2.074299 g / cm^3
# Si number density = 20.790309 Si / 1000 Ang^3
#
#
#
# Elastic Constant Matrix: (Units=GPa)
#
#
# Indices 1 2 3 4 5 6 
#
# 1 65.3512 40.1080 123.4236 -34.6662 -2.0756 6.3918
# 2 40.1080 100.2927 42.2667 -2.6184 -2.1402 -0.9114
# 3 123.4236 42.2667 -102.8254 86.4704 14.8395 14.1126
# 4 -34.6662 -2.6184 86.4704 -1.1097 -11.8223 -9.5905
# 5 -2.0756 -2.1402 14.8395 -11.8223 31.5513 -0.8385
# 6 6.3918 -0.9114 14.1126 -9.5905 -0.8385 14.1336
#
#
#
# Elastic Compliance Matrix: (Units=1/GPa)
#
#
# Indices 1 2 3 4 5 6 
#
# 1 0.011622 -0.006039 0.002308 -0.007972 -0.004079 -0.013601
# 2 -0.006039 0.013013 -0.001348 -0.000316 0.001128 0.004769
# 3 0.002308 -0.001348 0.001866 0.009982 0.003028 0.003960
# 4 -0.007972 -0.000316 0.009982 0.021511 0.003043 0.008395
# 5 -0.004079 0.001128 0.003028 0.003043 0.031293 0.002815
# 6 -0.013601 0.004769 0.003960 0.008395 0.002815 0.079121
#
#
# Mechanical properties :
#
#
# Convention : Reuss Voigt Hill
#
# Bulk Modulus (GPa) = 61.19166 52.71278 56.95222
# Shear Modulus (GPa) = 28.73039 -0.61696 14.05672
#
# Velocity S-wave (km/s) = 3.72144 -0.54534 2.60305
# Velocity P-wave (km/s) = 6.92547 5.00130 6.04050
#
# Compressibility (1/GPa) = 0.01634210
#
# Stress axis : x y z
#
# Youngs Moduli (GPa) = 86.04700 76.84593 535.99442
#
# Poissons Ratio (x) = 0.46407 -1.23693
# Poissons Ratio (y) = 0.51963 0.72248
# Poissons Ratio (z) = -0.19857 0.10358
#
# Static dielectric constant tensor:
#      x y z
#    x 4.142170 -0.078200 -0.009950 
#    y -0.078200 3.742200 0.059570 
#    z -0.009950 0.059570 3.855150 
# 
# 
# High freq. dielectric constant tensor:
#      x y z
#    x 1.809370 0.004100 -0.006650 
#    y 0.004100 1.815140 0.002110 
#    z -0.006650 0.002110 1.826140 
# 
# From -- ./inp_files/455286.got.cif
#   From: 2010.06.25/outbox.cif.g09.slc.cpg/sg2_228_cif.got.tgz:455286.got - 2010.06.27 13:26:56.
