data_PCOD8007986
_publ_section_title
;
Structure prediction by ZEFSAII (Michael W. Deem and Ramdas Pophale) SiO2 
 PCOD8007986
Probable space group: P -1
;
_chemical_formula_sum "Si O2"
_cell_formula_units_Z 14
_cell_length_a 12.387248
_cell_length_b 8.816567
_cell_length_c 6.291415
_cell_angle_alpha 71.857599
_cell_angle_beta 74.925905
_cell_angle_gamma 96.841791
_cell_volume 615.302509
_symmetry_space_group_name_H-M "P -1"
_symmetry_group_IT_number 2
_symmetry_cell_setting 'triclinic'
loop_
_space_group_symop_operation_xyz
x,y,z
-x,-y,-z
loop_
_atom_site_type_symbol
_atom_site_label
_atom_site_fract_x
_atom_site_fract_y
_atom_site_fract_z
Si Si1 0.741306 0.819903 0.633572
Si Si2 0.526701 0.581001 0.675422
Si Si3 0.264181 0.897154 0.199204
Si Si4 0.899456 0.340290 0.301860
Si Si5 0.625061 0.330875 0.975090
Si Si6 0.888252 0.043980 0.131406
Si Si7 0.846075 0.555595 0.889357
O O1 0.645870 0.712055 0.578388
O O2 0.842247 0.907547 0.390589
O O3 0.794076 0.717810 0.829645
O O4 0.688253 0.953636 0.729870
O O5 0.500000 0.500000 0.500000
O O6 0.533809 0.419828 0.875750
O O7 0.422933 0.671078 0.756556
O O8 0.182541 0.748879 0.433422
O O9 0.375019 0.840763 0.066324
O O10 0.199483 0.960933 0.012384
O O11 0.027580 0.411029 0.296291
O O12 0.913723 0.220916 0.151278
O O13 0.850778 0.490537 0.158717
O O14 0.759161 0.419856 0.856178
O O15 0.000000 0.000000 0.000000
#
# Coordination Sequence:
#
# PCOD8007986 Si02
#       7
#     2   2   2   2   2   2   2
#     4  10  24  43  65  97 129 172 217 269 328 381
#     4  10  24  44  68  94 123 167 219 278 327 381
#     4  11  23  42  64  95 138 170 210 269 324 393
#     4  10  22  38  63  96 132 176 216 262 316 388
#     4  10  23  42  65  95 129 166 217 272 328 380
#     4  11  22  39  62  95 137 179 212 258 323 386
#     4  10  20  42  62  94 133 168 225 259 314 386
#
# _framework density 22.753032999999999
#
# number of rings (size 3 to 8) (size 9 to 14) (size 15 to 20)
#    0.000    1.714    1.429    1.714    2.000    8.000 
#   10.286    1.429    0.000    0.000    0.000    0.000 
#    0.000    0.000    0.000    0.000    0.000    0.000 
#
# Total GULP energy -173486.690289 kJ/mol
# GULP energy per Si atom -12391.906449 kJ/mol
# Density = 2.270125 g / cm^3
# Si number density = 22.753033 Si / 1000 Ang^3
#
#
#
# Elastic Constant Matrix: (Units=GPa)
#
#
# Indices 1 2 3 4 5 6 
#
# 1 107.2851 63.7115 37.3276 16.5859 1.9168 -13.6051
# 2 63.7115 117.5157 63.5075 14.5288 -12.0392 -19.2701
# 3 37.3276 63.5075 93.5647 14.9618 -1.0959 -19.3444
# 4 16.5859 14.5288 14.9618 46.0637 -11.4009 -3.0462
# 5 1.9168 -12.0392 -1.0959 -11.4009 28.6127 7.2827
# 6 -13.6051 -19.2701 -19.3444 -3.0462 7.2827 36.1027
#
#
#
# Elastic Compliance Matrix: (Units=1/GPa)
#
#
# Indices 1 2 3 4 5 6 
#
# 1 0.015215 -0.008422 0.000880 -0.004682 -0.007094 0.002746
# 2 -0.008422 0.019034 -0.009836 0.002499 0.009173 0.000076
# 3 0.000880 -0.009836 0.018972 -0.004677 -0.006925 0.006249
# 4 -0.004682 0.002499 -0.004677 0.027080 0.012799 -0.003234
# 5 -0.007094 0.009173 -0.006925 0.012799 0.046616 -0.009811
# 6 0.002746 0.000076 0.006249 -0.003234 -0.009811 0.033829
#
#
# Mechanical properties :
#
#
# Convention : Reuss Voigt Hill
#
# Bulk Modulus (GPa) = 54.15791 71.93984 63.04887
# Shear Modulus (GPa) = 24.79448 32.41043 28.60246
#
# Velocity S-wave (km/s) = 3.30468 3.77828 3.54938
# Velocity P-wave (km/s) = 6.19801 7.12181 6.67591
#
# Compressibility (1/GPa) = 0.01846452
#
# Stress axis : x y z
#
# Youngs Moduli (GPa) = 65.72480 52.53670 52.70903
#
# Poissons Ratio (x) = 0.44246 -0.04636
# Poissons Ratio (y) = 0.55352 0.51846
# Poissons Ratio (z) = -0.05781 0.51676
#
# Static dielectric constant tensor:
#      x y z
#    x 5.130400 -0.954000 -0.690070 
#    y -0.954000 4.896470 0.457810 
#    z -0.690070 0.457810 4.813310 
# 
# 
# High freq. dielectric constant tensor:
#      x y z
#    x 1.895350 -0.006900 0.002070 
#    y -0.006900 1.902680 0.001630 
#    z 0.002070 0.001630 1.890010 
# 
# From -- ./inp_files/46390.got.cif
#   From: 2010.06.25/outbox.cif.g09.slc.cpg/sg2_24_cif.got.tgz:46390.got - 2010.06.27 13:26:56.
