data_PCOD8007742
_publ_section_title
;
Structure prediction by ZEFSAII (Michael W. Deem and Ramdas Pophale) SiO2 
 PCOD8007742
Probable space group: P -1
;
_chemical_formula_sum "Si O2"
_cell_formula_units_Z 14
_cell_length_a 16.588449
_cell_length_b 5.144013
_cell_length_c 8.762435
_cell_angle_alpha 104.568654
_cell_angle_beta 65.391148
_cell_angle_gamma 119.732070
_cell_volume 589.343133
_symmetry_space_group_name_H-M "P -1"
_symmetry_group_IT_number 2
_symmetry_cell_setting 'triclinic'
loop_
_space_group_symop_operation_xyz
x,y,z
-x,-y,-z
loop_
_atom_site_type_symbol
_atom_site_label
_atom_site_fract_x
_atom_site_fract_y
_atom_site_fract_z
Si Si1 0.669306 0.955889 0.577814
Si Si2 0.379392 0.652402 0.101550
Si Si3 0.074911 0.272308 0.287342
Si Si4 0.499501 0.498770 0.225018
Si Si5 0.218992 0.346162 0.952433
Si Si6 0.128480 0.932289 0.450418
Si Si7 0.307150 0.924543 0.753694
O O1 0.640966 0.087991 0.769812
O O2 0.765426 0.902044 0.526063
O O3 0.568477 0.640661 0.590606
O O4 0.682339 0.150447 0.442851
O O5 0.418294 0.492172 0.168394
O O6 0.455505 0.727790 0.907055
O O7 0.274415 0.419484 0.082440
O O8 0.114209 0.611825 0.358589
O O9 0.955621 0.099063 0.364375
O O10 0.123518 0.120148 0.338440
O O11 0.106573 0.259014 0.083206
O O12 0.586733 0.831935 0.231010
O O13 0.228864 0.064705 0.831160
O O14 0.264079 0.623552 0.840851
#
# Coordination Sequence:
#
# PCOD8007742 Si02
#       7
#     2   2   2   2   2   2   2
#     4  12  24  41  63  95 128 170 209 275 304 390
#     4  10  23  37  68  88 119 162 228 255 315 362
#     4  10  20  41  67  98 127 159 207 272 315 373
#     4  10  24  41  63  93 124 174 213 272 308 381
#     4  11  23  44  62  93 127 173 207 268 308 386
#     4  10  22  37  69 102 122 158 215 264 323 364
#     4  11  28  40  62  91 137 170 214 245 337 370
#
# _framework density 23.75526
#
# number of rings (size 3 to 8) (size 9 to 14) (size 15 to 20)
#    0.000    1.429    1.429    2.571   12.000    0.571 
#    0.000    1.429    0.000    0.000    0.000    0.000 
#    0.000    0.000    0.000    0.000    0.000    0.000 
#
# Total GULP energy -173458.905908 kJ/mol
# GULP energy per Si atom -12389.921851 kJ/mol
# Density = 2.370119 g / cm^3
# Si number density = 23.755260 Si / 1000 Ang^3
#
#
#
# Elastic Constant Matrix: (Units=GPa)
#
#
# Indices 1 2 3 4 5 6 
#
# 1 92.3936 29.6663 37.5505 -7.1556 -18.0612 -11.3197
# 2 29.6663 61.3066 21.8711 -16.5250 -11.5042 -20.7585
# 3 37.5505 21.8711 87.2564 -27.7439 -23.8455 10.4070
# 4 -7.1556 -16.5250 -27.7439 36.4090 9.0887 -2.3350
# 5 -18.0612 -11.5042 -23.8455 9.0887 27.2742 -5.5871
# 6 -11.3197 -20.7585 10.4070 -2.3350 -5.5871 34.3540
#
#
#
# Elastic Compliance Matrix: (Units=1/GPa)
#
#
# Indices 1 2 3 4 5 6 
#
# 1 0.016215 -0.003612 -0.006531 -0.004612 0.006237 0.005840
# 2 -0.003612 0.030124 -0.002882 0.009904 0.008582 0.019954
# 3 -0.006531 -0.002882 0.021846 0.011519 0.007994 -0.008428
# 4 -0.004612 0.009904 0.011519 0.040447 -0.001573 0.003469
# 5 0.006237 0.008582 0.007994 -0.001573 0.054717 0.013611
# 6 0.005840 0.019954 -0.008428 0.003469 0.013611 0.048093
#
#
# Mechanical properties :
#
#
# Convention : Reuss Voigt Hill
#
# Bulk Modulus (GPa) = 23.73311 46.57026 35.15168
# Shear Modulus (GPa) = 19.87792 29.73204 24.80498
#
# Velocity S-wave (km/s) = 2.89585 3.54163 3.23490
# Velocity P-wave (km/s) = 4.60366 6.03083 5.36491
#
# Compressibility (1/GPa) = 0.04213524
#
# Stress axis : x y z
#
# Youngs Moduli (GPa) = 61.67208 33.19633 45.77532
#
# Poissons Ratio (x) = 0.11989 0.29896
# Poissons Ratio (y) = 0.22274 0.13192
# Poissons Ratio (z) = 0.40278 0.09567
#
# Static dielectric constant tensor:
#      x y z
#    x 4.348260 0.033060 -0.498420 
#    y 0.033060 3.888790 -0.166070 
#    z -0.498420 -0.166070 4.663710 
# 
# 
# High freq. dielectric constant tensor:
#      x y z
#    x 1.935630 -0.011060 -0.026880 
#    y -0.011060 1.922610 -0.017660 
#    z -0.026880 -0.017660 1.955850 
# 
# From -- ./inp_files/323845.got.cif
#   From: 2010.06.25/outbox.cif.g09.slc.cpg/sg2_162_cif.got.tgz:323845.got - 2010.06.27 13:26:56.
