data_PCOD8007141
_publ_section_title
;
Structure prediction by ZEFSAII (Michael W. Deem and Ramdas Pophale) SiO2 
 PCOD8007141
Probable space group: P -1
;
_chemical_formula_sum "Si O2"
_cell_formula_units_Z 12
_cell_length_a 18.536954
_cell_length_b 19.949203
_cell_length_c 12.317880
_cell_angle_alpha 19.311543
_cell_angle_beta 151.006832
_cell_angle_gamma 159.935935
_cell_volume 514.007440
_symmetry_space_group_name_H-M "P -1"
_symmetry_group_IT_number 2
_symmetry_cell_setting 'triclinic'
loop_
_space_group_symop_operation_xyz
x,y,z
-x,-y,-z
loop_
_atom_site_type_symbol
_atom_site_label
_atom_site_fract_x
_atom_site_fract_y
_atom_site_fract_z
Si Si1 0.165651 0.049888 0.882305
Si Si2 0.480959 0.014418 0.326067
Si Si3 0.289159 0.409145 0.950948
Si Si4 0.746434 0.265533 0.931343
Si Si5 0.299414 0.361269 0.796238
Si Si6 0.155798 0.470260 0.122888
O O1 0.226999 0.120241 0.983528
O O2 0.216842 0.302950 0.495725
O O3 0.296175 0.995317 0.082876
O O4 0.916950 0.759336 0.989138
O O5 0.419336 0.745849 0.594731
O O6 0.500000 0.000000 0.500000
O O7 0.704549 0.325706 0.107249
O O8 0.220416 0.250928 0.984735
O O9 0.442690 0.393820 0.234985
O O10 0.803430 0.531463 0.543213
O O11 0.791181 0.315756 0.041240
O O12 0.901115 0.246201 0.108735
O O13 0.500000 0.000000 0.000000
#
# Coordination Sequence:
#
# PCOD8007141 Si02
#       6
#     2   2   2   2   2   2
#     4  11  23  44  66  94 132 174 216 269 328 384
#     4  12  25  44  65  95 139 175 216 263 329 389
#     4  11  23  41  66  98 130 173 220 269 322 386
#     4  10  20  40  67  97 128 167 219 270 326 381
#     4  10  22  38  66  97 129 163 222 273 324 376
#     4  10  24  42  66  95 132 171 215 270 324 384
#
# _framework density 23.345963000000001
#
# number of rings (size 3 to 8) (size 9 to 14) (size 15 to 20)
#    0.000    1.333    1.667    3.500    2.333    6.667 
#    3.000    0.833    0.000    0.000    0.000    0.000 
#    0.000    0.000    0.000    0.000    0.000    0.000 
#
# Total GULP energy -148762.139031 kJ/mol
# GULP energy per Si atom -12396.844919 kJ/mol
# Density = 2.329283 g / cm^3
# Si number density = 23.345963 Si / 1000 Ang^3
#
#
#
# Elastic Constant Matrix: (Units=GPa)
#
#
# Indices 1 2 3 4 5 6 
#
# 1 71.2291 35.3970 39.3082 5.3958 -4.1996 16.4067
# 2 35.3970 110.5269 29.1402 2.8543 -18.8212 36.1430
# 3 39.3082 29.1402 87.8686 4.1675 -10.3993 12.6644
# 4 5.3958 2.8543 4.1675 42.4944 8.8021 1.3518
# 5 -4.1996 -18.8212 -10.3993 8.8021 33.5315 -1.9808
# 6 16.4067 36.1430 12.6644 1.3518 -1.9808 47.8906
#
#
#
# Elastic Compliance Matrix: (Units=1/GPa)
#
#
# Indices 1 2 3 4 5 6 
#
# 1 0.020917 -0.004345 -0.007840 -0.001107 -0.002070 -0.001868
# 2 -0.004345 0.014986 -0.000720 -0.001649 0.007529 -0.009273
# 3 -0.007840 -0.000720 0.015741 -0.001260 0.003782 -0.000741
# 4 -0.001107 -0.001649 -0.001260 0.025559 -0.008111 0.000900
# 5 -0.002070 0.007529 0.003782 -0.008111 0.036842 -0.004220
# 6 -0.001868 -0.009273 -0.000741 0.000900 -0.004220 0.028515
#
#
# Mechanical properties :
#
#
# Convention : Reuss Voigt Hill
#
# Bulk Modulus (GPa) = 38.70891 53.03507 45.87199
# Shear Modulus (GPa) = 28.25165 35.83526 32.04346
#
# Velocity S-wave (km/s) = 3.48247 3.92211 3.70881
# Velocity P-wave (km/s) = 5.72596 6.57852 6.16699
#
# Compressibility (1/GPa) = 0.02583385
#
# Stress axis : x y z
#
# Youngs Moduli (GPa) = 47.80855 66.72905 63.52921
#
# Poissons Ratio (x) = 0.28994 0.49804
# Poissons Ratio (y) = 0.20773 0.04576
# Poissons Ratio (z) = 0.37480 0.04807
#
# Static dielectric constant tensor:
#      x y z
#    x 4.163610 0.261780 0.314530 
#    y 0.261780 4.566280 0.549620 
#    z 0.314530 0.549620 4.485840 
# 
# 
# High freq. dielectric constant tensor:
#      x y z
#    x 1.905410 0.016960 0.003110 
#    y 0.016960 1.936540 0.017930 
#    z 0.003110 0.017930 1.918450 
# 
# From -- ./inp_files/60202.got.cif
#   From: 2010.06.25/outbox.cif.g09.slc.cpg/sg2_31_cif.got.tgz:60202.got - 2010.06.27 13:26:56.
