data_PCOD8007673
_publ_section_title
;
Structure prediction by ZEFSAII (Michael W. Deem and Ramdas Pophale) SiO2 
 PCOD8007673
Probable space group: P -1
;
_chemical_formula_sum "Si O2"
_cell_formula_units_Z 16
_cell_length_a 15.815670
_cell_length_b 9.298207
_cell_length_c 9.065561
_cell_angle_alpha 102.679913
_cell_angle_beta 114.425545
_cell_angle_gamma 35.638411
_cell_volume 689.983395
_symmetry_space_group_name_H-M "P -1"
_symmetry_group_IT_number 2
_symmetry_cell_setting 'triclinic'
loop_
_space_group_symop_operation_xyz
x,y,z
-x,-y,-z
loop_
_atom_site_type_symbol
_atom_site_label
_atom_site_fract_x
_atom_site_fract_y
_atom_site_fract_z
Si Si1 0.181097 0.228464 0.605015
Si Si2 0.348854 0.245136 0.535558
Si Si3 0.097936 0.904305 0.827691
Si Si4 0.196835 0.211858 0.949273
Si Si5 0.663005 0.239372 0.867216
Si Si6 0.680228 0.396558 0.344204
Si Si7 0.185808 0.927769 0.371736
Si Si8 0.887947 0.450590 0.821244
O O1 0.302591 0.174932 0.594787
O O2 0.244767 0.162587 0.802689
O O3 0.000000 0.500000 0.500000
O O4 0.197129 0.039901 0.526002
O O5 0.376511 0.361695 0.670410
O O6 0.209597 0.463144 0.372608
O O7 0.500000 0.000000 0.500000
O O8 0.164154 0.844328 0.696146
O O9 0.254750 0.714489 0.003425
O O10 0.997790 0.881037 0.758837
O O11 0.982222 0.180845 0.870951
O O12 0.008482 0.424156 0.856385
O O13 0.220431 0.340464 0.077316
O O14 0.290204 0.960968 0.043723
O O15 0.471922 0.507494 0.789983
O O16 0.720972 0.138472 0.719429
O O17 0.727228 0.317987 0.533578
#
# Coordination Sequence:
#
# PCOD8007673 Si02
#       8
#     2   2   2   2   2   2   2   2
#     4  12  25  42  72 106 137 183 243 289 342 415
#     4  12  25  45  70 104 140 186 231 291 354 415
#     4  11  24  42  70 101 139 186 229 287 346 417
#     4  10  22  42  71  97 140 184 232 287 349 411
#     4  11  25  45  70 103 142 189 230 288 359 414
#     4  12  25  46  70 104 145 181 236 292 350 418
#     4  12  24  44  72 107 136 186 238 286 350 421
#     4  10  20  41  66  97 137 182 225 284 347 409
#
# _framework density 23.188963999999999
#
# number of rings (size 3 to 8) (size 9 to 14) (size 15 to 20)
#    0.000    0.750    2.500    6.000    3.500    0.000 
#    2.250    2.500    0.000    0.000    0.000    0.000 
#    0.000    0.000    0.000    0.000    0.000    0.000 
#
# Total GULP energy -198344.912664 kJ/mol
# GULP energy per Si atom -12396.557041 kJ/mol
# Density = 2.313618 g / cm^3
# Si number density = 23.188964 Si / 1000 Ang^3
#
#
#
# Elastic Constant Matrix: (Units=GPa)
#
#
# Indices 1 2 3 4 5 6 
#
# 1 118.5447 36.9114 45.0703 5.1111 -5.3089 -7.7441
# 2 36.9114 71.0952 25.2793 9.8851 -10.0237 -1.8379
# 3 45.0703 25.2793 113.4174 11.6916 -6.9300 -0.3763
# 4 5.1111 9.8851 11.6916 38.6880 -4.5049 9.1915
# 5 -5.3089 -10.0237 -6.9300 -4.5049 41.7818 5.0390
# 6 -7.7441 -1.8379 -0.3763 9.1915 5.0390 31.1970
#
#
#
# Elastic Compliance Matrix: (Units=1/GPa)
#
#
# Indices 1 2 3 4 5 6 
#
# 1 0.011365 -0.004677 -0.003508 0.000077 -0.000561 0.002571
# 2 -0.004677 0.017957 -0.001626 -0.003200 0.003060 0.000326
# 3 -0.003508 -0.001626 0.010850 -0.002241 0.000758 -0.000298
# 4 0.000077 -0.003200 -0.002241 0.029982 0.003256 -0.009556
# 5 -0.000561 0.003060 0.000758 0.003256 0.025683 -0.005058
# 6 0.002571 0.000326 -0.000298 -0.009556 -0.005058 0.036340
#
#
# Mechanical properties :
#
#
# Convention : Reuss Voigt Hill
#
# Bulk Modulus (GPa) = 48.66041 57.50882 53.08461
# Shear Modulus (GPa) = 31.51648 35.38647 33.45148
#
# Velocity S-wave (km/s) = 3.69062 3.91065 3.80223
# Velocity P-wave (km/s) = 6.26025 6.72643 6.49752
#
# Compressibility (1/GPa) = 0.02055059
#
# Stress axis : x y z
#
# Youngs Moduli (GPa) = 87.99031 55.68992 92.16942
#
# Poissons Ratio (x) = 0.26044 0.32329
# Poissons Ratio (y) = 0.41150 0.14986
# Poissons Ratio (z) = 0.30863 0.09055
#
# Static dielectric constant tensor:
#      x y z
#    x 4.281780 -0.037440 0.393770 
#    y -0.037440 4.017420 0.179280 
#    z 0.393770 0.179280 4.553290 
# 
# 
# High freq. dielectric constant tensor:
#      x y z
#    x 1.908590 -0.003150 0.009850 
#    y -0.003150 1.902940 0.009690 
#    z 0.009850 0.009690 1.931390 
# 
# From -- ./inp_files/298874.got.cif
#   From: 2010.06.25/outbox.cif.g09.slc.cpg/sg2_150_cif.got.tgz:298874.got - 2010.06.27 13:26:56.
