data_PCOD8007990
_publ_section_title
;
Structure prediction by ZEFSAII (Michael W. Deem and Ramdas Pophale) SiO2 
 PCOD8007990
Probable space group: P -1
;
_chemical_formula_sum "Si O2"
_cell_formula_units_Z 14
_cell_length_a 11.947243
_cell_length_b 11.175084
_cell_length_c 12.925440
_cell_angle_alpha 110.938583
_cell_angle_beta 108.799213
_cell_angle_gamma 132.149297
_cell_volume 697.895848
_symmetry_space_group_name_H-M "P -1"
_symmetry_group_IT_number 2
_symmetry_cell_setting 'triclinic'
loop_
_space_group_symop_operation_xyz
x,y,z
-x,-y,-z
loop_
_atom_site_type_symbol
_atom_site_label
_atom_site_fract_x
_atom_site_fract_y
_atom_site_fract_z
Si Si1 0.781508 0.763771 0.448657
Si Si2 0.864596 0.544300 0.736583
Si Si3 0.840588 0.009677 0.734061
Si Si4 0.643901 0.389392 0.407262
Si Si5 0.784070 0.702399 0.894750
Si Si6 0.612097 0.051353 0.947451
Si Si7 0.956842 0.403653 0.845214
O O1 0.808937 0.645846 0.464641
O O2 0.494233 0.499576 0.232103
O O3 0.816248 0.889951 0.595469
O O4 0.000000 0.000000 0.500000
O O5 0.807585 0.492694 0.582760
O O6 0.726227 0.528457 0.747404
O O7 0.777482 0.325878 0.697388
O O8 0.175357 0.855382 0.938123
O O9 0.831371 0.143527 0.725700
O O10 0.606759 0.775104 0.674745
O O11 0.109160 0.242515 0.945609
O O12 0.590988 0.210349 0.270175
O O13 0.000000 0.000000 0.000000
O O14 0.500000 0.000000 0.000000
O O15 0.749397 0.310429 0.021466
O O16 0.000000 0.500000 0.000000
#
# Coordination Sequence:
#
# PCOD8007990 Si02
#       7
#     2   2   2   2   2   2   2
#     4  12  29  44  64 104 136 168 224 291 333 378
#     4  10  22  39  65 100 122 172 224 261 329 397
#     4  12  22  43  71  94 131 178 222 272 323 409
#     4  12  22  44  70  92 132 179 224 267 330 403
#     4  12  21  42  72  93 124 182 229 263 324 404
#     4  10  23  42  64  95 137 170 216 276 334 388
#     4  10  20  42  63 101 128 163 225 267 323 394
#
# _framework density 20.060300000000002
#
# number of rings (size 3 to 8) (size 9 to 14) (size 15 to 20)
#    0.857    0.000    7.143    1.286    2.000    1.714 
#    5.143    0.000    0.000    0.000    0.000    0.000 
#    0.000    0.000    0.000    0.000    0.000    0.000 
#
# Total GULP energy -173482.912746 kJ/mol
# GULP energy per Si atom -12391.636625 kJ/mol
# Density = 2.001464 g / cm^3
# Si number density = 20.060300 Si / 1000 Ang^3
#
#
#
# Elastic Constant Matrix: (Units=GPa)
#
#
# Indices 1 2 3 4 5 6 
#
# 1 52.4644 33.5881 15.9191 0.3888 -3.6220 -6.4982
# 2 33.5881 137.9209 36.5515 3.2399 5.4879 -0.4551
# 3 15.9191 36.5515 90.8069 -14.2507 2.6332 -7.0441
# 4 0.3888 3.2399 -14.2507 37.9269 -4.6778 1.7091
# 5 -3.6220 5.4879 2.6332 -4.6778 38.4233 -7.2565
# 6 -6.4982 -0.4551 -7.0441 1.7091 -7.2565 43.5271
#
#
#
# Elastic Compliance Matrix: (Units=1/GPa)
#
#
# Indices 1 2 3 4 5 6 
#
# 1 0.023858 -0.005465 -0.001820 -0.000159 0.003864 0.003860
# 2 -0.005465 0.009592 -0.003304 -0.002209 -0.002217 -0.001533
# 3 -0.001820 -0.003304 0.013632 0.005388 0.000352 0.001747
# 4 -0.000159 -0.002209 0.005388 0.029002 0.003514 0.000272
# 5 0.003864 -0.002217 0.000352 0.003514 0.028084 0.005155
# 6 0.003860 -0.001533 0.001747 0.000272 0.005155 0.024666
#
#
# Mechanical properties :
#
#
# Convention : Reuss Voigt Hill
#
# Bulk Modulus (GPa) = 38.60533 50.36774 44.48654
# Shear Modulus (GPa) = 31.51634 36.98436 34.25035
#
# Velocity S-wave (km/s) = 3.96799 4.29844 4.13652
# Velocity P-wave (km/s) = 6.34662 7.05678 6.71110
#
# Compressibility (1/GPa) = 0.02590316
#
# Stress axis : x y z
#
# Youngs Moduli (GPa) = 41.91530 104.25127 73.35464
#
# Poissons Ratio (x) = 0.56973 0.13352
# Poissons Ratio (y) = 0.22907 0.24239
# Poissons Ratio (z) = 0.07629 0.34448
#
# Static dielectric constant tensor:
#      x y z
#    x 3.526800 -0.081140 0.123650 
#    y -0.081140 3.443000 -0.084700 
#    z 0.123650 -0.084700 3.803760 
# 
# 
# High freq. dielectric constant tensor:
#      x y z
#    x 1.768220 -0.013100 -0.007570 
#    y -0.013100 1.782010 -0.009630 
#    z -0.007570 -0.009630 1.790660 
# 
# From -- ./inp_files/426357.got.cif
#   From: 2010.06.25/outbox.cif.g09.slc.cpg/sg2_214_cif.got.tgz:426357.got - 2010.06.27 13:26:56.
