data_PCOD8007697
_publ_section_title
;
Structure prediction by ZEFSAII (Michael W. Deem and Ramdas Pophale) SiO2 
 PCOD8007697
Probable space group: P -1
;
_chemical_formula_sum "Si O2"
_cell_formula_units_Z 16
_cell_length_a 9.801057
_cell_length_b 16.541526
_cell_length_c 9.527348
_cell_angle_alpha 114.484823
_cell_angle_beta 101.362326
_cell_angle_gamma 33.815614
_cell_volume 748.479327
_symmetry_space_group_name_H-M "P -1"
_symmetry_group_IT_number 2
_symmetry_cell_setting 'triclinic'
loop_
_space_group_symop_operation_xyz
x,y,z
-x,-y,-z
loop_
_atom_site_type_symbol
_atom_site_label
_atom_site_fract_x
_atom_site_fract_y
_atom_site_fract_z
Si Si1 0.638185 0.104136 0.148723
Si Si2 0.773123 0.337771 0.687791
Si Si3 0.883027 0.967553 0.596865
Si Si4 0.530209 0.079534 0.821474
Si Si5 0.180978 0.808749 0.158572
Si Si6 0.523282 0.644758 0.851436
Si Si7 0.085140 0.334678 0.724250
Si Si8 0.536671 0.871214 0.590441
O O1 0.643271 0.206539 0.182188
O O2 0.460999 0.188456 0.310578
O O3 0.523291 0.104071 0.002432
O O4 0.928031 0.915795 0.098579
O O5 0.720945 0.325110 0.822269
O O6 0.537943 0.530452 0.734023
O O7 0.032312 0.258241 0.684842
O O8 0.830599 0.226960 0.510163
O O9 0.786612 0.985466 0.741391
O O10 0.895912 0.067268 0.668248
O O11 0.706354 0.026916 0.477522
O O12 0.286857 0.258386 0.827681
O O13 0.521153 0.981119 0.714218
O O14 0.409257 0.714953 0.034433
O O15 0.812372 0.531722 0.826237
O O16 0.203839 0.285453 0.557404
#
# Coordination Sequence:
#
# PCOD8007697 Si02
#       8
#     2   2   2   2   2   2   2   2
#     4  12  25  37  65  98 133 164 202 269 321 368
#     4  10  20  41  67  89 122 169 213 258 306 371
#     4  11  20  39  70  92 120 169 220 261 291 382
#     4  11  19  39  65  95 124 165 212 262 312 371
#     4  12  23  41  66  97 127 164 221 253 313 381
#     4  10  23  42  61  93 135 166 201 268 316 375
#     4   9  20  39  66  87 122 167 212 249 311 373
#     4  11  20  40  64  95 125 163 217 259 311 374
#
# _framework density 21.376676
#
# number of rings (size 3 to 8) (size 9 to 14) (size 15 to 20)
#    0.750    0.500    5.000    2.250    0.000    1.000 
#    0.000    0.625    2.750    0.000    0.000    0.000 
#    0.000    0.000    0.000    0.000    0.000    0.000 
#
# Total GULP energy -198268.063548 kJ/mol
# GULP energy per Si atom -12391.753972 kJ/mol
# Density = 2.132802 g / cm^3
# Si number density = 21.376676 Si / 1000 Ang^3
#
#
#
# Elastic Constant Matrix: (Units=GPa)
#
#
# Indices 1 2 3 4 5 6 
#
# 1 66.2772 16.2737 36.6549 -8.3086 -10.9562 13.3518
# 2 16.2737 48.3777 21.7815 6.8326 -11.9422 11.6486
# 3 36.6549 21.7815 121.0395 -3.8808 -17.9395 -2.5456
# 4 -8.3086 6.8326 -3.8808 30.9825 7.4601 -4.5076
# 5 -10.9562 -11.9422 -17.9395 7.4601 46.0003 1.8602
# 6 13.3518 11.6486 -2.5456 -4.5076 1.8602 33.3696
#
#
#
# Elastic Compliance Matrix: (Units=1/GPa)
#
#
# Indices 1 2 3 4 5 6 
#
# 1 0.021255 -0.002971 -0.005672 0.004152 0.001706 -0.007434
# 2 -0.002971 0.029715 -0.003898 -0.011381 0.007795 -0.011453
# 3 -0.005672 -0.003898 0.011045 0.000994 0.001601 0.004518
# 4 0.004152 -0.011381 0.000994 0.039199 -0.008265 0.008143
# 5 0.001706 0.007795 0.001601 -0.008265 0.026371 -0.005868
# 6 -0.007434 -0.011453 0.004518 0.008143 -0.005868 0.038712
#
#
# Mechanical properties :
#
#
# Convention : Reuss Voigt Hill
#
# Bulk Modulus (GPa) = 27.07694 42.79053 34.93374
# Shear Modulus (GPa) = 24.54703 32.80276 28.67490
#
# Velocity S-wave (km/s) = 3.39235 3.92153 3.66650
# Velocity P-wave (km/s) = 5.29510 6.36910 5.85677
#
# Compressibility (1/GPa) = 0.03693179
#
# Stress axis : x y z
#
# Youngs Moduli (GPa) = 47.04744 33.65338 90.53763
#
# Poissons Ratio (x) = 0.09999 0.51357
# Poissons Ratio (y) = 0.13979 0.35291
# Poissons Ratio (z) = 0.26687 0.13118
#
# Static dielectric constant tensor:
#      x y z
#    x 3.812350 0.146980 -0.210980 
#    y 0.146980 3.620140 0.124180 
#    z -0.210980 0.124180 3.842800 
# 
# 
# High freq. dielectric constant tensor:
#      x y z
#    x 1.836570 0.015110 -0.015750 
#    y 0.015110 1.813170 0.010390 
#    z -0.015750 0.010390 1.841180 
# 
# From -- ./inp_files/279644.got.cif
#   From: 2010.06.25/outbox.cif.g09.slc.cpg/sg2_140_cif.got.tgz:279644.got - 2010.06.27 13:26:56.
