data_PCOD8007758
_publ_section_title
;
Structure prediction by ZEFSAII (Michael W. Deem and Ramdas Pophale) SiO2 
 PCOD8007758
Probable space group: P -1
;
_chemical_formula_sum "Si O2"
_cell_formula_units_Z 14
_cell_length_a 9.263820
_cell_length_b 10.855900
_cell_length_c 10.026556
_cell_angle_alpha 113.472573
_cell_angle_beta 134.977288
_cell_angle_gamma 59.774919
_cell_volume 614.828231
_symmetry_space_group_name_H-M "P -1"
_symmetry_group_IT_number 2
_symmetry_cell_setting 'triclinic'
loop_
_space_group_symop_operation_xyz
x,y,z
-x,-y,-z
loop_
_atom_site_type_symbol
_atom_site_label
_atom_site_fract_x
_atom_site_fract_y
_atom_site_fract_z
Si Si1 0.158883 0.541358 0.839816
Si Si2 0.037140 0.667166 0.334255
Si Si3 0.396781 0.701209 0.909763
Si Si4 0.422500 0.764812 0.653588
Si Si5 0.106617 0.977837 0.918087
Si Si6 0.140513 0.051380 0.512063
Si Si7 0.893988 0.714754 0.970697
O O1 0.965086 0.477771 0.653563
O O2 0.225144 0.618071 0.790450
O O3 0.087642 0.652989 0.964423
O O4 0.362680 0.403234 0.955266
O O5 0.871711 0.795571 0.370168
O O6 0.273765 0.677348 0.460134
O O7 0.947322 0.644772 0.120361
O O8 0.357115 0.771025 0.768381
O O9 0.331327 0.842911 0.020621
O O10 0.678510 0.685211 0.764285
O O11 0.372210 0.922036 0.620623
O O12 0.946115 0.938769 0.691501
O O13 0.156128 0.117324 0.964663
O O14 0.000000 0.000000 0.000000
O O15 0.000000 0.000000 0.500000
#
# Coordination Sequence:
#
# PCOD8007758 Si02
#       7
#     2   2   2   2   2   2   2
#     4  11  26  43  66 103 147 183 228 276 358 417
#     4  11  22  42  69  98 144 177 231 288 332 421
#     4  11  23  44  68 101 134 190 228 270 352 422
#     4  11  23  41  72 104 130 180 243 273 345 407
#     4  12  23  45  76  99 141 182 229 298 346 403
#     4  10  20  41  68 105 131 173 240 285 335 410
#     4  12  24  43  72 105 137 183 227 296 345 399
#
# _framework density 22.770588
#
# number of rings (size 3 to 8) (size 9 to 14) (size 15 to 20)
#    0.000    0.857    8.571    0.429    2.000    2.286 
#    0.000    0.714    6.286    0.000    0.000    0.000 
#    0.000    0.000    0.000    0.000    0.000    0.000 
#
# Total GULP energy -173437.654809 kJ/mol
# GULP energy per Si atom -12388.403915 kJ/mol
# Density = 2.271876 g / cm^3
# Si number density = 22.770588 Si / 1000 Ang^3
#
#
#
# Elastic Constant Matrix: (Units=GPa)
#
#
# Indices 1 2 3 4 5 6 
#
# 1 91.8006 28.4721 23.6003 -0.2808 -5.0965 -10.0383
# 2 28.4721 96.9439 16.5170 6.8235 3.2832 -12.4933
# 3 23.6003 16.5170 74.3305 -4.0653 -6.4401 -16.3371
# 4 -0.2808 6.8235 -4.0653 33.1409 1.3653 6.8526
# 5 -5.0965 3.2832 -6.4401 1.3653 37.0617 3.9381
# 6 -10.0383 -12.4933 -16.3371 6.8526 3.9381 39.2423
#
#
#
# Elastic Compliance Matrix: (Units=1/GPa)
#
#
# Indices 1 2 3 4 5 6 
#
# 1 0.012841 -0.003206 -0.003052 0.000166 0.001426 0.000822
# 2 -0.003206 0.012206 -0.001323 -0.003301 -0.001980 0.003290
# 3 -0.003052 -0.001323 0.016063 0.001083 0.001906 0.005105
# 4 0.000166 -0.003301 0.001083 0.032269 -0.000028 -0.006190
# 5 0.001426 -0.001980 0.001906 -0.000028 0.027927 -0.002270
# 6 0.000822 0.003290 0.005105 -0.006190 -0.002270 0.030174
#
#
# Mechanical properties :
#
#
# Convention : Reuss Voigt Hill
#
# Bulk Modulus (GPa) = 38.53779 44.47262 41.50521
# Shear Modulus (GPa) = 32.19761 34.85471 33.52616
#
# Velocity S-wave (km/s) = 3.76440 3.91665 3.84128
# Velocity P-wave (km/s) = 5.98794 6.32666 6.15963
#
# Compressibility (1/GPa) = 0.02594855
#
# Stress axis : x y z
#
# Youngs Moduli (GPa) = 77.87264 81.92946 62.25568
#
# Poissons Ratio (x) = 0.26264 0.18998
# Poissons Ratio (y) = 0.24963 0.08239
# Poissons Ratio (z) = 0.23764 0.10842
#
# Static dielectric constant tensor:
#      x y z
#    x 4.101690 -0.499460 0.113250 
#    y -0.499460 10.293220 -0.338280 
#    z 0.113250 -0.338280 4.138330 
# 
# 
# High freq. dielectric constant tensor:
#      x y z
#    x 1.891790 0.005120 -0.001080 
#    y 0.005120 1.916840 0.006210 
#    z -0.001080 0.006210 1.872090 
# 
# From -- ./inp_files/190439.got.cif
#   From: 2010.06.25/outbox.cif.g09.slc.cpg/sg2_96_cif.got.tgz:190439.got - 2010.06.27 13:26:56.
