data_PCOD8007572
_publ_section_title
;
Structure prediction by ZEFSAII (Michael W. Deem and Ramdas Pophale) SiO2 
 PCOD8007572
Probable space group: P -1
;
_chemical_formula_sum "Si O2"
_cell_formula_units_Z 16
_cell_length_a 8.658312
_cell_length_b 15.545203
_cell_length_c 8.743855
_cell_angle_alpha 99.436032
_cell_angle_beta 122.005640
_cell_angle_gamma 119.835314
_cell_volume 704.405048
_symmetry_space_group_name_H-M "P -1"
_symmetry_group_IT_number 2
_symmetry_cell_setting 'triclinic'
loop_
_space_group_symop_operation_xyz
x,y,z
-x,-y,-z
loop_
_atom_site_type_symbol
_atom_site_label
_atom_site_fract_x
_atom_site_fract_y
_atom_site_fract_z
Si Si1 0.142238 0.564171 0.333670
Si Si2 0.893636 0.636968 0.842637
Si Si3 0.452729 0.786247 0.751570
Si Si4 0.536004 0.159294 0.876654
Si Si5 0.360075 0.515739 0.046609
Si Si6 0.584679 0.741984 0.385654
Si Si7 0.538925 0.986796 0.693393
Si Si8 0.881484 0.824502 0.848426
O O1 0.179287 0.471191 0.332143
O O2 0.235062 0.640860 0.561755
O O3 0.316949 0.661557 0.315933
O O4 0.842978 0.484407 0.133694
O O5 0.774929 0.689169 0.740522
O O6 0.796919 0.595176 0.951478
O O7 0.193680 0.749797 0.038411
O O8 0.724641 0.831051 0.886621
O O9 0.404197 0.850801 0.627446
O O10 0.435047 0.813357 0.921956
O O11 0.371861 0.175503 0.705063
O O12 0.420107 0.024057 0.746961
O O13 0.500000 0.500000 0.000000
O O14 0.584192 0.646024 0.282113
O O15 0.825924 0.839884 0.651595
O O16 0.500000 0.000000 0.500000
O O17 0.831854 0.070393 0.917929
#
# Coordination Sequence:
#
# PCOD8007572 Si02
#       8
#     2   2   2   2   2   2   2   2
#     4  10  20  41  65  91 135 179 219 261 327 396
#     4  10  21  40  65  90 134 179 216 261 336 384
#     4  11  25  40  67 102 132 168 226 276 319 386
#     4  11  22  42  67  93 130 177 219 271 330 386
#     4  11  22  35  64  98 136 168 226 267 316 394
#     4  10  20  42  62  92 132 180 209 267 332 380
#     4  11  24  46  71  93 127 178 220 268 338 392
#     4  10  24  41  68  97 130 169 225 270 323 398
#
# _framework density 22.714203999999999
#
# number of rings (size 3 to 8) (size 9 to 14) (size 15 to 20)
#    0.000    1.500    2.500    3.000    3.500    7.000 
#    0.000    5.000    0.000    0.000    0.000    0.000 
#    0.000    0.000    0.000    0.000    0.000    0.000 
#
# Total GULP energy -198306.937134 kJ/mol
# GULP energy per Si atom -12394.183571 kJ/mol
# Density = 2.266251 g / cm^3
# Si number density = 22.714204 Si / 1000 Ang^3
#
#
#
# Elastic Constant Matrix: (Units=GPa)
#
#
# Indices 1 2 3 4 5 6 
#
# 1 114.1322 33.8755 38.2529 -5.8755 -35.3526 -13.1885
# 2 33.8755 101.0829 18.8251 -11.9412 -12.5561 -22.7004
# 3 38.2529 18.8251 110.9005 -8.8964 -19.0302 3.5390
# 4 -5.8755 -11.9412 -8.8964 35.7696 -4.2249 -6.5492
# 5 -35.3526 -12.5561 -19.0302 -4.2249 38.1921 7.6297
# 6 -13.1885 -22.7004 3.5390 -6.5492 7.6297 25.7256
#
#
#
# Elastic Compliance Matrix: (Units=1/GPa)
#
#
# Indices 1 2 3 4 5 6 
#
# 1 0.014043 -0.001721 -0.002578 0.003024 0.010761 0.003614
# 2 -0.001721 0.014806 -0.001761 0.006838 0.000344 0.014064
# 3 -0.002578 -0.001761 0.011114 0.001244 0.003749 -0.005200
# 4 0.003024 0.006838 0.001244 0.034431 0.006637 0.014210
# 5 0.010761 0.000344 0.003749 0.006637 0.039822 -0.004816
# 6 0.003614 0.014064 -0.005200 0.014210 -0.004816 0.058896
#
#
# Mechanical properties :
#
#
# Convention : Reuss Voigt Hill
#
# Bulk Modulus (GPa) = 35.91337 56.44695 46.18016
# Shear Modulus (GPa) = 25.70504 35.61492 30.65998
#
# Velocity S-wave (km/s) = 3.36768 3.96404 3.67797
# Velocity P-wave (km/s) = 5.56480 6.77173 6.19772
#
# Compressibility (1/GPa) = 0.02784479
#
# Stress axis : x y z
#
# Youngs Moduli (GPa) = 71.20918 67.53803 89.97430
#
# Poissons Ratio (x) = 0.11620 0.23195
# Poissons Ratio (y) = 0.12252 0.15845
# Poissons Ratio (z) = 0.18357 0.11894
#
# Static dielectric constant tensor:
#      x y z
#    x 4.075960 -0.459020 -0.141020 
#    y -0.459020 4.384760 0.107510 
#    z -0.141020 0.107510 4.066190 
# 
# 
# High freq. dielectric constant tensor:
#      x y z
#    x 1.889670 -0.027870 -0.014900 
#    y -0.027870 1.893670 0.002120 
#    z -0.014900 0.002120 1.893500 
# 
# From -- ./inp_files/188217.got.cif
#   From: 2010.06.25/outbox.cif.g09.slc.cpg/sg2_95_cif.got.tgz:188217.got - 2010.06.27 13:26:56.
