data_PCOD8007352
_publ_section_title
;
Structure prediction by ZEFSAII (Michael W. Deem and Ramdas Pophale) SiO2 
 PCOD8007352
Probable space group: P -1
;
_chemical_formula_sum "Si O2"
_cell_formula_units_Z 16
_cell_length_a 14.352410
_cell_length_b 7.936809
_cell_length_c 14.601344
_cell_angle_alpha 89.982555
_cell_angle_beta 40.249685
_cell_angle_gamma 61.606011
_cell_volume 727.976299
_symmetry_space_group_name_H-M "P -1"
_symmetry_group_IT_number 2
_symmetry_cell_setting 'triclinic'
loop_
_space_group_symop_operation_xyz
x,y,z
-x,-y,-z
loop_
_atom_site_type_symbol
_atom_site_label
_atom_site_fract_x
_atom_site_fract_y
_atom_site_fract_z
Si Si1 0.738137 0.105317 0.371150
Si Si2 0.830460 0.366422 0.041064
Si Si3 0.733813 0.459123 0.768466
Si Si4 0.101170 0.368047 0.103279
Si Si5 0.560468 0.921274 0.793403
Si Si6 0.885765 0.756771 0.419264
Si Si7 0.495190 0.368604 0.872585
Si Si8 0.711027 0.486190 0.334731
O O1 0.696011 0.340231 0.413983
O O2 0.516849 0.220203 0.494607
O O3 0.768334 0.001584 0.448878
O O4 0.938737 0.908629 0.154631
O O5 0.647412 0.461714 0.108776
O O6 0.767925 0.371706 0.190379
O O7 0.852454 0.549362 0.016837
O O8 0.639449 0.721724 0.809511
O O9 0.683736 0.348193 0.735740
O O10 0.988067 0.265441 0.590425
O O11 0.648258 0.479606 0.931424
O O12 0.057919 0.512583 0.227472
O O13 0.893487 0.443141 0.238527
O O14 0.316148 0.075922 0.956461
O O15 0.709866 0.778326 0.591158
O O16 0.578857 0.103429 0.808574
#
# Coordination Sequence:
#
# PCOD8007352 Si02
#       8
#     2   2   2   2   2   2   2   2
#     4  10  22  40  59  89 128 161 205 267 304 373
#     4  10  20  41  61  87 130 163 207 261 306 382
#     4  11  22  42  68  96 128 170 213 259 322 377
#     4  10  23  40  62  95 124 167 209 259 318 373
#     4  11  23  42  67  94 132 168 212 264 310 383
#     4  11  23  44  62  93 132 161 212 264 310 380
#     4  10  22  40  68  96 128 171 210 260 323 371
#     4  11  23  38  64  94 119 169 212 249 324 378
#
# _framework density 21.978736999999999
#
# number of rings (size 3 to 8) (size 9 to 14) (size 15 to 20)
#    0.000    1.500    3.750    3.000    1.750    3.500 
#    6.750    0.000    0.000    0.000    0.000    0.000 
#    0.000    0.000    0.000    0.000    0.000    0.000 
#
# Total GULP energy -198308.679937 kJ/mol
# GULP energy per Si atom -12394.292496 kJ/mol
# Density = 2.192871 g / cm^3
# Si number density = 21.978737 Si / 1000 Ang^3
#
#
#
# Elastic Constant Matrix: (Units=GPa)
#
#
# Indices 1 2 3 4 5 6 
#
# 1 101.0880 37.9575 35.8550 1.2568 -40.7369 -1.6192
# 2 37.9575 98.2350 28.3474 14.9642 -24.7379 -9.9586
# 3 35.8550 28.3474 90.9436 5.7281 -28.3122 -11.2869
# 4 1.2568 14.9642 5.7281 31.1660 -4.9008 -3.6379
# 5 -40.7369 -24.7379 -28.3122 -4.9008 41.6831 2.6775
# 6 -1.6192 -9.9586 -11.2869 -3.6379 2.6775 21.6233
#
#
#
# Elastic Compliance Matrix: (Units=1/GPa)
#
#
# Indices 1 2 3 4 5 6 
#
# 1 0.017551 -0.003345 -0.001898 0.003227 0.014417 -0.002459
# 2 -0.003345 0.013865 -0.001111 -0.005301 0.003308 0.004253
# 3 -0.001898 -0.001111 0.015183 -0.000286 0.007359 0.006312
# 4 0.003227 -0.005301 -0.000286 0.035518 0.003786 0.003157
# 5 0.014417 0.003308 0.007359 0.003786 0.045393 0.001461
# 6 -0.002459 0.004253 0.006312 0.003157 0.001461 0.051666
#
#
# Mechanical properties :
#
#
# Convention : Reuss Voigt Hill
#
# Bulk Modulus (GPa) = 29.50559 54.95405 42.22982
# Shear Modulus (GPa) = 24.60869 31.43490 28.02180
#
# Velocity S-wave (km/s) = 3.34976 3.78596 3.57452
# Velocity P-wave (km/s) = 5.33057 6.64596 6.02428
#
# Compressibility (1/GPa) = 0.03389188
#
# Stress axis : x y z
#
# Youngs Moduli (GPa) = 56.97550 72.12661 65.86388
#
# Poissons Ratio (x) = 0.24123 0.12498
# Poissons Ratio (y) = 0.19056 0.07320
# Poissons Ratio (z) = 0.10811 0.08015
#
# Static dielectric constant tensor:
#      x y z
#    x 3.937280 -0.082270 -0.312580 
#    y -0.082270 3.926620 0.017560 
#    z -0.312580 0.017560 4.156390 
# 
# 
# High freq. dielectric constant tensor:
#      x y z
#    x 1.841250 -0.013390 -0.020930 
#    y -0.013390 1.865400 -0.000310 
#    z -0.020930 -0.000310 1.878950 
# 
# From -- ./inp_files/350058.got.cif
#   From: 2010.06.25/outbox.cif.g09.slc.cpg/sg2_176_cif.got.tgz:350058.got - 2010.06.27 13:26:56.
