data_PCOD8007192
_publ_section_title
;
Structure prediction by ZEFSAII (Michael W. Deem and Ramdas Pophale) SiO2 
 PCOD8007192
Probable space group: P -1
;
_chemical_formula_sum "Si O2"
_cell_formula_units_Z 16
_cell_length_a 12.445593
_cell_length_b 9.189995
_cell_length_c 17.519555
_cell_angle_alpha 126.010165
_cell_angle_beta 29.399586
_cell_angle_gamma 112.912566
_cell_volume 756.633689
_symmetry_space_group_name_H-M "P -1"
_symmetry_group_IT_number 2
_symmetry_cell_setting 'triclinic'
loop_
_space_group_symop_operation_xyz
x,y,z
-x,-y,-z
loop_
_atom_site_type_symbol
_atom_site_label
_atom_site_fract_x
_atom_site_fract_y
_atom_site_fract_z
Si Si1 0.721259 0.822707 0.295445
Si Si2 0.028058 0.021837 0.228363
Si Si3 0.444131 0.534383 0.695034
Si Si4 0.002547 0.290142 0.459002
Si Si5 0.682469 0.525913 0.836407
Si Si6 0.980000 0.201271 0.040426
Si Si7 0.060040 0.660412 0.730949
Si Si8 0.513373 0.748899 0.859448
O O1 0.669642 0.632425 0.291091
O O2 0.500000 0.000000 0.500000
O O3 0.915536 0.851608 0.242398
O O4 0.810131 0.805866 0.148140
O O5 0.919553 0.174552 0.408884
O O6 0.960920 0.128819 0.221759
O O7 0.299750 0.938443 0.047039
O O8 0.266558 0.719743 0.824533
O O9 0.685013 0.481678 0.485086
O O10 0.481252 0.582311 0.774567
O O11 0.268508 0.187322 0.285498
O O12 0.000000 0.500000 0.500000
O O13 0.820967 0.320791 0.650192
O O14 0.550241 0.675069 0.900484
O O15 0.869658 0.598532 0.784792
O O16 0.500000 0.500000 0.000000
O O17 0.989806 0.337107 0.147410
O O18 0.000000 0.000000 0.000000
#
# Coordination Sequence:
#
# PCOD8007192 Si02
#       8
#     2   2   2   2   2   2   2   2
#     4  12  26  41  67 101 139 178 234 280 328 409
#     4  12  22  42  69  99 133 175 235 278 331 403
#     4  12  24  45  70 101 135 187 231 277 341 411
#     4  10  20  40  68  93 122 176 225 269 330 399
#     4  11  25  41  64 100 131 173 223 282 346 398
#     4  12  25  44  67 103 138 180 226 283 349 402
#     4  12  23  43  67  95 138 178 222 282 340 407
#     4  11  22  40  72  94 127 177 229 277 334 405
#
# _framework density 21.146296
#
# number of rings (size 3 to 8) (size 9 to 14) (size 15 to 20)
#    0.000    0.500    7.500    1.875    1.750    0.000 
#    0.000    0.625    0.000    0.000    0.000    0.000 
#    0.000    0.000    0.000    0.000    0.000    0.000 
#
# Total GULP energy -198393.833332 kJ/mol
# GULP energy per Si atom -12399.614583 kJ/mol
# Density = 2.109817 g / cm^3
# Si number density = 21.146296 Si / 1000 Ang^3
#
#
#
# Elastic Constant Matrix: (Units=GPa)
#
#
# Indices 1 2 3 4 5 6 
#
# 1 131.6545 36.0014 63.8696 -8.4068 14.6001 9.3978
# 2 36.0014 80.7960 36.6212 -4.2040 6.9627 10.5681
# 3 63.8696 36.6212 172.5581 -11.4563 9.2119 -15.0625
# 4 -8.4068 -4.2040 -11.4563 26.5211 -0.1054 -1.0162
# 5 14.6001 6.9627 9.2119 -0.1054 47.6773 11.0143
# 6 9.3978 10.5681 -15.0625 -1.0162 11.0143 33.0315
#
#
#
# Elastic Compliance Matrix: (Units=1/GPa)
#
#
# Indices 1 2 3 4 5 6 
#
# 1 0.010415 -0.002463 -0.003454 0.001289 -0.001411 -0.003240
# 2 -0.002463 0.015503 -0.002880 0.000216 0.000361 -0.005686
# 3 -0.003454 -0.002880 0.008486 0.002353 -0.001632 0.006391
# 4 0.001289 0.000216 0.002353 0.039247 -0.001322 0.002285
# 5 -0.001411 0.000361 -0.001632 -0.001322 0.023599 -0.008368
# 6 -0.003240 -0.005686 0.006391 0.002285 -0.008368 0.038790
#
#
# Mechanical properties :
#
#
# Convention : Reuss Voigt Hill
#
# Bulk Modulus (GPa) = 59.48547 73.11032 66.29789
# Shear Modulus (GPa) = 31.39945 38.01373 34.70659
#
# Velocity S-wave (km/s) = 3.85758 4.24448 4.05564
# Velocity P-wave (km/s) = 6.93056 7.65959 7.30418
#
# Compressibility (1/GPa) = 0.01681083
#
# Stress axis : x y z
#
# Youngs Moduli (GPa) = 96.01669 64.50169 117.84047
#
# Poissons Ratio (x) = 0.15884 0.40705
# Poissons Ratio (y) = 0.23645 0.33938
# Poissons Ratio (z) = 0.33166 0.18577
#
# Static dielectric constant tensor:
#      x y z
#    x 4.055350 0.291220 -0.006880 
#    y 0.291220 3.322970 0.199390 
#    z -0.006880 0.199390 4.374130 
# 
# 
# High freq. dielectric constant tensor:
#      x y z
#    x 1.838440 0.025400 0.000960 
#    y 0.025400 1.797690 0.012170 
#    z 0.000960 0.012170 1.855250 
# 
# From -- ./inp_files/271338.got.cif
#   From: 2010.06.25/outbox.cif.g09.slc.cpg/sg2_136_cif.got.tgz:271338.got - 2010.06.27 13:26:56.
