data_PCOD8007827
_publ_section_title
;
Structure prediction by ZEFSAII (Michael W. Deem and Ramdas Pophale) SiO2 
 PCOD8007827
Probable space group: P -1
;
_chemical_formula_sum "Si O2"
_cell_formula_units_Z 16
_cell_length_a 18.500734
_cell_length_b 8.247531
_cell_length_c 21.948414
_cell_angle_alpha 122.536431
_cell_angle_beta 162.454267
_cell_angle_gamma 51.760461
_cell_volume 773.381613
_symmetry_space_group_name_H-M "P -1"
_symmetry_group_IT_number 2
_symmetry_cell_setting 'triclinic'
loop_
_space_group_symop_operation_xyz
x,y,z
-x,-y,-z
loop_
_atom_site_type_symbol
_atom_site_label
_atom_site_fract_x
_atom_site_fract_y
_atom_site_fract_z
Si Si1 0.169779 0.682424 0.561457
Si Si2 0.383668 0.003236 0.840593
Si Si3 0.503871 0.401423 0.311204
Si Si4 0.886673 0.750110 0.764174
Si Si5 0.586813 0.138515 0.681235
Si Si6 0.728577 0.900395 0.980204
Si Si7 0.575558 0.240896 0.824984
Si Si8 0.731043 0.393554 0.616555
O O1 0.260035 0.831633 0.705336
O O2 0.259138 0.677191 0.562455
O O3 0.299072 0.448405 0.647215
O O4 0.852284 0.769816 0.320979
O O5 0.615575 0.952709 0.967963
O O6 0.500000 0.000000 0.000000
O O7 0.350836 0.656604 0.238562
O O8 0.304417 0.299174 0.115076
O O9 0.619093 0.321184 0.453783
O O10 0.693759 0.828047 0.566681
O O11 0.862787 0.551112 0.735657
O O12 0.818982 0.938221 0.796793
O O13 0.186721 0.682636 0.970375
O O14 0.578903 0.102836 0.740079
O O15 0.592384 0.106836 0.871292
O O16 0.044846 0.822037 0.219490
O O17 0.500000 0.500000 0.500000
#
# Coordination Sequence:
#
# PCOD8007827 Si02
#       8
#     2   2   2   2   2   2   2   2
#     4   9  20  39  63  89 112 154 196 240 300 364
#     4  10  20  41  69  87 113 152 198 245 300 367
#     4   9  20  40  59  85 118 155 204 245 293 353
#     4  10  21  38  58  82 117 164 213 240 292 351
#     4   9  20  37  60  79 112 167 205 245 286 348
#     4  11  25  38  59  92 121 156 198 249 304 355
#     4  11  23  37  59  87 126 156 193 249 300 355
#     4  11  24  38  59  85 123 162 205 252 287 347
#
# _framework density 20.688364
#
# number of rings (size 3 to 8) (size 9 to 14) (size 15 to 20)
#    0.000    2.000    0.000    3.375    7.000    3.000 
#    0.000    0.625    0.000    0.000    0.000    0.000 
#    0.000    0.000    0.000    0.000    0.000    0.000 
#
# Total GULP energy -198427.336580 kJ/mol
# GULP energy per Si atom -12401.708536 kJ/mol
# Density = 2.064128 g / cm^3
# Si number density = 20.688364 Si / 1000 Ang^3
#
#
#
# Elastic Constant Matrix: (Units=GPa)
#
#
# Indices 1 2 3 4 5 6 
#
# 1 105.2031 45.2335 62.5090 3.5943 -26.4781 -7.7455
# 2 45.2335 63.7830 34.3066 -11.5982 -11.7271 -14.7428
# 3 62.5090 34.3066 118.4281 -25.0494 -10.2885 -12.1292
# 4 3.5943 -11.5982 -25.0494 35.0561 -2.2170 -1.9633
# 5 -26.4781 -11.7271 -10.2885 -2.2170 35.4739 1.6994
# 6 -7.7455 -14.7428 -12.1292 -1.9633 1.6994 25.7857
#
#
#
# Elastic Compliance Matrix: (Units=1/GPa)
#
#
# Indices 1 2 3 4 5 6 
#
# 1 0.026006 -0.014576 -0.013014 -0.016624 0.010190 -0.008581
# 2 -0.014576 0.030550 0.003736 0.015197 0.000488 0.015971
# 3 -0.013014 0.003736 0.018197 0.015866 -0.002601 0.008166
# 4 -0.016624 0.015197 0.015866 0.047391 -0.000530 0.014801
# 5 0.010190 0.000488 -0.002601 -0.000530 0.035181 -0.000242
# 6 -0.008581 0.015971 0.008166 0.014801 -0.000242 0.050319
#
#
# Mechanical properties :
#
#
# Convention : Reuss Voigt Hill
#
# Bulk Modulus (GPa) = 36.97449 63.50139 50.23794
# Shear Modulus (GPa) = 18.91311 28.95413 23.93362
#
# Velocity S-wave (km/s) = 3.02684 3.74510 3.40496
# Velocity P-wave (km/s) = 5.48877 7.03292 6.30827
#
# Compressibility (1/GPa) = 0.02704567
#
# Stress axis : x y z
#
# Youngs Moduli (GPa) = 38.45261 32.73314 54.95388
#
# Poissons Ratio (x) = 0.47711 0.71517
# Poissons Ratio (y) = 0.56048 -0.20531
# Poissons Ratio (z) = 0.50042 -0.12229
#
# Static dielectric constant tensor:
#      x y z
#    x 3.613250 -0.173490 -0.216820 
#    y -0.173490 3.823040 -0.072530 
#    z -0.216820 -0.072530 3.893490 
# 
# 
# High freq. dielectric constant tensor:
#      x y z
#    x 1.794070 -0.014300 -0.018330 
#    y -0.014300 1.804610 -0.007200 
#    z -0.018330 -0.007200 1.822140 
# 
# From -- ./inp_files/503604.got.cif
#   From: 2010.06.25/outbox.cif.g09.slc.cpg/sg2_252_cif.got.tgz:503604.got - 2010.06.27 13:26:56.
