data_PCOD8007989
_publ_section_title
;
Structure prediction by ZEFSAII (Michael W. Deem and Ramdas Pophale) SiO2 
 PCOD8007989
Probable space group: P -1
;
_chemical_formula_sum "Si O2"
_cell_formula_units_Z 16
_cell_length_a 24.490402
_cell_length_b 14.881307
_cell_length_c 9.395837
_cell_angle_alpha 32.223592
_cell_angle_beta 49.829460
_cell_angle_gamma 27.194810
_cell_volume 749.077919
_symmetry_space_group_name_H-M "P -1"
_symmetry_group_IT_number 2
_symmetry_cell_setting 'triclinic'
loop_
_space_group_symop_operation_xyz
x,y,z
-x,-y,-z
loop_
_atom_site_type_symbol
_atom_site_label
_atom_site_fract_x
_atom_site_fract_y
_atom_site_fract_z
Si Si1 0.883440 0.601230 0.090497
Si Si2 0.515505 0.812917 0.617810
Si Si3 0.609265 0.671253 0.335180
Si Si4 0.729301 0.308477 0.130527
Si Si5 0.769617 0.610549 0.736198
Si Si6 0.858827 0.370572 0.225905
Si Si7 0.013289 0.776829 0.308267
Si Si8 0.363697 0.683849 0.438612
O O1 0.855993 0.560168 0.045383
O O2 0.925362 0.375862 0.434958
O O3 0.000000 0.500000 0.000000
O O4 0.748196 0.957705 0.895374
O O5 0.583370 0.730195 0.467241
O O6 0.500000 0.000000 0.500000
O O7 0.373063 0.011987 0.550006
O O8 0.612968 0.489464 0.971371
O O9 0.755583 0.453150 0.363866
O O10 0.606401 0.490233 0.515742
O O11 0.500000 0.000000 0.000000
O O12 0.695464 0.306363 0.345182
O O13 0.871727 0.958892 0.298337
O O14 0.747844 0.471594 0.889248
O O15 0.882467 0.497415 0.618049
O O16 0.814780 0.493776 0.975908
O O17 0.000000 0.000000 0.500000
O O18 0.000000 0.000000 0.000000
O O19 0.500000 0.500000 0.500000
#
# Coordination Sequence:
#
# PCOD8007989 Si02
#       8
#     2   2   2   2   2   2   2   2
#     4  12  26  46  69 102 148 189 226 299 371 415
#     4  10  22  37  65  97 134 169 228 299 343 395
#     4  12  23  45  69 102 137 187 248 295 342 429
#     4  10  20  42  62  98 136 176 227 288 346 419
#     4  10  21  39  64 100 130 170 241 290 334 409
#     4  12  24  40  72 102 137 179 245 296 340 425
#     4  10  22  41  69  97 135 181 235 284 346 425
#     4  12  26  44  70 100 147 190 233 294 369 422
#
# _framework density 21.359594000000001
#
# number of rings (size 3 to 8) (size 9 to 14) (size 15 to 20)
#    0.000    1.000    3.750    3.750    8.750    0.000 
#    0.000    2.500    0.000    0.000    0.000    0.000 
#    0.000    0.000    0.000    0.000    0.000    0.000 
#
# Total GULP energy -198324.899132 kJ/mol
# GULP energy per Si atom -12395.306196 kJ/mol
# Density = 2.131098 g / cm^3
# Si number density = 21.359594 Si / 1000 Ang^3
#
#
#
# Elastic Constant Matrix: (Units=GPa)
#
#
# Indices 1 2 3 4 5 6 
#
# 1 114.2768 60.2686 35.5731 -12.1515 13.1028 3.5001
# 2 60.2686 176.2761 44.4068 -5.9024 22.6985 -7.6466
# 3 35.5731 44.4068 106.5938 -13.5828 32.4591 2.5863
# 4 -12.1515 -5.9024 -13.5828 46.2033 -0.9230 11.6349
# 5 13.1028 22.6985 32.4591 -0.9230 44.6748 0.2002
# 6 3.5001 -7.6466 2.5863 11.6349 0.2002 38.4565
#
#
#
# Elastic Compliance Matrix: (Units=1/GPa)
#
#
# Indices 1 2 3 4 5 6 
#
# 1 0.011555 -0.003450 -0.001990 0.002614 -0.000126 -0.002394
# 2 -0.003450 0.007550 -0.001684 -0.001037 -0.001632 0.002251
# 3 -0.001990 -0.001684 0.013879 0.003717 -0.008559 -0.002167
# 4 0.002614 -0.001037 0.003717 0.025346 -0.002379 -0.008350
# 5 -0.000126 -0.001632 -0.008559 -0.002379 0.029416 0.000829
# 6 -0.002394 0.002251 -0.002167 -0.008350 0.000829 0.029336
#
#
# Mechanical properties :
#
#
# Convention : Reuss Voigt Hill
#
# Bulk Modulus (GPa) = 53.36704 75.29373 64.33038
# Shear Modulus (GPa) = 36.34418 42.99349 39.66884
#
# Velocity S-wave (km/s) = 4.12945 4.49134 4.31419
# Velocity P-wave (km/s) = 6.91200 7.88817 7.41616
#
# Compressibility (1/GPa) = 0.01873816
#
# Stress axis : x y z
#
# Youngs Moduli (GPa) = 86.54295 132.45863 72.05041
#
# Poissons Ratio (x) = 0.45692 0.14335
# Poissons Ratio (y) = 0.29853 0.12131
# Poissons Ratio (z) = 0.17219 0.22301
#
# Static dielectric constant tensor:
#      x y z
#    x 3.855510 -0.337690 0.452450 
#    y -0.337690 5.029920 -0.688870 
#    z 0.452450 -0.688870 4.235640 
# 
# 
# High freq. dielectric constant tensor:
#      x y z
#    x 1.817440 -0.009420 0.030590 
#    y -0.009420 1.866720 -0.009390 
#    z 0.030590 -0.009390 1.834410 
# 
# From -- ./inp_files/354490.got.cif
#   From: 2010.06.25/outbox.cif.g09.slc.cpg/sg2_178_cif.got.tgz:354490.got - 2010.06.27 13:26:56.
