data_PCOD8007101
_publ_section_title
;
Structure prediction by ZEFSAII (Michael W. Deem and Ramdas Pophale) SiO2 
 PCOD8007101
Probable space group: P -1
;
_chemical_formula_sum "Si O2"
_cell_formula_units_Z 14
_cell_length_a 24.429928
_cell_length_b 24.198979
_cell_length_c 8.164611
_cell_angle_alpha 137.554718
_cell_angle_beta 136.495127
_cell_angle_gamma 11.620838
_cell_volume 656.060000
_symmetry_space_group_name_H-M "P -1"
_symmetry_group_IT_number 2
_symmetry_cell_setting 'triclinic'
loop_
_space_group_symop_operation_xyz
x,y,z
-x,-y,-z
loop_
_atom_site_type_symbol
_atom_site_label
_atom_site_fract_x
_atom_site_fract_y
_atom_site_fract_z
Si Si1 0.543729 0.360913 0.306327
Si Si2 0.030142 0.792394 0.985960
Si Si3 0.360425 0.221032 0.737118
Si Si4 0.849845 0.791011 0.687766
Si Si5 0.237599 0.842844 0.318717
Si Si6 0.744371 0.760123 0.129659
Si Si7 0.248685 0.647166 0.832181
O O1 0.500000 0.500000 0.500000
O O2 0.674113 0.207238 0.426472
O O3 0.253723 0.603076 0.187116
O O4 0.762301 0.113898 0.107335
O O5 0.956802 0.772623 0.824554
O O6 0.157639 0.668027 0.808636
O O7 0.288726 0.284270 0.912908
O O8 0.084628 0.508656 0.669443
O O9 0.500000 0.000000 0.500000
O O10 0.592957 0.058905 0.840274
O O11 0.755750 0.833620 0.416395
O O12 0.444414 0.671150 0.253309
O O13 0.233440 0.748669 0.115719
O O14 0.939881 0.168038 0.334761
O O15 0.000000 0.500000 0.000000
O O16 0.500000 0.000000 0.000000
#
# Coordination Sequence:
#
# PCOD8007101 Si02
#       7
#     2   2   2   2   2   2   2
#     4  12  24  40  63  91 117 161 220 269 298 365
#     4  12  25  41  62  90 127 166 206 264 323 357
#     4  10  20  40  67  91 125 165 206 240 296 382
#     4  11  23  42  62  92 130 169 202 249 316 378
#     4  10  21  37  59  85 113 151 212 259 305 362
#     4  11  21  38  67  99 121 159 207 253 292 366
#     4  10  21  37  60  84 116 158 197 257 317 370
#
# _framework density 21.339510000000001
#
# number of rings (size 3 to 8) (size 9 to 14) (size 15 to 20)
#    0.000    1.143    1.429    7.286    4.000    0.000 
#    0.000    8.571    0.000    0.000    0.000    0.000 
#    0.000    0.000    0.000    0.000    0.000    0.000 
#
# Total GULP energy -173601.088804 kJ/mol
# GULP energy per Si atom -12400.077772 kJ/mol
# Density = 2.129094 g / cm^3
# Si number density = 21.339510 Si / 1000 Ang^3
#
#
#
# Elastic Constant Matrix: (Units=GPa)
#
#
# Indices 1 2 3 4 5 6 
#
# 1 144.4143 35.6509 55.7016 -10.4681 -3.8047 -26.8405
# 2 35.6509 128.8536 40.0943 -15.5773 -1.8192 -8.9622
# 3 55.7016 40.0943 78.6337 -20.2147 0.8280 -1.1787
# 4 -10.4681 -15.5773 -20.2147 35.8390 -2.7478 -4.3215
# 5 -3.8047 -1.8192 0.8280 -2.7478 33.0286 -5.5273
# 6 -26.8405 -8.9622 -1.1787 -4.3215 -5.5273 41.1550
#
#
#
# Elastic Compliance Matrix: (Units=1/GPa)
#
#
# Indices 1 2 3 4 5 6 
#
# 1 0.011550 -0.000130 -0.008053 -0.000090 0.002796 0.007640
# 2 -0.000130 0.009532 -0.004209 0.002091 0.001166 0.002247
# 3 -0.008053 -0.004209 0.022512 0.007771 -0.001908 -0.004965
# 4 -0.000090 0.002091 0.007771 0.034000 0.003519 0.004662
# 5 0.002796 0.001166 -0.001908 0.003519 0.032126 0.006707
# 6 0.007640 0.002247 -0.004965 0.004662 0.006707 0.031018
#
#
# Mechanical properties :
#
#
# Convention : Reuss Voigt Hill
#
# Bulk Modulus (GPa) = 53.16744 68.31056 60.73900
# Shear Modulus (GPa) = 29.10485 36.70152 32.90319
#
# Velocity S-wave (km/s) = 3.69710 4.15165 3.93095
# Velocity P-wave (km/s) = 6.57220 7.42040 7.00915
#
# Compressibility (1/GPa) = 0.01880851
#
# Stress axis : x y z
#
# Youngs Moduli (GPa) = 86.58075 104.91040 44.42145
#
# Poissons Ratio (x) = 0.01360 0.35775
# Poissons Ratio (y) = 0.01123 0.18699
# Poissons Ratio (z) = 0.69727 0.44161
#
# Static dielectric constant tensor:
#      x y z
#    x 4.199260 -0.384770 -0.206700 
#    y -0.384770 4.292470 -0.217000 
#    z -0.206700 -0.217000 3.641410 
# 
# 
# High freq. dielectric constant tensor:
#      x y z
#    x 1.845420 -0.013680 -0.017200 
#    y -0.013680 1.863040 -0.016880 
#    z -0.017200 -0.016880 1.801770 
# 
# From -- ./inp_files/357915.got.cif
#   From: 2010.06.25/outbox.cif.g09.slc.cpg/sg2_179_cif.got.tgz:357915.got - 2010.06.27 13:26:56.
