data_PCOD8007761
_publ_section_title
;
Structure prediction by ZEFSAII (Michael W. Deem and Ramdas Pophale) SiO2 
 PCOD8007761
Probable space group: P -1
;
_chemical_formula_sum "Si O2"
_cell_formula_units_Z 16
_cell_length_a 11.649877
_cell_length_b 7.961413
_cell_length_c 14.964469
_cell_angle_alpha 34.175523
_cell_angle_beta 101.130567
_cell_angle_gamma 88.897345
_cell_volume 723.540851
_symmetry_space_group_name_H-M "P -1"
_symmetry_group_IT_number 2
_symmetry_cell_setting 'triclinic'
loop_
_space_group_symop_operation_xyz
x,y,z
-x,-y,-z
loop_
_atom_site_type_symbol
_atom_site_label
_atom_site_fract_x
_atom_site_fract_y
_atom_site_fract_z
Si Si1 0.249062 0.606784 0.941082
Si Si2 0.744381 0.639174 0.243896
Si Si3 0.048498 0.216301 0.700079
Si Si4 0.398385 0.365452 0.435466
Si Si5 0.375876 0.656093 0.117668
Si Si6 0.642346 0.279091 0.264347
Si Si7 0.887181 0.818456 0.860283
Si Si8 0.329053 0.706497 0.460077
O O1 0.354038 0.632129 0.878089
O O2 0.137023 0.934175 0.777995
O O3 0.303199 0.545469 0.076500
O O4 0.202600 0.311949 0.033392
O O5 0.880232 0.674224 0.257810
O O6 0.752914 0.355857 0.300630
O O7 0.694544 0.570266 0.363280
O O8 0.651916 0.969444 0.049484
O O9 0.000000 0.500000 0.500000
O O10 0.942087 0.090474 0.784207
O O11 0.340988 0.545333 0.256946
O O12 0.352526 0.605246 0.404772
O O13 0.548927 0.222513 0.516482
O O14 0.342467 0.084535 0.562614
O O15 0.520486 0.503240 0.192767
O O16 0.795512 0.984593 0.690246
O O17 0.000000 0.500000 0.000000
#
# Coordination Sequence:
#
# PCOD8007761 Si02
#       8
#     2   2   2   2   2   2   2   2
#     4  10  24  40  66  94 127 170 215 264 324 383
#     4  11  24  40  65  95 131 175 208 269 323 386
#     4  10  20  41  68  88 123 169 216 268 326 368
#     4  11  25  39  67 102 133 173 210 265 325 400
#     4  11  23  41  64  97 135 172 212 260 326 391
#     4  12  24  41  62  97 136 169 215 257 326 390
#     4  10  22  41  72  94 122 175 226 270 319 378
#     4  11  23  42  68  95 137 171 215 259 338 386
#
# _framework density 22.113471000000001
#
# number of rings (size 3 to 8) (size 9 to 14) (size 15 to 20)
#    0.000    1.250    2.500    3.375    3.500    1.000 
#    0.000    1.250    5.500    0.000    0.000    0.000 
#    0.000    0.000    0.000    0.000    0.000    0.000 
#
# Total GULP energy -198265.359447 kJ/mol
# GULP energy per Si atom -12391.584965 kJ/mol
# Density = 2.206314 g / cm^3
# Si number density = 22.113471 Si / 1000 Ang^3
#
#
#
# Elastic Constant Matrix: (Units=GPa)
#
#
# Indices 1 2 3 4 5 6 
#
# 1 77.6722 38.4659 52.7741 -0.2988 -22.4521 26.0994
# 2 38.4659 88.9046 51.7816 8.3892 -15.1234 23.4028
# 3 52.7741 51.7816 166.5821 5.9722 -18.1091 9.1981
# 4 -0.2988 8.3892 5.9722 35.1393 -0.1387 -14.0148
# 5 -22.4521 -15.1234 -18.1091 -0.1387 45.3796 -8.2925
# 6 26.0994 23.4028 9.1981 -14.0148 -8.2925 33.2528
#
#
#
# Elastic Compliance Matrix: (Units=1/GPa)
#
#
# Indices 1 2 3 4 5 6 
#
# 1 0.025376 -0.001137 -0.005756 -0.005831 0.006506 -0.018360
# 2 -0.001137 0.019579 -0.004352 -0.010176 0.001337 -0.015639
# 3 -0.005756 -0.004352 0.008814 0.001895 0.000326 0.006022
# 4 -0.005831 -0.010176 0.001895 0.042045 -0.000109 0.028908
# 5 0.006506 0.001337 0.000326 -0.000109 0.025880 0.000270
# 6 -0.018360 -0.015639 0.006022 0.028908 0.000270 0.066074
#
#
# Mechanical properties :
#
#
# Convention : Reuss Voigt Hill
#
# Bulk Modulus (GPa) = 31.96955 68.80024 50.38490
# Shear Modulus (GPa) = 22.65671 35.43016 29.04343
#
# Velocity S-wave (km/s) = 3.20436 4.00709 3.62799
# Velocity P-wave (km/s) = 5.30839 7.25182 6.35484
#
# Compressibility (1/GPa) = 0.03127976
#
# Stress axis : x y z
#
# Youngs Moduli (GPa) = 39.40742 51.07443 113.45238
#
# Poissons Ratio (x) = 0.05807 0.65299
# Poissons Ratio (y) = 0.04480 0.49378
# Poissons Ratio (z) = 0.22682 0.22229
#
# Static dielectric constant tensor:
#      x y z
#    x 4.356210 0.316130 -0.065060 
#    y 0.316130 3.757570 -0.097240 
#    z -0.065060 -0.097240 4.238960 
# 
# 
# High freq. dielectric constant tensor:
#      x y z
#    x 1.872590 0.026830 -0.007420 
#    y 0.026830 1.841340 -0.013110 
#    z -0.007420 -0.013110 1.890750 
# 
# From -- ./inp_files/221722.got.cif
#   From: 2010.06.25/outbox.cif.g09.slc.cpg/sg2_111_cif.got.tgz:221722.got - 2010.06.27 13:26:56.
