data_PCOD8007813
_publ_section_title
;
Structure prediction by ZEFSAII (Michael W. Deem and Ramdas Pophale) SiO2 
 PCOD8007813
Probable space group: P -1
;
_chemical_formula_sum "Si O2"
_cell_formula_units_Z 16
_cell_length_a 9.697199
_cell_length_b 8.249024
_cell_length_c 16.656682
_cell_angle_alpha 92.088098
_cell_angle_beta 33.627602
_cell_angle_gamma 92.946641
_cell_volume 736.853684
_symmetry_space_group_name_H-M "P -1"
_symmetry_group_IT_number 2
_symmetry_cell_setting 'triclinic'
loop_
_space_group_symop_operation_xyz
x,y,z
-x,-y,-z
loop_
_atom_site_type_symbol
_atom_site_label
_atom_site_fract_x
_atom_site_fract_y
_atom_site_fract_z
Si Si1 0.252863 0.387741 0.103968
Si Si2 0.336381 0.319555 0.373047
Si Si3 0.931141 0.803672 0.656637
Si Si4 0.945201 0.678613 0.210781
Si Si5 0.562944 0.316409 0.628755
Si Si6 0.025845 0.829134 0.337842
Si Si7 0.500574 0.325078 0.833745
Si Si8 0.781028 0.380554 0.070813
O O1 0.193854 0.276782 0.206373
O O2 0.019069 0.499310 0.200412
O O3 0.500000 0.500000 0.000000
O O4 0.308034 0.269450 0.997778
O O5 0.164524 0.278706 0.379443
O O6 0.310341 0.506593 0.413635
O O7 0.630275 0.279759 0.211713
O O8 0.240519 0.207964 0.491358
O O9 0.230842 0.794346 0.512607
O O10 0.865019 0.992262 0.691963
O O11 0.343717 0.328404 0.671349
O O12 0.994658 0.812565 0.257157
O O13 0.110476 0.731994 0.053291
O O14 0.460712 0.242665 0.763273
O O15 0.216813 0.697357 0.275251
O O16 0.445592 0.516395 0.853836
O O17 0.000000 0.500000 0.000000
#
# Coordination Sequence:
#
# PCOD8007813 Si02
#       8
#     2   2   2   2   2   2   2   2
#     4  11  22  41  68  99 124 168 225 280 319 379
#     4  11  23  40  69  98 128 168 229 274 319 379
#     4  12  26  43  66  97 137 176 220 267 329 399
#     4  11  23  43  67 101 135 165 221 279 336 378
#     4  11  23  42  72  95 127 174 222 281 323 379
#     4  12  26  42  65  99 138 178 214 265 332 403
#     4  10  21  39  66  95 128 165 219 266 324 384
#     4  10  20  41  69 101 125 165 219 281 323 376
#
# _framework density 21.713943
#
# number of rings (size 3 to 8) (size 9 to 14) (size 15 to 20)
#    0.000    1.000    5.000    3.750    1.750    3.000 
#    0.000    0.000    0.000    2.250    0.000    0.000 
#    0.000    0.000    0.000    0.000    0.000    0.000 
#
# Total GULP energy -198280.006724 kJ/mol
# GULP energy per Si atom -12392.500420 kJ/mol
# Density = 2.166452 g / cm^3
# Si number density = 21.713943 Si / 1000 Ang^3
#
#
#
# Elastic Constant Matrix: (Units=GPa)
#
#
# Indices 1 2 3 4 5 6 
#
# 1 119.5486 27.9476 34.3654 9.5915 -10.9795 5.2721
# 2 27.9476 56.3595 27.6473 4.8497 -6.1558 3.9837
# 3 34.3654 27.6473 127.4571 0.7463 2.6281 -8.2804
# 4 9.5915 4.8497 0.7463 12.8829 -1.3575 4.7967
# 5 -10.9795 -6.1558 2.6281 -1.3575 42.9077 0.7471
# 6 5.2721 3.9837 -8.2804 4.7967 0.7471 13.6589
#
#
#
# Elastic Compliance Matrix: (Units=1/GPa)
#
#
# Indices 1 2 3 4 5 6 
#
# 1 0.010536 -0.003170 -0.002355 -0.005208 0.002271 -0.002865
# 2 -0.003170 0.022617 -0.004564 -0.002891 0.002748 -0.007274
# 3 -0.002355 -0.004564 0.010078 -0.000550 -0.002043 0.008655
# 4 -0.005208 -0.002891 -0.000550 0.094229 0.001801 -0.030669
# 5 0.002271 0.002748 -0.002043 0.001801 0.024548 -0.004892
# 6 -0.002865 -0.007274 0.008655 -0.030669 -0.004892 0.092725
#
#
# Mechanical properties :
#
#
# Convention : Reuss Voigt Hill
#
# Bulk Modulus (GPa) = 43.37891 53.69843 48.53867
# Shear Modulus (GPa) = 17.69311 28.11689 22.90500
#
# Velocity S-wave (km/s) = 2.85761 3.60234 3.25137
# Velocity P-wave (km/s) = 5.55956 6.48738 6.04131
#
# Compressibility (1/GPa) = 0.02305268
#
# Stress axis : x y z
#
# Youngs Moduli (GPa) = 94.91458 44.21420 99.22236
#
# Poissons Ratio (x) = 0.14017 0.23371
# Poissons Ratio (y) = 0.30091 0.45280
# Poissons Ratio (z) = 0.22357 0.20177
#
# Static dielectric constant tensor:
#      x y z
#    x 3.992780 -0.073670 0.292800 
#    y -0.073670 3.411280 0.113210 
#    z 0.292800 0.113210 4.691060 
# 
# 
# High freq. dielectric constant tensor:
#      x y z
#    x 1.855200 -0.001960 0.013620 
#    y -0.001960 1.793120 0.015290 
#    z 0.013620 0.015290 1.882550 
# 
# From -- ./inp_files/565335.got.cif
#   From: 2010.06.25/outbox.cif.g09.slc.cpg/sg2_283_cif.got.tgz:565335.got - 2010.06.27 13:26:56.
