data_PCOD8007860
_publ_section_title
;
Structure prediction by ZEFSAII (Michael W. Deem and Ramdas Pophale) SiO2 
 PCOD8007860
Probable space group: P -1
;
_chemical_formula_sum "Si O2"
_cell_formula_units_Z 14
_cell_length_a 17.293822
_cell_length_b 8.317274
_cell_length_c 9.680122
_cell_angle_alpha 62.760943
_cell_angle_beta 50.583967
_cell_angle_gamma 32.732247
_cell_volume 571.819668
_symmetry_space_group_name_H-M "P -1"
_symmetry_group_IT_number 2
_symmetry_cell_setting 'triclinic'
loop_
_space_group_symop_operation_xyz
x,y,z
-x,-y,-z
loop_
_atom_site_type_symbol
_atom_site_label
_atom_site_fract_x
_atom_site_fract_y
_atom_site_fract_z
Si Si1 0.317241 0.586616 0.056734
Si Si2 0.695703 0.404514 0.241508
Si Si3 0.362465 0.910937 0.522351
Si Si4 0.050989 0.939435 0.685013
Si Si5 0.157336 0.163418 0.394052
Si Si6 0.152021 0.394555 0.801444
Si Si7 0.663264 0.038364 0.010413
O O1 0.323816 0.794819 0.981645
O O2 0.308170 0.517409 0.940057
O O3 0.474658 0.274505 0.081266
O O4 0.145082 0.755882 0.243975
O O5 0.555256 0.706209 0.380781
O O6 0.634139 0.290013 0.335387
O O7 0.881893 0.139038 0.201439
O O8 0.310308 0.983164 0.392375
O O9 0.229335 0.212054 0.644121
O O10 0.099746 0.665608 0.699411
O O11 0.133345 0.979986 0.485862
O O12 0.000000 0.500000 0.500000
O O13 0.205279 0.155020 0.189052
O O14 0.000000 0.500000 0.000000
O O15 0.289907 0.193992 0.847545
#
# Coordination Sequence:
#
# PCOD8007860 Si02
#       7
#     2   2   2   2   2   2   2
#     4  11  22  43  68 106 144 186 234 293 359 412
#     4  10  20  41  70 101 136 187 241 288 346 416
#     4  10  21  41  70  98 143 185 236 286 351 426
#     4  11  26  44  75 101 145 186 244 288 355 427
#     4  11  25  47  71 105 140 187 234 301 360 418
#     4  12  23  46  71 106 141 192 239 287 352 432
#     4  11  24  43  74 102 146 184 232 297 362 413
#
# _framework density 24.483242000000001
#
# number of rings (size 3 to 8) (size 9 to 14) (size 15 to 20)
#    0.000    1.143    4.286    1.286    0.000    4.571 
#    2.571    1.429    0.000    0.000    0.000    0.000 
#    0.000    0.000    0.000    0.000    0.000    0.000 
#
# Total GULP energy -173447.244726 kJ/mol
# GULP energy per Si atom -12389.088909 kJ/mol
# Density = 2.442752 g / cm^3
# Si number density = 24.483242 Si / 1000 Ang^3
#
#
#
# Elastic Constant Matrix: (Units=GPa)
#
#
# Indices 1 2 3 4 5 6 
#
# 1 80.1046 26.4004 36.4781 13.0093 -5.8406 -17.1584
# 2 26.4004 113.4502 33.5431 17.3532 -14.2811 -5.1604
# 3 36.4781 33.5431 72.9123 15.2357 13.8239 12.5739
# 4 13.0093 17.3532 15.2357 36.6098 1.8226 0.4183
# 5 -5.8406 -14.2811 13.8239 1.8226 27.9222 3.5027
# 6 -17.1584 -5.1604 12.5739 0.4183 3.5027 49.1594
#
#
#
# Elastic Compliance Matrix: (Units=1/GPa)
#
#
# Indices 1 2 3 4 5 6 
#
# 1 0.023124 0.002025 -0.016229 -0.003185 0.012665 0.011559
# 2 0.002025 0.013233 -0.009111 -0.003814 0.011495 0.003640
# 3 -0.016229 -0.009111 0.033144 -0.002428 -0.022616 -0.013466
# 4 -0.003185 -0.003814 -0.002428 0.031443 -0.003352 -0.000920
# 5 0.012665 0.011495 -0.022616 -0.003352 0.054812 0.007535
# 6 0.011559 0.003640 -0.013466 -0.000920 0.007535 0.027674
#
#
# Mechanical properties :
#
#
# Convention : Reuss Voigt Hill
#
# Bulk Modulus (GPa) = 43.72669 51.03448 47.38058
# Shear Modulus (GPa) = 21.03642 34.07464 27.55553
#
# Velocity S-wave (km/s) = 2.93442 3.73467 3.35846
# Velocity P-wave (km/s) = 5.42031 6.28386 5.86799
#
# Compressibility (1/GPa) = 0.02286933
#
# Stress axis : x y z
#
# Youngs Moduli (GPa) = 43.24564 75.56932 30.17180
#
# Poissons Ratio (x) = -0.15301 0.48967
# Poissons Ratio (y) = -0.08756 0.27489
# Poissons Ratio (z) = 0.70185 0.68849
#
# Static dielectric constant tensor:
#      x y z
#    x 4.409580 -0.218890 0.052470 
#    y -0.218890 4.683270 0.148540 
#    z 0.052470 0.148540 4.239390 
# 
# 
# High freq. dielectric constant tensor:
#      x y z
#    x 1.970510 -0.018840 0.005220 
#    y -0.018840 1.984600 0.007040 
#    z 0.005220 0.007040 1.962260 
# 
# From -- ./inp_files/328702.got.cif
#   From: 2010.06.25/outbox.cif.g09.slc.cpg/sg2_165_cif.got.tgz:328702.got - 2010.06.27 13:26:56.
