data_PCOD8007875
_publ_section_title
;
Structure prediction by ZEFSAII (Michael W. Deem and Ramdas Pophale) SiO2 
 PCOD8007875
Probable space group: P -1
;
_chemical_formula_sum "Si O2"
_cell_formula_units_Z 16
_cell_length_a 15.247854
_cell_length_b 16.653430
_cell_length_c 8.875659
_cell_angle_alpha 145.084520
_cell_angle_beta 139.556995
_cell_angle_gamma 37.379881
_cell_volume 743.281324
_symmetry_space_group_name_H-M "P -1"
_symmetry_group_IT_number 2
_symmetry_cell_setting 'triclinic'
loop_
_space_group_symop_operation_xyz
x,y,z
-x,-y,-z
loop_
_atom_site_type_symbol
_atom_site_label
_atom_site_fract_x
_atom_site_fract_y
_atom_site_fract_z
Si Si1 0.205994 0.208187 0.121454
Si Si2 0.858583 0.035875 0.695760
Si Si3 0.862751 0.483895 0.373170
Si Si4 0.127668 0.736185 0.694766
Si Si5 0.360843 0.656713 0.627259
Si Si6 0.457553 0.919853 0.181608
Si Si7 0.871254 0.254950 0.807514
Si Si8 0.355799 0.086276 0.842716
O O1 0.249724 0.337772 0.451559
O O2 0.311436 0.046297 0.094717
O O3 0.230437 0.216099 0.986369
O O4 0.031184 0.246326 0.959653
O O5 0.907711 0.097831 0.707379
O O6 0.694136 0.045569 0.473778
O O7 0.836447 0.141611 0.975242
O O8 0.977640 0.850315 0.581214
O O9 0.913378 0.374632 0.421286
O O10 0.000000 0.500000 0.500000
O O11 0.786083 0.411064 0.043678
O O12 0.271051 0.628954 0.608382
O O13 0.500000 0.500000 0.500000
O O14 0.236628 0.735663 0.455474
O O15 0.421113 0.776716 0.955144
O O16 0.604939 0.843123 0.146252
O O17 0.500000 0.000000 0.500000
O O18 0.500000 0.000000 0.000000
#
# Coordination Sequence:
#
# PCOD8007875 Si02
#       8
#     2   2   2   2   2   2   2   2
#     4  10  21  40  67  90 126 170 223 268 321 393
#     4  10  20  41  70  95 125 163 228 278 325 393
#     4   9  21  40  64  97 129 169 212 267 341 392
#     4  10  22  41  67 100 126 167 220 282 330 383
#     4  12  27  43  64  99 141 174 220 275 334 395
#     4  11  25  42  65  94 130 175 216 265 330 390
#     4  10  21  42  67  95 129 174 221 273 334 386
#     4  10  21  36  58  90 121 162 210 257 315 386
#
# _framework density 21.52617
#
# number of rings (size 3 to 8) (size 9 to 14) (size 15 to 20)
#    0.000    1.750    0.000    3.750    3.500    5.500 
#    2.250    4.375    0.000    0.000    0.000    0.000 
#    0.000    0.000    0.000    0.000    0.000    0.000 
#
# Total GULP energy -198243.710433 kJ/mol
# GULP energy per Si atom -12390.231902 kJ/mol
# Density = 2.147718 g / cm^3
# Si number density = 21.526170 Si / 1000 Ang^3
#
#
#
# Elastic Constant Matrix: (Units=GPa)
#
#
# Indices 1 2 3 4 5 6 
#
# 1 150.7722 45.2933 39.3732 1.2830 -2.1077 10.8127
# 2 45.2933 73.6470 33.7105 8.7875 1.7303 -2.0179
# 3 39.3732 33.7105 119.2152 -4.9759 6.8273 2.7318
# 4 1.2830 8.7875 -4.9759 34.5497 4.3976 2.1264
# 5 -2.1077 1.7303 6.8273 4.3976 31.2862 2.9117
# 6 10.8127 -2.0179 2.7318 2.1264 2.9117 31.7668
#
#
#
# Elastic Compliance Matrix: (Units=1/GPa)
#
#
# Indices 1 2 3 4 5 6 
#
# 1 0.008747 -0.004919 -0.001470 0.000744 0.001388 -0.003340
# 2 -0.004919 0.019254 -0.004130 -0.005526 -0.000056 0.003628
# 3 -0.001470 -0.004130 0.010321 0.002945 -0.002479 -0.000620
# 4 0.000744 -0.005526 0.002945 0.031472 -0.004473 -0.002554
# 5 0.001388 -0.000056 -0.002479 -0.004473 0.033512 -0.003035
# 6 -0.003340 0.003628 -0.000620 -0.002554 -0.003035 0.033349
#
#
# Mechanical properties :
#
#
# Convention : Reuss Voigt Hill
#
# Bulk Modulus (GPa) = 57.86098 64.48760 61.17429
# Shear Modulus (GPa) = 30.58943 34.53771 32.56357
#
# Velocity S-wave (km/s) = 3.77375 4.00991 3.89362
# Velocity P-wave (km/s) = 6.77687 7.17370 6.97811
#
# Compressibility (1/GPa) = 0.01728280
#
# Stress axis : x y z
#
# Youngs Moduli (GPa) = 114.32742 51.93618 96.89350
#
# Poissons Ratio (x) = 0.25550 0.14240
# Poissons Ratio (y) = 0.56243 0.40020
# Poissons Ratio (z) = 0.16802 0.21452
#
# Static dielectric constant tensor:
#      x y z
#    x 4.922220 -0.134100 -0.379700 
#    y -0.134100 3.680900 0.153610 
#    z -0.379700 0.153610 4.296240 
# 
# 
# High freq. dielectric constant tensor:
#      x y z
#    x 1.861260 0.003830 -0.009060 
#    y 0.003830 1.814600 0.002110 
#    z -0.009060 0.002110 1.862160 
# 
# From -- ./inp_files/316140.got.cif
#   From: 2010.06.25/outbox.cif.g09.slc.cpg/sg2_159_cif.got.tgz:316140.got - 2010.06.27 13:26:56.
