data_PCOD8007447
_publ_section_title
;
Structure prediction by ZEFSAII (Michael W. Deem and Ramdas Pophale) SiO2 
 PCOD8007447
Probable space group: P -1
;
_chemical_formula_sum "Si O2"
_cell_formula_units_Z 16
_cell_length_a 14.304001
_cell_length_b 20.653142
_cell_length_c 10.200528
_cell_angle_alpha 60.032674
_cell_angle_beta 109.833108
_cell_angle_gamma 160.725612
_cell_volume 764.082906
_symmetry_space_group_name_H-M "P -1"
_symmetry_group_IT_number 2
_symmetry_cell_setting 'triclinic'
loop_
_space_group_symop_operation_xyz
x,y,z
-x,-y,-z
loop_
_atom_site_type_symbol
_atom_site_label
_atom_site_fract_x
_atom_site_fract_y
_atom_site_fract_z
Si Si1 0.138586 0.259786 0.050155
Si Si2 0.138860 0.430841 0.930988
Si Si3 0.137029 0.913394 0.174098
Si Si4 0.849562 0.468776 0.920586
Si Si5 0.790215 0.921577 0.441235
Si Si6 0.265831 0.768312 0.578422
Si Si7 0.307558 0.073827 0.357570
Si Si8 0.032075 0.372654 0.655975
O O1 0.500000 0.500000 0.000000
O O2 0.071139 0.294729 0.033611
O O3 0.907244 0.037555 0.240883
O O4 0.097329 0.222780 0.910868
O O5 0.512840 0.719905 0.801128
O O6 0.969207 0.346423 0.806346
O O7 0.015713 0.373773 0.069740
O O8 0.044956 0.870494 0.323970
O O9 0.472450 0.192141 0.022986
O O10 0.151611 0.834600 0.257528
O O11 0.956658 0.562264 0.729903
O O12 0.000000 0.500000 0.000000
O O13 0.858295 0.033735 0.471742
O O14 0.412056 0.633572 0.544756
O O15 0.000000 0.000000 0.500000
O O16 0.427891 0.803368 0.637988
O O17 0.135115 0.682441 0.454251
O O18 0.500000 0.000000 0.500000
#
# Coordination Sequence:
#
# PCOD8007447 Si02
#       8
#     2   2   2   2   2   2   2   2
#     4  11  23  43  65  90 120 160 207 257 305 361
#     4   9  21  38  60  87 122 159 205 248 297 364
#     4  10  20  41  63  93 123 161 205 249 299 371
#     4  11  20  39  60  88 126 164 201 245 302 358
#     4  11  24  44  66  90 123 160 206 260 310 363
#     4  12  22  37  62  93 133 163 203 252 306 365
#     4  10  21  41  62  91 127 164 203 252 307 361
#     4  10  21  40  62  92 127 162 204 255 308 361
#
# _framework density 20.940137
#
# number of rings (size 3 to 8) (size 9 to 14) (size 15 to 20)
#    0.000    1.500    3.750    3.000    1.750    2.000 
#    2.250   11.250    0.000    0.000    0.000    0.000 
#    0.000    0.000    0.000    0.000    0.000    0.000 
#
# Total GULP energy -198263.254893 kJ/mol
# GULP energy per Si atom -12391.453431 kJ/mol
# Density = 2.089248 g / cm^3
# Si number density = 20.940137 Si / 1000 Ang^3
#
#
#
# Elastic Constant Matrix: (Units=GPa)
#
#
# Indices 1 2 3 4 5 6 
#
# 1 71.5339 42.0030 32.6986 16.5721 -6.7847 -7.6356
# 2 42.0030 111.3755 34.2603 30.5686 -0.7124 -7.1854
# 3 32.6986 34.2603 96.4723 22.7901 1.6003 -2.6678
# 4 16.5721 30.5686 22.7901 44.2050 -6.2458 -2.1012
# 5 -6.7847 -0.7124 1.6003 -6.2458 33.6630 3.9037
# 6 -7.6356 -7.1854 -2.6678 -2.1012 3.9037 35.6315
#
#
#
# Elastic Compliance Matrix: (Units=1/GPa)
#
#
# Indices 1 2 3 4 5 6 
#
# 1 0.020314 -0.005921 -0.004672 -0.000458 0.003832 0.002362
# 2 -0.005921 0.013480 -0.001104 -0.006794 -0.002257 0.001213
# 3 -0.004672 -0.001104 0.013513 -0.004812 -0.002474 -0.000225
# 4 -0.000458 -0.006794 -0.004812 0.030757 0.005774 -0.000647
# 5 0.003832 -0.002257 -0.002474 0.005774 0.031965 -0.002981
# 6 0.002362 0.001213 -0.000225 -0.000647 -0.002981 0.029088
#
#
# Mechanical properties :
#
#
# Convention : Reuss Voigt Hill
#
# Bulk Modulus (GPa) = 41.82154 55.25618 48.53886
# Shear Modulus (GPa) = 29.32856 34.06122 31.69489
#
# Velocity S-wave (km/s) = 3.74651 4.03749 3.89472
# Velocity P-wave (km/s) = 6.22337 6.94119 6.59206
#
# Compressibility (1/GPa) = 0.02391113
#
# Stress axis : x y z
#
# Youngs Moduli (GPa) = 49.22823 74.18554 74.00255
#
# Poissons Ratio (x) = 0.43924 0.34577
# Poissons Ratio (y) = 0.29147 0.08173
# Poissons Ratio (z) = 0.23001 0.08193
#
# Static dielectric constant tensor:
#      x y z
#    x 3.583210 -0.318290 -0.268890 
#    y -0.318290 3.810020 0.427770 
#    z -0.268890 0.427770 6.037450 
# 
# 
# High freq. dielectric constant tensor:
#      x y z
#    x 1.800630 -0.024040 0.003600 
#    y -0.024040 1.820890 0.015260 
#    z 0.003600 0.015260 1.831010 
# 
# From -- ./inp_files/218702.got.cif
#   From: 2010.06.25/outbox.cif.g09.slc.cpg/sg2_110_cif.got.tgz:218702.got - 2010.06.27 13:26:56.
