data_PCOD8007347
_publ_section_title
;
Structure prediction by ZEFSAII (Michael W. Deem and Ramdas Pophale) SiO2 
 PCOD8007347
Probable space group: P -1
;
_chemical_formula_sum "Si O2"
_cell_formula_units_Z 16
_cell_length_a 18.760818
_cell_length_b 9.262257
_cell_length_c 11.480730
_cell_angle_alpha 117.023358
_cell_angle_beta 28.532799
_cell_angle_gamma 117.349523
_cell_volume 840.333573
_symmetry_space_group_name_H-M "P -1"
_symmetry_group_IT_number 2
_symmetry_cell_setting 'triclinic'
loop_
_space_group_symop_operation_xyz
x,y,z
-x,-y,-z
loop_
_atom_site_type_symbol
_atom_site_label
_atom_site_fract_x
_atom_site_fract_y
_atom_site_fract_z
Si Si1 0.302170 0.450829 0.347857
Si Si2 0.017043 0.491043 0.107668
Si Si3 0.119721 0.157642 0.869286
Si Si4 0.438239 0.281331 0.887047
Si Si5 0.384501 0.956004 0.988544
Si Si6 0.683448 0.350353 0.161231
Si Si7 0.676783 0.850355 0.641370
Si Si8 0.376793 0.309507 0.719565
O O1 0.123644 0.449264 0.603918
O O2 0.388506 0.630816 0.321848
O O3 0.356908 0.330354 0.321833
O O4 0.339340 0.393777 0.144194
O O5 0.000000 0.500000 0.000000
O O6 0.027940 0.309041 0.067838
O O7 0.169425 0.610537 0.957964
O O8 0.182724 0.144031 0.643754
O O9 0.253812 0.180199 0.780810
O O10 0.000000 0.000000 0.000000
O O11 0.373740 0.264589 0.843183
O O12 0.430529 0.100318 0.883257
O O13 0.281915 0.801782 0.022581
O O14 0.533272 0.886479 0.790034
O O15 0.290010 0.017102 0.253836
O O16 0.540495 0.293960 0.427673
O O17 0.657410 0.505256 0.176998
#
# Coordination Sequence:
#
# PCOD8007347 Si02
#       8
#     2   2   2   2   2   2   2   2
#     4  10  21  40  60  88 122 155 199 237 294 357
#     4  11  22  38  62  88 115 160 197 238 294 352
#     4  11  24  40  60  90 121 152 196 247 296 343
#     4  10  22  37  62  91 119 153 195 252 287 340
#     4  10  21  37  64  91 112 153 202 244 293 341
#     4  10  21  38  61  86 115 160 200 233 293 359
#     4  10  20  41  61  85 119 158 195 239 296 355
#     4  10  21  40  61  84 119 157 195 242 293 350
#
# _framework density 19.040058999999999
#
# number of rings (size 3 to 8) (size 9 to 14) (size 15 to 20)
#    0.000    1.750    2.500    1.500    3.500    2.500 
#    2.250    2.500    0.000    0.000    0.000    0.000 
#    0.000    0.000    0.000    0.000    0.000    0.000 
#
# Total GULP energy -198418.647825 kJ/mol
# GULP energy per Si atom -12401.165489 kJ/mol
# Density = 1.899672 g / cm^3
# Si number density = 19.040059 Si / 1000 Ang^3
#
#
#
# Elastic Constant Matrix: (Units=GPa)
#
#
# Indices 1 2 3 4 5 6 
#
# 1 140.4176 63.6259 52.9758 -7.4816 3.3389 7.1411
# 2 63.6259 124.5322 36.7986 -4.6331 -1.4213 23.5541
# 3 52.9758 36.7986 95.2938 -3.7612 -3.9396 6.4749
# 4 -7.4816 -4.6331 -3.7612 28.8053 0.2896 -1.6879
# 5 3.3389 -1.4213 -3.9396 0.2896 33.1729 -2.4791
# 6 7.1411 23.5541 6.4749 -1.6879 -2.4791 31.1295
#
#
#
# Elastic Compliance Matrix: (Units=1/GPa)
#
#
# Indices 1 2 3 4 5 6 
#
# 1 0.010892 -0.004562 -0.004423 0.001642 -0.001695 0.001827
# 2 -0.004562 0.012368 -0.001688 0.000117 0.000194 -0.007939
# 3 -0.004423 -0.001688 0.013725 0.000329 0.001971 -0.000388
# 4 0.001642 0.000117 0.000329 0.035287 -0.000328 0.001354
# 5 -0.001695 0.000194 0.001971 -0.000328 0.030730 0.002261
# 6 0.001827 -0.007939 -0.000388 0.001354 0.002261 0.038046
#
#
# Mechanical properties :
#
#
# Convention : Reuss Voigt Hill
#
# Bulk Modulus (GPa) = 63.93942 74.11603 69.02773
# Shear Modulus (GPa) = 29.83184 32.41109 31.12146
#
# Velocity S-wave (km/s) = 3.96257 4.13032 4.04731
# Velocity P-wave (km/s) = 7.38853 7.85856 7.62716
#
# Compressibility (1/GPa) = 0.01563980
#
# Stress axis : x y z
#
# Youngs Moduli (GPa) = 91.80842 80.85634 72.85814
#
# Poissons Ratio (x) = 0.36886 0.32225
# Poissons Ratio (y) = 0.41882 0.12297
# Poissons Ratio (z) = 0.40607 0.13647
#
# Static dielectric constant tensor:
#      x y z
#    x 3.602600 0.052970 -0.022910 
#    y 0.052970 3.613460 0.128870 
#    z -0.022910 0.128870 3.929070 
# 
# 
# High freq. dielectric constant tensor:
#      x y z
#    x 1.744250 0.000890 0.007290 
#    y 0.000890 1.744180 0.009350 
#    z 0.007290 0.009350 1.735660 
# 
# From -- ./inp_files/257954.got.cif
#   From: 2010.06.25/outbox.cif.g09.slc.cpg/sg2_129_cif.got.tgz:257954.got - 2010.06.27 13:26:56.
