data_PCOD8007537
_publ_section_title
;
Structure prediction by ZEFSAII (Michael W. Deem and Ramdas Pophale) SiO2 
 PCOD8007537
Probable space group: P -1
;
_chemical_formula_sum "Si O2"
_cell_formula_units_Z 16
_cell_length_a 13.773204
_cell_length_b 9.503355
_cell_length_c 9.870868
_cell_angle_alpha 71.387043
_cell_angle_beta 83.588291
_cell_angle_gamma 41.818887
_cell_volume 799.981819
_symmetry_space_group_name_H-M "P -1"
_symmetry_group_IT_number 2
_symmetry_cell_setting 'triclinic'
loop_
_space_group_symop_operation_xyz
x,y,z
-x,-y,-z
loop_
_atom_site_type_symbol
_atom_site_label
_atom_site_fract_x
_atom_site_fract_y
_atom_site_fract_z
Si Si1 0.371280 0.785906 0.575304
Si Si2 0.797386 0.971885 0.920887
Si Si3 0.805953 0.067846 0.184406
Si Si4 0.125500 0.636653 0.290342
Si Si5 0.355604 0.159693 0.066606
Si Si6 0.638778 0.879743 0.609245
Si Si7 0.303537 0.675122 0.376425
Si Si8 0.133880 0.670128 0.969680
O O1 0.325518 0.817738 0.727661
O O2 0.305156 0.726178 0.515938
O O3 0.548689 0.584336 0.604837
O O4 0.311082 0.008951 0.456041
O O5 0.749808 0.856483 0.949563
O O6 0.973545 0.783648 0.926626
O O7 0.707512 0.168834 0.764601
O O8 0.748844 0.086387 0.040321
O O9 0.849082 0.191535 0.147565
O O10 0.950613 0.804884 0.284950
O O11 0.217845 0.380930 0.374713
O O12 0.170453 0.711247 0.368376
O O13 0.151650 0.676085 0.125438
O O14 0.405671 0.095735 0.235212
O O15 0.260818 0.415836 0.972670
O O16 0.500000 0.000000 0.000000
O O17 0.500000 0.000000 0.500000
#
# Coordination Sequence:
#
# PCOD8007537 Si02
#       8
#     2   2   2   2   2   2   2   2
#     4  11  26  38  59  92 124 160 198 249 301 356
#     4  11  21  42  65  87 124 159 200 250 302 358
#     4  11  23  39  64  96 118 151 212 251 293 355
#     4  10  20  41  65  85 118 164 200 245 300 360
#     4  11  26  40  63  94 120 157 206 251 296 355
#     4  11  23  42  61  83 127 164 195 239 310 359
#     4  11  21  41  61  85 122 163 198 241 308 353
#     4  10  21  41  64  91 122 158 197 252 309 349
#
# _framework density 20.000456
#
# number of rings (size 3 to 8) (size 9 to 14) (size 15 to 20)
#    0.000    1.250    5.000    1.125    3.500    1.500 
#    0.000    0.000    0.000    0.000    0.000    0.000 
#    0.000    0.000    0.000    0.000    0.000    0.000 
#
# Total GULP energy -198472.855972 kJ/mol
# GULP energy per Si atom -12404.553498 kJ/mol
# Density = 1.995493 g / cm^3
# Si number density = 20.000456 Si / 1000 Ang^3
#
#
#
# Elastic Constant Matrix: (Units=GPa)
#
#
# Indices 1 2 3 4 5 6 
#
# 1 61.3822 23.7759 18.6112 1.5333 7.4046 10.6678
# 2 23.7759 105.1363 40.0472 -4.8550 -6.5950 9.7060
# 3 18.6112 40.0472 80.1970 1.4251 2.6549 -6.0363
# 4 1.5333 -4.8550 1.4251 36.4943 1.2268 -2.9459
# 5 7.4046 -6.5950 2.6549 1.2268 30.9149 0.2906
# 6 10.6678 9.7060 -6.0363 -2.9459 0.2906 16.9482
#
#
#
# Elastic Compliance Matrix: (Units=1/GPa)
#
#
# Indices 1 2 3 4 5 6 
#
# 1 0.021771 -0.002141 -0.004870 -0.002008 -0.005037 -0.014475
# 2 -0.002141 0.013940 -0.007309 0.001358 0.004145 -0.009074
# 3 -0.004870 -0.007309 0.018360 -0.000303 -0.002087 0.013774
# 4 -0.002008 0.001358 -0.000303 0.028116 -0.000369 0.005272
# 5 -0.005037 0.004145 -0.002087 -0.000369 0.034637 -0.000605
# 6 -0.014475 -0.009074 0.013774 0.005272 -0.000605 0.079143
#
#
# Mechanical properties :
#
#
# Convention : Reuss Voigt Hill
#
# Bulk Modulus (GPa) = 39.32096 45.73156 42.52626
# Shear Modulus (GPa) = 21.45153 27.82357 24.63755
#
# Velocity S-wave (km/s) = 3.27854 3.73385 3.51358
# Velocity P-wave (km/s) = 5.83390 6.44234 6.14566
#
# Compressibility (1/GPa) = 0.02543173
#
# Stress axis : x y z
#
# Youngs Moduli (GPa) = 45.93347 71.73674 54.46515
#
# Poissons Ratio (x) = 0.15355 0.26527
# Poissons Ratio (y) = 0.09832 0.39806
# Poissons Ratio (z) = 0.22372 0.52430
#
# Static dielectric constant tensor:
#      x y z
#    x 3.431620 0.139520 0.142300 
#    y 0.139520 3.833970 -0.138810 
#    z 0.142300 -0.138810 3.608470 
# 
# 
# High freq. dielectric constant tensor:
#      x y z
#    x 1.773920 0.011830 0.015900 
#    y 0.011830 1.792560 -0.010330 
#    z 0.015900 -0.010330 1.776360 
# 
# From -- ./inp_files/180213.got.cif
#   From: 2010.06.25/outbox.cif.g09.slc.cpg/sg2_91_cif.got.tgz:180213.got - 2010.06.27 13:26:56.
