data_PCOD8007382
_publ_section_title
;
Structure prediction by ZEFSAII (Michael W. Deem and Ramdas Pophale) SiO2 
 PCOD8007382
Probable space group: P -1
;
_chemical_formula_sum "Si O2"
_cell_formula_units_Z 12
_cell_length_a 16.876906
_cell_length_b 11.370767
_cell_length_c 14.101308
_cell_angle_alpha 31.589917
_cell_angle_beta 154.983655
_cell_angle_gamma 147.326145
_cell_volume 568.866485
_symmetry_space_group_name_H-M "P -1"
_symmetry_group_IT_number 2
_symmetry_cell_setting 'triclinic'
loop_
_space_group_symop_operation_xyz
x,y,z
-x,-y,-z
loop_
_atom_site_type_symbol
_atom_site_label
_atom_site_fract_x
_atom_site_fract_y
_atom_site_fract_z
Si Si1 0.675205 0.996091 0.813632
Si Si2 0.846544 0.726281 0.330294
Si Si3 0.378194 0.196402 0.431793
Si Si4 0.469878 0.310247 0.829801
Si Si5 0.272323 0.019227 0.637845
Si Si6 0.251806 0.786714 0.446042
O O1 0.485136 0.803233 0.691282
O O2 0.597091 0.167751 0.679509
O O3 0.807282 0.147480 0.767957
O O4 0.808618 0.876012 0.098797
O O5 0.664568 0.652082 0.256697
O O6 0.874125 0.485219 0.483181
O O7 0.041891 0.876712 0.493204
O O8 0.383502 0.441659 0.220103
O O9 0.317413 0.196693 0.475125
O O10 0.217320 0.971546 0.359364
O O11 0.328723 0.172875 0.687412
O O12 0.604658 0.162098 0.117529
#
# Coordination Sequence:
#
# PCOD8007382 Si02
#       6
#     2   2   2   2   2   2
#     4   9  18  35  62  88 114 158 191 231 301 349
#     4  12  21  39  64  90 121 150 200 247 291 355
#     4  10  20  41  62  85 118 160 196 237 298 348
#     4  11  22  45  61  79 128 158 195 247 290 353
#     4  11  26  38  61  93 113 161 202 240 297 343
#     4   9  19  36  64  89 115 162 190 233 311 347
#
# _framework density 21.094580000000001
#
# number of rings (size 3 to 8) (size 9 to 14) (size 15 to 20)
#    1.000    0.667    3.333    1.500    0.000    3.333 
#    0.000    2.500    0.000    0.000    0.000    0.000 
#    0.000    0.000    0.000    0.000    0.000    0.000 
#
# Total GULP energy -148770.028499 kJ/mol
# GULP energy per Si atom -12397.502375 kJ/mol
# Density = 2.104657 g / cm^3
# Si number density = 21.094580 Si / 1000 Ang^3
#
#
#
# Elastic Constant Matrix: (Units=GPa)
#
#
# Indices 1 2 3 4 5 6 
#
# 1 52.4359 2.0295 37.7567 0.0408 -15.1814 0.0326
# 2 2.0295 72.3354 30.3725 -10.0130 1.5663 -14.6070
# 3 37.7567 30.3725 43.2167 -3.2365 -13.8717 -0.6616
# 4 0.0408 -10.0130 -3.2365 24.4785 2.0446 -2.5837
# 5 -15.1814 1.5663 -13.8717 2.0446 17.8713 0.2406
# 6 0.0326 -14.6070 -0.6616 -2.5837 0.2406 21.8204
#
#
#
# Elastic Compliance Matrix: (Units=1/GPa)
#
#
# Indices 1 2 3 4 5 6 
#
# 1 0.270121 0.195817 -0.402518 0.048636 -0.107385 0.125419
# 2 0.195817 0.177924 -0.325653 0.050795 -0.109396 0.116160
# 3 -0.402518 -0.325653 0.662621 -0.084892 0.213468 -0.209712
# 4 0.048636 0.050795 -0.084892 0.057410 -0.036117 0.038552
# 5 -0.107385 -0.109396 0.213468 -0.036117 0.145123 -0.072476
# 6 0.125419 0.116160 -0.209712 0.038552 -0.072476 0.122407
#
#
# Mechanical properties :
#
#
# Convention : Reuss Voigt Hill
#
# Bulk Modulus (GPa) = 21.75959 34.25616 28.00787
# Shear Modulus (GPa) = 1.98757 19.35601 10.67179
#
# Velocity S-wave (km/s) = 0.97173 3.03245 2.25167
# Velocity P-wave (km/s) = 3.40539 5.34187 4.47952
#
# Compressibility (1/GPa) = 0.04595675
#
# Stress axis : x y z
#
# Youngs Moduli (GPa) = 3.70205 5.62038 1.50916
#
# Poissons Ratio (x) = -1.10056 0.60746
# Poissons Ratio (y) = -0.72492 0.49146
# Poissons Ratio (z) = 1.49014 1.83029
#
# Static dielectric constant tensor:
#      x y z
#    x 3.565800 -0.033960 -0.169990 
#    y -0.033960 3.623180 -0.152300 
#    z -0.169990 -0.152300 3.548500 
# 
# 
# High freq. dielectric constant tensor:
#      x y z
#    x 1.824060 0.000460 -0.018340 
#    y 0.000460 1.818210 -0.013850 
#    z -0.018340 -0.013850 1.809120 
# 
# From -- ./inp_files/332601.got.cif
#   From: 2010.06.25/outbox.cif.g09.slc.cpg/sg2_167_cif.got.tgz:332601.got - 2010.06.27 13:26:56.
