data_PCOD8007856
_publ_section_title
;
Structure prediction by ZEFSAII (Michael W. Deem and Ramdas Pophale) SiO2 
 PCOD8007856
Probable space group: P -1
;
_chemical_formula_sum "Si O2"
_cell_formula_units_Z 16
_cell_length_a 15.074165
_cell_length_b 9.615740
_cell_length_c 7.279313
_cell_angle_alpha 95.046141
_cell_angle_beta 114.885407
_cell_angle_gamma 126.936476
_cell_volume 675.272514
_symmetry_space_group_name_H-M "P -1"
_symmetry_group_IT_number 2
_symmetry_cell_setting 'triclinic'
loop_
_space_group_symop_operation_xyz
x,y,z
-x,-y,-z
loop_
_atom_site_type_symbol
_atom_site_label
_atom_site_fract_x
_atom_site_fract_y
_atom_site_fract_z
Si Si1 0.664752 0.595174 0.406521
Si Si2 0.046396 0.704483 0.543918
Si Si3 0.862311 0.748074 0.926637
Si Si4 0.114789 0.921101 0.993965
Si Si5 0.326292 0.084282 0.701157
Si Si6 0.460021 0.920519 0.157268
Si Si7 0.759645 0.511501 0.146287
Si Si8 0.409620 0.169987 0.209342
O O1 0.795044 0.697393 0.661148
O O2 0.662804 0.754323 0.365707
O O3 0.671954 0.506391 0.220247
O O4 0.526636 0.405080 0.372179
O O5 0.918034 0.666279 0.361321
O O6 0.000000 0.500000 0.500000
O O7 0.090100 0.790220 0.794821
O O8 0.172866 0.861341 0.531365
O O9 0.996944 0.779839 0.031973
O O10 0.749744 0.577835 0.949812
O O11 0.911777 0.945815 0.075504
O O12 0.276436 0.068809 0.213527
O O13 0.431337 0.088007 0.680711
O O14 0.364698 0.136096 0.954185
O O15 0.462316 0.065787 0.295668
O O16 0.304800 0.704879 0.977225
O O17 0.500000 0.000000 0.000000
#
# Coordination Sequence:
#
# PCOD8007856 Si02
#       8
#     2   2   2   2   2   2   2   2
#     4  12  24  43  73 102 139 181 235 286 347 413
#     4  11  23  41  73 100 136 189 233 279 351 420
#     4  11  27  43  68 105 145 178 230 295 338 414
#     4  10  23  45  65  99 148 169 231 285 346 395
#     4  10  22  36  66 106 132 177 232 287 344 408
#     4  10  20  41  69  99 139 177 231 287 342 410
#     4  12  23  42  73 102 137 184 233 283 352 410
#     4  10  21  42  72  97 138 185 227 289 345 409
#
# _framework density 23.694139
#
# number of rings (size 3 to 8) (size 9 to 14) (size 15 to 20)
#    0.000    1.250    3.750    4.125    5.250    1.500 
#    0.000    3.125    2.750    0.000    0.000    0.000 
#    0.000    0.000    0.000    0.000    0.000    0.000 
#
# Total GULP energy -198312.598096 kJ/mol
# GULP energy per Si atom -12394.537381 kJ/mol
# Density = 2.364021 g / cm^3
# Si number density = 23.694139 Si / 1000 Ang^3
#
#
#
# Elastic Constant Matrix: (Units=GPa)
#
#
# Indices 1 2 3 4 5 6 
#
# 1 122.9421 34.7527 28.3084 16.4233 18.1137 -10.5887
# 2 34.7527 121.7542 40.4595 34.3416 0.7549 -16.7765
# 3 28.3084 40.4595 56.8150 22.5583 16.4654 1.5185
# 4 16.4233 34.3416 22.5583 40.6594 4.5046 7.6795
# 5 18.1137 0.7549 16.4654 4.5046 41.6031 4.6350
# 6 -10.5887 -16.7765 1.5185 7.6795 4.6350 31.7592
#
#
#
# Elastic Compliance Matrix: (Units=1/GPa)
#
#
# Indices 1 2 3 4 5 6 
#
# 1 0.010168 -0.000728 -0.002667 -0.002418 -0.003569 0.004238
# 2 -0.000728 0.015368 -0.007407 -0.010876 0.002986 0.010423
# 3 -0.002667 -0.007407 0.030101 -0.007757 -0.009445 -0.002987
# 4 -0.002418 -0.010876 -0.007757 0.042012 0.001618 -0.016575
# 5 -0.003569 0.002986 -0.009445 0.001618 0.029529 -0.003862
# 6 0.004238 0.010423 -0.002987 -0.016575 -0.003862 0.043121
#
#
# Mechanical properties :
#
#
# Convention : Reuss Voigt Hill
#
# Bulk Modulus (GPa) = 29.38259 56.50582 42.94421
# Shear Modulus (GPa) = 24.60073 36.00371 30.30222
#
# Velocity S-wave (km/s) = 3.22570 3.90233 3.58004
# Velocity P-wave (km/s) = 5.12847 6.64861 5.93739
#
# Compressibility (1/GPa) = 0.03403376
#
# Stress axis : x y z
#
# Youngs Moduli (GPa) = 98.35249 65.07156 33.22127
#
# Poissons Ratio (x) = 0.04737 0.08859
# Poissons Ratio (y) = 0.07159 0.24606
# Poissons Ratio (z) = 0.26229 0.48196
#
# Static dielectric constant tensor:
#      x y z
#    x 5.118140 -0.158940 0.306180 
#    y -0.158940 4.337450 0.146290 
#    z 0.306180 0.146290 4.060150 
# 
# 
# High freq. dielectric constant tensor:
#      x y z
#    x 1.947420 0.005460 0.013890 
#    y 0.005460 1.939990 0.020310 
#    z 0.013890 0.020310 1.927290 
# 
# From -- ./inp_files/298928.got.cif
#   From: 2010.06.25/outbox.cif.g09.slc.cpg/sg2_150_cif.got.tgz:298928.got - 2010.06.27 13:26:56.
