data_PCOD8007930
_publ_section_title
;
Structure prediction by ZEFSAII (Michael W. Deem and Ramdas Pophale) SiO2 
 PCOD8007930
Probable space group: P -1
;
_chemical_formula_sum "Si O2"
_cell_formula_units_Z 14
_cell_length_a 8.065101
_cell_length_b 9.032722
_cell_length_c 11.159369
_cell_angle_alpha 104.874344
_cell_angle_beta 121.420896
_cell_angle_gamma 52.577555
_cell_volume 548.786518
_symmetry_space_group_name_H-M "P -1"
_symmetry_group_IT_number 2
_symmetry_cell_setting 'triclinic'
loop_
_space_group_symop_operation_xyz
x,y,z
-x,-y,-z
loop_
_atom_site_type_symbol
_atom_site_label
_atom_site_fract_x
_atom_site_fract_y
_atom_site_fract_z
Si Si1 0.977961 0.514369 0.677006
Si Si2 0.460071 0.846595 0.834908
Si Si3 0.676612 0.279390 0.726547
Si Si4 0.320587 0.204683 0.562293
Si Si5 0.266570 0.886471 0.526143
Si Si6 0.642851 0.406023 0.154244
Si Si7 0.122961 0.242400 0.881359
O O1 0.105316 0.338622 0.598463
O O2 0.112796 0.614780 0.762862
O O3 0.968765 0.434377 0.785669
O O4 0.726062 0.679721 0.557457
O O5 0.453479 0.789809 0.684667
O O6 0.319530 0.793107 0.858889
O O7 0.323563 0.070805 0.838408
O O8 0.736715 0.736243 0.954083
O O9 0.567961 0.162483 0.700956
O O10 0.701309 0.267611 0.587515
O O11 0.499663 0.485835 0.755769
O O12 0.939755 0.200511 0.859248
O O13 0.325379 0.019979 0.505444
O O14 0.000000 0.000000 0.500000
O O15 0.500000 0.500000 0.000000
#
# Coordination Sequence:
#
# PCOD8007930 Si02
#       7
#     2   2   2   2   2   2   2
#     4  10  20  41  72  96 137 180 228 277 346 407
#     4  11  24  43  73  99 143 182 225 277 356 403
#     4  11  26  43  70 104 137 176 240 282 338 408
#     4  10  22  40  66 105 137 175 228 289 338 400
#     4  12  22  44  71 101 140 181 225 283 347 403
#     4  11  24  46  69  97 139 182 225 285 344 403
#     4  11  23  44  70 103 136 184 229 279 341 416
#
# _framework density 25.510828
#
# number of rings (size 3 to 8) (size 9 to 14) (size 15 to 20)
#    0.000    1.143    4.286    1.286    0.000    5.143 
#    2.571    1.429    0.000    0.000    0.000    0.000 
#    0.000    0.000    0.000    0.000    0.000    0.000 
#
# Total GULP energy -173519.464132 kJ/mol
# GULP energy per Si atom -12394.247438 kJ/mol
# Density = 2.545276 g / cm^3
# Si number density = 25.510828 Si / 1000 Ang^3
#
#
#
# Elastic Constant Matrix: (Units=GPa)
#
#
# Indices 1 2 3 4 5 6 
#
# 1 103.3793 22.7731 35.1359 -1.1613 22.1661 16.4797
# 2 22.7731 81.3446 41.9564 -8.3215 0.9719 21.5194
# 3 35.1359 41.9564 138.0470 -0.2297 7.8226 14.5195
# 4 -1.1613 -8.3215 -0.2297 39.5684 4.5191 -7.4395
# 5 22.1661 0.9719 7.8226 4.5191 49.4021 7.2184
# 6 16.4797 21.5194 14.5195 -7.4395 7.2184 30.5619
#
#
#
# Elastic Compliance Matrix: (Units=1/GPa)
#
#
# Indices 1 2 3 4 5 6 
#
# 1 0.012232 -0.001367 -0.002060 -0.000090 -0.004603 -0.003590
# 2 -0.001367 0.017492 -0.004060 0.001520 0.002205 -0.009802
# 3 -0.002060 -0.004060 0.009069 -0.000924 -0.000274 -0.000499
# 4 -0.000090 0.001520 -0.000924 0.027251 -0.003335 0.006838
# 5 -0.004603 0.002205 -0.000274 -0.003335 0.023383 -0.005275
# 6 -0.003590 -0.009802 -0.000499 0.006838 -0.005275 0.044705
#
#
# Mechanical properties :
#
#
# Convention : Reuss Voigt Hill
#
# Bulk Modulus (GPa) = 41.98098 58.05575 50.01837
# Shear Modulus (GPa) = 31.83779 38.76686 35.30233
#
# Velocity S-wave (km/s) = 3.53655 3.90246 3.72401
# Velocity P-wave (km/s) = 5.75918 6.56600 6.17578
#
# Compressibility (1/GPa) = 0.02382031
#
# Stress axis : x y z
#
# Youngs Moduli (GPa) = 81.75020 57.16804 110.27013
#
# Poissons Ratio (x) = 0.07813 0.22713
# Poissons Ratio (y) = 0.11172 0.44770
# Poissons Ratio (z) = 0.16839 0.23211
#
# Static dielectric constant tensor:
#      x y z
#    x 4.592200 0.144680 0.291980 
#    y 0.144680 4.380540 0.213880 
#    z 0.291980 0.213880 4.857940 
# 
# 
# High freq. dielectric constant tensor:
#      x y z
#    x 2.025040 0.004030 0.017690 
#    y 0.004030 2.003050 0.020020 
#    z 0.017690 0.020020 2.019670 
# 
# From -- ./inp_files/382731.got.cif
#   From: 2010.06.25/outbox.cif.g09.slc.cpg/sg2_192_cif.got.tgz:382731.got - 2010.06.27 13:26:56.
