data_PCOD8007659
_publ_section_title
;
Structure prediction by ZEFSAII (Michael W. Deem and Ramdas Pophale) SiO2 
 PCOD8007659
Probable space group: P -1
;
_chemical_formula_sum "Si O2"
_cell_formula_units_Z 16
_cell_length_a 9.197983
_cell_length_b 14.947422
_cell_length_c 9.045199
_cell_angle_alpha 95.017773
_cell_angle_beta 48.136068
_cell_angle_gamma 67.763629
_cell_volume 745.727537
_symmetry_space_group_name_H-M "P -1"
_symmetry_group_IT_number 2
_symmetry_cell_setting 'triclinic'
loop_
_space_group_symop_operation_xyz
x,y,z
-x,-y,-z
loop_
_atom_site_type_symbol
_atom_site_label
_atom_site_fract_x
_atom_site_fract_y
_atom_site_fract_z
Si Si1 0.240056 0.971342 0.910860
Si Si2 0.080043 0.185992 0.226617
Si Si3 0.584022 0.662800 0.595838
Si Si4 0.453432 0.221721 0.101390
Si Si5 0.898718 0.290464 0.074621
Si Si6 0.604771 0.245414 0.686676
Si Si7 0.254296 0.474606 0.796354
Si Si8 0.397971 0.174091 0.589170
O O1 0.332377 0.875165 0.955791
O O2 0.439730 0.934058 0.640047
O O3 0.207085 0.075187 0.026656
O O4 0.000000 0.000000 0.000000
O O5 0.271456 0.189201 0.192576
O O6 0.958627 0.287608 0.207496
O O7 0.886065 0.193067 0.468243
O O8 0.678722 0.662356 0.696275
O O9 0.290957 0.738972 0.817364
O O10 0.683307 0.547344 0.427090
O O11 0.666998 0.718614 0.438995
O O12 0.558440 0.240994 0.889272
O O13 0.766847 0.416236 0.125161
O O14 0.142071 0.198010 0.807256
O O15 0.451327 0.371415 0.749263
O O16 0.541541 0.168718 0.636930
O O17 0.000000 0.500000 0.000000
#
# Coordination Sequence:
#
# PCOD8007659 Si02
#       8
#     2   2   2   2   2   2   2   2
#     4  11  23  44  70  96 126 170 222 270 320 388
#     4  12  23  41  67  96 134 174 212 267 328 380
#     4  10  22  40  64  95 127 170 216 265 310 385
#     4  11  25  44  63  94 138 169 209 269 332 378
#     4  12  21  40  73  93 127 176 218 265 320 376
#     4  11  22  42  63  97 134 171 212 269 319 385
#     4  11  20  40  72  96 127 171 222 263 316 384
#     4  10  20  41  66  95 129 163 223 272 307 384
#
# _framework density 21.455556999999999
#
# number of rings (size 3 to 8) (size 9 to 14) (size 15 to 20)
#    0.000    1.000    7.500    1.500    0.000    3.000 
#    0.000    3.125    0.000    0.000    0.000    0.000 
#    0.000    0.000    0.000    0.000    0.000    0.000 
#
# Total GULP energy -198289.317891 kJ/mol
# GULP energy per Si atom -12393.082368 kJ/mol
# Density = 2.140672 g / cm^3
# Si number density = 21.455557 Si / 1000 Ang^3
#
#
#
# Elastic Constant Matrix: (Units=GPa)
#
#
# Indices 1 2 3 4 5 6 
#
# 1 114.0171 28.2247 63.8967 1.6136 13.5774 -3.0357
# 2 28.2247 58.3246 27.9199 3.9955 9.4726 -11.6389
# 3 63.8967 27.9199 171.6750 -13.5982 3.1411 3.5131
# 4 1.6136 3.9955 -13.5982 37.2595 1.2885 3.0182
# 5 13.5774 9.4726 3.1411 1.2885 41.4840 -7.1761
# 6 -3.0357 -11.6389 3.5131 3.0182 -7.1761 17.9031
#
#
#
# Elastic Compliance Matrix: (Units=1/GPa)
#
#
# Indices 1 2 3 4 5 6 
#
# 1 0.012268 -0.003473 -0.004062 -0.001516 -0.002918 -0.000295
# 2 -0.003473 0.024174 -0.003337 -0.004926 -0.001186 0.016137
# 3 -0.004062 -0.003337 0.008284 0.003942 0.000485 -0.004954
# 4 -0.001516 -0.004926 0.003942 0.029706 -0.001288 -0.009757
# 5 -0.002918 -0.001186 0.000485 -0.001288 0.027010 0.009682
# 6 -0.000295 0.016137 -0.004954 -0.009757 0.009682 0.072795
#
#
# Mechanical properties :
#
#
# Convention : Reuss Voigt Hill
#
# Bulk Modulus (GPa) = 43.51414 64.89993 54.20703
# Shear Modulus (GPa) = 24.55280 34.26103 29.40692
#
# Velocity S-wave (km/s) = 3.38650 4.00038 3.70617
# Velocity P-wave (km/s) = 5.96794 7.18690 6.60560
#
# Compressibility (1/GPa) = 0.02298104
#
# Stress axis : x y z
#
# Youngs Moduli (GPa) = 81.51362 41.36658 120.71052
#
# Poissons Ratio (x) = 0.14368 0.49031
# Poissons Ratio (y) = 0.28312 0.40286
# Poissons Ratio (z) = 0.33110 0.13806
#
# Static dielectric constant tensor:
#      x y z
#    x 3.920130 0.364400 0.277140 
#    y 0.364400 4.749810 0.551860 
#    z 0.277140 0.551860 4.510620 
# 
# 
# High freq. dielectric constant tensor:
#      x y z
#    x 1.829620 0.014130 -0.000280 
#    y 0.014130 1.829420 -0.006400 
#    z -0.000280 -0.006400 1.860920 
# 
# From -- ./inp_files/203357.got.cif
#   From: 2010.06.25/outbox.cif.g09.slc.cpg/sg2_102_cif.got.tgz:203357.got - 2010.06.27 13:26:56.
