data_PCOD8007258
_publ_section_title
;
Structure prediction by ZEFSAII (Michael W. Deem and Ramdas Pophale) SiO2 
 PCOD8007258
Probable space group: P -1
;
_chemical_formula_sum "Si O2"
_cell_formula_units_Z 16
_cell_length_a 11.858126
_cell_length_b 13.749955
_cell_length_c 8.611528
_cell_angle_alpha 110.131660
_cell_angle_beta 118.399584
_cell_angle_gamma 117.155244
_cell_volume 765.975337
_symmetry_space_group_name_H-M "P -1"
_symmetry_group_IT_number 2
_symmetry_cell_setting 'triclinic'
loop_
_space_group_symop_operation_xyz
x,y,z
-x,-y,-z
loop_
_atom_site_type_symbol
_atom_site_label
_atom_site_fract_x
_atom_site_fract_y
_atom_site_fract_z
Si Si1 0.204303 0.523179 0.091244
Si Si2 0.508838 0.117594 0.991777
Si Si3 0.548158 0.628756 0.202405
Si Si4 0.956047 0.202772 0.876912
Si Si5 0.316333 0.394185 0.431185
Si Si6 0.239403 0.566395 0.497075
Si Si7 0.812360 0.290376 0.018664
Si Si8 0.186316 0.047045 0.593375
O O1 0.353576 0.564066 0.093581
O O2 0.277219 0.580994 0.345696
O O3 0.157848 0.608572 0.044340
O O4 0.027738 0.333200 0.872108
O O5 0.640564 0.264680 0.272019
O O6 0.618090 0.182513 0.932797
O O7 0.291515 0.034386 0.782007
O O8 0.500000 0.000000 0.000000
O O9 0.679236 0.686180 0.471795
O O10 0.654804 0.772236 0.240053
O O11 0.500000 0.500000 0.000000
O O12 0.804002 0.169796 0.872247
O O13 0.861274 0.049554 0.642281
O O14 0.128298 0.261992 0.128788
O O15 0.500000 0.500000 0.500000
O O16 0.320024 0.507257 0.584519
O O17 0.011589 0.430321 0.322642
O O18 0.000000 0.000000 0.500000
#
# Coordination Sequence:
#
# PCOD8007258 Si02
#       8
#     2   2   2   2   2   2   2   2
#     4  10  20  40  71  95 123 177 223 275 328 400
#     4  12  28  44  66 100 140 181 220 283 343 395
#     4  12  23  41  69  98 131 182 227 269 332 408
#     4  10  23  42  70  98 135 170 222 284 337 405
#     4  10  20  40  69  97 125 172 225 271 327 396
#     4  10  22  41  70  97 130 166 226 282 326 404
#     4  10  22  44  68  98 126 175 234 269 336 401
#     4  12  29  45  64 101 144 181 223 282 344 400
#
# _framework density 20.888401999999999
#
# number of rings (size 3 to 8) (size 9 to 14) (size 15 to 20)
#    0.000    1.500    3.750    3.375    5.250    4.000 
#    0.000    0.000    0.000    0.000    0.000    0.000 
#    0.000    0.000    0.000    0.000    0.000    0.000 
#
# Total GULP energy -198273.761065 kJ/mol
# GULP energy per Si atom -12392.110067 kJ/mol
# Density = 2.084086 g / cm^3
# Si number density = 20.888402 Si / 1000 Ang^3
#
#
#
# Elastic Constant Matrix: (Units=GPa)
#
#
# Indices 1 2 3 4 5 6 
#
# 1 112.0755 10.0936 52.1803 10.5999 4.4003 -4.9887
# 2 10.0936 78.2230 19.1260 -1.5159 3.4429 -10.9913
# 3 52.1803 19.1260 91.5714 7.7227 -12.1677 -17.2979
# 4 10.5999 -1.5159 7.7227 29.8006 -12.8469 3.5165
# 5 4.4003 3.4429 -12.1677 -12.8469 44.4315 3.2970
# 6 -4.9887 -10.9913 -17.2979 3.5165 3.2970 40.6924
#
#
#
# Elastic Compliance Matrix: (Units=1/GPa)
#
#
# Indices 1 2 3 4 5 6 
#
# 1 0.013201 0.000242 -0.007999 -0.004553 -0.004764 -0.000937
# 2 0.000242 0.013918 -0.002809 0.000150 -0.002032 0.002747
# 3 -0.007999 -0.002809 0.017828 -0.000218 0.005427 0.005418
# 4 -0.004553 0.000150 -0.000218 0.041338 0.012719 -0.005213
# 5 -0.004764 -0.002032 0.005427 0.012719 0.028465 -0.002231
# 6 -0.000937 0.002747 0.005418 -0.005213 -0.002231 0.028136
#
#
# Mechanical properties :
#
#
# Convention : Reuss Voigt Hill
#
# Bulk Modulus (GPa) = 41.98863 49.40774 45.69818
# Shear Modulus (GPa) = 29.07729 36.34956 32.71343
#
# Velocity S-wave (km/s) = 3.73504 4.17607 3.96170
# Velocity P-wave (km/s) = 6.22461 6.85254 6.54611
#
# Compressibility (1/GPa) = 0.02381597
#
# Stress axis : x y z
#
# Youngs Moduli (GPa) = 75.75304 71.85069 56.09150
#
# Poissons Ratio (x) = -0.01740 0.44866
# Poissons Ratio (y) = -0.01834 0.15754
# Poissons Ratio (z) = 0.60593 0.20180
#
# Static dielectric constant tensor:
#      x y z
#    x 4.183740 -0.296030 0.232360 
#    y -0.296030 3.805310 -0.236360 
#    z 0.232360 -0.236360 4.058040 
# 
# 
# High freq. dielectric constant tensor:
#      x y z
#    x 1.841640 -0.012110 0.006290 
#    y -0.012110 1.812130 -0.008120 
#    z 0.006290 -0.008120 1.807560 
# 
# From -- ./inp_files/273878.got.cif
#   From: 2010.06.25/outbox.cif.g09.slc.cpg/sg2_137_cif.got.tgz:273878.got - 2010.06.27 13:26:56.
