data_PCOD8007260
_publ_section_title
;
Structure prediction by ZEFSAII (Michael W. Deem and Ramdas Pophale) SiO2 
 PCOD8007260
Probable space group: P -1
;
_chemical_formula_sum "Si O2"
_cell_formula_units_Z 14
_cell_length_a 14.291761
_cell_length_b 9.498589
_cell_length_c 14.909966
_cell_angle_alpha 131.929827
_cell_angle_beta 31.365043
_cell_angle_gamma 110.011428
_cell_volume 632.957876
_symmetry_space_group_name_H-M "P -1"
_symmetry_group_IT_number 2
_symmetry_cell_setting 'triclinic'
loop_
_space_group_symop_operation_xyz
x,y,z
-x,-y,-z
loop_
_atom_site_type_symbol
_atom_site_label
_atom_site_fract_x
_atom_site_fract_y
_atom_site_fract_z
Si Si1 0.210200 0.001684 0.565415
Si Si2 0.025564 0.152580 0.972404
Si Si3 0.658656 0.892393 0.170138
Si Si4 0.044735 0.060635 0.394726
Si Si5 0.682373 0.689984 0.468073
Si Si6 0.967374 0.500393 0.422809
Si Si7 0.522327 0.793603 0.841078
O O1 0.478089 0.833038 0.292423
O O2 0.141567 0.879302 0.500805
O O3 0.148725 0.245772 0.675027
O O4 0.085706 0.040357 0.777363
O O5 0.800488 0.414161 0.256822
O O6 0.223903 0.163257 0.852715
O O7 0.000000 0.000000 0.000000
O O8 0.529222 0.169805 0.368139
O O9 0.841229 0.743678 0.881052
O O10 0.032472 0.288576 0.525778
O O11 0.000000 0.000000 0.500000
O O12 0.283699 0.838684 0.065883
O O13 0.579439 0.803993 0.696646
O O14 0.729414 0.550103 0.612932
O O15 0.000000 0.500000 0.500000
O O16 0.500000 0.000000 0.000000
#
# Coordination Sequence:
#
# PCOD8007260 Si02
#       7
#     2   2   2   2   2   2   2
#     4  10  25  45  70 100 142 181 228 284 349 405
#     4  12  26  46  71 104 135 180 240 287 342 410
#     4  10  24  45  71  97 140 179 231 277 355 401
#     4  11  25  43  67 107 140 177 233 277 345 416
#     4  10  23  46  70  93 140 182 225 280 349 398
#     4  11  23  41  72  96 142 183 226 282 346 412
#     4  10  20  40  69  97 135 181 223 276 340 400
#
# _framework density 22.118378
#
# number of rings (size 3 to 8) (size 9 to 14) (size 15 to 20)
#    0.857    0.571    1.429    4.286    6.000    1.143 
#    2.571    0.000    0.000    0.000    0.000    0.000 
#    0.000    0.000    0.000    0.000    0.000    0.000 
#
# Total GULP energy -173471.872259 kJ/mol
# GULP energy per Si atom -12390.848018 kJ/mol
# Density = 2.206804 g / cm^3
# Si number density = 22.118378 Si / 1000 Ang^3
#
#
#
# Elastic Constant Matrix: (Units=GPa)
#
#
# Indices 1 2 3 4 5 6 
#
# 1 115.4910 8.5105 36.9843 -11.2269 -1.4222 -13.0799
# 2 8.5105 76.8169 34.6821 -10.9241 -4.4989 -19.1433
# 3 36.9843 34.6821 124.7181 -0.5362 -14.9044 -9.9692
# 4 -11.2269 -10.9241 -0.5362 39.5640 -11.7228 1.7559
# 5 -1.4222 -4.4989 -14.9044 -11.7228 41.3153 -8.7005
# 6 -13.0799 -19.1433 -9.9692 1.7559 -8.7005 38.7237
#
#
#
# Elastic Compliance Matrix: (Units=1/GPa)
#
#
# Indices 1 2 3 4 5 6 
#
# 1 0.010292 0.001739 -0.003084 0.003555 0.001209 0.003652
# 2 0.001739 0.018188 -0.004316 0.006294 0.004190 0.009124
# 3 -0.003084 -0.004316 0.010502 -0.001057 0.002963 0.000242
# 4 0.003555 0.006294 -0.001057 0.030814 0.010209 0.004936
# 5 0.001209 0.004190 0.002963 0.010209 0.030706 0.009679
# 6 0.003652 0.009124 0.000242 0.004936 0.009679 0.033581
#
#
# Mechanical properties :
#
#
# Convention : Reuss Voigt Hill
#
# Bulk Modulus (GPa) = 36.15437 53.04220 44.59828
# Shear Modulus (GPa) = 32.33618 39.71055 36.02336
#
# Velocity S-wave (km/s) = 3.82771 4.24177 4.04005
# Velocity P-wave (km/s) = 5.99303 6.92988 6.47842
#
# Compressibility (1/GPa) = 0.02765918
#
# Stress axis : x y z
#
# Youngs Moduli (GPa) = 97.16052 54.98065 95.22183
#
# Poissons Ratio (x) = -0.09559 0.29365
# Poissons Ratio (y) = -0.16893 0.41101
# Poissons Ratio (z) = 0.29963 0.23731
#
# Static dielectric constant tensor:
#      x y z
#    x 4.682830 -0.113420 -0.642000 
#    y -0.113420 3.428760 -0.455370 
#    z -0.642000 -0.455370 4.330740 
# 
# 
# High freq. dielectric constant tensor:
#      x y z
#    x 1.882820 -0.015060 -0.008110 
#    y -0.015060 1.846400 -0.010900 
#    z -0.008110 -0.010900 1.874490 
# 
# From -- ./inp_files/530097.got.cif
#   From: 2010.06.25/outbox.cif.g09.slc.cpg/sg2_266_cif.got.tgz:530097.got - 2010.06.27 13:26:56.
