data_PCOD8007946
_publ_section_title
;
Structure prediction by ZEFSAII (Michael W. Deem and Ramdas Pophale) SiO2 
 PCOD8007946
Probable space group: P -1
;
_chemical_formula_sum "Si O2"
_cell_formula_units_Z 12
_cell_length_a 9.527671
_cell_length_b 14.312862
_cell_length_c 12.131349
_cell_angle_alpha 150.486527
_cell_angle_beta 37.039313
_cell_angle_gamma 132.803067
_cell_volume 490.266217
_symmetry_space_group_name_H-M "P -1"
_symmetry_group_IT_number 2
_symmetry_cell_setting 'triclinic'
loop_
_space_group_symop_operation_xyz
x,y,z
-x,-y,-z
loop_
_atom_site_type_symbol
_atom_site_label
_atom_site_fract_x
_atom_site_fract_y
_atom_site_fract_z
Si Si1 0.018273 0.899484 0.004501
Si Si2 0.423139 0.214065 0.735426
Si Si3 0.215414 0.855834 0.224342
Si Si4 0.124332 0.739322 0.398692
Si Si5 0.534104 0.798479 0.560124
Si Si6 0.255505 0.485535 0.692260
O O1 0.816405 0.750668 0.006844
O O2 0.260195 0.770592 0.725578
O O3 0.001402 0.066531 0.277715
O O4 0.000000 0.000000 0.000000
O O5 0.647439 0.338724 0.754088
O O6 0.384453 0.236915 0.653033
O O7 0.500000 0.000000 0.500000
O O8 0.239694 0.763361 0.232860
O O9 0.439439 0.981890 0.194136
O O10 0.179211 0.696650 0.993212
O O11 0.000000 0.000000 0.500000
O O12 0.931704 0.582383 0.348875
O O13 0.712028 0.659288 0.374329
O O14 0.500000 0.500000 0.500000
#
# Coordination Sequence:
#
# PCOD8007946 Si02
#       6
#     2   2   2   2   2   2
#     4  11  20  39  77 113 147 193 251 301 375 448
#     4  10  20  41  74 111 141 198 243 301 371 443
#     4  12  25  47  78 106 150 203 248 304 378 449
#     4  11  22  44  74 108 150 191 249 307 367 449
#     4  12  24  46  79 107 151 194 246 312 374 438
#     4  12  30  47  72 116 151 193 258 310 372 447
#
# _framework density 24.476496000000001
#
# number of rings (size 3 to 8) (size 9 to 14) (size 15 to 20)
#    0.000    0.667    8.333    1.500    2.333    1.333 
#    0.000    1.667    3.667    0.000    0.000    0.000 
#    0.000    0.000    0.000    0.000    0.000    0.000 
#
# Total GULP energy -148738.834704 kJ/mol
# GULP energy per Si atom -12394.902892 kJ/mol
# Density = 2.442079 g / cm^3
# Si number density = 24.476496 Si / 1000 Ang^3
#
#
#
# Elastic Constant Matrix: (Units=GPa)
#
#
# Indices 1 2 3 4 5 6 
#
# 1 116.2305 54.3246 31.4335 5.0940 10.8546 35.1122
# 2 54.3246 137.7186 37.1256 -19.8662 10.5769 38.6050
# 3 31.4335 37.1256 101.3130 -9.3630 4.5751 18.5825
# 4 5.0940 -19.8662 -9.3630 40.3183 4.3893 -2.2105
# 5 10.8546 10.5769 4.5751 4.3893 38.9608 -3.2278
# 6 35.1122 38.6050 18.5825 -2.2105 -3.2278 46.4212
#
#
#
# Elastic Compliance Matrix: (Units=1/GPa)
#
#
# Indices 1 2 3 4 5 6 
#
# 1 0.013039 -0.002990 -0.001879 -0.003638 -0.002770 -0.006990
# 2 -0.002990 0.011923 -0.001448 0.005910 -0.003482 -0.007035
# 3 -0.001879 -0.001448 0.011587 0.002200 -0.000855 -0.001968
# 4 -0.003638 0.005910 0.002200 0.029044 -0.004283 -0.001958
# 5 -0.002770 -0.003482 -0.000855 -0.004283 0.028556 0.007115
# 6 -0.006990 -0.007035 -0.001968 -0.001958 0.007115 0.033869
#
#
# Mechanical properties :
#
#
# Convention : Reuss Voigt Hill
#
# Bulk Modulus (GPa) = 41.81371 66.78106 54.29739
# Shear Modulus (GPa) = 33.64251 40.63195 37.13723
#
# Velocity S-wave (km/s) = 3.71142 4.07878 3.89943
# Velocity P-wave (km/s) = 5.95706 7.03739 6.51964
#
# Compressibility (1/GPa) = 0.02391560
#
# Stress axis : x y z
#
# Youngs Moduli (GPa) = 76.69501 83.87333 86.30561
#
# Poissons Ratio (x) = 0.25074 0.16217
# Poissons Ratio (y) = 0.22928 0.12494
# Poissons Ratio (z) = 0.14411 0.12142
#
# Static dielectric constant tensor:
#      x y z
#    x 6.242880 -3.537860 -2.495110 
#    y -3.537860 18.503200 7.323880 
#    z -2.495110 7.323880 8.409390 
# 
# 
# High freq. dielectric constant tensor:
#      x y z
#    x 1.985740 0.011650 -0.005860 
#    y 0.011650 1.982580 -0.015530 
#    z -0.005860 -0.015530 1.956490 
# 
# From -- ./inp_files/251555.got.cif
#   From: 2010.06.25/outbox.cif.g09.slc.cpg/sg2_126_cif.got.tgz:251555.got - 2010.06.27 13:26:56.
