data_PCOD8007902
_publ_section_title
;
Structure prediction by ZEFSAII (Michael W. Deem and Ramdas Pophale) SiO2 
 PCOD8007902
Probable space group: P -1
;
_chemical_formula_sum "Si O2"
_cell_formula_units_Z 12
_cell_length_a 14.977520
_cell_length_b 11.460961
_cell_length_c 8.994808
_cell_angle_alpha 132.857426
_cell_angle_beta 142.163517
_cell_angle_gamma 28.928445
_cell_volume 457.819149
_symmetry_space_group_name_H-M "P -1"
_symmetry_group_IT_number 2
_symmetry_cell_setting 'triclinic'
loop_
_space_group_symop_operation_xyz
x,y,z
-x,-y,-z
loop_
_atom_site_type_symbol
_atom_site_label
_atom_site_fract_x
_atom_site_fract_y
_atom_site_fract_z
Si Si1 0.941301 0.897404 0.733275
Si Si2 0.594159 0.074631 0.878847
Si Si3 0.541533 0.619558 0.560207
Si Si4 0.825162 0.669729 0.044720
Si Si5 0.810463 0.221550 0.335588
Si Si6 0.154021 0.313665 0.387485
O O1 0.982424 0.695829 0.695394
O O2 0.085156 0.784787 0.676598
O O3 0.682385 0.111153 0.544356
O O4 0.000000 0.000000 0.000000
O O5 0.335071 0.263374 0.673746
O O6 0.663914 0.946431 0.022022
O O7 0.735005 0.876321 0.763536
O O8 0.640830 0.223162 0.067650
O O9 0.500000 0.500000 0.500000
O O10 0.685621 0.623995 0.848612
O O11 0.672709 0.471459 0.453435
O O12 0.000000 0.500000 0.000000
O O13 0.964712 0.588179 0.308769
O O14 0.000000 0.000000 0.500000
#
# Coordination Sequence:
#
# PCOD8007902 Si02
#       6
#     2   2   2   2   2   2
#     4  12  24  45  72 108 152 186 241 307 361 431
#     4  10  21  42  71 104 144 192 241 296 363 435
#     4  12  25  46  73 107 142 193 245 296 367 432
#     4  10  21  41  74 101 140 197 237 292 371 427
#     4  12  25  46  75 110 143 195 247 296 367 441
#     4  10  20  41  71 102 146 194 235 300 366 424
#
# _framework density 26.211223
#
# number of rings (size 3 to 8) (size 9 to 14) (size 15 to 20)
#    0.000    1.000    5.000    3.000    0.000    0.667 
#    0.000    5.000    0.000   11.000    0.000    0.000 
#    0.000    0.000    0.000    0.000    0.000    0.000 
#
# Total GULP energy -148848.882793 kJ/mol
# GULP energy per Si atom -12404.073566 kJ/mol
# Density = 2.615156 g / cm^3
# Si number density = 26.211223 Si / 1000 Ang^3
#
#
#
# Elastic Constant Matrix: (Units=GPa)
#
#
# Indices 1 2 3 4 5 6 
#
# 1 184.4111 53.6442 62.4511 -20.0441 4.2951 7.4551
# 2 53.6442 95.1416 47.3474 -30.3854 -7.6897 2.6925
# 3 62.4511 47.3474 160.9512 -38.7738 22.2872 12.2887
# 4 -20.0441 -30.3854 -38.7738 42.5034 5.2070 -14.7553
# 5 4.2951 -7.6897 22.2872 5.2070 50.5740 3.7830
# 6 7.4551 2.6925 12.2887 -14.7553 3.7830 43.8563
#
#
#
# Elastic Compliance Matrix: (Units=1/GPa)
#
#
# Indices 1 2 3 4 5 6 
#
# 1 0.006946 -0.003296 -0.001920 -0.001103 -0.000071 -0.000805
# 2 -0.003296 0.016338 -0.001892 0.009124 0.002438 0.002947
# 3 -0.001920 -0.001892 0.010114 0.007891 -0.005449 0.000733
# 4 -0.001103 0.009124 0.007891 0.041814 -0.007207 0.012106
# 5 -0.000071 0.002438 -0.005449 -0.007207 0.023522 -0.003065
# 6 -0.000805 0.002947 0.000733 0.012106 -0.003065 0.026890
#
#
# Mechanical properties :
#
#
# Convention : Reuss Voigt Hill
#
# Bulk Modulus (GPa) = 52.13099 85.26547 68.69823
# Shear Modulus (GPa) = 34.19166 45.85748 40.02457
#
# Velocity S-wave (km/s) = 3.61566 4.18728 3.91193
# Velocity P-wave (km/s) = 6.11250 7.48188 6.83159
#
# Compressibility (1/GPa) = 0.01918245
#
# Stress axis : x y z
#
# Youngs Moduli (GPa) = 143.96761 61.20587 98.87311
#
# Poissons Ratio (x) = 0.20175 0.18982
# Poissons Ratio (y) = 0.47455 0.18705
# Poissons Ratio (z) = 0.27640 0.11579
#
# Static dielectric constant tensor:
#      x y z
#    x 5.085390 0.172200 -0.248460 
#    y 0.172200 4.901310 -0.334080 
#    z -0.248460 -0.334080 4.667210 
# 
# 
# High freq. dielectric constant tensor:
#      x y z
#    x 2.069230 -0.002380 0.005100 
#    y -0.002380 2.048840 -0.006870 
#    z 0.005100 -0.006870 2.066750 
# 
# From -- ./inp_files/269171.got.cif
#   From: 2010.06.25/outbox.cif.g09.slc.cpg/sg2_135_cif.got.tgz:269171.got - 2010.06.27 13:26:56.
