data_PCOD8007524
_publ_section_title
;
Structure prediction by ZEFSAII (Michael W. Deem and Ramdas Pophale) SiO2 
 PCOD8007524
Probable space group: P -1
;
_chemical_formula_sum "Si O2"
_cell_formula_units_Z 14
_cell_length_a 18.663618
_cell_length_b 11.303272
_cell_length_c 14.997470
_cell_angle_alpha 139.390524
_cell_angle_beta 18.261985
_cell_angle_gamma 142.311465
_cell_volume 605.646752
_symmetry_space_group_name_H-M "P -1"
_symmetry_group_IT_number 2
_symmetry_cell_setting 'triclinic'
loop_
_space_group_symop_operation_xyz
x,y,z
-x,-y,-z
loop_
_atom_site_type_symbol
_atom_site_label
_atom_site_fract_x
_atom_site_fract_y
_atom_site_fract_z
Si Si1 0.645161 0.470575 0.070316
Si Si2 0.202664 0.748789 0.697619
Si Si3 0.325934 0.135354 0.680387
Si Si4 0.740998 0.688892 0.309555
Si Si5 0.609965 0.542318 0.798180
Si Si6 0.160537 0.198695 0.545953
Si Si7 0.100632 0.811675 0.321959
O O1 0.774417 0.695578 0.069785
O O2 0.621740 0.446385 0.977712
O O3 0.365933 0.403838 0.397076
O O4 0.776103 0.342500 0.889564
O O5 0.402763 0.830712 0.585125
O O6 0.289152 0.622739 0.451992
O O7 0.157628 0.927107 0.798984
O O8 0.948686 0.627405 0.977728
O O9 0.328800 0.154028 0.579307
O O10 0.500000 0.500000 0.500000
O O11 0.870214 0.797859 0.309421
O O12 0.832011 0.745650 0.647027
O O13 0.500000 0.500000 0.000000
O O14 0.923692 0.178177 0.751995
O O15 0.248441 0.019983 0.310109
#
# Coordination Sequence:
#
# PCOD8007524 Si02
#       7
#     2   2   2   2   2   2   2
#     4  10  20  41  64  96 131 171 223 280 338 400
#     4  10  24  44  68  97 140 179 221 290 341 398
#     4  10  22  43  66  97 137 177 225 282 341 405
#     4  12  24  41  68 103 136 178 229 277 343 417
#     4  10  23  41  66  96 129 172 231 274 338 410
#     4  10  23  40  62  99 133 172 229 271 338 408
#     4  10  22  41  65  90 134 180 217 287 330 391
#
# _framework density 23.115786
#
# number of rings (size 3 to 8) (size 9 to 14) (size 15 to 20)
#    0.000    1.714    1.429    1.714    0.000    6.857 
#    0.000    0.000    0.000    0.000    0.000    0.000 
#    0.000    0.000    0.000    0.000    0.000    0.000 
#
# Total GULP energy -173468.843641 kJ/mol
# GULP energy per Si atom -12390.631689 kJ/mol
# Density = 2.306317 g / cm^3
# Si number density = 23.115786 Si / 1000 Ang^3
#
#
#
# Elastic Constant Matrix: (Units=GPa)
#
#
# Indices 1 2 3 4 5 6 
#
# 1 208.2564 43.6582 52.3934 15.1965 12.6520 -6.4456
# 2 43.6582 114.6161 33.4355 2.7242 2.4869 -5.9957
# 3 52.3934 33.4355 85.2015 7.9062 6.5568 -2.3835
# 4 15.1965 2.7242 7.9062 39.3828 -14.3717 -5.7644
# 5 12.6520 2.4869 6.5568 -14.3717 32.0708 5.4668
# 6 -6.4456 -5.9957 -2.3835 -5.7644 5.4668 38.3601
#
#
#
# Elastic Compliance Matrix: (Units=1/GPa)
#
#
# Indices 1 2 3 4 5 6 
#
# 1 0.006200 -0.001390 -0.002747 -0.002792 -0.003144 0.000682
# 2 -0.001390 0.010233 -0.003256 0.000882 0.000609 0.001209
# 3 -0.002747 -0.003256 0.015207 -0.002889 -0.003064 -0.000023
# 4 -0.002792 0.000882 -0.002889 0.033192 0.016127 0.002179
# 5 -0.003144 0.000609 -0.003064 0.016127 0.040914 -0.004031
# 6 0.000682 0.001209 -0.000023 0.002179 -0.004031 0.027273
#
#
# Mechanical properties :
#
#
# Convention : Reuss Voigt Hill
#
# Bulk Modulus (GPa) = 59.33157 74.11646 66.72401
# Shear Modulus (GPa) = 32.58949 40.53519 36.56234
#
# Velocity S-wave (km/s) = 3.75885 4.19211 3.98138
# Velocity P-wave (km/s) = 6.67544 7.45416 7.07552
#
# Compressibility (1/GPa) = 0.01685443
#
# Stress axis : x y z
#
# Youngs Moduli (GPa) = 161.28577 97.72185 65.75911
#
# Poissons Ratio (x) = 0.13584 0.18064
# Poissons Ratio (y) = 0.22420 0.21410
# Poissons Ratio (z) = 0.44306 0.31817
#
# Static dielectric constant tensor:
#      x y z
#    x 4.775130 0.102240 -0.435570 
#    y 0.102240 4.524420 -0.172140 
#    z -0.435570 -0.172140 3.848830 
# 
# 
# High freq. dielectric constant tensor:
#      x y z
#    x 1.938470 0.000600 -0.033490 
#    y 0.000600 1.925320 -0.008070 
#    z -0.033490 -0.008070 1.880540 
# 
# From -- ./inp_files/538308.got.cif
#   From: 2010.06.25/outbox.cif.g09.slc.cpg/sg2_270_cif.got.tgz:538308.got - 2010.06.27 13:26:56.
