data_PCOD8007032
_publ_section_title
;
Structure prediction by ZEFSAII (Michael W. Deem and Ramdas Pophale) SiO2 
 PCOD8007032
Probable space group: P -1
;
_chemical_formula_sum "Si O2"
_cell_formula_units_Z 16
_cell_length_a 17.721427
_cell_length_b 8.604111
_cell_length_c 10.958028
_cell_angle_alpha 42.484624
_cell_angle_beta 134.537043
_cell_angle_gamma 103.281862
_cell_volume 645.199852
_symmetry_space_group_name_H-M "P -1"
_symmetry_group_IT_number 2
_symmetry_cell_setting 'triclinic'
loop_
_space_group_symop_operation_xyz
x,y,z
-x,-y,-z
loop_
_atom_site_type_symbol
_atom_site_label
_atom_site_fract_x
_atom_site_fract_y
_atom_site_fract_z
Si Si1 0.333128 0.819147 0.759190
Si Si2 0.316963 0.548593 0.417199
Si Si3 0.510782 0.962131 0.247077
Si Si4 0.791062 0.172520 0.632774
Si Si5 0.878828 0.586426 0.730539
Si Si6 0.367354 0.282493 0.227398
Si Si7 0.965572 0.361802 0.691583
Si Si8 0.254542 0.147340 0.980560
O O1 0.278813 0.868799 0.530997
O O2 0.462281 0.810707 0.896011
O O3 0.227463 0.072717 0.581497
O O4 0.366708 0.538537 0.024356
O O5 0.456517 0.255924 0.701915
O O6 0.313288 0.556957 0.556884
O O7 0.191922 0.558841 0.222492
O O8 0.307052 0.823501 0.204557
O O9 0.624270 0.734058 0.606752
O O10 0.359096 0.154876 0.009273
O O11 0.898361 0.202948 0.677637
O O12 0.874628 0.888775 0.985978
O O13 0.932572 0.498948 0.707027
O O14 0.000000 0.500000 0.000000
O O15 0.500000 0.000000 0.500000
O O16 0.257420 0.257414 0.056639
O O17 0.898342 0.627982 0.366150
#
# Coordination Sequence:
#
# PCOD8007032 Si02
#       8
#     2   2   2   2   2   2   2   2
#     4  11  21  42  71  97 131 181 218 273 340 387
#     4  10  23  40  65  96 131 174 215 275 333 389
#     4  10  24  44  65 100 137 173 225 269 327 398
#     4  10  20  40  66  94 130 166 225 268 325 402
#     4  10  21  41  64  96 128 170 224 270 332 399
#     4  10  23  41  66  94 131 176 222 273 320 390
#     4  10  21  38  65  95 128 171 213 274 326 394
#     4  11  22  42  63  94 134 173 216 273 332 388
#
# _framework density 24.798518000000001
#
# number of rings (size 3 to 8) (size 9 to 14) (size 15 to 20)
#    0.000    1.750    2.500    1.125    1.750    2.500 
#    9.000    5.000    0.000    0.000    0.000    0.000 
#    0.000    0.000    0.000    0.000    0.000    0.000 
#
# Total GULP energy -198282.515224 kJ/mol
# GULP energy per Si atom -12392.657201 kJ/mol
# Density = 2.474208 g / cm^3
# Si number density = 24.798518 Si / 1000 Ang^3
#
#
#
# Elastic Constant Matrix: (Units=GPa)
#
#
# Indices 1 2 3 4 5 6 
#
# 1 37.4263 21.2936 3.4831 0.2117 20.1490 3.1923
# 2 21.2936 123.5242 27.0085 -16.8814 0.9836 5.8420
# 3 3.4831 27.0085 86.3087 -3.5269 -9.2409 9.5311
# 4 0.2117 -16.8814 -3.5269 30.6845 1.6940 -9.8040
# 5 20.1490 0.9836 -9.2409 1.6940 41.1939 -11.1160
# 6 3.1923 5.8420 9.5311 -9.8040 -11.1160 48.0541
#
#
#
# Elastic Compliance Matrix: (Units=1/GPa)
#
#
# Indices 1 2 3 4 5 6 
#
# 1 0.045042 -0.007718 -0.001291 -0.006133 -0.024219 -0.008651
# 2 -0.007718 0.010722 -0.002649 0.006014 0.003133 0.001686
# 3 -0.001291 -0.002649 0.012956 -0.000631 0.003209 -0.001548
# 4 -0.006133 0.006014 -0.000631 0.038369 0.003408 0.008418
# 5 -0.024219 0.003133 0.003209 0.003408 0.039435 0.010409
# 6 -0.008651 0.001686 -0.001548 0.008418 0.010409 0.025612
#
#
# Mechanical properties :
#
#
# Convention : Reuss Voigt Hill
#
# Bulk Modulus (GPa) = 22.02434 38.98107 30.50271
# Shear Modulus (GPa) = 23.74310 37.01810 30.38060
#
# Velocity S-wave (km/s) = 3.09761 3.86781 3.50394
# Velocity P-wave (km/s) = 4.65770 5.97493 5.35696
#
# Compressibility (1/GPa) = 0.04540430
#
# Stress axis : x y z
#
# Youngs Moduli (GPa) = 22.20166 93.26227 77.18358
#
# Poissons Ratio (x) = 0.71983 0.09962
# Poissons Ratio (y) = 0.17136 0.20445
# Poissons Ratio (z) = 0.02866 0.24705
#
# Static dielectric constant tensor:
#      x y z
#    x 4.252900 0.251450 0.542980 
#    y 0.251450 4.139820 -0.535790 
#    z 0.542980 -0.535790 3.606370 
# 
# 
# High freq. dielectric constant tensor:
#      x y z
#    x 1.992970 0.001430 0.002320 
#    y 0.001430 2.001460 -0.002170 
#    z 0.002320 -0.002170 1.986470 
# 
# From -- ./inp_files/469769.got.cif
#   From: 2010.06.25/outbox.cif.g09.slc.cpg/sg2_235_cif.got.tgz:469769.got - 2010.06.27 13:26:56.
