data_PCOD8007828
_publ_section_title
;
Structure prediction by ZEFSAII (Michael W. Deem and Ramdas Pophale) SiO2 
 PCOD8007828
Probable space group: P -1
;
_chemical_formula_sum "Si O2"
_cell_formula_units_Z 16
_cell_length_a 9.092498
_cell_length_b 16.515714
_cell_length_c 11.152691
_cell_angle_alpha 112.893131
_cell_angle_beta 137.462791
_cell_angle_gamma 45.265086
_cell_volume 774.496745
_symmetry_space_group_name_H-M "P -1"
_symmetry_group_IT_number 2
_symmetry_cell_setting 'triclinic'
loop_
_space_group_symop_operation_xyz
x,y,z
-x,-y,-z
loop_
_atom_site_type_symbol
_atom_site_label
_atom_site_fract_x
_atom_site_fract_y
_atom_site_fract_z
Si Si1 0.661731 0.315805 0.684531
Si Si2 0.365045 0.525516 0.062401
Si Si3 0.251112 0.056217 0.480480
Si Si4 0.311031 0.682958 0.689410
Si Si5 0.232862 0.401673 0.271910
Si Si6 0.979964 0.345820 0.701866
Si Si7 0.119745 0.920963 0.214693
Si Si8 0.548762 0.108359 0.839340
O O1 0.559519 0.406314 0.782144
O O2 0.378192 0.358443 0.466028
O O3 0.832983 0.188726 0.772308
O O4 0.881326 0.308584 0.727017
O O5 0.512333 0.401494 0.140715
O O6 0.500000 0.500000 0.000000
O O7 0.015646 0.605156 0.888713
O O8 0.370624 0.065219 0.681633
O O9 0.952101 0.187457 0.340873
O O10 0.500000 0.000000 0.500000
O O11 0.181421 0.971057 0.391754
O O12 0.525513 0.683350 0.734467
O O13 0.189232 0.633954 0.510080
O O14 0.096128 0.534491 0.240203
O O15 0.328515 0.241276 0.835395
O O16 0.324049 0.886601 0.204060
O O17 0.785612 0.022212 0.031718
#
# Coordination Sequence:
#
# PCOD8007828 Si02
#       8
#     2   2   2   2   2   2   2   2
#     4  11  24  43  59  96 132 155 213 266 310 376
#     4  12  27  38  61 100 127 163 209 268 318 375
#     4   9  20  38  63  89 120 165 211 251 300 374
#     4  10  20  43  66  92 126 166 217 257 306 385
#     4  11  23  42  68  89 126 177 208 256 323 373
#     4  10  20  41  69  87 125 171 212 256 312 379
#     4  10  22  38  61  87 128 165 205 258 312 366
#     4   9  21  38  61  90 116 173 212 247 308 376
#
# _framework density 20.658576
#
# number of rings (size 3 to 8) (size 9 to 14) (size 15 to 20)
#    0.000    1.750    2.500    1.125    3.500    7.000 
#    0.000    5.625    0.000    0.000    0.000    0.000 
#    0.000    0.000    0.000    0.000    0.000    0.000 
#
# Total GULP energy -198412.331457 kJ/mol
# GULP energy per Si atom -12400.770716 kJ/mol
# Density = 2.061156 g / cm^3
# Si number density = 20.658576 Si / 1000 Ang^3
#
#
#
# Elastic Constant Matrix: (Units=GPa)
#
#
# Indices 1 2 3 4 5 6 
#
# 1 71.8985 29.1971 50.2047 -9.4537 -6.6128 -11.0989
# 2 29.1971 81.9953 28.5523 -7.7766 1.6260 -11.7288
# 3 50.2047 28.5523 104.3531 -17.1229 4.4678 -2.9341
# 4 -9.4537 -7.7766 -17.1229 29.5631 -4.7028 4.5392
# 5 -6.6128 1.6260 4.4678 -4.7028 27.7897 -6.3900
# 6 -11.0989 -11.7288 -2.9341 4.5392 -6.3900 37.1017
#
#
#
# Elastic Compliance Matrix: (Units=1/GPa)
#
#
# Indices 1 2 3 4 5 6 
#
# 1 0.025612 -0.004317 -0.011193 0.001079 0.009937 0.006991
# 2 -0.004317 0.014869 -0.001718 0.000950 -0.000765 0.003025
# 3 -0.011193 -0.001718 0.016412 0.005274 -0.005262 -0.004145
# 4 0.001079 0.000950 0.005274 0.038742 0.005268 -0.002793
# 5 0.009937 -0.000765 -0.005262 0.005268 0.042186 0.008936
# 6 0.006991 0.003025 -0.004145 -0.002793 0.008936 0.031554
#
#
# Mechanical properties :
#
#
# Convention : Reuss Voigt Hill
#
# Bulk Modulus (GPa) = 44.56718 52.68390 48.62554
# Shear Modulus (GPa) = 23.66190 28.91041 26.28616
#
# Velocity S-wave (km/s) = 3.38802 3.74497 3.57095
# Velocity P-wave (km/s) = 6.07659 6.65261 6.37111
#
# Compressibility (1/GPa) = 0.02243804
#
# Stress axis : x y z
#
# Youngs Moduli (GPa) = 39.04368 67.25288 60.93167
#
# Poissons Ratio (x) = 0.29035 0.68199
# Poissons Ratio (y) = 0.16856 0.10466
# Poissons Ratio (z) = 0.43701 0.11552
#
# Static dielectric constant tensor:
#      x y z
#    x 3.544460 -0.222040 0.095840 
#    y -0.222040 3.830060 0.153680 
#    z 0.095840 0.153680 4.088700 
# 
# 
# High freq. dielectric constant tensor:
#      x y z
#    x 1.789590 -0.018670 0.007300 
#    y -0.018670 1.807350 0.001610 
#    z 0.007300 0.001610 1.822590 
# 
# From -- ./inp_files/273469.got.cif
#   From: 2010.06.25/outbox.cif.g09.slc.cpg/sg2_137_cif.got.tgz:273469.got - 2010.06.27 13:26:56.
