data_PCOD8007762
_publ_section_title
;
Structure prediction by ZEFSAII (Michael W. Deem and Ramdas Pophale) SiO2 
 PCOD8007762
Probable space group: P -1
;
_chemical_formula_sum "Si O2"
_cell_formula_units_Z 16
_cell_length_a 14.084939
_cell_length_b 8.061470
_cell_length_c 15.101501
_cell_angle_alpha 85.908911
_cell_angle_beta 47.828985
_cell_angle_gamma 123.982655
_cell_volume 723.937804
_symmetry_space_group_name_H-M "P -1"
_symmetry_group_IT_number 2
_symmetry_cell_setting 'triclinic'
loop_
_space_group_symop_operation_xyz
x,y,z
-x,-y,-z
loop_
_atom_site_type_symbol
_atom_site_label
_atom_site_fract_x
_atom_site_fract_y
_atom_site_fract_z
Si Si1 0.460810 0.384840 0.251744
Si Si2 0.221845 0.293694 0.124350
Si Si3 0.375392 0.540460 0.664318
Si Si4 0.248328 0.831163 0.336034
Si Si5 0.038917 0.727328 0.987205
Si Si6 0.380804 0.116589 0.065113
Si Si7 0.473745 0.181872 0.812726
Si Si8 0.813953 0.964996 0.295098
O O1 0.556825 0.474065 0.286285
O O2 0.373992 0.485369 0.292047
O O3 0.278859 0.044187 0.357125
O O4 0.662575 0.580653 0.049040
O O5 0.214155 0.098601 0.176181
O O6 0.360887 0.552248 0.096345
O O7 0.975850 0.110089 0.273136
O O8 0.605558 0.860224 0.463246
O O9 0.281990 0.315936 0.658609
O O10 0.174465 0.452825 0.812171
O O11 0.389387 0.838169 0.299548
O O12 0.000000 0.500000 0.500000
O O13 0.318755 0.916676 0.185782
O O14 0.000000 0.500000 0.000000
O O15 0.273147 0.007376 0.878014
O O16 0.045431 0.821770 0.884481
O O17 0.363624 0.019120 0.982659
#
# Coordination Sequence:
#
# PCOD8007762 Si02
#       8
#     2   2   2   2   2   2   2   2
#     4  10  20  41  68  88 133 179 215 274 337 398
#     4   9  18  37  68  97 123 173 225 272 331 397
#     4  11  22  41  66 100 132 174 227 270 335 408
#     4  11  25  42  61  97 134 168 221 283 331 395
#     4  12  25  44  68  98 141 178 221 280 336 402
#     4   9  20  39  65  92 127 173 221 268 332 401
#     4  11  23  42  68  93 126 180 222 269 339 400
#     4  11  23  39  70 102 132 173 224 280 331 404
#
# _framework density 22.101344999999998
#
# number of rings (size 3 to 8) (size 9 to 14) (size 15 to 20)
#    0.000    1.500    2.500    3.750    1.750    3.000 
#    4.500    0.000    0.000    0.000    0.000    0.000 
#    0.000    0.000    0.000    0.000    0.000    0.000 
#
# Total GULP energy -198240.629162 kJ/mol
# GULP energy per Si atom -12390.039323 kJ/mol
# Density = 2.205104 g / cm^3
# Si number density = 22.101345 Si / 1000 Ang^3
#
#
#
# Elastic Constant Matrix: (Units=GPa)
#
#
# Indices 1 2 3 4 5 6 
#
# 1 109.4974 44.8960 33.6858 -11.3745 -20.7920 3.9319
# 2 44.8960 88.7900 29.0796 -13.7339 -8.2198 -14.8289
# 3 33.6858 29.0796 85.1516 -5.6252 -30.5382 -13.6318
# 4 -11.3745 -13.7339 -5.6252 26.2200 4.7705 1.8708
# 5 -20.7920 -8.2198 -30.5382 4.7705 30.5458 4.2089
# 6 3.9319 -14.8289 -13.6318 1.8708 4.2089 36.2465
#
#
#
# Elastic Compliance Matrix: (Units=1/GPa)
#
#
# Indices 1 2 3 4 5 6 
#
# 1 0.013985 -0.006628 -0.001735 0.001436 0.006565 -0.005718
# 2 -0.006628 0.017400 -0.003826 0.005940 -0.005510 0.006732
# 3 -0.001735 -0.003826 0.020917 -0.001933 0.018390 0.004454
# 4 0.001436 0.005940 -0.001933 0.042548 -0.006008 0.000049
# 5 0.006565 -0.005510 0.018390 -0.006008 0.055345 -0.002167
# 6 -0.005718 0.006732 0.004454 0.000049 -0.002167 0.032887
#
#
# Mechanical properties :
#
#
# Convention : Reuss Voigt Hill
#
# Bulk Modulus (GPa) = 35.81148 55.41796 45.61472
# Shear Modulus (GPa) = 23.06591 30.32096 26.69344
#
# Velocity S-wave (km/s) = 3.23405 3.70794 3.47907
# Velocity P-wave (km/s) = 5.49399 6.59247 6.06814
#
# Compressibility (1/GPa) = 0.02792401
#
# Stress axis : x y z
#
# Youngs Moduli (GPa) = 71.50422 57.47079 47.80753
#
# Poissons Ratio (x) = 0.38093 0.08295
# Poissons Ratio (y) = 0.47395 0.18291
# Poissons Ratio (z) = 0.12406 0.21988
#
# Static dielectric constant tensor:
#      x y z
#    x 4.054980 0.043410 -0.004860 
#    y 0.043410 4.014490 0.142440 
#    z -0.004860 0.142440 3.308920 
# 
# 
# High freq. dielectric constant tensor:
#      x y z
#    x 1.874850 0.010900 0.003290 
#    y 0.010900 1.867410 0.001320 
#    z 0.003290 0.001320 1.847940 
# 
# From -- ./inp_files/529777.got.cif
#   From: 2010.06.25/outbox.cif.g09.slc.cpg/sg2_265_cif.got.tgz:529777.got - 2010.06.27 13:26:56.
