data_PCOD8007782
_publ_section_title
;
Structure prediction by ZEFSAII (Michael W. Deem and Ramdas Pophale) SiO2 
 PCOD8007782
Probable space group: P -1
;
_chemical_formula_sum "Si O2"
_cell_formula_units_Z 16
_cell_length_a 9.019229
_cell_length_b 9.460376
_cell_length_c 24.568058
_cell_angle_alpha 46.619784
_cell_angle_beta 30.248585
_cell_angle_gamma 47.683029
_cell_volume 749.014099
_symmetry_space_group_name_H-M "P -1"
_symmetry_group_IT_number 2
_symmetry_cell_setting 'triclinic'
loop_
_space_group_symop_operation_xyz
x,y,z
-x,-y,-z
loop_
_atom_site_type_symbol
_atom_site_label
_atom_site_fract_x
_atom_site_fract_y
_atom_site_fract_z
Si Si1 0.819209 0.328669 0.611727
Si Si2 0.733815 0.059635 0.611727
Si Si3 0.074578 0.608486 0.000013
Si Si4 0.351895 0.364467 0.239988
Si Si5 0.688111 0.395479 0.239998
Si Si6 0.051576 0.237049 0.757339
Si Si7 0.341932 0.974652 0.999987
Si Si8 0.080958 0.994364 0.242676
O O1 0.829830 0.207595 0.585013
O O2 0.490366 0.448393 0.701558
O O3 0.946682 0.163157 0.660262
O O4 0.000000 0.500000 0.500000
O O5 0.412182 0.176444 0.660278
O O6 0.703443 0.850105 0.701550
O O7 0.000000 0.000000 0.500000
O O8 0.983888 0.483332 0.111709
O O9 0.430652 0.595132 0.888307
O O10 0.887017 0.831501 0.000051
O O11 0.000000 0.500000 0.000000
O O12 0.494316 0.373559 0.252834
O O13 0.041542 0.528832 0.289792
O O14 0.799171 0.181287 0.289822
O O15 0.940943 0.110421 0.779437
O O16 0.869193 0.188022 0.882240
O O17 0.601917 0.929644 0.882240
O O18 0.500000 0.000000 0.000000
#
# Coordination Sequence:
#
# PCOD8007782 Si02
#       8
#     2   2   2   2   2   2   2   2
#     4  12  28  48  67  94 131 174 231 285 336 390
#     4  12  28  48  67  94 131 174 231 285 336 390
#     4  10  16  30  62 100 139 171 210 267 320 393
#     4  11  20  40  68 102 136 175 218 270 328 394
#     4  11  20  40  68 102 136 175 218 270 328 394
#     4  11  21  40  72 102 136 174 220 269 329 399
#     4  10  16  32  62 106 135 169 214 263 322 401
#     4  11  21  40  72 102 136 174 220 269 329 399
#
# _framework density 21.361415000000001
#
# number of rings (size 3 to 8) (size 9 to 14) (size 15 to 20)
#    0.000    1.000    5.000    6.000    0.000    2.000 
#    0.000    2.500    0.000    3.000    0.000    0.000 
#    0.000    0.000    0.000    0.000    0.000    0.000 
#
# Total GULP energy -198226.472103 kJ/mol
# GULP energy per Si atom -12389.154506 kJ/mol
# Density = 2.131279 g / cm^3
# Si number density = 21.361415 Si / 1000 Ang^3
#
#
#
# Elastic Constant Matrix: (Units=GPa)
#
#
# Indices 1 2 3 4 5 6 
#
# 1 58.7257 56.5255 52.2313 0.1089 -0.5055 -7.9507
# 2 56.5255 187.4354 59.7550 2.0914 -0.6888 -24.3452
# 3 52.2313 59.7550 156.6250 -1.2962 -0.5616 -4.0535
# 4 0.1089 2.0914 -1.2962 29.1067 -2.1732 -0.4660
# 5 -0.5055 -0.6888 -0.5616 -2.1732 26.7882 0.7562
# 6 -7.9507 -24.3452 -4.0535 -0.4660 0.7562 50.5954
#
#
#
# Elastic Compliance Matrix: (Units=1/GPa)
#
#
# Indices 1 2 3 4 5 6 
#
# 1 0.030192 -0.006577 -0.007533 0.000056 0.000220 0.000974
# 2 -0.006577 0.007920 -0.000763 -0.000539 -0.000057 0.002712
# 3 -0.007533 -0.000763 0.009171 0.000485 0.000093 -0.000813
# 4 0.000056 -0.000539 0.000485 0.034627 0.002805 0.000065
# 5 0.000220 -0.000057 0.000093 0.002805 0.037577 -0.000521
# 6 0.000974 0.002712 -0.000813 0.000065 -0.000521 0.021166
#
#
# Mechanical properties :
#
#
# Convention : Reuss Voigt Hill
#
# Bulk Modulus (GPa) = 57.01908 82.20110 69.61009
# Shear Modulus (GPa) = 28.36973 36.91633 32.64303
#
# Velocity S-wave (km/s) = 3.64824 4.16165 3.91337
# Velocity P-wave (km/s) = 6.67059 7.85220 7.28539
#
# Compressibility (1/GPa) = 0.01753799
#
# Stress axis : x y z
#
# Youngs Moduli (GPa) = 33.12095 126.26471 109.03912
#
# Poissons Ratio (x) = 0.83046 0.82137
# Poissons Ratio (y) = 0.21784 0.08317
# Poissons Ratio (z) = 0.24949 0.09630
#
# Static dielectric constant tensor:
#      x y z
#    x 3.418410 -0.144420 -0.006510 
#    y -0.144420 4.120570 0.011270 
#    z -0.006510 0.011270 3.739480 
# 
# 
# High freq. dielectric constant tensor:
#      x y z
#    x 1.784870 -0.020320 -0.000990 
#    y -0.020320 1.857240 0.000120 
#    z -0.000990 0.000120 1.850170 
# 
# From -- ./inp_files/606652.got.cif
#   From: 2010.06.25/outbox.cif.g09.slc.cpg/sg2_304_cif.got.tgz:606652.got - 2010.06.27 13:26:56.
