data_PCOD8007869
_publ_section_title
;
Structure prediction by ZEFSAII (Michael W. Deem and Ramdas Pophale) SiO2 
 PCOD8007869
Probable space group: P -1
;
_chemical_formula_sum "Si O2"
_cell_formula_units_Z 16
_cell_length_a 14.491509
_cell_length_b 8.168375
_cell_length_c 14.043763
_cell_angle_alpha 121.381496
_cell_angle_beta 148.452696
_cell_angle_gamma 68.064703
_cell_volume 733.304118
_symmetry_space_group_name_H-M "P -1"
_symmetry_group_IT_number 2
_symmetry_cell_setting 'triclinic'
loop_
_space_group_symop_operation_xyz
x,y,z
-x,-y,-z
loop_
_atom_site_type_symbol
_atom_site_label
_atom_site_fract_x
_atom_site_fract_y
_atom_site_fract_z
Si Si1 0.457825 0.057406 0.873898
Si Si2 0.173808 0.295565 0.617102
Si Si3 0.627798 0.180636 0.451177
Si Si4 0.172017 0.722933 0.790476
Si Si5 0.066720 0.466064 0.150963
Si Si6 0.621208 0.765441 0.395602
Si Si7 0.775672 0.247683 0.950289
Si Si8 0.313667 0.179477 0.314327
O O1 0.277064 0.155329 0.730338
O O2 0.447364 0.872363 0.737594
O O3 0.625240 0.212223 0.040016
O O4 0.500000 0.000000 0.000000
O O5 0.151771 0.490423 0.711882
O O6 0.271320 0.353721 0.618260
O O7 0.968744 0.199135 0.381736
O O8 0.793886 0.350915 0.635730
O O9 0.480166 0.249172 0.411736
O O10 0.685264 0.990609 0.492025
O O11 0.132361 0.801501 0.884784
O O12 0.148081 0.268024 0.155282
O O13 0.000000 0.500000 0.000000
O O14 0.896006 0.426180 0.057890
O O15 0.413221 0.689361 0.170357
O O16 0.653359 0.731000 0.524320
O O17 0.735964 0.053148 0.792263
#
# Coordination Sequence:
#
# PCOD8007869 Si02
#       8
#     2   2   2   2   2   2   2   2
#     4  11  24  44  68  94 140 178 219 273 343 391
#     4  10  23  41  70  99 131 170 228 282 317 396
#     4  10  22  43  61  94 134 168 217 273 332 395
#     4  11  22  44  69  99 129 171 235 271 324 395
#     4  12  25  39  59  99 137 166 218 275 335 393
#     4  10  20  41  70  91 127 171 217 270 328 395
#     4  11  22  40  67  96 122 176 219 267 328 393
#     4  11  21  40  66  89 128 174 216 264 335 395
#
# _framework density 21.819051999999999
#
# number of rings (size 3 to 8) (size 9 to 14) (size 15 to 20)
#    0.000    1.250    3.750    4.875    0.000    5.500 
#    2.250    0.000    0.000    0.000    0.000    0.000 
#    0.000    0.000    0.000    0.000    0.000    0.000 
#
# Total GULP energy -198328.216204 kJ/mol
# GULP energy per Si atom -12395.513513 kJ/mol
# Density = 2.176939 g / cm^3
# Si number density = 21.819052 Si / 1000 Ang^3
#
#
#
# Elastic Constant Matrix: (Units=GPa)
#
#
# Indices 1 2 3 4 5 6 
#
# 1 94.9086 32.0385 35.9478 -4.0613 -14.3476 14.4608
# 2 32.0385 50.6577 35.9082 -16.8851 2.9103 9.0440
# 3 35.9478 35.9082 126.5878 -5.0264 -3.2523 11.7989
# 4 -4.0613 -16.8851 -5.0264 42.9508 13.6185 1.8414
# 5 -14.3476 2.9103 -3.2523 13.6185 48.1776 -5.7928
# 6 14.4608 9.0440 11.7989 1.8414 -5.7928 33.2543
#
#
#
# Elastic Compliance Matrix: (Units=1/GPa)
#
#
# Indices 1 2 3 4 5 6 
#
# 1 0.015656 -0.010548 -0.001281 -0.004720 0.006292 -0.002127
# 2 -0.010548 0.039144 -0.007101 0.017563 -0.011738 -0.006557
# 3 -0.001281 -0.007101 0.010306 -0.002059 0.001224 -0.000841
# 4 -0.004720 0.017563 -0.002059 0.033856 -0.012911 -0.006117
# 5 0.006292 -0.011738 0.001224 -0.012911 0.027741 0.005570
# 6 -0.002127 -0.006557 -0.000841 -0.006117 0.005570 0.034387
#
#
# Mechanical properties :
#
#
# Convention : Reuss Voigt Hill
#
# Bulk Modulus (GPa) = 36.70476 53.32701 45.01588
# Shear Modulus (GPa) = 24.03460 36.09386 30.06423
#
# Velocity S-wave (km/s) = 3.32255 4.07164 3.71602
# Velocity P-wave (km/s) = 5.61943 6.82627 6.25204
#
# Compressibility (1/GPa) = 0.02724442
#
# Stress axis : x y z
#
# Youngs Moduli (GPa) = 63.87415 25.54641 97.03118
#
# Poissons Ratio (x) = 0.26947 0.12432
# Poissons Ratio (y) = 0.67376 0.68906
# Poissons Ratio (z) = 0.08184 0.18142
#
# Static dielectric constant tensor:
#      x y z
#    x 4.187260 -0.037420 -0.180830 
#    y -0.037420 3.832750 -0.004680 
#    z -0.180830 -0.004680 4.376910 
# 
# 
# High freq. dielectric constant tensor:
#      x y z
#    x 1.862360 -0.005760 -0.004970 
#    y -0.005760 1.828940 -0.006770 
#    z -0.004970 -0.006770 1.875030 
# 
# From -- ./inp_files/529007.got.cif
#   From: 2010.06.25/outbox.cif.g09.slc.cpg/sg2_265_cif.got.tgz:529007.got - 2010.06.27 13:26:56.
