data_PCOD8007410
_publ_section_title
;
Structure prediction by ZEFSAII (Michael W. Deem and Ramdas Pophale) SiO2 
 PCOD8007410
Probable space group: P -1
;
_chemical_formula_sum "Si O2"
_cell_formula_units_Z 16
_cell_length_a 14.453299
_cell_length_b 15.991274
_cell_length_c 13.294296
_cell_angle_alpha 153.179123
_cell_angle_beta 59.963113
_cell_angle_gamma 138.253085
_cell_volume 770.884143
_symmetry_space_group_name_H-M "P -1"
_symmetry_group_IT_number 2
_symmetry_cell_setting 'triclinic'
loop_
_space_group_symop_operation_xyz
x,y,z
-x,-y,-z
loop_
_atom_site_type_symbol
_atom_site_label
_atom_site_fract_x
_atom_site_fract_y
_atom_site_fract_z
Si Si1 0.756432 0.666034 0.863082
Si Si2 0.174280 0.964994 0.356980
Si Si3 0.872270 0.516936 0.172129
Si Si4 0.013996 0.378773 0.271393
Si Si5 0.311247 0.257921 0.229286
Si Si6 0.340524 0.433652 0.618295
Si Si7 0.862839 0.173988 0.471828
Si Si8 0.577473 0.738350 0.294282
O O1 0.883853 0.669285 0.810010
O O2 0.747189 0.693116 0.778607
O O3 0.576512 0.359792 0.674847
O O4 0.818641 0.935397 0.173405
O O5 0.986922 0.747209 0.265517
O O6 0.203102 0.109708 0.391831
O O7 0.313609 0.221827 0.636533
O O8 0.200517 0.781093 0.130534
O O9 0.709376 0.426685 0.172447
O O10 0.976352 0.663054 0.375226
O O11 0.100844 0.596713 0.366169
O O12 0.000000 0.500000 0.500000
O O13 0.827126 0.073452 0.017721
O O14 0.346230 0.434149 0.495012
O O15 0.477198 0.368364 0.224784
O O16 0.710662 0.038939 0.482088
O O17 0.500000 0.500000 0.000000
#
# Coordination Sequence:
#
# PCOD8007410 Si02
#       8
#     2   2   2   2   2   2   2   2
#     4  11  22  43  64  87 128 164 204 261 308 357
#     4  10  20  41  62  94 126 156 206 253 307 370
#     4  10  22  38  67  93 124 160 202 258 310 361
#     4  12  25  38  63  90 122 168 205 251 306 367
#     4  11  24  42  60  92 126 166 215 245 301 375
#     4  11  23  41  63  89 125 168 205 252 302 367
#     4  10  22  42  64  95 123 157 210 257 307 369
#     4   9  20  40  68  92 123 159 200 260 308 362
#
# _framework density 20.755388
#
# number of rings (size 3 to 8) (size 9 to 14) (size 15 to 20)
#    0.000    1.500    2.500    2.250    1.750    1.500 
#    0.000    9.375    0.000    0.000    0.000    0.000 
#    0.000    0.000    0.000    0.000    0.000    0.000 
#
# Total GULP energy -198364.048675 kJ/mol
# GULP energy per Si atom -12397.753042 kJ/mol
# Density = 2.070815 g / cm^3
# Si number density = 20.755388 Si / 1000 Ang^3
#
#
#
# Elastic Constant Matrix: (Units=GPa)
#
#
# Indices 1 2 3 4 5 6 
#
# 1 101.5855 55.8296 33.8933 3.7999 -10.9895 2.4519
# 2 55.8296 125.9421 27.7729 8.3350 -10.0211 -6.8280
# 3 33.8933 27.7729 57.7489 2.5093 -3.6933 3.0999
# 4 3.7999 8.3350 2.5093 30.6912 -0.0761 -1.2671
# 5 -10.9895 -10.0211 -3.6933 -0.0761 23.5987 -3.9285
# 6 2.4519 -6.8280 3.0999 -1.2671 -3.9285 42.4389
#
#
#
# Elastic Compliance Matrix: (Units=1/GPa)
#
#
# Indices 1 2 3 4 5 6 
#
# 1 0.015122 -0.005099 -0.006133 -0.000014 0.003768 -0.000898
# 2 -0.005099 0.011161 -0.002259 -0.002109 0.002407 0.002415
# 3 -0.006133 -0.002259 0.022074 -0.000504 -0.000645 -0.001696
# 4 -0.000014 -0.002109 -0.000504 0.033222 -0.000771 0.000619
# 5 0.003768 0.002407 -0.000645 -0.000771 0.045786 0.004432
# 6 -0.000898 0.002415 -0.001696 0.000619 0.004432 0.024556
#
#
# Mechanical properties :
#
#
# Convention : Reuss Voigt Hill
#
# Bulk Modulus (GPa) = 46.78476 57.80758 52.29617
# Shear Modulus (GPa) = 26.87747 30.53113 28.70430
#
# Velocity S-wave (km/s) = 3.60246 3.83952 3.72288
# Velocity P-wave (km/s) = 6.31614 6.89697 6.61293
#
# Compressibility (1/GPa) = 0.02137448
#
# Stress axis : x y z
#
# Youngs Moduli (GPa) = 66.12670 89.59998 45.30191
#
# Poissons Ratio (x) = 0.45688 0.27786
# Poissons Ratio (y) = 0.33719 0.10233
# Poissons Ratio (z) = 0.40559 0.20239
#
# Static dielectric constant tensor:
#      x y z
#    x 3.629950 0.032080 0.252760 
#    y 0.032080 4.272540 0.154840 
#    z 0.252760 0.154840 3.774510 
# 
# 
# High freq. dielectric constant tensor:
#      x y z
#    x 1.797350 -0.000960 0.018480 
#    y -0.000960 1.839730 0.002210 
#    z 0.018480 0.002210 1.804690 
# 
# From -- ./inp_files/77664.got.cif
#   From: 2010.06.25/outbox.cif.g09.slc.cpg/sg2_39_cif.got.tgz:77664.got - 2010.06.27 13:26:56.
