data_PCOD8007692
_publ_section_title
;
Structure prediction by ZEFSAII (Michael W. Deem and Ramdas Pophale) SiO2 
 PCOD8007692
Probable space group: P -1
;
_chemical_formula_sum "Si O2"
_cell_formula_units_Z 16
_cell_length_a 8.495993
_cell_length_b 10.286122
_cell_length_c 12.125688
_cell_angle_alpha 83.475388
_cell_angle_beta 68.180049
_cell_angle_gamma 43.231796
_cell_volume 652.914573
_symmetry_space_group_name_H-M "P -1"
_symmetry_group_IT_number 2
_symmetry_cell_setting 'triclinic'
loop_
_space_group_symop_operation_xyz
x,y,z
-x,-y,-z
loop_
_atom_site_type_symbol
_atom_site_label
_atom_site_fract_x
_atom_site_fract_y
_atom_site_fract_z
Si Si1 0.940638 0.982963 0.324069
Si Si2 0.381538 0.576652 0.181133
Si Si3 0.608016 0.665372 0.541060
Si Si4 0.150382 0.138570 0.272283
Si Si5 0.893358 0.748810 0.490715
Si Si6 0.209686 0.513000 0.053505
Si Si7 0.672831 0.766791 0.109860
Si Si8 0.355372 0.456174 0.698201
O O1 0.888105 0.898642 0.433885
O O2 0.138180 0.812974 0.197935
O O3 0.658085 0.184128 0.335699
O O4 0.073606 0.034379 0.336369
O O5 0.288468 0.489476 0.164423
O O6 0.451992 0.545827 0.296951
O O7 0.632650 0.474954 0.061028
O O8 0.694388 0.765486 0.480829
O O9 0.563477 0.612943 0.442759
O O10 0.824098 0.473469 0.577904
O O11 0.182662 0.206707 0.365912
O O12 0.931467 0.327151 0.235962
O O13 0.412459 0.998387 0.147938
O O14 0.911844 0.715928 0.091948
O O15 0.269315 0.331310 0.015363
O O16 0.621179 0.688528 0.224416
#
# Coordination Sequence:
#
# PCOD8007692 Si02
#       8
#     2   2   2   2   2   2   2   2
#     4  12  23  36  64  89 119 165 202 239 300 359
#     4  10  22  39  63  90 119 159 203 250 302 358
#     4  10  24  40  59  90 128 158 200 246 292 358
#     4  11  23  38  63  94 123 156 207 243 296 366
#     4  10  24  41  58  91 126 160 200 244 295 359
#     4   9  20  41  65  86 119 158 201 256 306 350
#     4  10  20  41  67  86 120 160 199 252 308 352
#     4  10  22  40  60  91 127 158 197 247 297 361
#
# _framework density 24.505503999999998
#
# number of rings (size 3 to 8) (size 9 to 14) (size 15 to 20)
#    0.000    1.750    2.500    1.500    7.000    1.000 
#    0.000    6.250    0.000    0.000    0.000    0.000 
#    0.000    0.000    0.000    0.000    0.000    0.000 
#
# Total GULP energy -198261.476232 kJ/mol
# GULP energy per Si atom -12391.342265 kJ/mol
# Density = 2.444973 g / cm^3
# Si number density = 24.505504 Si / 1000 Ang^3
#
#
#
# Elastic Constant Matrix: (Units=GPa)
#
#
# Indices 1 2 3 4 5 6 
#
# 1 162.0542 22.2490 41.8902 15.8764 12.5720 -33.3502
# 2 22.2490 71.4434 19.2784 41.3797 -3.3311 -16.9831
# 3 41.8902 19.2784 50.8153 32.4705 -6.4552 -21.4089
# 4 15.8764 41.3797 32.4705 43.2389 -15.5475 -13.2876
# 5 12.5720 -3.3311 -6.4552 -15.5475 41.7162 3.8227
# 6 -33.3502 -16.9831 -21.4089 -13.2876 3.8227 32.1137
#
#
#
# Elastic Compliance Matrix: (Units=1/GPa)
#
#
# Indices 1 2 3 4 5 6 
#
# 1 0.009771 -0.005039 -0.011013 0.010339 -0.001620 0.004612
# 2 -0.005039 0.061941 0.047993 -0.094853 -0.023575 0.023078
# 3 -0.011013 0.047993 0.089924 -0.107448 -0.021916 0.032043
# 4 0.010339 -0.094853 -0.107448 0.197858 0.049640 -0.035098
# 5 -0.001620 -0.023575 -0.021916 0.049640 0.038864 -0.012847
# 6 0.004612 0.023078 0.032043 -0.035098 -0.012847 0.056502
#
#
# Mechanical properties :
#
#
# Convention : Reuss Voigt Hill
#
# Bulk Modulus (GPa) = 4.43423 50.12758 27.28091
# Shear Modulus (GPa) = 10.72614 36.80677 23.76645
#
# Velocity S-wave (km/s) = 2.09441 3.87974 3.11761
# Velocity P-wave (km/s) = 2.76805 6.36945 4.91081
#
# Compressibility (1/GPa) = 0.22551827
#
# Stress axis : x y z
#
# Youngs Moduli (GPa) = 102.34118 16.14442 11.12046
#
# Poissons Ratio (x) = 0.08135 0.12247
# Poissons Ratio (y) = 0.51570 -0.53370
# Poissons Ratio (z) = 1.12708 -0.77482
#
# Static dielectric constant tensor:
#      x y z
#    x 4.852840 -0.180620 0.105340 
#    y -0.180620 4.342930 0.524000 
#    z 0.105340 0.524000 4.265350 
# 
# 
# High freq. dielectric constant tensor:
#      x y z
#    x 1.991800 -0.010080 -0.009660 
#    y -0.010080 1.954600 0.036250 
#    z -0.009660 0.036250 1.958620 
# 
# From -- ./inp_files/500396.got.cif
#   From: 2010.06.25/outbox.cif.g09.slc.cpg/sg2_251_cif.got.tgz:500396.got - 2010.06.27 13:26:56.
