data_PCOD8007307
_publ_section_title
;
Structure prediction by ZEFSAII (Michael W. Deem and Ramdas Pophale) SiO2 
 PCOD8007307
Probable space group: P -1
;
_chemical_formula_sum "Si O2"
_cell_formula_units_Z 16
_cell_length_a 16.956716
_cell_length_b 10.681040
_cell_length_c 18.918926
_cell_angle_alpha 33.418130
_cell_angle_beta 156.733760
_cell_angle_gamma 135.004127
_cell_volume 716.866310
_symmetry_space_group_name_H-M "P -1"
_symmetry_group_IT_number 2
_symmetry_cell_setting 'triclinic'
loop_
_space_group_symop_operation_xyz
x,y,z
-x,-y,-z
loop_
_atom_site_type_symbol
_atom_site_label
_atom_site_fract_x
_atom_site_fract_y
_atom_site_fract_z
Si Si1 0.406460 0.908465 0.360190
Si Si2 0.053513 0.336383 0.549688
Si Si3 0.873523 0.792182 0.124773
Si Si4 0.586997 0.946057 0.939521
Si Si5 0.116445 0.007249 0.518897
Si Si6 0.314666 0.568366 0.232870
Si Si7 0.219673 0.013007 0.299144
Si Si8 0.003907 0.477528 0.122944
O O1 0.488435 0.660032 0.505708
O O2 0.312615 0.852365 0.383922
O O3 0.602076 0.017009 0.480848
O O4 0.225032 0.101178 0.080265
O O5 0.019953 0.521129 0.369043
O O6 0.000000 0.500000 0.500000
O O7 0.923799 0.154613 0.503344
O O8 0.286145 0.167770 0.831812
O O9 0.026353 0.943106 0.208360
O O10 0.689723 0.796011 0.026369
O O11 0.359819 0.920888 0.776121
O O12 0.591934 0.210971 0.801081
O O13 0.056842 0.280557 0.319114
O O14 0.000000 0.000000 0.500000
O O15 0.215856 0.531917 0.244332
O O16 0.124846 0.607437 0.004073
O O17 0.145991 0.281215 0.082925
#
# Coordination Sequence:
#
# PCOD8007307 Si02
#       8
#     2   2   2   2   2   2   2   2
#     4  10  23  37  62 102 137 175 222 281 368 415
#     4  10  26  48  68  97 140 189 237 290 349 428
#     4  11  23  40  70  95 133 181 239 281 342 431
#     4  11  24  45  70 100 137 185 245 291 358 413
#     4  12  28  45  70 106 143 191 240 295 358 435
#     4  10  20  40  72 102 132 179 230 299 348 419
#     4  10  22  41  61 101 139 175 216 299 357 416
#     4  10  21  41  72  98 142 174 234 293 355 419
#
# _framework density 22.319362999999999
#
# number of rings (size 3 to 8) (size 9 to 14) (size 15 to 20)
#    0.000    1.500    2.500    1.125    3.500    7.500 
#    4.500    0.000    0.000    0.000    0.000    0.000 
#    0.000    0.000    0.000    0.000    0.000    0.000 
#
# Total GULP energy -198244.494733 kJ/mol
# GULP energy per Si atom -12390.280921 kJ/mol
# Density = 2.226856 g / cm^3
# Si number density = 22.319363 Si / 1000 Ang^3
#
#
#
# Elastic Constant Matrix: (Units=GPa)
#
#
# Indices 1 2 3 4 5 6 
#
# 1 75.0799 31.8104 34.3389 6.8618 8.5851 11.1903
# 2 31.8104 109.4080 67.1647 11.3624 -1.7126 9.4045
# 3 34.3389 67.1647 141.8523 9.5792 -23.6779 14.9208
# 4 6.8618 11.3624 9.5792 35.8134 12.2608 -2.7979
# 5 8.5851 -1.7126 -23.6779 12.2608 33.3404 0.4091
# 6 11.1903 9.4045 14.9208 -2.7979 0.4091 26.9905
#
#
#
# Elastic Compliance Matrix: (Units=1/GPa)
#
#
# Indices 1 2 3 4 5 6 
#
# 1 0.017632 -0.002535 -0.004001 0.000844 -0.007773 -0.004010
# 2 -0.002535 0.013841 -0.006220 -0.001410 -0.002530 -0.000441
# 3 -0.004001 -0.006220 0.013985 -0.005756 0.012817 -0.004696
# 4 0.000844 -0.001410 -0.005756 0.036441 -0.017869 0.007372
# 5 -0.007773 -0.002530 0.012817 -0.017869 0.047607 -0.005555
# 6 -0.004010 -0.000441 -0.004696 0.007372 -0.005555 0.042311
#
#
# Mechanical properties :
#
#
# Convention : Reuss Voigt Hill
#
# Bulk Modulus (GPa) = 50.13555 65.88537 58.01046
# Shear Modulus (GPa) = 24.51251 32.09725 28.30488
#
# Velocity S-wave (km/s) = 3.31760 3.79633 3.56501
# Velocity P-wave (km/s) = 6.09810 6.98567 6.55692
#
# Compressibility (1/GPa) = 0.01994593
#
# Stress axis : x y z
#
# Youngs Moduli (GPa) = 56.71380 72.25166 71.50394
#
# Poissons Ratio (x) = 0.18318 0.28605
# Poissons Ratio (y) = 0.14379 0.44477
# Poissons Ratio (z) = 0.22689 0.44942
#
# Static dielectric constant tensor:
#      x y z
#    x 3.702300 -0.003100 -0.084990 
#    y -0.003100 4.068940 -0.078780 
#    z -0.084990 -0.078780 4.404570 
# 
# 
# High freq. dielectric constant tensor:
#      x y z
#    x 1.851560 -0.004970 -0.005870 
#    y -0.004970 1.876920 0.000040 
#    z -0.005870 0.000040 1.903640 
# 
# From -- ./inp_files/437263.got.cif
#   From: 2010.06.25/outbox.cif.g09.slc.cpg/sg2_219_cif.got.tgz:437263.got - 2010.06.27 13:26:56.
