data_PCOD8007694
_publ_section_title
;
Structure prediction by ZEFSAII (Michael W. Deem and Ramdas Pophale) SiO2 
 PCOD8007694
Probable space group: P -1
;
_chemical_formula_sum "Si O2"
_cell_formula_units_Z 16
_cell_length_a 8.545451
_cell_length_b 11.150001
_cell_length_c 8.992669
_cell_angle_alpha 83.716739
_cell_angle_beta 93.505643
_cell_angle_gamma 111.986404
_cell_volume 789.560223
_symmetry_space_group_name_H-M "P -1"
_symmetry_group_IT_number 2
_symmetry_cell_setting 'triclinic'
loop_
_space_group_symop_operation_xyz
x,y,z
-x,-y,-z
loop_
_atom_site_type_symbol
_atom_site_label
_atom_site_fract_x
_atom_site_fract_y
_atom_site_fract_z
Si Si1 0.551738 0.044390 0.719817
Si Si2 0.687579 0.357594 0.349542
Si Si3 0.652445 0.491307 0.607053
Si Si4 0.385729 0.208352 0.171332
Si Si5 0.914589 0.756822 0.708898
Si Si6 0.240445 0.889947 0.551907
Si Si7 0.116708 0.620826 0.904875
Si Si8 0.568636 0.281627 0.886974
O O1 0.723588 0.102231 0.623410
O O2 0.537554 0.149151 0.818155
O O3 0.561629 0.917066 0.815654
O O4 0.381382 0.018071 0.615451
O O5 0.732735 0.418355 0.506769
O O6 0.495422 0.319437 0.282747
O O7 0.720313 0.226260 0.359653
O O8 0.820175 0.442850 0.223024
O O9 0.500000 0.500000 0.500000
O O10 0.793880 0.630535 0.629773
O O11 0.589295 0.403347 0.762912
O O12 0.193675 0.172953 0.219080
O O13 0.415910 0.266304 0.996805
O O14 0.044327 0.862776 0.588043
O O15 0.018193 0.714199 0.844366
O O16 0.269141 0.700946 0.008058
O O17 0.000000 0.500000 0.000000
#
# Coordination Sequence:
#
# PCOD8007694 Si02
#       8
#     2   2   2   2   2   2   2   2
#     4  10  20  41  67  88 119 165 220 248 305 368
#     4   9  19  37  57  87 120 162 208 240 306 364
#     4  12  23  37  64  95 127 159 208 261 304 374
#     4  10  22  39  61  89 129 164 199 259 310 369
#     4  11  23  39  60  95 131 158 206 254 323 359
#     4   9  20  37  64  90 120 165 204 262 300 368
#     4  10  21  38  60  88 124 167 199 249 305 373
#     4  11  23  41  66  91 121 169 214 245 308 376
#
# _framework density 20.264444000000001
#
# number of rings (size 3 to 8) (size 9 to 14) (size 15 to 20)
#    0.000    1.750    3.750    1.125    0.000    5.000 
#    0.000    2.500    0.000    0.000    0.000    0.000 
#    0.000    0.000    0.000    0.000    0.000    0.000 
#
# Total GULP energy -198229.939837 kJ/mol
# GULP energy per Si atom -12389.371240 kJ/mol
# Density = 2.021832 g / cm^3
# Si number density = 20.264444 Si / 1000 Ang^3
#
#
#
# Elastic Constant Matrix: (Units=GPa)
#
#
# Indices 1 2 3 4 5 6 
#
# 1 95.0170 23.5174 36.8529 -1.9079 -14.5562 15.4258
# 2 23.5174 69.6556 35.1498 1.5312 -13.6274 15.4870
# 3 36.8529 35.1498 118.9194 -2.3760 -18.2116 16.0847
# 4 -1.9079 1.5312 -2.3760 36.7927 3.8536 -6.3678
# 5 -14.5562 -13.6274 -18.2116 3.8536 40.4799 -11.0150
# 6 15.4258 15.4870 16.0847 -6.3678 -11.0150 24.4929
#
#
#
# Elastic Compliance Matrix: (Units=1/GPa)
#
#
# Indices 1 2 3 4 5 6 
#
# 1 0.012978 -0.001656 -0.002643 -0.000426 0.001668 -0.004752
# 2 -0.001656 0.019146 -0.003740 -0.002798 0.002158 -0.008364
# 3 -0.002643 -0.003740 0.010955 0.000127 0.002113 -0.002181
# 4 -0.000426 -0.002798 0.000127 0.028960 -0.001384 0.008861
# 5 0.001668 0.002158 0.002113 -0.001384 0.029602 0.009150
# 6 -0.004752 -0.008364 -0.002181 0.008861 0.009150 0.056961
#
#
# Mechanical properties :
#
#
# Convention : Reuss Voigt Hill
#
# Bulk Modulus (GPa) = 37.03565 52.73690 44.88627
# Shear Modulus (GPa) = 27.22135 32.89122 30.05628
#
# Velocity S-wave (km/s) = 3.66909 4.03314 3.85542
# Velocity P-wave (km/s) = 6.02208 6.91152 6.48208
#
# Compressibility (1/GPa) = 0.02700101
#
# Stress axis : x y z
#
# Youngs Moduli (GPa) = 77.05570 52.23007 91.28459
#
# Poissons Ratio (x) = 0.08649 0.24124
# Poissons Ratio (y) = 0.12759 0.34142
# Poissons Ratio (z) = 0.20364 0.19535
#
# Static dielectric constant tensor:
#      x y z
#    x 3.836430 0.333120 -0.251290 
#    y 0.333120 3.889630 -0.292150 
#    z -0.251290 -0.292150 4.263980 
# 
# 
# High freq. dielectric constant tensor:
#      x y z
#    x 1.782770 0.009570 -0.014150 
#    y 0.009570 1.781750 -0.009130 
#    z -0.014150 -0.009130 1.801820 
# 
# From -- ./inp_files/179122.got.cif
#   From: 2010.06.25/outbox.cif.g09.slc.cpg/sg2_90_cif.got.tgz:179122.got - 2010.06.27 13:26:56.
