data_PCOD8007127
_publ_section_title
;
Structure prediction by ZEFSAII (Michael W. Deem and Ramdas Pophale) SiO2 
 PCOD8007127
Probable space group: P -1
;
_chemical_formula_sum "Si O2"
_cell_formula_units_Z 14
_cell_length_a 12.574965
_cell_length_b 14.225528
_cell_length_c 21.527153
_cell_angle_alpha 151.089912
_cell_angle_beta 21.084725
_cell_angle_gamma 149.641248
_cell_volume 645.767104
_symmetry_space_group_name_H-M "P -1"
_symmetry_group_IT_number 2
_symmetry_cell_setting 'triclinic'
loop_
_space_group_symop_operation_xyz
x,y,z
-x,-y,-z
loop_
_atom_site_type_symbol
_atom_site_label
_atom_site_fract_x
_atom_site_fract_y
_atom_site_fract_z
Si Si1 0.179574 0.705512 0.792483
Si Si2 0.842149 0.992920 0.803359
Si Si3 0.085832 0.611579 0.452288
Si Si4 0.208625 0.156357 0.819558
Si Si5 0.175463 0.777688 0.704259
Si Si6 0.865644 0.885121 0.408056
Si Si7 0.139417 0.260597 0.543857
O O1 0.095634 0.823091 0.845770
O O2 0.153722 0.486895 0.650567
O O3 0.530990 0.792601 0.674145
O O4 0.944600 0.697377 0.972286
O O5 0.874711 0.765410 0.647143
O O6 0.043260 0.108731 0.816778
O O7 0.938226 0.122948 0.764086
O O8 0.500000 0.000000 0.000000
O O9 0.437630 0.742622 0.329937
O O10 0.000000 0.500000 0.500000
O O11 0.029931 0.439617 0.331189
O O12 0.139985 0.950526 0.776954
O O13 0.524342 0.768701 0.508535
O O14 0.979823 0.777596 0.342069
O O15 0.899936 0.118515 0.544991
#
# Coordination Sequence:
#
# PCOD8007127 Si02
#       7
#     2   2   2   2   2   2   2
#     4  10  22  40  67 101 132 176 223 274 338 398
#     4  12  25  43  71  98 135 177 225 278 337 398
#     4  12  25  46  70  96 136 180 224 275 334 399
#     4  12  25  45  67  99 139 174 223 283 329 399
#     4  11  23  43  70  95 132 179 224 271 332 404
#     4  10  20  40  67  94 130 181 214 273 341 389
#     4   9  20  41  65  97 140 167 219 283 334 398
#
# _framework density 21.679642000000001
#
# number of rings (size 3 to 8) (size 9 to 14) (size 15 to 20)
#    0.000    1.143    2.857    3.429    0.000    4.000 
#    7.714    2.143    0.000    0.000    0.000    0.000 
#    0.000    0.000    0.000    0.000    0.000    0.000 
#
# Total GULP energy -173542.056542 kJ/mol
# GULP energy per Si atom -12395.861182 kJ/mol
# Density = 2.163030 g / cm^3
# Si number density = 21.679642 Si / 1000 Ang^3
#
#
#
# Elastic Constant Matrix: (Units=GPa)
#
#
# Indices 1 2 3 4 5 6 
#
# 1 119.7247 27.5434 45.9864 -15.2930 13.3390 -0.8073
# 2 27.5434 103.4713 37.8255 -12.4279 -9.7589 10.2056
# 3 45.9864 37.8255 101.2475 -7.7743 4.8893 -9.4117
# 4 -15.2930 -12.4279 -7.7743 22.4766 -5.3557 6.7245
# 5 13.3390 -9.7589 4.8893 -5.3557 31.4089 -9.0184
# 6 -0.8073 10.2056 -9.4117 6.7245 -9.0184 35.7855
#
#
#
# Elastic Compliance Matrix: (Units=1/GPa)
#
#
# Indices 1 2 3 4 5 6 
#
# 1 0.011452 -0.000858 -0.004507 0.005579 -0.004284 -0.002810
# 2 -0.000858 0.013668 -0.004845 0.008157 0.005202 -0.005414
# 3 -0.004507 -0.004845 0.014058 -0.002636 -0.000709 0.005294
# 4 0.005579 0.008157 -0.002636 0.057084 0.006898 -0.011882
# 5 -0.004284 0.005202 -0.000709 0.006898 0.038464 0.006631
# 6 -0.002810 -0.005414 0.005294 -0.011882 0.006631 0.034721
#
#
# Mechanical properties :
#
#
# Convention : Reuss Voigt Hill
#
# Bulk Modulus (GPa) = 53.30807 60.79493 57.05150
# Shear Modulus (GPa) = 25.49475 32.14007 28.81741
#
# Velocity S-wave (km/s) = 3.43297 3.85450 3.64983
# Velocity P-wave (km/s) = 6.35265 6.92191 6.64338
#
# Compressibility (1/GPa) = 0.01875889
#
# Stress axis : x y z
#
# Youngs Moduli (GPa) = 87.32175 73.16213 71.13453
#
# Poissons Ratio (x) = 0.06274 0.32061
# Poissons Ratio (y) = 0.07489 0.34464
# Poissons Ratio (z) = 0.39356 0.35447
#
# Static dielectric constant tensor:
#      x y z
#    x 4.307690 -0.145870 0.108570 
#    y -0.145870 4.100770 -0.128780 
#    z 0.108570 -0.128780 3.737480 
# 
# 
# High freq. dielectric constant tensor:
#      x y z
#    x 1.876160 -0.004230 0.011920 
#    y -0.004230 1.860220 -0.009700 
#    z 0.011920 -0.009700 1.827570 
# 
# From -- ./inp_files/184618.got.cif
#   From: 2010.06.25/outbox.cif.g09.slc.cpg/sg2_93_cif.got.tgz:184618.got - 2010.06.27 13:26:56.
