data_PCOD8007053
_publ_section_title
;
Structure prediction by ZEFSAII (Michael W. Deem and Ramdas Pophale) SiO2 
 PCOD8007053
Probable space group: P -1
;
_chemical_formula_sum "Si O2"
_cell_formula_units_Z 14
_cell_length_a 14.933292
_cell_length_b 8.629433
_cell_length_c 9.380306
_cell_angle_alpha 129.424306
_cell_angle_beta 42.433154
_cell_angle_gamma 124.152375
_cell_volume 619.991516
_symmetry_space_group_name_H-M "P -1"
_symmetry_group_IT_number 2
_symmetry_cell_setting 'triclinic'
loop_
_space_group_symop_operation_xyz
x,y,z
-x,-y,-z
loop_
_atom_site_type_symbol
_atom_site_label
_atom_site_fract_x
_atom_site_fract_y
_atom_site_fract_z
Si Si1 0.140094 0.709414 0.022375
Si Si2 0.556610 0.740835 0.339393
Si Si3 0.015087 0.038683 0.838223
Si Si4 0.052514 0.216000 0.488580
Si Si5 0.363923 0.352719 0.275693
Si Si6 0.393279 0.022043 0.850743
Si Si7 0.728005 0.672480 0.338181
O O1 0.196812 0.507254 0.800077
O O2 0.262520 0.898020 0.010970
O O3 0.048190 0.652589 0.240116
O O4 0.058569 0.777174 0.022256
O O5 0.437247 0.588581 0.309570
O O6 0.643995 0.882325 0.201148
O O7 0.651752 0.615787 0.244383
O O8 0.502338 0.881416 0.605155
O O9 0.172881 0.113280 0.668222
O O10 0.968616 0.826733 0.681056
O O11 0.000000 0.000000 0.000000
O O12 0.207478 0.320100 0.391069
O O13 0.000000 0.000000 0.500000
O O14 0.375405 0.298957 0.397471
O O15 0.446884 0.208775 0.004149
#
# Coordination Sequence:
#
# PCOD8007053 Si02
#       7
#     2   2   2   2   2   2   2
#     4  11  21  42  68  97 129 176 215 269 332 389
#     4  11  27  44  63 104 131 177 221 268 329 386
#     4  11  22  41  67  95 131 171 220 277 328 386
#     4  10  20  40  66  97 124 170 224 257 336 389
#     4  12  22  43  71  95 133 174 222 274 316 403
#     4  11  23  45  70  90 136 177 218 269 334 382
#     4  12  24  41  66 100 134 170 227 268 320 399
#
# _framework density 22.580953000000001
#
# number of rings (size 3 to 8) (size 9 to 14) (size 15 to 20)
#    0.000    0.857    7.143    2.143    0.000    0.571 
#    2.571    2.143    0.000    0.000    0.000    0.000 
#    0.000    0.000    0.000    0.000    0.000    0.000 
#
# Total GULP energy -173474.144288 kJ/mol
# GULP energy per Si atom -12391.010306 kJ/mol
# Density = 2.252956 g / cm^3
# Si number density = 22.580953 Si / 1000 Ang^3
#
#
#
# Elastic Constant Matrix: (Units=GPa)
#
#
# Indices 1 2 3 4 5 6 
#
# 1 91.8267 30.8409 25.3292 7.4824 18.0331 -3.2440
# 2 30.8409 77.0371 30.8651 3.1006 4.5716 9.8559
# 3 25.3292 30.8651 110.6918 20.9669 17.1306 -3.2278
# 4 7.4824 3.1006 20.9669 24.9109 3.0961 3.8278
# 5 18.0331 4.5716 17.1306 3.0961 30.6048 -4.4472
# 6 -3.2440 9.8559 -3.2278 3.8278 -4.4472 34.7009
#
#
#
# Elastic Compliance Matrix: (Units=1/GPa)
#
#
# Indices 1 2 3 4 5 6 
#
# 1 0.014479 -0.005551 -0.000013 -0.003137 -0.007032 0.002374
# 2 -0.005551 0.017703 -0.004996 0.004368 0.002076 -0.006227
# 3 -0.000013 -0.004996 0.013293 -0.010401 -0.005178 0.003138
# 4 -0.003137 0.004368 -0.010401 0.050426 0.000759 -0.007967
# 5 -0.007032 0.002076 -0.005178 0.000759 0.039808 0.003289
# 6 0.002374 -0.006227 0.003138 -0.007967 0.003289 0.032401
#
#
# Mechanical properties :
#
#
# Convention : Reuss Voigt Hill
#
# Bulk Modulus (GPa) = 41.06249 50.40289 45.73269
# Shear Modulus (GPa) = 25.33591 30.87799 28.10695
#
# Velocity S-wave (km/s) = 3.35327 3.70190 3.53189
# Velocity P-wave (km/s) = 5.76338 6.37507 6.07693
#
# Compressibility (1/GPa) = 0.02435312
#
# Stress axis : x y z
#
# Youngs Moduli (GPa) = 69.06710 56.48911 75.22521
#
# Poissons Ratio (x) = 0.31358 0.00101
# Poissons Ratio (y) = 0.38340 0.37584
# Poissons Ratio (z) = 0.00093 0.28223
#
# Static dielectric constant tensor:
#      x y z
#    x 3.891870 0.178990 0.238180 
#    y 0.178990 4.142100 -0.078720 
#    z 0.238180 -0.078720 4.825940 
# 
# 
# High freq. dielectric constant tensor:
#      x y z
#    x 1.866450 0.021510 0.013890 
#    y 0.021510 1.887630 -0.010590 
#    z 0.013890 -0.010590 1.899560 
# 
# From -- ./inp_files/293880.got.cif
#   From: 2010.06.25/outbox.cif.g09.slc.cpg/sg2_147_cif.got.tgz:293880.got - 2010.06.27 13:26:56.
