data_PCOD8007665
_publ_section_title
;
Structure prediction by ZEFSAII (Michael W. Deem and Ramdas Pophale) SiO2 
 PCOD8007665
Probable space group: P -1
;
_chemical_formula_sum "Si O2"
_cell_formula_units_Z 16
_cell_length_a 9.044262
_cell_length_b 11.530060
_cell_length_c 14.285344
_cell_angle_alpha 61.802828
_cell_angle_beta 149.822676
_cell_angle_gamma 109.981271
_cell_volume 652.431185
_symmetry_space_group_name_H-M "P -1"
_symmetry_group_IT_number 2
_symmetry_cell_setting 'triclinic'
loop_
_space_group_symop_operation_xyz
x,y,z
-x,-y,-z
loop_
_atom_site_type_symbol
_atom_site_label
_atom_site_fract_x
_atom_site_fract_y
_atom_site_fract_z
Si Si1 0.248307 0.692652 0.532982
Si Si2 0.651732 0.865000 0.590196
Si Si3 0.325788 0.113874 0.793819
Si Si4 0.187600 0.713485 0.020582
Si Si5 0.500131 0.957236 0.278949
Si Si6 0.946011 0.812417 0.027883
Si Si7 0.868965 0.614674 0.204284
Si Si8 0.646737 0.493156 0.953587
O O1 0.497732 0.741883 0.586680
O O2 0.405903 0.620388 0.739563
O O3 0.001291 0.821216 0.374389
O O4 0.106276 0.583548 0.431484
O O5 0.667826 0.867641 0.485622
O O6 0.500000 0.000000 0.500000
O O7 0.994276 0.839736 0.816430
O O8 0.486986 0.243548 0.814230
O O9 0.297534 0.045400 0.702386
O O10 0.500000 0.000000 0.000000
O O11 0.179065 0.575651 0.013961
O O12 0.023520 0.693753 0.038534
O O13 0.193181 0.904445 0.105660
O O14 0.387466 0.106328 0.200839
O O15 0.939859 0.757620 0.151218
O O16 0.538685 0.617879 0.062890
O O17 0.879237 0.523349 0.150501
#
# Coordination Sequence:
#
# PCOD8007665 Si02
#       8
#     2   2   2   2   2   2   2   2
#     4  12  25  48  75  98 144 188 232 285 354 414
#     4  12  24  44  69 107 141 180 227 292 353 420
#     4  11  24  44  71 102 136 185 231 283 352 420
#     4  11  24  44  68  98 146 171 231 296 342 403
#     4  10  22  38  67 102 135 176 230 273 357 421
#     4  10  20  41  66  95 137 181 219 289 343 415
#     4  11  23  45  70  97 138 185 237 284 346 400
#     4  11  27  45  70 102 137 188 237 290 340 412
#
# _framework density 24.52366
#
# number of rings (size 3 to 8) (size 9 to 14) (size 15 to 20)
#    0.000    1.000    3.750    2.625    1.750    4.000 
#    2.250    2.500    0.000    0.000    0.000    0.000 
#    0.000    0.000    0.000    0.000    0.000    0.000 
#
# Total GULP energy -198220.804725 kJ/mol
# GULP energy per Si atom -12388.800295 kJ/mol
# Density = 2.446784 g / cm^3
# Si number density = 24.523660 Si / 1000 Ang^3
#
#
#
# Elastic Constant Matrix: (Units=GPa)
#
#
# Indices 1 2 3 4 5 6 
#
# 1 133.0647 22.7244 21.0743 -7.7978 -19.4936 -13.0677
# 2 22.7244 64.4089 4.9595 -2.8645 7.1766 -23.1549
# 3 21.0743 4.9595 69.1432 -8.5881 -10.2699 -10.3112
# 4 -7.7978 -2.8645 -8.5881 39.0742 -5.7260 0.6116
# 5 -19.4936 7.1766 -10.2699 -5.7260 33.0943 0.3978
# 6 -13.0677 -23.1549 -10.3112 0.6116 0.3978 40.5419
#
#
#
# Elastic Compliance Matrix: (Units=1/GPa)
#
#
# Indices 1 2 3 4 5 6 
#
# 1 0.009460 -0.003651 -0.001322 0.002250 0.006337 0.000532
# 2 -0.003651 0.021623 0.000172 -0.000304 -0.006974 0.011289
# 3 -0.001322 0.000172 0.016674 0.004090 0.005021 0.003802
# 4 0.002250 -0.000304 0.004090 0.027999 0.007492 0.001096
# 5 0.006337 -0.006974 0.005021 0.007492 0.038330 -0.001153
# 6 0.000532 0.011289 0.003802 0.001096 -0.001153 0.032247
#
#
# Mechanical properties :
#
#
# Convention : Reuss Voigt Hill
#
# Bulk Modulus (GPa) = 26.20841 40.45924 33.33382
# Shear Modulus (GPa) = 29.64679 37.06598 33.35639
#
# Velocity S-wave (km/s) = 3.48070 3.89194 3.69205
# Velocity P-wave (km/s) = 5.18304 6.06054 5.63888
#
# Compressibility (1/GPa) = 0.03815569
#
# Stress axis : x y z
#
# Youngs Moduli (GPa) = 105.70426 46.24762 59.97403
#
# Poissons Ratio (x) = 0.16884 0.07926
# Poissons Ratio (y) = 0.38590 -0.01029
# Poissons Ratio (z) = 0.13969 -0.00794
#
# Static dielectric constant tensor:
#      x y z
#    x 4.690940 -0.158270 -0.095760 
#    y -0.158270 4.478440 0.179100 
#    z -0.095760 0.179100 4.240040 
# 
# 
# High freq. dielectric constant tensor:
#      x y z
#    x 1.996710 -0.000390 -0.009270 
#    y -0.000390 1.966620 0.016890 
#    z -0.009270 0.016890 1.953260 
# 
# From -- ./inp_files/500331.got.cif
#   From: 2010.06.25/outbox.cif.g09.slc.cpg/sg2_251_cif.got.tgz:500331.got - 2010.06.27 13:26:56.
