data_PCOD8007380
_publ_section_title
;
Structure prediction by ZEFSAII (Michael W. Deem and Ramdas Pophale) SiO2 
 PCOD8007380
Probable space group: P -1
;
_chemical_formula_sum "Si O2"
_cell_formula_units_Z 16
_cell_length_a 9.744588
_cell_length_b 21.504783
_cell_length_c 8.625674
_cell_angle_alpha 124.275090
_cell_angle_beta 134.352076
_cell_angle_gamma 35.729639
_cell_volume 754.733092
_symmetry_space_group_name_H-M "P -1"
_symmetry_group_IT_number 2
_symmetry_cell_setting 'triclinic'
loop_
_space_group_symop_operation_xyz
x,y,z
-x,-y,-z
loop_
_atom_site_type_symbol
_atom_site_label
_atom_site_fract_x
_atom_site_fract_y
_atom_site_fract_z
Si Si1 0.477750 0.557562 0.792783
Si Si2 0.669783 0.875516 0.483590
Si Si3 0.956769 0.613744 0.869776
Si Si4 0.130740 0.813126 0.572837
Si Si5 0.946804 0.744351 0.810571
Si Si6 0.750933 0.892696 0.124912
Si Si7 0.388233 0.422792 0.397202
Si Si8 0.551553 0.808326 0.027353
O O1 0.359743 0.513648 0.568272
O O2 0.594123 0.579228 0.779633
O O3 0.237527 0.664659 0.845464
O O4 0.720028 0.470391 0.978817
O O5 0.702952 0.837924 0.633932
O O6 0.973050 0.808421 0.569900
O O7 0.500000 0.000000 0.500000
O O8 0.546067 0.836307 0.242235
O O9 0.873702 0.684144 0.749184
O O10 0.871679 0.549879 0.702398
O O11 0.806269 0.684732 0.008042
O O12 0.347273 0.696148 0.502240
O O13 0.268575 0.847199 0.809914
O O14 0.921973 0.896095 0.387333
O O15 0.963098 0.801719 0.039656
O O16 0.587080 0.874605 0.058169
O O17 0.500000 0.000000 0.000000
#
# Coordination Sequence:
#
# PCOD8007380 Si02
#       8
#     2   2   2   2   2   2   2   2
#     4  11  21  37  62  91 128 163 213 249 312 380
#     4  11  22  40  62  89 127 159 210 266 318 364
#     4  10  22  39  61  89 130 164 210 250 313 378
#     4  10  20  41  62  84 117 166 212 244 304 384
#     4  11  22  38  62  98 126 160 207 274 318 359
#     4  10  21  40  63  87 122 163 205 258 322 371
#     4  10  21  38  63  88 121 178 204 247 306 386
#     4   9  21  39  63  84 116 169 207 247 302 384
#
# _framework density 21.199546000000002
#
# number of rings (size 3 to 8) (size 9 to 14) (size 15 to 20)
#    0.000    1.750    1.250    4.500    1.750    1.500 
#    0.000    8.750    0.000    0.000    0.000    0.000 
#    0.000    0.000    0.000    0.000    0.000    0.000 
#
# Total GULP energy -198285.501976 kJ/mol
# GULP energy per Si atom -12392.843873 kJ/mol
# Density = 2.115130 g / cm^3
# Si number density = 21.199546 Si / 1000 Ang^3
#
#
#
# Elastic Constant Matrix: (Units=GPa)
#
#
# Indices 1 2 3 4 5 6 
#
# 1 91.7263 23.7786 52.9797 -3.1078 -2.5640 7.2140
# 2 23.7786 65.4983 29.8373 -13.1922 -0.5222 11.5293
# 3 52.9797 29.8373 136.7696 -10.6323 5.7037 7.5526
# 4 -3.1078 -13.1922 -10.6323 25.3975 5.1135 -8.8520
# 5 -2.5640 -0.5222 5.7037 5.1135 34.0691 -5.3487
# 6 7.2140 11.5293 7.5526 -8.8520 -5.3487 26.9246
#
#
#
# Elastic Compliance Matrix: (Units=1/GPa)
#
#
# Indices 1 2 3 4 5 6 
#
# 1 0.014905 -0.003318 -0.005291 -0.003139 0.002162 -0.001691
# 2 -0.003318 0.019802 -0.002115 0.007626 -0.001488 -0.004785
# 3 -0.005291 -0.002115 0.010168 0.003014 -0.002594 -0.000053
# 4 -0.003139 0.007626 0.003014 0.049574 -0.006213 0.011795
# 5 0.002162 -0.001488 -0.002594 -0.006213 0.031648 0.005030
# 6 -0.001691 -0.004785 -0.000053 0.011795 0.005030 0.044535
#
#
# Mechanical properties :
#
#
# Convention : Reuss Voigt Hill
#
# Bulk Modulus (GPa) = 42.68697 56.35393 49.52045
# Shear Modulus (GPa) = 25.01365 29.77150 27.39257
#
# Velocity S-wave (km/s) = 3.43871 3.75153 3.59852
# Velocity P-wave (km/s) = 5.99549 6.73837 6.37775
#
# Compressibility (1/GPa) = 0.02342635
#
# Stress axis : x y z
#
# Youngs Moduli (GPa) = 67.09115 50.49886 98.34912
#
# Poissons Ratio (x) = 0.16758 0.52033
# Poissons Ratio (y) = 0.22264 0.20805
# Poissons Ratio (z) = 0.35495 0.10683
#
# Static dielectric constant tensor:
#      x y z
#    x 3.754780 0.055750 -0.365950 
#    y 0.055750 3.820620 -0.108000 
#    z -0.365950 -0.108000 4.672430 
# 
# 
# High freq. dielectric constant tensor:
#      x y z
#    x 1.824630 0.003270 -0.006970 
#    y 0.003270 1.833600 -0.004230 
#    z -0.006970 -0.004230 1.820960 
# 
# From -- ./inp_files/223906.got.cif
#   From: 2010.06.25/outbox.cif.g09.slc.cpg/sg2_112_cif.got.tgz:223906.got - 2010.06.27 13:26:56.
