data_PCOD8007600
_publ_section_title
;
Structure prediction by ZEFSAII (Michael W. Deem and Ramdas Pophale) SiO2 
 PCOD8007600
Probable space group: P -1
;
_chemical_formula_sum "Si O2"
_cell_formula_units_Z 16
_cell_length_a 14.373086
_cell_length_b 8.755259
_cell_length_c 11.759343
_cell_angle_alpha 79.162636
_cell_angle_beta 122.497806
_cell_angle_gamma 140.024902
_cell_volume 730.313099
_symmetry_space_group_name_H-M "P -1"
_symmetry_group_IT_number 2
_symmetry_cell_setting 'triclinic'
loop_
_space_group_symop_operation_xyz
x,y,z
-x,-y,-z
loop_
_atom_site_type_symbol
_atom_site_label
_atom_site_fract_x
_atom_site_fract_y
_atom_site_fract_z
Si Si1 0.488925 0.336089 0.590585
Si Si2 0.104991 0.170712 0.210298
Si Si3 0.027538 0.577298 0.636799
Si Si4 0.752081 0.975430 0.935505
Si Si5 0.441509 0.367965 0.803747
Si Si6 0.812508 0.093914 0.711753
Si Si7 0.611329 0.971374 0.066397
Si Si8 0.028701 0.918614 0.630951
O O1 0.500000 0.500000 0.500000
O O2 0.699932 0.519717 0.731800
O O3 0.392121 0.261468 0.657595
O O4 0.362234 0.080196 0.465177
O O5 0.087573 0.139237 0.337140
O O6 0.114459 0.000183 0.204108
O O7 0.936083 0.077821 0.058667
O O8 0.242985 0.847142 0.761359
O O9 0.937644 0.645698 0.587001
O O10 0.000000 0.500000 0.500000
O O11 0.964257 0.378052 0.716048
O O12 0.572572 0.663730 0.850751
O O13 0.765710 0.092209 0.811275
O O14 0.714598 0.055083 0.001884
O O15 0.527517 0.325380 0.943113
O O16 0.246601 0.171266 0.769441
O O17 0.500000 0.000000 0.000000
O O18 0.000000 0.000000 0.500000
#
# Coordination Sequence:
#
# PCOD8007600 Si02
#       8
#     2   2   2   2   2   2   2   2
#     4  10  20  41  65  98 135 167 225 276 332 396
#     4  11  22  41  66 103 135 174 225 278 334 400
#     4  11  24  47  67  96 137 177 231 278 336 402
#     4  12  24  43  67 103 134 175 231 273 339 416
#     4  11  22  43  71  96 134 173 232 280 326 410
#     4  11  24  41  71 101 137 177 221 282 343 401
#     4  11  27  46  64  96 139 181 222 281 343 398
#     4  11  23  41  71  99 133 177 231 284 330 395
#
# _framework density 21.908411999999998
#
# number of rings (size 3 to 8) (size 9 to 14) (size 15 to 20)
#    0.000    1.000    5.000    4.500    1.750    1.500 
#    2.250    0.625    0.000    0.000    0.000    0.000 
#    0.000    0.000    0.000    0.000    0.000    0.000 
#
# Total GULP energy -198209.905613 kJ/mol
# GULP energy per Si atom -12388.119101 kJ/mol
# Density = 2.185855 g / cm^3
# Si number density = 21.908412 Si / 1000 Ang^3
#
#
#
# Elastic Constant Matrix: (Units=GPa)
#
#
# Indices 1 2 3 4 5 6 
#
# 1 97.9659 22.4293 44.2119 -7.3784 -6.9766 5.3877
# 2 22.4293 84.1083 18.5714 -8.9456 1.5136 3.0784
# 3 44.2119 18.5714 89.9629 0.6234 -23.0930 -9.6108
# 4 -7.3784 -8.9456 0.6234 35.6940 7.4308 2.7958
# 5 -6.9766 1.5136 -23.0930 7.4308 37.4136 -11.4683
# 6 5.3877 3.0784 -9.6108 2.7958 -11.4683 22.0669
#
#
#
# Elastic Compliance Matrix: (Units=1/GPa)
#
#
# Indices 1 2 3 4 5 6 
#
# 1 0.016722 0.000009 -0.012991 0.007375 -0.011464 -0.016634
# 2 0.000009 0.014549 -0.006486 0.006460 -0.009056 -0.010381
# 3 -0.012991 -0.006486 0.030283 -0.013757 0.029845 0.034520
# 4 0.007375 0.006460 -0.013757 0.038111 -0.022709 -0.025324
# 5 -0.011464 -0.009056 0.029845 -0.022709 0.064233 0.053320
# 6 -0.016634 -0.010381 0.034520 -0.025324 0.053320 0.096780
#
#
# Mechanical properties :
#
#
# Convention : Reuss Voigt Hill
#
# Bulk Modulus (GPa) = 44.21223 49.16248 46.68735
# Shear Modulus (GPa) = 16.27844 31.48987 23.88416
#
# Velocity S-wave (km/s) = 2.72880 3.79534 3.30537
# Velocity P-wave (km/s) = 5.49115 6.45716 5.99365
#
# Compressibility (1/GPa) = 0.02261818
#
# Stress axis : x y z
#
# Youngs Moduli (GPa) = 59.80043 68.73221 33.02164
#
# Poissons Ratio (x) = -0.00059 0.42898
# Poissons Ratio (y) = -0.00052 0.21418
# Poissons Ratio (z) = 0.77686 0.44580
#
# Static dielectric constant tensor:
#      x y z
#    x 8.287320 -2.639250 2.993730 
#    y -2.639250 6.146080 -1.956200 
#    z 2.993730 -1.956200 6.656110 
# 
# 
# High freq. dielectric constant tensor:
#      x y z
#    x 1.850570 0.015310 -0.015210 
#    y 0.015310 1.863970 -0.007480 
#    z -0.015210 -0.007480 1.872390 
# 
# From -- ./inp_files/447372.got.cif
#   From: 2010.06.25/outbox.cif.g09.slc.cpg/sg2_224_cif.got.tgz:447372.got - 2010.06.27 13:26:56.
