data_PCOD8007051
_publ_section_title
;
Structure prediction by ZEFSAII (Michael W. Deem and Ramdas Pophale) SiO2 
 PCOD8007051
Probable space group: P -1
;
_chemical_formula_sum "Si O2"
_cell_formula_units_Z 16
_cell_length_a 20.523554
_cell_length_b 14.017217
_cell_length_c 11.554623
_cell_angle_alpha 46.157177
_cell_angle_beta 148.918934
_cell_angle_gamma 152.990281
_cell_volume 743.425805
_symmetry_space_group_name_H-M "P -1"
_symmetry_group_IT_number 2
_symmetry_cell_setting 'triclinic'
loop_
_space_group_symop_operation_xyz
x,y,z
-x,-y,-z
loop_
_atom_site_type_symbol
_atom_site_label
_atom_site_fract_x
_atom_site_fract_y
_atom_site_fract_z
Si Si1 0.327924 0.258787 0.992369
Si Si2 0.596048 0.429399 0.463709
Si Si3 0.363675 0.096564 0.989345
Si Si4 0.187966 0.820928 0.485857
Si Si5 0.732415 0.398421 0.129969
Si Si6 0.151771 0.115720 0.485331
Si Si7 0.463722 0.912830 0.389171
Si Si8 0.565073 0.753202 0.381523
O O1 0.500000 0.500000 0.000000
O O2 0.387622 0.294169 0.187775
O O3 0.362804 0.148211 0.075302
O O4 0.086086 0.097294 0.742140
O O5 0.791367 0.697180 0.518667
O O6 0.660850 0.332732 0.604804
O O7 0.526575 0.388587 0.524166
O O8 0.586867 0.319501 0.082619
O O9 0.337127 0.915066 0.115581
O O10 0.185254 0.020096 0.705044
O O11 0.209390 0.705613 0.687785
O O12 0.947313 0.660532 0.234520
O O13 0.307991 0.918006 0.463839
O O14 0.267865 0.996198 0.547239
O O15 0.625493 0.336381 0.897852
O O16 0.313202 0.249424 0.511274
O O17 0.500000 0.000000 0.500000
#
# Coordination Sequence:
#
# PCOD8007051 Si02
#       8
#     2   2   2   2   2   2   2   2
#     4  12  25  42  68  91 131 170 220 263 308 382
#     4  11  24  42  67  94 131 169 204 269 321 378
#     4  10  21  41  67  91 127 165 214 265 307 380
#     4   9  19  35  63  91 124 171 206 256 318 376
#     4   9  19  37  61  92 127 161 214 258 315 372
#     4  11  25  43  67  95 126 172 219 258 318 378
#     4  10  20  40  66  96 130 164 209 262 321 380
#     4  10  22  38  62  93 129 160 211 263 317 376
#
# _framework density 21.521985999999998
#
# number of rings (size 3 to 8) (size 9 to 14) (size 15 to 20)
#    0.000    1.750    2.500    1.125    1.750    3.500 
#    0.000    0.625    8.250    0.000    0.000    0.000 
#    0.000    0.000    0.000    0.000    0.000    0.000 
#
# Total GULP energy -198265.741569 kJ/mol
# GULP energy per Si atom -12391.608848 kJ/mol
# Density = 2.147300 g / cm^3
# Si number density = 21.521986 Si / 1000 Ang^3
#
#
#
# Elastic Constant Matrix: (Units=GPa)
#
#
# Indices 1 2 3 4 5 6 
#
# 1 94.8432 19.2903 45.1199 -5.5604 -15.2567 -1.2317
# 2 19.2903 97.9513 66.6904 3.4540 1.1093 -18.8884
# 3 45.1199 66.6904 172.6837 15.5839 -13.1679 2.8153
# 4 -5.5604 3.4540 15.5839 35.2014 -1.4752 -2.6117
# 5 -15.2567 1.1093 -13.1679 -1.4752 30.3518 -4.5081
# 6 -1.2317 -18.8884 2.8153 -2.6117 -4.5081 29.0808
#
#
#
# Elastic Compliance Matrix: (Units=1/GPa)
#
#
# Indices 1 2 3 4 5 6 
#
# 1 0.013378 -0.000124 -0.003406 0.004028 0.005755 0.002070
# 2 -0.000124 0.017394 -0.007234 0.002277 -0.001959 0.011894
# 3 -0.003406 -0.007234 0.010134 -0.004680 0.001836 -0.005960
# 4 0.004028 0.002277 -0.004680 0.031376 0.002218 0.005264
# 5 0.005755 -0.001959 0.001836 0.002218 0.037530 0.004811
# 6 0.002070 0.011894 -0.005960 0.005264 0.004811 0.043995
#
#
# Mechanical properties :
#
#
# Convention : Reuss Voigt Hill
#
# Bulk Modulus (GPa) = 51.60291 69.74217 60.67254
# Shear Modulus (GPa) = 27.50344 34.55199 31.02771
#
# Velocity S-wave (km/s) = 3.57868 4.01113 3.80106
# Velocity P-wave (km/s) = 6.41131 7.34354 6.89320
#
# Compressibility (1/GPa) = 0.01937875
#
# Stress axis : x y z
#
# Youngs Moduli (GPa) = 74.74941 57.49015 98.67490
#
# Poissons Ratio (x) = 0.00710 0.33611
# Poissons Ratio (y) = 0.00924 0.71383
# Poissons Ratio (z) = 0.25461 0.41589
#
# Static dielectric constant tensor:
#      x y z
#    x 4.024870 -0.111850 -0.031420 
#    y -0.111850 3.982270 -0.140460 
#    z -0.031420 -0.140460 4.029340 
# 
# 
# High freq. dielectric constant tensor:
#      x y z
#    x 1.848470 -0.003360 -0.006090 
#    y -0.003360 1.845060 -0.012990 
#    z -0.006090 -0.012990 1.840530 
# 
# From -- ./inp_files/471930.got.cif
#   From: 2010.06.25/outbox.cif.g09.slc.cpg/sg2_236_cif.got.tgz:471930.got - 2010.06.27 13:26:56.
