data_PCOD8007245
_publ_section_title
;
Structure prediction by ZEFSAII (Michael W. Deem and Ramdas Pophale) SiO2 
 PCOD8007245
Probable space group: P -1
;
_chemical_formula_sum "Si O2"
_cell_formula_units_Z 14
_cell_length_a 8.745386
_cell_length_b 11.252072
_cell_length_c 8.449178
_cell_angle_alpha 123.221357
_cell_angle_beta 78.923300
_cell_angle_gamma 93.726738
_cell_volume 681.762978
_symmetry_space_group_name_H-M "P -1"
_symmetry_group_IT_number 2
_symmetry_cell_setting 'triclinic'
loop_
_space_group_symop_operation_xyz
x,y,z
-x,-y,-z
loop_
_atom_site_type_symbol
_atom_site_label
_atom_site_fract_x
_atom_site_fract_y
_atom_site_fract_z
Si Si1 0.320172 0.816327 0.544379
Si Si2 0.843240 0.258403 0.186449
Si Si3 0.565796 0.643493 0.157737
Si Si4 0.983881 0.759927 0.558860
Si Si5 0.744737 0.991786 0.858607
Si Si6 0.127392 0.469727 0.818923
Si Si7 0.572623 0.906657 0.138824
O O1 0.311105 0.750879 0.677472
O O2 0.439358 0.717418 0.351557
O O3 0.147230 0.816462 0.500144
O O4 0.372145 0.977878 0.661028
O O5 0.818998 0.383837 0.158118
O O6 0.994236 0.274682 0.281958
O O7 0.862330 0.109790 0.979557
O O8 0.724090 0.614292 0.200117
O O9 0.603090 0.748416 0.083756
O O10 0.500000 0.500000 0.000000
O O11 0.844886 0.878497 0.650733
O O12 0.944940 0.618769 0.372016
O O13 0.612158 0.065531 0.828719
O O14 0.666837 0.911413 0.960742
O O15 0.000000 0.500000 0.000000
#
# Coordination Sequence:
#
# PCOD8007245 Si02
#       7
#     2   2   2   2   2   2   2
#     4   9  22  40  62  87 123 162 203 252 306 354
#     4   9  22  41  66  89 127 158 210 252 299 370
#     4  12  25  40  60  89 131 161 200 258 310 359
#     4  10  22  40  66  91 122 159 210 251 303 363
#     4  10  20  40  69  93 115 166 210 251 306 363
#     4  12  26  41  62  93 125 168 204 249 313 367
#     4  10  22  39  63  93 126 156 205 256 306 365
#
# _framework density 20.534994999999999
#
# number of rings (size 3 to 8) (size 9 to 14) (size 15 to 20)
#    0.857    0.857    0.000    3.857    2.000    1.714 
#    0.000    2.143    0.000    0.000    0.000    0.000 
#    0.000    0.000    0.000    0.000    0.000    0.000 
#
# Total GULP energy -173589.619284 kJ/mol
# GULP energy per Si atom -12399.258520 kJ/mol
# Density = 2.048826 g / cm^3
# Si number density = 20.534995 Si / 1000 Ang^3
#
#
#
# Elastic Constant Matrix: (Units=GPa)
#
#
# Indices 1 2 3 4 5 6 
#
# 1 110.5797 40.3785 31.7996 8.9332 -5.6600 -5.4041
# 2 40.3785 140.8023 30.9457 14.7435 9.7842 1.7891
# 3 31.7996 30.9457 89.1978 24.0163 -5.0162 15.9265
# 4 8.9332 14.7435 24.0163 23.6893 1.5027 3.8806
# 5 -5.6600 9.7842 -5.0162 1.5027 35.2038 5.8757
# 6 -5.4041 1.7891 15.9265 3.8806 5.8757 29.8058
#
#
#
# Elastic Compliance Matrix: (Units=1/GPa)
#
#
# Indices 1 2 3 4 5 6 
#
# 1 0.011334 -0.002586 -0.003944 0.000599 0.001288 0.003986
# 2 -0.002586 0.008704 -0.001718 -0.002647 -0.003114 0.000885
# 3 -0.003944 -0.001718 0.019574 -0.015969 0.004979 -0.009973
# 4 0.000599 -0.002647 -0.015969 0.059792 -0.004307 0.001865
# 5 0.001288 -0.003114 0.004979 -0.004307 0.031695 -0.007927
# 6 0.003986 0.000885 -0.009973 0.001865 -0.007927 0.040869
#
#
# Mechanical properties :
#
#
# Convention : Reuss Voigt Hill
#
# Bulk Modulus (GPa) = 43.26232 60.75861 52.01046
# Shear Modulus (GPa) = 25.48812 33.57018 29.52915
#
# Velocity S-wave (km/s) = 3.52689 4.04763 3.79620
# Velocity P-wave (km/s) = 6.13992 7.17610 6.67814
#
# Compressibility (1/GPa) = 0.02311480
#
# Stress axis : x y z
#
# Youngs Moduli (GPa) = 88.22860 114.89174 51.08936
#
# Poissons Ratio (x) = 0.29717 0.20150
# Poissons Ratio (y) = 0.22820 0.08777
# Poissons Ratio (z) = 0.34797 0.19738
#
# Static dielectric constant tensor:
#      x y z
#    x 3.786640 0.018780 0.144010 
#    y 0.018780 3.607910 -0.004790 
#    z 0.144010 -0.004790 3.686600 
# 
# 
# High freq. dielectric constant tensor:
#      x y z
#    x 1.807090 0.004970 0.007390 
#    y 0.004970 1.793420 0.006740 
#    z 0.007390 0.006740 1.808490 
# 
# From -- ./inp_files/190663.got.cif
#   From: 2010.06.25/outbox.cif.g09.slc.cpg/sg2_96_cif.got.tgz:190663.got - 2010.06.27 13:26:56.
