data_PCOD8007508
_publ_section_title
;
Structure prediction by ZEFSAII (Michael W. Deem and Ramdas Pophale) SiO2 
 PCOD8007508
Probable space group: P -1
;
_chemical_formula_sum "Si O2"
_cell_formula_units_Z 16
_cell_length_a 10.119068
_cell_length_b 13.360683
_cell_length_c 12.392344
_cell_angle_alpha 134.748251
_cell_angle_beta 117.300805
_cell_angle_gamma 41.127840
_cell_volume 773.388701
_symmetry_space_group_name_H-M "P -1"
_symmetry_group_IT_number 2
_symmetry_cell_setting 'triclinic'
loop_
_space_group_symop_operation_xyz
x,y,z
-x,-y,-z
loop_
_atom_site_type_symbol
_atom_site_label
_atom_site_fract_x
_atom_site_fract_y
_atom_site_fract_z
Si Si1 0.872241 0.824930 0.470368
Si Si2 0.527812 0.841333 0.959157
Si Si3 0.766607 0.157573 0.035979
Si Si4 0.589067 0.896688 0.248597
Si Si5 0.389391 0.790529 0.211575
Si Si6 0.658553 0.463393 0.618414
Si Si7 0.778355 0.686243 0.515681
Si Si8 0.465372 0.433165 0.700326
O O1 0.763005 0.884715 0.356850
O O2 0.813109 0.723409 0.437654
O O3 0.113539 0.686578 0.453275
O O4 0.789557 0.015810 0.643703
O O5 0.315604 0.927209 0.997471
O O6 0.617442 0.654598 0.780233
O O7 0.663590 0.796706 0.081745
O O8 0.500000 0.000000 0.000000
O O9 0.702056 0.339027 0.212685
O O10 0.693336 0.226037 0.939102
O O11 0.000000 0.000000 0.000000
O O12 0.569958 0.779556 0.236368
O O13 0.359695 0.113153 0.315764
O O14 0.470616 0.615297 0.187388
O O15 0.500000 0.500000 0.500000
O O16 0.654467 0.361198 0.642481
O O17 0.630044 0.650076 0.435482
O O18 0.000000 0.500000 0.500000
#
# Coordination Sequence:
#
# PCOD8007508 Si02
#       8
#     2   2   2   2   2   2   2   2
#     4  11  22  41  67  92 129 171 211 266 318 383
#     4  10  25  44  65  89 131 173 211 262 318 385
#     4  10  24  40  63  95 127 163 212 269 321 375
#     4  10  21  43  65  95 129 159 223 271 302 379
#     4  10  20  41  64  93 126 162 213 266 318 374
#     4  11  27  43  62  96 138 167 209 267 327 385
#     4  11  22  36  68  98 120 166 218 263 313 372
#     4  11  22  41  62  92 129 168 208 261 326 377
#
# _framework density 20.688172999999999
#
# number of rings (size 3 to 8) (size 9 to 14) (size 15 to 20)
#    0.000    1.500    2.500    1.875   12.250    1.000 
#    2.250    0.000    0.000    0.000    0.000    0.000 
#    0.000    0.000    0.000    0.000    0.000    0.000 
#
# Total GULP energy -198222.588278 kJ/mol
# GULP energy per Si atom -12388.911767 kJ/mol
# Density = 2.064109 g / cm^3
# Si number density = 20.688173 Si / 1000 Ang^3
#
#
#
# Elastic Constant Matrix: (Units=GPa)
#
#
# Indices 1 2 3 4 5 6 
#
# 1 98.9517 41.2787 39.0036 4.0710 3.2633 17.8476
# 2 41.2787 92.1739 24.7869 0.5759 -1.5580 7.4571
# 3 39.0036 24.7869 94.5359 2.1267 -5.8864 -0.7055
# 4 4.0710 0.5759 2.1267 21.9072 6.4782 2.7487
# 5 3.2633 -1.5580 -5.8864 6.4782 22.4121 0.9253
# 6 17.8476 7.4571 -0.7055 2.7487 0.9253 46.8966
#
#
#
# Elastic Compliance Matrix: (Units=1/GPa)
#
#
# Indices 1 2 3 4 5 6 
#
# 1 0.015350 -0.005118 -0.005242 -0.000513 -0.003613 -0.005006
# 2 -0.005118 0.013552 -0.001377 0.000402 0.001221 -0.000276
# 3 -0.005242 -0.001377 0.013456 -0.001984 0.004674 0.002440
# 4 -0.000513 0.000402 -0.001984 0.050671 -0.014959 -0.002573
# 5 -0.003613 0.001221 0.004674 -0.014959 0.050735 0.001127
# 6 -0.005006 -0.000276 0.002440 -0.002573 0.001127 0.023438
#
#
# Mechanical properties :
#
#
# Convention : Reuss Voigt Hill
#
# Bulk Modulus (GPa) = 52.95391 55.08887 54.02139
# Shear Modulus (GPa) = 25.38478 30.28268 27.83373
#
# Velocity S-wave (km/s) = 3.50668 3.83007 3.67194
# Velocity P-wave (km/s) = 6.48441 6.80039 6.64428
#
# Compressibility (1/GPa) = 0.01888435
#
# Stress axis : x y z
#
# Youngs Moduli (GPa) = 65.14599 73.79238 74.31790
#
# Poissons Ratio (x) = 0.37764 0.38958
# Poissons Ratio (y) = 0.33339 0.10232
# Poissons Ratio (z) = 0.34150 0.10160
#
# Static dielectric constant tensor:
#      x y z
#    x 3.717130 0.270000 0.069620 
#    y 0.270000 3.623890 -0.231560 
#    z 0.069620 -0.231560 3.886230 
# 
# 
# High freq. dielectric constant tensor:
#      x y z
#    x 1.805630 0.013180 0.004080 
#    y 0.013180 1.800420 -0.003230 
#    z 0.004080 -0.003230 1.820680 
# 
# From -- ./inp_files/283491.got.cif
#   From: 2010.06.25/outbox.cif.g09.slc.cpg/sg2_142_cif.got.tgz:283491.got - 2010.06.27 13:26:56.
