data_PCOD8007704
_publ_section_title
;
Structure prediction by ZEFSAII (Michael W. Deem and Ramdas Pophale) SiO2 
 PCOD8007704
Probable space group: P -1
;
_chemical_formula_sum "Si O2"
_cell_formula_units_Z 16
_cell_length_a 16.102409
_cell_length_b 7.886845
_cell_length_c 8.119261
_cell_angle_alpha 82.387815
_cell_angle_beta 109.771871
_cell_angle_gamma 138.519728
_cell_volume 630.494645
_symmetry_space_group_name_H-M "P -1"
_symmetry_group_IT_number 2
_symmetry_cell_setting 'triclinic'
loop_
_space_group_symop_operation_xyz
x,y,z
-x,-y,-z
loop_
_atom_site_type_symbol
_atom_site_label
_atom_site_fract_x
_atom_site_fract_y
_atom_site_fract_z
Si Si1 0.864030 0.893254 0.848703
Si Si2 0.516017 0.809418 0.441909
Si Si3 0.274935 0.954737 0.951801
Si Si4 0.215546 0.767573 0.590689
Si Si5 0.404496 0.348703 0.237433
Si Si6 0.020172 0.792490 0.793230
Si Si7 0.972535 0.189642 0.562182
Si Si8 0.263244 0.637423 0.235193
O O1 0.748927 0.870051 0.764467
O O2 0.785841 0.602737 0.861774
O O3 0.944208 0.011308 0.711094
O O4 0.964242 0.063740 0.052297
O O5 0.479744 0.639016 0.278626
O O6 0.511683 0.679137 0.614024
O O7 0.406187 0.799709 0.397965
O O8 0.669456 0.106753 0.486371
O O9 0.299863 0.833376 0.103810
O O10 0.377281 0.257629 0.038708
O O11 0.305671 0.955125 0.784701
O O12 0.116634 0.771598 0.884872
O O13 0.118615 0.777853 0.465467
O O14 0.128635 0.475758 0.625880
O O15 0.061108 0.939806 0.625560
O O16 0.864159 0.496974 0.713304
#
# Coordination Sequence:
#
# PCOD8007704 Si02
#       8
#     2   2   2   2   2   2   2   2
#     4  10  20  41  67  90 127 161 205 261 306 361
#     4  10  21  39  63  88 125 160 204 251 312 370
#     4  10  22  39  62  90 123 162 210 250 308 364
#     4  10  21  38  62  92 124 159 203 265 299 366
#     4   9  20  39  65  88 116 169 204 246 307 380
#     4  10  22  39  64  90 122 166 208 255 302 369
#     4  10  21  38  64  96 121 161 213 252 309 362
#     4  11  23  37  63  94 125 166 200 252 314 369
#
# _framework density 25.376902999999999
#
# number of rings (size 3 to 8) (size 9 to 14) (size 15 to 20)
#    0.000    2.000    1.250    1.500    1.750    4.000 
#    0.000    0.000    0.000    0.000    0.000    0.000 
#    0.000    0.000    0.000    0.000    0.000    0.000 
#
# Total GULP energy -198306.473526 kJ/mol
# GULP energy per Si atom -12394.154595 kJ/mol
# Density = 2.531914 g / cm^3
# Si number density = 25.376903 Si / 1000 Ang^3
#
#
#
# Elastic Constant Matrix: (Units=GPa)
#
#
# Indices 1 2 3 4 5 6 
#
# 1 103.8378 16.0837 38.8773 -0.4598 13.5408 20.0855
# 2 16.0837 101.2766 34.6549 14.8006 3.0557 20.7324
# 3 38.8773 34.6549 92.7637 11.4485 17.0979 3.2179
# 4 -0.4598 14.8006 11.4485 39.3481 2.8028 5.8553
# 5 13.5408 3.0557 17.0979 2.8028 44.3172 9.3178
# 6 20.0855 20.7324 3.2179 5.8553 9.3178 28.8490
#
#
#
# Elastic Compliance Matrix: (Units=1/GPa)
#
#
# Indices 1 2 3 4 5 6 
#
# 1 0.013894 0.001830 -0.006545 0.002989 0.000267 -0.010952
# 2 0.001830 0.014197 -0.006028 -0.002097 0.003328 -0.011454
# 3 -0.006545 -0.006028 0.017000 -0.003772 -0.005939 0.009676
# 4 0.002989 -0.002097 -0.003772 0.028207 0.000149 -0.005926
# 5 0.000267 0.003328 -0.005939 0.000149 0.026762 -0.010589
# 6 -0.010952 -0.011454 0.009676 -0.005926 -0.010589 0.054063
#
#
# Mechanical properties :
#
#
# Convention : Reuss Voigt Hill
#
# Bulk Modulus (GPa) = 42.36422 53.01220 47.68821
# Shear Modulus (GPa) = 27.25151 36.38701 31.81926
#
# Velocity S-wave (km/s) = 3.28055 3.79075 3.54484
# Velocity P-wave (km/s) = 5.57491 6.33206 5.96551
#
# Compressibility (1/GPa) = 0.02360483
#
# Stress axis : x y z
#
# Youngs Moduli (GPa) = 71.97257 70.43866 58.82516
#
# Poissons Ratio (x) = -0.12891 0.38501
# Poissons Ratio (y) = -0.13172 0.35459
# Poissons Ratio (z) = 0.47106 0.42460
#
# Static dielectric constant tensor:
#      x y z
#    x 4.789410 0.076350 -0.004580 
#    y 0.076350 4.309960 0.512450 
#    z -0.004580 0.512450 4.701960 
# 
# 
# High freq. dielectric constant tensor:
#      x y z
#    x 2.032680 -0.004730 0.000920 
#    y -0.004730 1.994380 0.035090 
#    z 0.000920 0.035090 2.022540 
# 
# From -- ./inp_files/328890.got.cif
#   From: 2010.06.25/outbox.cif.g09.slc.cpg/sg2_165_cif.got.tgz:328890.got - 2010.06.27 13:26:56.
