data_PCOD8007086
_publ_section_title
;
Structure prediction by ZEFSAII (Michael W. Deem and Ramdas Pophale) SiO2 
 PCOD8007086
Probable space group: P -1
;
_chemical_formula_sum "Si O2"
_cell_formula_units_Z 12
_cell_length_a 8.923018
_cell_length_b 16.684824
_cell_length_c 17.312477
_cell_angle_alpha 163.176861
_cell_angle_beta 61.734630
_cell_angle_gamma 109.421147
_cell_volume 578.587288
_symmetry_space_group_name_H-M "P -1"
_symmetry_group_IT_number 2
_symmetry_cell_setting 'triclinic'
loop_
_space_group_symop_operation_xyz
x,y,z
-x,-y,-z
loop_
_atom_site_type_symbol
_atom_site_label
_atom_site_fract_x
_atom_site_fract_y
_atom_site_fract_z
Si Si1 0.192452 0.954638 0.449259
Si Si2 0.598262 0.210144 0.151522
Si Si3 0.427291 0.475214 0.275216
Si Si4 0.006826 0.799717 0.741136
Si Si5 0.483873 0.020910 0.707631
Si Si6 0.301726 0.267635 0.829748
O O1 0.321182 0.004189 0.398858
O O2 0.143078 0.210651 0.767640
O O3 0.296125 0.600852 0.129445
O O4 0.000000 0.000000 0.500000
O O5 0.500000 0.500000 0.500000
O O6 0.558184 0.327034 0.181541
O O7 0.500000 0.000000 0.000000
O O8 0.828334 0.006861 0.919415
O O9 0.203655 0.702827 0.558078
O O10 0.514375 0.671139 0.390051
O O11 0.439174 0.195252 0.961029
O O12 0.000000 0.500000 0.500000
O O13 0.000000 0.000000 0.000000
O O14 0.301749 0.205447 0.864069
O O15 0.500000 0.000000 0.500000
#
# Coordination Sequence:
#
# PCOD8007086 Si02
#       6
#     2   2   2   2   2   2
#     4  11  22  41  68  94 125 167 214 255 308 392
#     4  12  23  43  69  92 126 171 218 262 316 391
#     4  12  24  41  66  96 134 163 212 279 321 363
#     4  12  23  43  69  93 122 174 223 255 315 399
#     4  11  23  42  63  93 130 163 207 267 326 361
#     4  10  20  40  67  86 119 173 207 240 310 394
#
# _framework density 20.740172000000001
#
# number of rings (size 3 to 8) (size 9 to 14) (size 15 to 20)
#    0.000    0.667    3.333    7.500    0.000    0.000 
#    9.000    0.000    0.000    0.000    0.000    0.000 
#    0.000    0.000    0.000    0.000    0.000    0.000 
#
# Total GULP energy -148797.692621 kJ/mol
# GULP energy per Si atom -12399.807718 kJ/mol
# Density = 2.069297 g / cm^3
# Si number density = 20.740172 Si / 1000 Ang^3
#
#
#
# Elastic Constant Matrix: (Units=GPa)
#
#
# Indices 1 2 3 4 5 6 
#
# 1 151.0844 53.2405 29.3821 -0.2098 -6.0745 -16.2344
# 2 53.2405 121.8102 27.9605 18.2003 0.5391 -13.1806
# 3 29.3821 27.9605 79.7770 6.3317 12.0620 -1.1130
# 4 -0.2098 18.2003 6.3317 43.0335 -4.0334 13.3411
# 5 -6.0745 0.5391 12.0620 -4.0334 48.3553 6.5122
# 6 -16.2344 -13.1806 -1.1130 13.3411 6.5122 40.1292
#
#
#
# Elastic Compliance Matrix: (Units=1/GPa)
#
#
# Indices 1 2 3 4 5 6 
#
# 1 0.008430 -0.003199 -0.002310 0.001392 0.001575 0.001577
# 2 -0.003199 0.011521 -0.002138 -0.006122 -0.001134 0.004650
# 3 -0.002310 -0.002138 0.014892 -0.001687 -0.004123 0.000006
# 4 0.001392 -0.006122 -0.001687 0.030376 0.004865 -0.012382
# 5 0.001575 -0.001134 -0.004123 0.004865 0.023026 -0.005204
# 6 0.001577 0.004650 0.000006 -0.012382 -0.005204 0.032046
#
#
# Mechanical properties :
#
#
# Convention : Reuss Voigt Hill
#
# Bulk Modulus (GPa) = 51.15066 63.75975 57.45520
# Shear Modulus (GPa) = 35.18612 42.44285 38.81448
#
# Velocity S-wave (km/s) = 4.12335 4.52863 4.33074
# Velocity P-wave (km/s) = 6.88371 7.62585 7.26426
#
# Compressibility (1/GPa) = 0.01955009
#
# Stress axis : x y z
#
# Youngs Moduli (GPa) = 118.62415 86.79775 67.14853
#
# Poissons Ratio (x) = 0.27763 0.15514
# Poissons Ratio (y) = 0.37943 0.14355
# Poissons Ratio (z) = 0.27406 0.18555
#
# Static dielectric constant tensor:
#      x y z
#    x 5.042650 -0.276470 0.495540 
#    y -0.276470 3.887700 0.089930 
#    z 0.495540 0.089930 4.736450 
# 
# 
# High freq. dielectric constant tensor:
#      x y z
#    x 1.827460 -0.013590 0.022060 
#    y -0.013590 1.811470 0.014360 
#    z 0.022060 0.014360 1.821800 
# 
# From -- ./inp_files/32311.got.cif
#   From: 2010.06.25/outbox.cif.g09.slc.cpg/sg2_17_cif.got.tgz:32311.got - 2010.06.27 13:26:56.
