data_PCOD8007311
_publ_section_title
;
Structure prediction by ZEFSAII (Michael W. Deem and Ramdas Pophale) SiO2 
 PCOD8007311
Probable space group: P -1
;
_chemical_formula_sum "Si O2"
_cell_formula_units_Z 16
_cell_length_a 11.919814
_cell_length_b 9.314932
_cell_length_c 11.918284
_cell_angle_alpha 50.625636
_cell_angle_beta 68.617141
_cell_angle_gamma 46.084414
_cell_volume 730.102928
_symmetry_space_group_name_H-M "P -1"
_symmetry_group_IT_number 2
_symmetry_cell_setting 'triclinic'
loop_
_space_group_symop_operation_xyz
x,y,z
-x,-y,-z
loop_
_atom_site_type_symbol
_atom_site_label
_atom_site_fract_x
_atom_site_fract_y
_atom_site_fract_z
Si Si1 0.315132 0.230856 0.786856
Si Si2 0.717813 0.320818 0.124852
Si Si3 0.642744 0.226484 0.980866
Si Si4 0.176669 0.394740 0.992123
Si Si5 0.827381 0.620913 0.465998
Si Si6 0.673304 0.407949 0.669198
Si Si7 0.663807 0.087660 0.433722
Si Si8 0.362419 0.905906 0.306679
O O1 0.235994 0.390671 0.848196
O O2 0.188831 0.327474 0.686532
O O3 0.452296 0.228867 0.691763
O O4 0.384168 0.964663 0.928088
O O5 0.531369 0.521776 0.082822
O O6 0.809648 0.425178 0.034474
O O7 0.759801 0.160397 0.301010
O O8 0.754366 0.167071 0.075268
O O9 0.730618 0.223631 0.842555
O O10 0.000000 0.500000 0.000000
O O11 0.277995 0.134400 0.142403
O O12 0.811067 0.417212 0.592298
O O13 0.000000 0.500000 0.500000
O O14 0.697690 0.865735 0.462229
O O15 0.519446 0.681843 0.616374
O O16 0.650078 0.294456 0.628524
O O17 0.715151 0.007467 0.584160
#
# Coordination Sequence:
#
# PCOD8007311 Si02
#       8
#     2   2   2   2   2   2   2   2
#     4  12  23  48  70  97 135 179 235 283 333 401
#     4  10  22  40  68 103 131 172 228 279 337 393
#     4  10  20  40  72  96 129 171 231 290 320 390
#     4  12  28  44  67 102 143 183 219 278 352 414
#     4  12  29  45  66 101 146 183 223 283 348 410
#     4  11  24  43  70 102 131 182 235 283 339 395
#     4  11  24  43  71 101 132 179 233 286 331 401
#     4  12  25  44  74 104 135 178 235 288 330 406
#
# _framework density 21.914719000000002
#
# number of rings (size 3 to 8) (size 9 to 14) (size 15 to 20)
#    0.000    0.750    5.000    2.625    5.250    1.000 
#    0.000    2.500    0.000    0.000    0.000    0.000 
#    0.000    0.000    0.000    0.000    0.000    0.000 
#
# Total GULP energy -198380.912819 kJ/mol
# GULP energy per Si atom -12398.807051 kJ/mol
# Density = 2.186484 g / cm^3
# Si number density = 21.914719 Si / 1000 Ang^3
#
#
#
# Elastic Constant Matrix: (Units=GPa)
#
#
# Indices 1 2 3 4 5 6 
#
# 1 135.5039 35.4315 50.4611 -3.0442 -10.7795 19.9420
# 2 35.4315 57.1679 25.8444 9.2509 -3.1816 22.6402
# 3 50.4611 25.8444 128.3047 16.6226 -4.9316 11.3709
# 4 -3.0442 9.2509 16.6226 31.4329 13.3152 0.6551
# 5 -10.7795 -3.1816 -4.9316 13.3152 39.1415 -10.2706
# 6 19.9420 22.6402 11.3709 0.6551 -10.2706 30.8011
#
#
#
# Elastic Compliance Matrix: (Units=1/GPa)
#
#
# Indices 1 2 3 4 5 6 
#
# 1 0.010296 -0.004702 -0.003472 0.004238 0.000049 -0.002002
# 2 -0.004702 0.029501 -0.001571 -0.007319 -0.001428 -0.018381
# 3 -0.003472 -0.001571 0.010360 -0.006451 0.002566 0.000571
# 4 0.004238 -0.007319 -0.006451 0.044449 -0.015663 -0.001151
# 5 0.000049 -0.001428 0.002566 -0.015663 0.034195 0.011807
# 6 -0.002002 -0.018381 0.000571 -0.001151 0.011807 0.051024
#
#
# Mechanical properties :
#
#
# Convention : Reuss Voigt Hill
#
# Bulk Modulus (GPa) = 32.60817 60.49452 46.55134
# Shear Modulus (GPa) = 23.86218 34.22439 29.04328
#
# Velocity S-wave (km/s) = 3.30338 3.95613 3.64440
# Velocity P-wave (km/s) = 5.42785 6.96652 6.24476
#
# Compressibility (1/GPa) = 0.03066716
#
# Stress axis : x y z
#
# Youngs Moduli (GPa) = 97.12508 33.89739 96.52800
#
# Poissons Ratio (x) = 0.15938 0.33514
# Poissons Ratio (y) = 0.45666 0.15163
# Poissons Ratio (z) = 0.33722 0.05325
#
# Static dielectric constant tensor:
#      x y z
#    x 3.740020 0.306010 -0.003440 
#    y 0.306010 3.862810 0.166900 
#    z -0.003440 0.166900 4.344200 
# 
# 
# High freq. dielectric constant tensor:
#      x y z
#    x 1.849790 0.029390 -0.006320 
#    y 0.029390 1.844420 0.004870 
#    z -0.006320 0.004870 1.883830 
# 
# From -- ./inp_files/186635.got.cif
#   From: 2010.06.25/outbox.cif.g09.slc.cpg/sg2_94_cif.got.tgz:186635.got - 2010.06.27 13:26:56.
