data_PCOD8007197
_publ_section_title
;
Structure prediction by ZEFSAII (Michael W. Deem and Ramdas Pophale) SiO2 
 PCOD8007197
Probable space group: P -1
;
_chemical_formula_sum "Si O2"
_cell_formula_units_Z 14
_cell_length_a 9.467097
_cell_length_b 9.851543
_cell_length_c 11.450186
_cell_angle_alpha 63.022112
_cell_angle_beta 75.618292
_cell_angle_gamma 36.873051
_cell_volume 557.812212
_symmetry_space_group_name_H-M "P -1"
_symmetry_group_IT_number 2
_symmetry_cell_setting 'triclinic'
loop_
_space_group_symop_operation_xyz
x,y,z
-x,-y,-z
loop_
_atom_site_type_symbol
_atom_site_label
_atom_site_fract_x
_atom_site_fract_y
_atom_site_fract_z
Si Si1 0.118492 0.764843 0.498446
Si Si2 0.712182 0.861950 0.923645
Si Si3 0.414254 0.691224 0.281251
Si Si4 0.991238 0.376541 0.829995
Si Si5 0.188565 0.267482 0.466058
Si Si6 0.422106 0.487729 0.137550
Si Si7 0.447984 0.950174 0.742382
O O1 0.222124 0.742458 0.364575
O O2 0.336637 0.498508 0.624751
O O3 0.902415 0.827127 0.500346
O O4 0.000000 0.000000 0.500000
O O5 0.704180 0.046186 0.817640
O O6 0.687091 0.784404 0.838876
O O7 0.950350 0.626232 0.045129
O O8 0.500000 0.000000 0.000000
O O9 0.484835 0.553024 0.200272
O O10 0.798074 0.649339 0.692716
O O11 0.863047 0.318180 0.881036
O O12 0.227744 0.181872 0.779678
O O13 0.434024 0.058910 0.579585
O O14 0.000000 0.500000 0.500000
O O15 0.579329 0.203630 0.225147
O O16 0.500000 0.500000 0.000000
#
# Coordination Sequence:
#
# PCOD8007197 Si02
#       7
#     2   2   2   2   2   2   2
#     4  11  24  42  67  98 131 172 218 272 334 392
#     4  10  21  41  66  93 132 176 217 266 325 390
#     4  11  24  42  64  95 136 172 215 275 329 384
#     4  10  23  41  65  93 131 175 217 272 327 383
#     4  10  20  40  68  94 127 168 218 272 327 388
#     4  12  26  41  65  99 135 175 221 268 328 397
#     4  10  22  41  66  96 128 170 222 272 324 389
#
# _framework density 25.098051999999999
#
# number of rings (size 3 to 8) (size 9 to 14) (size 15 to 20)
#    0.000    1.429    0.000    6.857    0.000    8.000 
#    0.000    0.000    0.000    0.000    0.000    0.000 
#    0.000    0.000    0.000    0.000    0.000    0.000 
#
# Total GULP energy -173566.298972 kJ/mol
# GULP energy per Si atom -12397.592784 kJ/mol
# Density = 2.504093 g / cm^3
# Si number density = 25.098052 Si / 1000 Ang^3
#
#
#
# Elastic Constant Matrix: (Units=GPa)
#
#
# Indices 1 2 3 4 5 6 
#
# 1 121.3767 14.0979 72.9852 -1.4503 9.1538 4.9056
# 2 14.0979 71.3682 59.4299 6.0886 19.0409 0.0700
# 3 72.9852 59.4299 219.0906 8.0507 12.3676 -16.1109
# 4 -1.4503 6.0886 8.0507 55.6247 -6.4958 8.2816
# 5 9.1538 19.0409 12.3676 -6.4958 48.4967 -4.8747
# 6 4.9056 0.0700 -16.1109 8.2816 -4.8747 40.6753
#
#
#
# Elastic Compliance Matrix: (Units=1/GPa)
#
#
# Indices 1 2 3 4 5 6 
#
# 1 0.010921 0.001877 -0.004331 0.001000 -0.001908 -0.003468
# 2 0.001877 0.020819 -0.006016 -0.001766 -0.007551 -0.003190
# 3 -0.004331 -0.006016 0.007893 -0.001031 0.001435 0.004041
# 4 0.001000 -0.001766 -0.001031 0.019300 0.002940 -0.004103
# 5 -0.001908 -0.007551 0.001435 0.002940 0.024287 0.003123
# 6 -0.003468 -0.003190 0.004041 -0.004103 0.003123 0.027819
#
#
# Mechanical properties :
#
#
# Convention : Reuss Voigt Hill
#
# Bulk Modulus (GPa) = 44.06744 78.31793 61.19269
# Shear Modulus (GPa) = 36.88799 46.64752 41.76775
#
# Velocity S-wave (km/s) = 3.83790 4.31584 4.08387
# Velocity P-wave (km/s) = 6.10209 7.49051 6.83167
#
# Compressibility (1/GPa) = 0.02269249
#
# Stress axis : x y z
#
# Youngs Moduli (GPa) = 91.56388 48.03240 126.69266
#
# Poissons Ratio (x) = -0.09014 0.54874
# Poissons Ratio (y) = -0.17183 0.76218
# Poissons Ratio (z) = 0.39659 0.28896
#
# Static dielectric constant tensor:
#      x y z
#    x 8.136480 -0.726680 -3.507310 
#    y -0.726680 4.679040 0.612520 
#    z -3.507310 0.612520 9.940910 
# 
# 
# High freq. dielectric constant tensor:
#      x y z
#    x 1.998420 -0.016010 0.014380 
#    y -0.016010 2.037740 0.014800 
#    z 0.014380 0.014800 2.035290 
# 
# From -- ./inp_files/378831.got.cif
#   From: 2010.06.25/outbox.cif.g09.slc.cpg/sg2_190_cif.got.tgz:378831.got - 2010.06.27 13:26:56.
