data_PCOD8007702
_publ_section_title
;
Structure prediction by ZEFSAII (Michael W. Deem and Ramdas Pophale) SiO2 
 PCOD8007702
Probable space group: P -1
;
_chemical_formula_sum "Si O2"
_cell_formula_units_Z 16
_cell_length_a 14.201904
_cell_length_b 14.745629
_cell_length_c 6.499238
_cell_angle_alpha 56.940963
_cell_angle_beta 119.707338
_cell_angle_gamma 142.834675
_cell_volume 684.121716
_symmetry_space_group_name_H-M "P -1"
_symmetry_group_IT_number 2
_symmetry_cell_setting 'triclinic'
loop_
_space_group_symop_operation_xyz
x,y,z
-x,-y,-z
loop_
_atom_site_type_symbol
_atom_site_label
_atom_site_fract_x
_atom_site_fract_y
_atom_site_fract_z
Si Si1 0.585243 0.191068 0.138048
Si Si2 0.991881 0.791022 0.591157
Si Si3 0.974843 0.909436 0.789322
Si Si4 0.269605 0.347210 0.833206
Si Si5 0.277000 0.855635 0.312334
Si Si6 0.210941 0.025801 0.226469
Si Si7 0.863971 0.320123 0.020761
Si Si8 0.512611 0.349113 0.063607
O O1 0.657849 0.196828 0.419948
O O2 0.696265 0.245873 0.999395
O O3 0.571380 0.312487 0.990085
O O4 0.415505 0.014395 0.134542
O O5 0.961502 0.784022 0.810623
O O6 0.832680 0.675860 0.430849
O O7 0.101564 0.966387 0.385834
O O8 0.091581 0.755067 0.712574
O O9 0.824221 0.798864 0.922097
O O10 0.000000 0.000000 0.500000
O O11 0.135187 0.036182 0.937974
O O12 0.340293 0.503446 0.829098
O O13 0.410299 0.379165 0.842041
O O14 0.196681 0.887902 0.329692
O O15 0.149057 0.713258 0.194720
O O16 0.390849 0.187384 0.265955
O O17 0.000000 0.500000 0.000000
#
# Coordination Sequence:
#
# PCOD8007702 Si02
#       8
#     2   2   2   2   2   2   2   2
#     4  10  23  42  68  90 126 167 209 260 314 371
#     4  11  23  41  64  93 130 164 210 259 314 374
#     4  11  22  39  66  94 123 165 214 255 314 371
#     4  10  24  44  63  93 130 165 208 265 315 371
#     4  10  21  43  63  94 124 165 211 255 312 375
#     4  10  20  41  67  90 124 164 210 260 307 374
#     4  12  26  39  64  99 130 164 208 259 320 377
#     4  10  22  43  67  90 125 167 212 258 317 371
#
# _framework density 23.387650000000001
#
# number of rings (size 3 to 8) (size 9 to 14) (size 15 to 20)
#    0.000    1.500    2.500    1.875    3.500    2.500 
#    0.000    8.125    0.000    0.000    0.000    0.000 
#    0.000    0.000    0.000    0.000    0.000    0.000 
#
# Total GULP energy -198281.805491 kJ/mol
# GULP energy per Si atom -12392.612843 kJ/mol
# Density = 2.333442 g / cm^3
# Si number density = 23.387650 Si / 1000 Ang^3
#
#
#
# Elastic Constant Matrix: (Units=GPa)
#
#
# Indices 1 2 3 4 5 6 
#
# 1 109.6877 1.7294 29.0367 7.8068 -2.3200 -7.8560
# 2 1.7294 115.4895 28.4878 19.0981 -8.4558 -9.9874
# 3 29.0367 28.4878 78.7813 9.3928 -3.5581 -2.4171
# 4 7.8068 19.0981 9.3928 22.5745 -1.9472 3.0130
# 5 -2.3200 -8.4558 -3.5581 -1.9472 30.5658 0.1988
# 6 -7.8560 -9.9874 -2.4171 3.0130 0.1988 30.3060
#
#
#
# Elastic Compliance Matrix: (Units=1/GPa)
#
#
# Indices 1 2 3 4 5 6 
#
# 1 0.010688 0.001824 -0.003992 -0.003989 0.000575 0.003446
# 2 0.001824 0.011667 -0.003500 -0.009508 0.002321 0.004969
# 3 -0.003992 -0.003500 0.015671 -0.002043 0.000427 -0.000738
# 4 -0.003989 -0.009508 -0.002043 0.055931 0.000457 -0.009894
# 5 0.000575 0.002321 0.000427 0.000457 0.033476 0.000683
# 6 0.003446 0.004969 -0.000738 -0.009894 0.000683 0.036448
#
#
# Mechanical properties :
#
#
# Convention : Reuss Voigt Hill
#
# Bulk Modulus (GPa) = 37.46780 46.94070 42.20425
# Shear Modulus (GPa) = 27.15748 33.00290 30.08019
#
# Velocity S-wave (km/s) = 3.41132 3.76057 3.59019
# Velocity P-wave (km/s) = 5.61883 6.24261 5.93891
#
# Compressibility (1/GPa) = 0.02668958
#
# Stress axis : x y z
#
# Youngs Moduli (GPa) = 93.56675 85.71394 63.81400
#
# Poissons Ratio (x) = -0.15637 0.25472
# Poissons Ratio (y) = -0.17069 0.22337
# Poissons Ratio (z) = 0.37348 0.30003
#
# Static dielectric constant tensor:
#      x y z
#    x 5.690890 -0.251520 0.232190 
#    y -0.251520 4.375110 0.140610 
#    z 0.232190 0.140610 3.932160 
# 
# 
# High freq. dielectric constant tensor:
#      x y z
#    x 1.956940 -0.017560 0.010250 
#    y -0.017560 1.927360 0.003950 
#    z 0.010250 0.003950 1.894810 
# 
# From -- ./inp_files/97621.got.cif
#   From: 2010.06.25/outbox.cif.g09.slc.cpg/sg2_49_cif.got.tgz:97621.got - 2010.06.27 13:26:56.
