data_PCOD8007729
_publ_section_title
;
Structure prediction by ZEFSAII (Michael W. Deem and Ramdas Pophale) SiO2 
 PCOD8007729
Probable space group: P -1
;
_chemical_formula_sum "Si O2"
_cell_formula_units_Z 14
_cell_length_a 9.577231
_cell_length_b 8.632502
_cell_length_c 12.134633
_cell_angle_alpha 118.827123
_cell_angle_beta 120.218124
_cell_angle_gamma 46.630113
_cell_volume 615.118570
_symmetry_space_group_name_H-M "P -1"
_symmetry_group_IT_number 2
_symmetry_cell_setting 'triclinic'
loop_
_space_group_symop_operation_xyz
x,y,z
-x,-y,-z
loop_
_atom_site_type_symbol
_atom_site_label
_atom_site_fract_x
_atom_site_fract_y
_atom_site_fract_z
Si Si1 0.931742 0.883074 0.779432
Si Si2 0.420441 0.532224 0.302975
Si Si3 0.332896 0.982679 0.476386
Si Si4 0.706727 0.927524 0.923267
Si Si5 0.999686 0.781143 0.156811
Si Si6 0.631128 0.365845 0.107625
Si Si7 0.339209 0.943613 0.711556
O O1 0.782856 0.910696 0.824026
O O2 0.154603 0.672210 0.822337
O O3 0.860978 0.859618 0.623048
O O4 0.928730 0.097637 0.847640
O O5 0.397402 0.736270 0.420737
O O6 0.514766 0.510603 0.215381
O O7 0.570622 0.311583 0.356078
O O8 0.204879 0.569272 0.215843
O O9 0.289562 0.061030 0.613177
O O10 0.500000 0.000000 0.500000
O O11 0.504904 0.946613 0.846000
O O12 0.878991 0.731268 0.005056
O O13 0.659194 0.137549 0.043352
O O14 0.864449 0.929310 0.257132
O O15 0.500000 0.500000 0.000000
#
# Coordination Sequence:
#
# PCOD8007729 Si02
#       7
#     2   2   2   2   2   2   2
#     4  10  20  41  67  95 129 180 216 268 331 383
#     4  11  24  43  67  98 130 176 223 268 334 388
#     4  11  24  46  68  92 134 178 225 271 322 394
#     4  11  21  40  67  98 138 167 215 278 333 388
#     4  10  22  41  67  97 130 173 217 271 336 387
#     4  11  21  39  69 100 133 171 222 272 328 400
#     4  12  24  44  67  97 138 174 215 277 328 391
#
# _framework density 22.759837999999998
#
# number of rings (size 3 to 8) (size 9 to 14) (size 15 to 20)
#    0.000    1.143    4.286    5.143    0.000    2.857 
#    5.143    0.714    0.000    0.000    0.000    0.000 
#    0.000    0.000    0.000    0.000    0.000    0.000 
#
# Total GULP energy -173543.780050 kJ/mol
# GULP energy per Si atom -12395.984289 kJ/mol
# Density = 2.270804 g / cm^3
# Si number density = 22.759838 Si / 1000 Ang^3
#
#
#
# Elastic Constant Matrix: (Units=GPa)
#
#
# Indices 1 2 3 4 5 6 
#
# 1 79.1785 17.0786 0.6257 -2.0188 -5.0597 -12.8934
# 2 17.0786 50.1433 7.9881 -24.5110 -7.4930 -22.1659
# 3 0.6257 7.9881 80.3061 -21.7469 -0.8418 -0.6488
# 4 -2.0188 -24.5110 -21.7469 35.4922 2.2824 -0.0626
# 5 -5.0597 -7.4930 -0.8418 2.2824 43.3855 -5.1518
# 6 -12.8934 -22.1659 -0.6488 -0.0626 -5.1518 32.1100
#
#
#
# Elastic Compliance Matrix: (Units=1/GPa)
#
#
# Indices 1 2 3 4 5 6 
#
# 1 0.014091 -0.004827 -0.000363 -0.002830 0.001250 0.002513
# 2 -0.004827 0.068687 0.007538 0.050933 0.014472 0.048050
# 3 -0.000363 0.007538 0.015763 0.014760 0.001459 0.005639
# 4 -0.002830 0.050933 0.014760 0.071701 0.009249 0.035945
# 5 0.001250 0.014472 0.001459 0.009249 0.027002 0.014872
# 6 0.002513 0.048050 0.005639 0.035945 0.014872 0.067892
#
#
# Mechanical properties :
#
#
# Convention : Reuss Voigt Hill
#
# Bulk Modulus (GPa) = 9.68648 29.00143 19.34395
# Shear Modulus (GPa) = 16.95768 34.45992 25.70880
#
# Velocity S-wave (km/s) = 2.73256 3.89532 3.36455
# Velocity P-wave (km/s) = 3.77108 5.74469 4.85914
#
# Compressibility (1/GPa) = 0.10323672
#
# Stress axis : x y z
#
# Youngs Moduli (GPa) = 70.96853 14.55888 63.43915
#
# Poissons Ratio (x) = 0.07028 0.02301
# Poissons Ratio (y) = 0.34258 -0.47820
# Poissons Ratio (z) = 0.02574 -0.10974
#
# Static dielectric constant tensor:
#      x y z
#    x 4.025100 0.106810 0.146770 
#    y 0.106810 3.535130 -0.550230 
#    z 0.146770 -0.550230 4.232530 
# 
# 
# High freq. dielectric constant tensor:
#      x y z
#    x 1.903880 -0.011800 -0.004520 
#    y -0.011800 1.880950 -0.027910 
#    z -0.004520 -0.027910 1.902280 
# 
# From -- ./inp_files/176960.got.cif
#   From: 2010.06.25/outbox.cif.g09.slc.cpg/sg2_89_cif.got.tgz:176960.got - 2010.06.27 13:26:56.
