data_PCOD8007004
_publ_section_title
;
Structure prediction by ZEFSAII (Michael W. Deem and Ramdas Pophale) SiO2 
 PCOD8007004
Probable space group: P -1
;
_chemical_formula_sum "Si O2"
_cell_formula_units_Z 16
_cell_length_a 12.145923
_cell_length_b 8.607367
_cell_length_c 12.502786
_cell_angle_alpha 61.066656
_cell_angle_beta 90.126540
_cell_angle_gamma 47.884262
_cell_volume 733.329342
_symmetry_space_group_name_H-M "P -1"
_symmetry_group_IT_number 2
_symmetry_cell_setting 'triclinic'
loop_
_space_group_symop_operation_xyz
x,y,z
-x,-y,-z
loop_
_atom_site_type_symbol
_atom_site_label
_atom_site_fract_x
_atom_site_fract_y
_atom_site_fract_z
Si Si1 0.585088 0.184282 0.440559
Si Si2 0.583235 0.858966 0.398332
Si Si3 0.213214 0.586214 0.868453
Si Si4 0.543315 0.307761 0.837225
Si Si5 0.695876 0.201773 0.081105
Si Si6 0.073142 0.240247 0.298197
Si Si7 0.870105 0.648162 0.353223
Si Si8 0.279550 0.180158 0.150559
O O1 0.438648 0.300387 0.485538
O O2 0.514194 0.427094 0.287022
O O3 0.636995 0.950633 0.447581
O O4 0.753469 0.044454 0.550617
O O5 0.735742 0.655981 0.378811
O O6 0.403322 0.129774 0.250661
O O7 0.382510 0.405913 0.857599
O O8 0.188447 0.770513 0.896323
O O9 0.042257 0.786852 0.727692
O O10 0.223018 0.382240 0.990878
O O11 0.612051 0.115987 0.800279
O O12 0.702092 0.135808 0.978727
O O13 0.758224 0.966317 0.236112
O O14 0.500000 0.500000 0.000000
O O15 0.116496 0.306755 0.172469
O O16 0.964521 0.495712 0.293627
O O17 0.000000 0.500000 0.500000
#
# Coordination Sequence:
#
# PCOD8007004 Si02
#       8
#     2   2   2   2   2   2   2   2
#     4  10  22  41  63  97 129 176 213 273 317 396
#     4  10  20  40  66  91 127 174 221 259 326 388
#     4  11  22  41  67  95 129 169 215 273 333 374
#     4  11  22  42  69  93 129 169 234 258 318 394
#     4  10  23  42  69  98 126 169 222 268 314 392
#     4  11  25  41  62  94 141 168 214 272 338 377
#     4  12  23  43  69 100 130 170 219 272 328 385
#     4  11  23  42  65  95 129 179 216 270 318 398
#
# _framework density 21.818301000000002
#
# number of rings (size 3 to 8) (size 9 to 14) (size 15 to 20)
#    0.000    1.250    1.250    6.000    0.000    2.500 
#    4.500    1.250    0.000    0.000    0.000    0.000 
#    0.000    0.000    0.000    0.000    0.000    0.000 
#
# Total GULP energy -198386.785913 kJ/mol
# GULP energy per Si atom -12399.174120 kJ/mol
# Density = 2.176864 g / cm^3
# Si number density = 21.818301 Si / 1000 Ang^3
#
#
#
# Elastic Constant Matrix: (Units=GPa)
#
#
# Indices 1 2 3 4 5 6 
#
# 1 137.7791 57.9684 58.0275 11.5515 18.4306 -9.1927
# 2 57.9684 87.4088 34.9942 17.9646 -8.2905 -19.3480
# 3 58.0275 34.9942 131.1342 -0.4781 3.0613 -0.1512
# 4 11.5515 17.9646 -0.4781 29.2316 0.7467 -2.2310
# 5 18.4306 -8.2905 3.0613 0.7467 41.0137 13.9590
# 6 -9.1927 -19.3480 -0.1512 -2.2310 13.9590 32.8044
#
#
#
# Elastic Compliance Matrix: (Units=1/GPa)
#
#
# Indices 1 2 3 4 5 6 
#
# 1 0.013202 -0.007369 -0.003685 -0.000332 -0.008078 0.002751
# 2 -0.007369 0.021681 -0.002680 -0.010007 0.005453 0.007709
# 3 -0.003685 -0.002680 0.009949 0.003009 0.001311 -0.002920
# 4 -0.000332 -0.010007 0.003009 0.040411 -0.002027 -0.002370
# 5 -0.008078 0.005453 0.001311 -0.002027 0.033647 -0.013497
# 6 0.002751 0.007709 -0.002920 -0.002370 -0.013497 0.041370
#
#
# Mechanical properties :
#
#
# Convention : Reuss Voigt Hill
#
# Bulk Modulus (GPa) = 57.59133 73.14470 65.36802
# Shear Modulus (GPa) = 25.83777 34.29875 30.06826
#
# Velocity S-wave (km/s) = 3.44499 3.96917 3.71633
# Velocity P-wave (km/s) = 6.50209 7.38938 6.95989
#
# Compressibility (1/GPa) = 0.01736372
#
# Stress axis : x y z
#
# Youngs Moduli (GPa) = 75.74331 46.12406 100.51762
#
# Poissons Ratio (x) = 0.33990 0.37042
# Poissons Ratio (y) = 0.55818 0.26934
# Poissons Ratio (z) = 0.27912 0.12359
#
# Static dielectric constant tensor:
#      x y z
#    x 4.199540 -0.032390 0.232640 
#    y -0.032390 3.860320 0.408530 
#    z 0.232640 0.408530 4.116610 
# 
# 
# High freq. dielectric constant tensor:
#      x y z
#    x 1.863860 -0.003720 0.011290 
#    y -0.003720 1.838210 0.022170 
#    z 0.011290 0.022170 1.870430 
# 
# From -- ./inp_files/315516.got.cif
#   From: 2010.06.25/outbox.cif.g09.slc.cpg/sg2_158_cif.got.tgz:315516.got - 2010.06.27 13:26:56.
