data_PCOD8007513
_publ_section_title
;
Structure prediction by ZEFSAII (Michael W. Deem and Ramdas Pophale) SiO2 
 PCOD8007513
Probable space group: P -1
;
_chemical_formula_sum "Si O2"
_cell_formula_units_Z 16
_cell_length_a 8.613114
_cell_length_b 14.600400
_cell_length_c 12.405952
_cell_angle_alpha 35.856406
_cell_angle_beta 53.434456
_cell_angle_gamma 68.126480
_cell_volume 713.526322
_symmetry_space_group_name_H-M "P -1"
_symmetry_group_IT_number 2
_symmetry_cell_setting 'triclinic'
loop_
_space_group_symop_operation_xyz
x,y,z
-x,-y,-z
loop_
_atom_site_type_symbol
_atom_site_label
_atom_site_fract_x
_atom_site_fract_y
_atom_site_fract_z
Si Si1 0.969757 0.239041 0.970893
Si Si2 0.590420 0.187970 0.300476
Si Si3 0.122479 0.869548 0.104548
Si Si4 0.430244 0.123702 0.099083
Si Si5 0.920014 0.079653 0.690401
Si Si6 0.269594 0.261059 0.239030
Si Si7 0.235640 0.567052 0.842848
Si Si8 0.634627 0.569874 0.279328
O O1 0.757336 0.261766 0.073826
O O2 0.974041 0.267720 0.811830
O O3 0.980459 0.063094 0.177419
O O4 0.142679 0.368015 0.830432
O O5 0.408840 0.270753 0.276524
O O6 0.689403 0.250078 0.316706
O O7 0.500000 0.000000 0.500000
O O8 0.097723 0.819235 0.288794
O O9 0.359286 0.925636 0.926774
O O10 0.000000 0.000000 0.000000
O O11 0.324440 0.138614 0.243562
O O12 0.294989 0.987603 0.209586
O O13 0.459741 0.294549 0.864072
O O14 0.045336 0.191686 0.439781
O O15 0.307201 0.440735 0.009886
O O16 0.345242 0.568646 0.681252
O O17 0.000000 0.500000 0.000000
O O18 0.500000 0.500000 0.500000
#
# Coordination Sequence:
#
# PCOD8007513 Si02
#       8
#     2   2   2   2   2   2   2   2
#     4  10  20  41  64  93 135 172 221 279 329 396
#     4  12  23  42  71  99 137 178 221 276 342 396
#     4  10  21  38  60  92 133 174 217 276 329 389
#     4  10  21  39  63  91 135 176 220 278 333 397
#     4  10  21  37  62 100 132 171 226 272 330 403
#     4  11  23  40  67  98 132 174 221 276 342 396
#     4  11  25  45  67  99 136 175 226 281 332 402
#     4  10  23  44  67  91 130 182 224 276 337 398
#
# _framework density 22.423839999999998
#
# number of rings (size 3 to 8) (size 9 to 14) (size 15 to 20)
#    0.000    1.500    3.750    1.125    0.000    3.000 
#    4.500    0.625    0.000    0.000    0.000    0.000 
#    0.000    0.000    0.000    0.000    0.000    0.000 
#
# Total GULP energy -198251.747826 kJ/mol
# GULP energy per Si atom -12390.734239 kJ/mol
# Density = 2.237280 g / cm^3
# Si number density = 22.423840 Si / 1000 Ang^3
#
#
#
# Elastic Constant Matrix: (Units=GPa)
#
#
# Indices 1 2 3 4 5 6 
#
# 1 111.6811 43.6276 16.9368 -3.0964 -13.9969 5.0498
# 2 43.6276 148.1393 56.1284 17.0247 -10.3448 28.3542
# 3 16.9368 56.1284 94.7061 20.5297 -12.4431 11.0076
# 4 -3.0964 17.0247 20.5297 39.1416 5.9708 -3.8220
# 5 -13.9969 -10.3448 -12.4431 5.9708 20.7636 7.3430
# 6 5.0498 28.3542 11.0076 -3.8220 7.3430 43.0755
#
#
#
# Elastic Compliance Matrix: (Units=1/GPa)
#
#
# Indices 1 2 3 4 5 6 
#
# 1 0.010842 -0.002998 0.000434 0.001002 0.005902 -0.000326
# 2 -0.002998 0.011398 -0.003498 -0.004980 0.005706 -0.007672
# 3 0.000434 -0.003498 0.017131 -0.010022 0.013583 -0.005331
# 4 0.001002 -0.004980 -0.010022 0.037883 -0.023323 0.013059
# 5 0.005902 0.005706 0.013583 -0.023323 0.078069 -0.023297
# 6 -0.000326 -0.007672 -0.005331 0.013059 -0.023297 0.034795
#
#
# Mechanical properties :
#
#
# Convention : Reuss Voigt Hill
#
# Bulk Modulus (GPa) = 36.70164 65.32358 51.01261
# Shear Modulus (GPa) = 23.66034 36.45171 30.05603
#
# Velocity S-wave (km/s) = 3.25182 4.03622 3.66507
# Velocity P-wave (km/s) = 5.52285 7.13554 6.38036
#
# Compressibility (1/GPa) = 0.02724674
#
# Stress axis : x y z
#
# Youngs Moduli (GPa) = 92.23742 87.73577 58.37273
#
# Poissons Ratio (x) = 0.26303 -0.02534
# Poissons Ratio (y) = 0.27653 0.20419
# Poissons Ratio (z) = -0.04003 0.30690
#
# Static dielectric constant tensor:
#      x y z
#    x 4.065430 0.023020 0.339580 
#    y 0.023020 4.336330 0.312210 
#    z 0.339580 0.312210 3.499070 
# 
# 
# High freq. dielectric constant tensor:
#      x y z
#    x 1.903330 0.009860 -0.005680 
#    y 0.009860 1.890590 0.020170 
#    z -0.005680 0.020170 1.848920 
# 
# From -- ./inp_files/396925.got.cif
#   From: 2010.06.25/outbox.cif.g09.slc.cpg/sg2_199_cif.got.tgz:396925.got - 2010.06.27 13:26:56.
