data_PCOD8007689
_publ_section_title
;
Structure prediction by ZEFSAII (Michael W. Deem and Ramdas Pophale) SiO2 
 PCOD8007689
Probable space group: P -1
;
_chemical_formula_sum "Si O2"
_cell_formula_units_Z 16
_cell_length_a 9.571744
_cell_length_b 12.063998
_cell_length_c 9.702723
_cell_angle_alpha 84.237993
_cell_angle_beta 45.706081
_cell_angle_gamma 68.790030
_cell_volume 727.905673
_symmetry_space_group_name_H-M "P -1"
_symmetry_group_IT_number 2
_symmetry_cell_setting 'triclinic'
loop_
_space_group_symop_operation_xyz
x,y,z
-x,-y,-z
loop_
_atom_site_type_symbol
_atom_site_label
_atom_site_fract_x
_atom_site_fract_y
_atom_site_fract_z
Si Si1 0.680798 0.270422 0.718793
Si Si2 0.519371 0.870088 0.748388
Si Si3 0.229805 0.226514 0.669923
Si Si4 0.910452 0.743207 0.685283
Si Si5 0.232803 0.738044 0.027739
Si Si6 0.378031 0.147744 0.879099
Si Si7 0.078680 0.503264 0.739685
Si Si8 0.316397 0.500821 0.835802
O O1 0.690616 0.307756 0.865280
O O2 0.575266 0.172902 0.799725
O O3 0.547349 0.391814 0.708801
O O4 0.918182 0.207972 0.497413
O O5 0.585099 0.865728 0.543430
O O6 0.717344 0.773797 0.708410
O O7 0.456601 0.003763 0.833793
O O8 0.316814 0.836864 0.904949
O O9 0.311505 0.215298 0.770750
O O10 0.167332 0.364524 0.642482
O O11 0.024188 0.194475 0.808941
O O12 0.029716 0.595783 0.633722
O O13 0.825950 0.801896 0.885442
O O14 0.321251 0.623040 0.879216
O O15 0.253699 0.521609 0.715454
O O16 0.853633 0.539803 0.967808
#
# Coordination Sequence:
#
# PCOD8007689 Si02
#       8
#     2   2   2   2   2   2   2   2
#     4  12  24  42  71 104 138 187 227 284 345 410
#     4  12  27  46  71 101 140 189 231 281 344 412
#     4  11  25  47  71 105 138 180 228 291 349 405
#     4  12  25  42  70 106 135 184 232 280 346 405
#     4  11  24  42  69 102 145 176 229 286 346 408
#     4  12  26  49  71  98 145 183 235 283 337 415
#     4  10  20  42  72  98 144 173 225 287 350 413
#     4  10  20  41  67 102 139 181 219 287 351 405
#
# _framework density 21.980868999999998
#
# number of rings (size 3 to 8) (size 9 to 14) (size 15 to 20)
#    0.000    0.750    5.000    2.625    1.750    6.000 
#    0.000    0.000    0.000    0.000    0.000    0.000 
#    0.000    0.000    0.000    0.000    0.000    0.000 
#
# Total GULP energy -198507.656428 kJ/mol
# GULP energy per Si atom -12406.728527 kJ/mol
# Density = 2.193084 g / cm^3
# Si number density = 21.980869 Si / 1000 Ang^3
#
#
#
# Elastic Constant Matrix: (Units=GPa)
#
#
# Indices 1 2 3 4 5 6 
#
# 1 98.1568 27.3806 22.6625 -4.6918 -4.4279 11.7453
# 2 27.3806 101.1604 27.1794 -5.6669 -9.9836 18.6531
# 3 22.6625 27.1794 99.4512 -0.2376 -12.2234 15.0973
# 4 -4.6918 -5.6669 -0.2376 20.2974 5.1490 2.0437
# 5 -4.4279 -9.9836 -12.2234 5.1490 34.1489 -5.6499
# 6 11.7453 18.6531 15.0973 2.0437 -5.6499 32.3058
#
#
#
# Elastic Compliance Matrix: (Units=1/GPa)
#
#
# Indices 1 2 3 4 5 6 
#
# 1 0.011566 -0.002133 -0.001745 0.002429 -0.000512 -0.002401
# 2 -0.002133 0.012265 -0.001882 0.003131 0.001269 -0.005403
# 3 -0.001745 -0.001882 0.011831 -0.001262 0.003122 -0.003182
# 4 0.002429 0.003131 -0.001262 0.053532 -0.008445 -0.006965
# 5 -0.000512 0.001269 0.003122 -0.008445 0.032681 0.004244
# 6 -0.002401 -0.005403 -0.003182 -0.006965 0.004244 0.037616
#
#
# Mechanical properties :
#
#
# Convention : Reuss Voigt Hill
#
# Bulk Modulus (GPa) = 41.42381 50.35705 45.89043
# Shear Modulus (GPa) = 27.92346 32.12014 30.02180
#
# Velocity S-wave (km/s) = 3.56807 3.82681 3.69970
# Velocity P-wave (km/s) = 5.98842 6.51807 6.25885
#
# Compressibility (1/GPa) = 0.02414070
#
# Stress axis : x y z
#
# Youngs Moduli (GPa) = 86.45926 81.53048 84.52353
#
# Poissons Ratio (x) = 0.17394 0.14752
# Poissons Ratio (y) = 0.18445 0.15909
# Poissons Ratio (z) = 0.15090 0.15346
#
# Static dielectric constant tensor:
#      x y z
#    x 4.111400 0.034180 -0.061480 
#    y 0.034180 3.746910 -0.002500 
#    z -0.061480 -0.002500 3.976470 
# 
# 
# High freq. dielectric constant tensor:
#      x y z
#    x 1.874330 0.003050 -0.000810 
#    y 0.003050 1.854120 -0.001510 
#    z -0.000810 -0.001510 1.866770 
# 
# From -- ./inp_files/187224.got.cif
#   From: 2010.06.25/outbox.cif.g09.slc.cpg/sg2_94_cif.got.tgz:187224.got - 2010.06.27 13:26:56.
