data_PCOD8007223
_publ_section_title
;
Structure prediction by ZEFSAII (Michael W. Deem and Ramdas Pophale) SiO2 
 PCOD8007223
Probable space group: P -1
;
_chemical_formula_sum "Si O2"
_cell_formula_units_Z 16
_cell_length_a 13.270374
_cell_length_b 12.875252
_cell_length_c 9.835518
_cell_angle_alpha 143.956132
_cell_angle_beta 72.590559
_cell_angle_gamma 125.599691
_cell_volume 750.584074
_symmetry_space_group_name_H-M "P -1"
_symmetry_group_IT_number 2
_symmetry_cell_setting 'triclinic'
loop_
_space_group_symop_operation_xyz
x,y,z
-x,-y,-z
loop_
_atom_site_type_symbol
_atom_site_label
_atom_site_fract_x
_atom_site_fract_y
_atom_site_fract_z
Si Si1 0.132523 0.676268 0.948999
Si Si2 0.385257 0.746828 0.819512
Si Si3 0.862206 0.046999 0.989161
Si Si4 0.872294 0.212066 0.638176
Si Si5 0.316676 0.495732 0.308200
Si Si6 0.920126 0.979793 0.173678
Si Si7 0.368783 0.875518 0.507999
Si Si8 0.588510 0.763265 0.919557
O O1 0.274759 0.726826 0.935598
O O2 0.100353 0.746700 0.897783
O O3 0.016847 0.419752 0.749757
O O4 0.137800 0.812756 0.221258
O O5 0.314213 0.594259 0.556259
O O6 0.449712 0.655476 0.786330
O O7 0.500000 0.000000 0.000000
O O8 0.915421 0.119342 0.200254
O O9 0.930624 0.942232 0.783984
O O10 0.703270 0.862769 0.863090
O O11 0.758491 0.226944 0.645218
O O12 0.859864 0.003190 0.359670
O O13 0.361596 0.676095 0.366423
O O14 0.417051 0.428262 0.199478
O O15 0.168981 0.278246 0.106548
O O16 0.500000 0.000000 0.500000
O O17 0.375370 0.038246 0.786835
#
# Coordination Sequence:
#
# PCOD8007223 Si02
#       8
#     2   2   2   2   2   2   2   2
#     4  11  25  42  70  96 138 192 220 278 355 398
#     4  12  23  42  69 102 136 179 228 288 341 404
#     4  10  20  40  68  99 130 175 226 281 340 396
#     4  11  25  45  64 101 142 179 232 276 340 423
#     4  11  24  42  71  99 133 177 227 286 344 395
#     4  10  23  42  69 101 135 171 232 287 334 410
#     4  12  24  43  71  94 141 182 227 279 341 417
#     4  11  23  44  64 105 132 174 233 281 342 402
#
# _framework density 21.316734
#
# number of rings (size 3 to 8) (size 9 to 14) (size 15 to 20)
#    0.000    1.000    5.000    1.875    5.250    1.500 
#    0.000    0.000    0.000    0.000    0.000    0.000 
#    0.000    0.000    0.000    0.000    0.000    0.000 
#
# Total GULP energy -198382.613160 kJ/mol
# GULP energy per Si atom -12398.913322 kJ/mol
# Density = 2.126822 g / cm^3
# Si number density = 21.316734 Si / 1000 Ang^3
#
#
#
# Elastic Constant Matrix: (Units=GPa)
#
#
# Indices 1 2 3 4 5 6 
#
# 1 133.4468 56.1137 29.7850 -6.3195 -12.5296 20.5208
# 2 56.1137 115.8863 47.7583 0.5820 -8.9129 9.7356
# 3 29.7850 47.7583 114.3698 -4.3822 -4.2995 6.3037
# 4 -6.3195 0.5820 -4.3822 20.3492 -2.0768 -5.3185
# 5 -12.5296 -8.9129 -4.2995 -2.0768 31.8996 2.3405
# 6 20.5208 9.7356 6.3037 -5.3185 2.3405 39.8424
#
#
#
# Elastic Compliance Matrix: (Units=1/GPa)
#
#
# Indices 1 2 3 4 5 6 
#
# 1 0.010467 -0.004277 -0.000491 0.002527 0.003317 -0.004126
# 2 -0.004277 0.012568 -0.004157 -0.002630 0.001146 -0.000629
# 3 -0.000491 -0.004157 0.010711 0.002262 0.000247 -0.000138
# 4 0.002527 -0.002630 0.002262 0.052358 0.003549 0.005764
# 5 0.003317 0.001146 0.000247 0.003549 0.033494 -0.003522
# 6 -0.004126 -0.000629 -0.000138 0.005764 -0.003522 0.028376
#
#
# Mechanical properties :
#
#
# Convention : Reuss Voigt Hill
#
# Bulk Modulus (GPa) = 62.91090 70.11298 66.51194
# Shear Modulus (GPa) = 29.21888 33.75463 31.48675
#
# Velocity S-wave (km/s) = 3.70631 3.98361 3.84746
# Velocity P-wave (km/s) = 6.92042 7.35672 7.14190
#
# Compressibility (1/GPa) = 0.01589550
#
# Stress axis : x y z
#
# Youngs Moduli (GPa) = 95.53557 79.57030 93.36250
#
# Poissons Ratio (x) = 0.34032 0.04584
# Poissons Ratio (y) = 0.40860 0.38812
# Poissons Ratio (z) = 0.04691 0.33078
#
# Static dielectric constant tensor:
#      x y z
#    x 4.236390 -0.065010 -0.076720 
#    y -0.065010 3.903930 -0.118880 
#    z -0.076720 -0.118880 3.844700 
# 
# 
# High freq. dielectric constant tensor:
#      x y z
#    x 1.855650 0.005090 -0.003140 
#    y 0.005090 1.824770 -0.007750 
#    z -0.003140 -0.007750 1.826350 
# 
# From -- ./inp_files/308761.got.cif
#   From: 2010.06.25/outbox.cif.g09.slc.cpg/sg2_155_cif.got.tgz:308761.got - 2010.06.27 13:26:56.
