data_PCOD8007731
_publ_section_title
;
Structure prediction by ZEFSAII (Michael W. Deem and Ramdas Pophale) SiO2 
 PCOD8007731
Probable space group: P -1
;
_chemical_formula_sum "Si O2"
_cell_formula_units_Z 16
_cell_length_a 15.480105
_cell_length_b 9.708602
_cell_length_c 11.915669
_cell_angle_alpha 112.189812
_cell_angle_beta 29.084915
_cell_angle_gamma 100.280354
_cell_volume 758.961471
_symmetry_space_group_name_H-M "P -1"
_symmetry_group_IT_number 2
_symmetry_cell_setting 'triclinic'
loop_
_space_group_symop_operation_xyz
x,y,z
-x,-y,-z
loop_
_atom_site_type_symbol
_atom_site_label
_atom_site_fract_x
_atom_site_fract_y
_atom_site_fract_z
Si Si1 0.482023 0.200412 0.272111
Si Si2 0.822356 0.945001 0.399460
Si Si3 0.276346 0.452739 0.749859
Si Si4 0.958532 0.321215 0.091358
Si Si5 0.596183 0.460152 0.135263
Si Si6 0.900548 0.370834 0.584476
Si Si7 0.908542 0.984844 0.716641
Si Si8 0.719639 0.294995 0.557389
O O1 0.327223 0.121075 0.388033
O O2 0.419864 0.287134 0.489304
O O3 0.488283 0.331308 0.213012
O O4 0.685769 0.067794 0.004714
O O5 0.711970 0.124118 0.544463
O O6 0.995044 0.929736 0.280215
O O7 0.909930 0.842790 0.160054
O O8 0.219956 0.585571 0.756238
O O9 0.378572 0.508263 0.752357
O O10 0.082638 0.433573 0.008034
O O11 0.890659 0.279240 0.274151
O O12 0.479201 0.615111 0.247686
O O13 0.799647 0.388704 0.825002
O O14 0.747454 0.389117 0.664992
O O15 0.000000 0.500000 0.500000
O O16 0.054701 0.196627 0.348395
O O17 0.000000 0.000000 0.500000
#
# Coordination Sequence:
#
# PCOD8007731 Si02
#       8
#     2   2   2   2   2   2   2   2
#     4  11  23  43  67  99 127 167 220 270 320 382
#     4  10  25  42  64  96 137 168 213 270 328 386
#     4  10  22  39  69 102 123 169 220 272 318 380
#     4  10  20  41  67  95 132 169 217 266 327 380
#     4  12  23  41  68  96 131 169 221 264 324 384
#     4  11  26  45  65  93 132 174 216 265 325 392
#     4  11  24  44  66  95 126 173 219 265 321 384
#     4  11  24  42  63  96 133 173 209 267 330 388
#
# _framework density 21.081440000000001
#
# number of rings (size 3 to 8) (size 9 to 14) (size 15 to 20)
#    0.000    1.250    2.500    2.625    3.500    1.500 
#    0.000    1.250    0.000    0.000    0.000    0.000 
#    0.000    0.000    0.000    0.000    0.000    0.000 
#
# Total GULP energy -198446.492800 kJ/mol
# GULP energy per Si atom -12402.905800 kJ/mol
# Density = 2.103346 g / cm^3
# Si number density = 21.081440 Si / 1000 Ang^3
#
#
#
# Elastic Constant Matrix: (Units=GPa)
#
#
# Indices 1 2 3 4 5 6 
#
# 1 55.8899 20.1952 2.2242 12.0429 -0.2442 1.8385
# 2 20.1952 111.0377 17.9033 -7.1589 0.5420 16.6153
# 3 2.2242 17.9033 98.3736 2.9272 -0.5873 7.9844
# 4 12.0429 -7.1589 2.9272 35.8848 -8.5330 -2.9953
# 5 -0.2442 0.5420 -0.5873 -8.5330 32.1061 -2.9079
# 6 1.8385 16.6153 7.9844 -2.9953 -2.9079 27.8465
#
#
#
# Elastic Compliance Matrix: (Units=1/GPa)
#
#
# Indices 1 2 3 4 5 6 
#
# 1 0.021346 -0.004518 0.000585 -0.008599 -0.002038 -0.000019
# 2 -0.004518 0.011126 -0.001578 0.003445 0.000166 -0.005500
# 3 0.000585 -0.001578 0.010681 -0.001686 -0.000438 -0.002387
# 4 -0.008599 0.003445 -0.001686 0.034075 0.009230 0.003625
# 5 -0.002038 0.000166 -0.000438 0.009230 0.034000 0.004704
# 6 -0.000019 -0.005500 -0.002387 0.003625 0.004704 0.040760
#
#
# Mechanical properties :
#
#
# Convention : Reuss Voigt Hill
#
# Bulk Modulus (GPa) = 31.12293 38.43852 34.78073
# Shear Modulus (GPa) = 28.78187 34.16604 31.47396
#
# Velocity S-wave (km/s) = 3.69897 4.03012 3.86809
# Velocity P-wave (km/s) = 5.74790 6.31892 6.04016
#
# Compressibility (1/GPa) = 0.03213065
#
# Stress axis : x y z
#
# Youngs Moduli (GPa) = 46.84653 89.87566 93.62846
#
# Poissons Ratio (x) = 0.40609 -0.05476
# Poissons Ratio (y) = 0.21167 0.14773
# Poissons Ratio (z) = -0.02740 0.14181
#
# Static dielectric constant tensor:
#      x y z
#    x 3.721310 0.086220 0.008460 
#    y 0.086220 3.920670 -0.024730 
#    z 0.008460 -0.024730 3.938510 
# 
# 
# High freq. dielectric constant tensor:
#      x y z
#    x 1.812530 0.004050 0.002320 
#    y 0.004050 1.834370 -0.000350 
#    z 0.002320 -0.000350 1.841130 
# 
# From -- ./inp_files/399952.got.cif
#   From: 2010.06.25/outbox.cif.g09.slc.cpg/sg2_200_cif.got.tgz:399952.got - 2010.06.27 13:26:56.
