data_PCOD8007786
_publ_section_title
;
Structure prediction by ZEFSAII (Michael W. Deem and Ramdas Pophale) SiO2 
 PCOD8007786
Probable space group: P -1
;
_chemical_formula_sum "Si O2"
_cell_formula_units_Z 16
_cell_length_a 9.851770
_cell_length_b 22.182762
_cell_length_c 18.765947
_cell_angle_alpha 19.259904
_cell_angle_beta 34.775971
_cell_angle_gamma 34.468768
_cell_volume 744.926557
_symmetry_space_group_name_H-M "P -1"
_symmetry_group_IT_number 2
_symmetry_cell_setting 'triclinic'
loop_
_space_group_symop_operation_xyz
x,y,z
-x,-y,-z
loop_
_atom_site_type_symbol
_atom_site_label
_atom_site_fract_x
_atom_site_fract_y
_atom_site_fract_z
Si Si1 0.389475 0.720067 0.791722
Si Si2 0.447697 0.755181 0.465899
Si Si3 0.089701 0.109044 0.276458
Si Si4 0.738695 0.686156 0.560026
Si Si5 0.163302 0.830474 0.164304
Si Si6 0.757871 0.253047 0.023745
Si Si7 0.451829 0.342457 0.918622
Si Si8 0.306340 0.074898 0.939009
O O1 0.587069 0.789481 0.579574
O O2 0.134445 0.752890 0.822318
O O3 0.500000 0.500000 0.000000
O O4 0.342656 0.820683 0.777388
O O5 0.592455 0.772688 0.456055
O O6 0.341474 0.569610 0.720670
O O7 0.627611 0.748926 0.327128
O O8 0.230781 0.948763 0.338838
O O9 0.247178 0.243593 0.090831
O O10 0.000000 0.000000 0.500000
O O11 0.782609 0.462585 0.793231
O O12 0.001769 0.730732 0.395021
O O13 0.327202 0.679667 0.208199
O O14 0.342836 0.905886 0.054693
O O15 0.000000 0.000000 0.000000
O O16 0.564016 0.248429 0.049885
O O17 0.027590 0.125337 0.030988
O O18 0.500000 0.000000 0.000000
#
# Coordination Sequence:
#
# PCOD8007786 Si02
#       8
#     2   2   2   2   2   2   2   2
#     4  10  23  45  69  96 145 184 218 287 345 402
#     4  11  22  43  69 100 135 176 229 287 336 406
#     4  12  24  44  73  98 139 179 231 285 330 412
#     4  10  20  41  68  96 126 182 230 270 340 403
#     4  12  21  40  71  93 132 177 226 283 334 409
#     4  10  22  41  66  97 137 175 223 286 335 408
#     4  11  24  43  73 105 130 180 237 278 349 407
#     4  12  24  40  63  98 143 172 225 288 348 398
#
# _framework density 21.478626999999999
#
# number of rings (size 3 to 8) (size 9 to 14) (size 15 to 20)
#    0.000    1.000    5.000    1.500    0.000    2.500 
#    4.500    3.750    0.000    0.000    0.000    0.000 
#    0.000    0.000    0.000    0.000    0.000    0.000 
#
# Total GULP energy -198385.790323 kJ/mol
# GULP energy per Si atom -12399.111895 kJ/mol
# Density = 2.142974 g / cm^3
# Si number density = 21.478627 Si / 1000 Ang^3
#
#
#
# Elastic Constant Matrix: (Units=GPa)
#
#
# Indices 1 2 3 4 5 6 
#
# 1 148.8878 54.5383 54.0807 5.4116 8.0653 3.9325
# 2 54.5383 110.0054 41.9563 15.3786 6.5790 8.8199
# 3 54.0807 41.9563 88.6066 17.0641 -2.5970 -0.4765
# 4 5.4116 15.3786 17.0641 43.2445 3.5726 11.2112
# 5 8.0653 6.5790 -2.5970 3.5726 35.3871 4.3234
# 6 3.9325 8.8199 -0.4765 11.2112 4.3234 37.7112
#
#
#
# Elastic Compliance Matrix: (Units=1/GPa)
#
#
# Indices 1 2 3 4 5 6 
#
# 1 0.009686 -0.003024 -0.004971 0.002202 -0.002138 -0.000775
# 2 -0.003024 0.012545 -0.003767 -0.001979 -0.001487 -0.001908
# 3 -0.004971 -0.003767 0.017362 -0.005944 0.003341 0.003003
# 4 0.002202 -0.001979 -0.005944 0.028156 -0.002444 -0.007932
# 5 -0.002138 -0.001487 0.003341 -0.002444 0.029768 -0.002073
# 6 -0.000775 -0.001908 0.003003 -0.007932 -0.002073 0.029678
#
#
# Mechanical properties :
#
#
# Convention : Reuss Voigt Hill
#
# Bulk Modulus (GPa) = 62.23117 72.07228 67.15172
# Shear Modulus (GPa) = 32.03561 36.39685 34.21623
#
# Velocity S-wave (km/s) = 3.86620 4.12097 3.99562
# Velocity P-wave (km/s) = 6.99760 7.50143 7.25389
#
# Compressibility (1/GPa) = 0.01606912
#
# Stress axis : x y z
#
# Youngs Moduli (GPa) = 103.24171 79.71247 57.59586
#
# Poissons Ratio (x) = 0.24106 0.28630
# Poissons Ratio (y) = 0.31221 0.21698
# Poissons Ratio (z) = 0.51320 0.30029
#
# Static dielectric constant tensor:
#      x y z
#    x 3.708200 -0.097850 0.307620 
#    y -0.097850 4.105930 0.590240 
#    z 0.307620 0.590240 3.876120 
# 
# 
# High freq. dielectric constant tensor:
#      x y z
#    x 1.833950 0.010260 0.008080 
#    y 0.010260 1.856780 0.009670 
#    z 0.008080 0.009670 1.839150 
# 
# From -- ./inp_files/279622.got.cif
#   From: 2010.06.25/outbox.cif.g09.slc.cpg/sg2_140_cif.got.tgz:279622.got - 2010.06.27 13:26:56.
