data_PCOD8007542
_publ_section_title
;
Structure prediction by ZEFSAII (Michael W. Deem and Ramdas Pophale) SiO2 
 PCOD8007542
Probable space group: P -1
;
_chemical_formula_sum "Si O2"
_cell_formula_units_Z 16
_cell_length_a 20.978459
_cell_length_b 20.838631
_cell_length_c 8.933528
_cell_angle_alpha 39.675133
_cell_angle_beta 140.925901
_cell_angle_gamma 160.484025
_cell_volume 808.906708
_symmetry_space_group_name_H-M "P -1"
_symmetry_group_IT_number 2
_symmetry_cell_setting 'triclinic'
loop_
_space_group_symop_operation_xyz
x,y,z
-x,-y,-z
loop_
_atom_site_type_symbol
_atom_site_label
_atom_site_fract_x
_atom_site_fract_y
_atom_site_fract_z
Si Si1 0.502590 0.893932 0.122477
Si Si2 0.944214 0.163694 0.058928
Si Si3 0.728301 0.826711 0.089806
Si Si4 0.543184 0.930542 0.775495
Si Si5 0.709705 0.454301 0.502420
Si Si6 0.712954 0.895183 0.623676
Si Si7 0.679341 0.431714 0.145425
Si Si8 0.060228 0.193226 0.534834
O O1 0.303183 0.661783 0.219217
O O2 0.687999 0.992103 0.358127
O O3 0.500000 0.000000 0.000000
O O4 0.519279 0.914676 0.938000
O O5 0.015907 0.215904 0.264525
O O6 0.127526 0.354663 0.953316
O O7 0.867988 0.989000 0.183170
O O8 0.765147 0.089470 0.851370
O O9 0.772681 0.747258 0.291037
O O10 0.784393 0.941506 0.840750
O O11 0.499115 0.639939 0.051113
O O12 0.500000 0.000000 0.500000
O O13 0.385312 0.719005 0.799089
O O14 0.503667 0.339848 0.361456
O O15 0.732289 0.443991 0.388455
O O16 0.880472 0.672956 0.474525
O O17 0.865446 0.974681 0.642261
#
# Coordination Sequence:
#
# PCOD8007542 Si02
#       8
#     2   2   2   2   2   2   2   2
#     4  10  20  41  65  87 116 155 196 251 307 349
#     4  11  23  39  60  89 128 156 202 247 298 368
#     4  10  23  38  61  90 122 169 198 247 300 348
#     4  11  23  41  66  88 120 160 197 253 311 355
#     4   9  21  38  60  88 120 157 202 251 291 353
#     4   9  21  39  60  87 120 155 206 250 293 353
#     4  10  22  41  60  89 127 158 204 245 295 363
#     4  12  21  38  62  90 125 160 206 246 299 355
#
# _framework density 19.779782999999998
#
# number of rings (size 3 to 8) (size 9 to 14) (size 15 to 20)
#    0.750    1.000    1.250    3.000    1.750    4.000 
#    0.000    0.625    0.000    0.000    0.000    0.000 
#    0.000    0.000    0.000    0.000    0.000    0.000 
#
# Total GULP energy -198304.791121 kJ/mol
# GULP energy per Si atom -12394.049445 kJ/mol
# Density = 1.973476 g / cm^3
# Si number density = 19.779783 Si / 1000 Ang^3
#
#
#
# Elastic Constant Matrix: (Units=GPa)
#
#
# Indices 1 2 3 4 5 6 
#
# 1 105.7668 50.5459 41.1092 -2.9367 -7.8781 -0.0819
# 2 50.5459 91.7217 42.1098 -6.4619 -10.4355 8.3631
# 3 41.1092 42.1098 80.7976 8.6153 -0.1613 -4.4318
# 4 -2.9367 -6.4619 8.6153 20.9587 2.9731 -5.9967
# 5 -7.8781 -10.4355 -0.1613 2.9731 37.0550 -7.2595
# 6 -0.0819 8.3631 -4.4318 -5.9967 -7.2595 37.7563
#
#
#
# Elastic Compliance Matrix: (Units=1/GPa)
#
#
# Indices 1 2 3 4 5 6 
#
# 1 0.013956 -0.005455 -0.004422 0.002270 0.001497 0.001368
# 2 -0.005455 0.018623 -0.007840 0.006817 0.002832 -0.003430
# 3 -0.004422 -0.007840 0.019929 -0.010378 -0.001823 0.002067
# 4 0.002270 0.006817 -0.010378 0.056261 -0.000977 0.006025
# 5 0.001497 0.002832 -0.001823 -0.000977 0.029074 0.004597
# 6 0.001368 -0.003430 0.002067 0.006025 0.004597 0.029332
#
#
# Mechanical properties :
#
#
# Convention : Reuss Voigt Hill
#
# Bulk Modulus (GPa) = 58.56665 60.64621 59.60643
# Shear Modulus (GPa) = 24.00390 28.78875 26.39632
#
# Velocity S-wave (km/s) = 3.48739 3.81919 3.65706
# Velocity P-wave (km/s) = 6.77418 7.08347 6.93055
#
# Compressibility (1/GPa) = 0.01707456
#
# Stress axis : x y z
#
# Youngs Moduli (GPa) = 71.65335 53.69599 50.17933
#
# Poissons Ratio (x) = 0.29293 0.22187
# Poissons Ratio (y) = 0.39090 0.39339
# Poissons Ratio (z) = 0.31682 0.42096
#
# Static dielectric constant tensor:
#      x y z
#    x 3.650920 0.097510 -0.170880 
#    y 0.097510 3.524710 0.122060 
#    z -0.170880 0.122060 3.521750 
# 
# 
# High freq. dielectric constant tensor:
#      x y z
#    x 1.775770 0.006060 -0.017850 
#    y 0.006060 1.765800 0.005620 
#    z -0.017850 0.005620 1.767930 
# 
# From -- ./inp_files/349453.got.cif
#   From: 2010.06.25/outbox.cif.g09.slc.cpg/sg2_175_cif.got.tgz:349453.got - 2010.06.27 13:26:56.
