data_PCOD8007663
_publ_section_title
;
Structure prediction by ZEFSAII (Michael W. Deem and Ramdas Pophale) SiO2 
 PCOD8007663
Probable space group: P -1
;
_chemical_formula_sum "Si O2"
_cell_formula_units_Z 14
_cell_length_a 14.437620
_cell_length_b 8.903621
_cell_length_c 15.102601
_cell_angle_alpha 67.711972
_cell_angle_beta 150.631778
_cell_angle_gamma 129.064950
_cell_volume 661.527642
_symmetry_space_group_name_H-M "P -1"
_symmetry_group_IT_number 2
_symmetry_cell_setting 'triclinic'
loop_
_space_group_symop_operation_xyz
x,y,z
-x,-y,-z
loop_
_atom_site_type_symbol
_atom_site_label
_atom_site_fract_x
_atom_site_fract_y
_atom_site_fract_z
Si Si1 0.145913 0.941057 0.181541
Si Si2 0.805513 0.834655 0.302547
Si Si3 0.197471 0.023238 0.908427
Si Si4 0.440364 0.946966 0.266951
Si Si5 0.630501 0.745990 0.541973
Si Si6 0.720624 0.591238 0.024562
Si Si7 0.986505 0.344844 0.589095
O O1 0.296546 0.924385 0.239234
O O2 0.337643 0.130046 0.369457
O O3 0.933578 0.704369 0.101125
O O4 0.000000 0.000000 0.000000
O O5 0.731060 0.932174 0.146583
O O6 0.552300 0.625790 0.186384
O O7 0.956594 0.785420 0.386506
O O8 0.000000 0.000000 0.500000
O O9 0.298919 0.917919 0.064623
O O10 0.315148 0.244103 0.008513
O O11 0.898509 0.859736 0.698733
O O12 0.715355 0.182531 0.445177
O O13 0.465761 0.765069 0.333635
O O14 0.500000 0.500000 0.500000
O O15 0.806733 0.521287 0.191450
O O16 0.000000 0.500000 0.500000
#
# Coordination Sequence:
#
# PCOD8007663 Si02
#       7
#     2   2   2   2   2   2   2
#     4  11  22  42  69  99 132 177 230 271 319 407
#     4  11  23  43  68  95 136 172 219 290 338 390
#     4  10  21  44  64  97 131 180 220 274 332 402
#     4  12  21  43  73  96 137 176 232 273 327 410
#     4  11  24  42  65  98 142 175 218 278 338 391
#     4  10  20  41  66  95 134 172 221 273 328 399
#     4  11  22  40  70  98 125 179 228 270 336 399
#
# _framework density 21.163136999999999
#
# number of rings (size 3 to 8) (size 9 to 14) (size 15 to 20)
#    0.000    1.143    7.143    3.857    0.000    1.714 
#    0.000    2.857    0.000    0.000    0.000    0.000 
#    0.000    0.000    0.000    0.000    0.000    0.000 
#
# Total GULP energy -173550.995522 kJ/mol
# GULP energy per Si atom -12396.499680 kJ/mol
# Density = 2.111497 g / cm^3
# Si number density = 21.163137 Si / 1000 Ang^3
#
#
#
# Elastic Constant Matrix: (Units=GPa)
#
#
# Indices 1 2 3 4 5 6 
#
# 1 82.0466 40.0885 60.1780 16.4077 7.0234 25.0806
# 2 40.0885 152.1807 82.8041 -11.7004 1.5178 26.3054
# 3 60.1780 82.8041 138.1819 -5.5014 6.6866 9.8707
# 4 16.4077 -11.7004 -5.5014 55.3700 6.1543 3.6809
# 5 7.0234 1.5178 6.6866 6.1543 31.1658 -5.3545
# 6 25.0806 26.3054 9.8707 3.6809 -5.3545 21.4898
#
#
#
# Elastic Compliance Matrix: (Units=1/GPa)
#
#
# Indices 1 2 3 4 5 6 
#
# 1 0.038125 0.006957 -0.017128 -0.007087 -0.011914 -0.046899
# 2 0.006957 0.013951 -0.009511 0.001911 -0.004407 -0.022254
# 3 -0.017128 -0.009511 0.018650 0.002936 0.003780 0.023504
# 4 -0.007087 0.001911 0.002936 0.021213 -0.003292 0.000130
# 5 -0.011914 -0.004407 0.003780 -0.003292 0.039636 0.028003
# 6 -0.046899 -0.022254 0.023504 0.000130 0.028003 0.124668
#
#
# Mechanical properties :
#
#
# Convention : Reuss Voigt Hill
#
# Bulk Modulus (GPa) = 31.88461 82.06115 56.97288
# Shear Modulus (GPa) = 16.33658 34.22771 25.28214
#
# Velocity S-wave (km/s) = 2.78139 4.02596 3.46009
# Velocity P-wave (km/s) = 5.04119 7.77630 6.55303
#
# Compressibility (1/GPa) = 0.03136310
#
# Stress axis : x y z
#
# Youngs Moduli (GPa) = 26.22946 71.67945 53.61859
#
# Poissons Ratio (x) = -0.49868 0.91837
# Poissons Ratio (y) = -0.18248 0.50996
# Poissons Ratio (z) = 0.44926 0.68173
#
# Static dielectric constant tensor:
#      x y z
#    x 3.702520 0.686560 0.035770 
#    y 0.686560 3.622140 -0.150770 
#    z 0.035770 -0.150770 4.052560 
# 
# 
# High freq. dielectric constant tensor:
#      x y z
#    x 1.816180 0.032990 0.015340 
#    y 0.032990 1.823250 -0.018930 
#    z 0.015340 -0.018930 1.839850 
# 
# From -- ./inp_files/201591.got.cif
#   From: 2010.06.25/outbox.cif.g09.slc.cpg/sg2_101_cif.got.tgz:201591.got - 2010.06.27 13:26:56.
