data_PCOD8007401
_publ_section_title
;
Structure prediction by ZEFSAII (Michael W. Deem and Ramdas Pophale) SiO2 
 PCOD8007401
Probable space group: P -1
;
_chemical_formula_sum "Si O2"
_cell_formula_units_Z 14
_cell_length_a 7.870318
_cell_length_b 8.760814
_cell_length_c 10.725089
_cell_angle_alpha 64.466893
_cell_angle_beta 94.524763
_cell_angle_gamma 111.164249
_cell_volume 619.676117
_symmetry_space_group_name_H-M "P -1"
_symmetry_group_IT_number 2
_symmetry_cell_setting 'triclinic'
loop_
_space_group_symop_operation_xyz
x,y,z
-x,-y,-z
loop_
_atom_site_type_symbol
_atom_site_label
_atom_site_fract_x
_atom_site_fract_y
_atom_site_fract_z
Si Si1 0.599970 0.011275 0.190150
Si Si2 0.700714 0.881035 0.479535
Si Si3 0.183572 0.257790 0.112559
Si Si4 0.988205 0.764277 0.643782
Si Si5 0.086080 0.429281 0.830737
Si Si6 0.458929 0.693776 0.751674
Si Si7 0.780918 0.063078 0.923288
O O1 0.624808 0.865600 0.340010
O O2 0.395510 0.920163 0.158430
O O3 0.629341 0.198827 0.198404
O O4 0.750131 0.053186 0.074256
O O5 0.825733 0.757073 0.541826
O O6 0.537406 0.817927 0.591859
O O7 0.820739 0.092400 0.445489
O O8 0.048039 0.157742 0.251954
O O9 0.385862 0.356759 0.148739
O O10 0.182872 0.113279 0.057988
O O11 0.116267 0.406145 0.989512
O O12 0.983668 0.563908 0.739438
O O13 0.295144 0.510161 0.761568
O O14 0.958968 0.236303 0.834907
#
# Coordination Sequence:
#
# PCOD8007401 Si02
#       7
#     2   2   2   2   2   2   2
#     4  10  20  41  66  86 121 173 195 248 302 378
#     4  10  20  41  62  90 123 162 208 244 305 358
#     4  10  22  42  63  91 126 161 194 254 314 366
#     4  10  22  36  70  93 115 159 214 253 292 357
#     4  12  22  38  62 100 122 151 208 265 291 352
#     4  10  22  37  67  93 118 161 208 251 299 359
#     4  10  24  40  64  92 126 160 201 243 323 361
#
# _framework density 22.592447
#
# number of rings (size 3 to 8) (size 9 to 14) (size 15 to 20)
#    0.000    1.714    1.429    2.571    2.000    0.000 
#    7.714    1.429    0.000    0.000    0.000    0.000 
#    0.000    0.000    0.000    0.000    0.000    0.000 
#
# Total GULP energy -173534.762356 kJ/mol
# GULP energy per Si atom -12395.340168 kJ/mol
# Density = 2.254103 g / cm^3
# Si number density = 22.592447 Si / 1000 Ang^3
#
#
#
# Elastic Constant Matrix: (Units=GPa)
#
#
# Indices 1 2 3 4 5 6 
#
# 1 74.1198 51.6981 48.8470 -15.7119 -1.5192 7.4763
# 2 51.6981 79.2883 47.6618 -11.3289 -7.5088 23.9218
# 3 48.8470 47.6618 151.4632 -11.9715 17.8599 5.2299
# 4 -15.7119 -11.3289 -11.9715 27.5322 3.2640 -6.3461
# 5 -1.5192 -7.5088 17.8599 3.2640 58.3591 -9.3862
# 6 7.4763 23.9218 5.2299 -6.3461 -9.3862 29.5539
#
#
#
# Elastic Compliance Matrix: (Units=1/GPa)
#
#
# Indices 1 2 3 4 5 6 
#
# 1 0.030538 -0.019850 -0.003224 0.010406 0.000462 0.011294
# 2 -0.019850 0.034405 -0.004213 -0.004394 0.001836 -0.022441
# 3 -0.003224 -0.004213 0.009397 0.001317 -0.003286 0.001802
# 4 0.010406 -0.004394 0.001317 0.043404 -0.001597 0.009504
# 5 0.000462 0.001836 -0.003286 -0.001597 0.019242 0.004747
# 6 0.011294 -0.022441 0.001802 0.009504 0.004747 0.052374
#
#
# Mechanical properties :
#
#
# Convention : Reuss Voigt Hill
#
# Bulk Modulus (GPa) = 50.59669 66.80946 58.70308
# Shear Modulus (GPa) = 19.95818 33.53334 26.74576
#
# Velocity S-wave (km/s) = 2.97543 3.85681 3.44443
# Velocity P-wave (km/s) = 5.85220 7.03342 6.46983
#
# Compressibility (1/GPa) = 0.01976414
#
# Stress axis : x y z
#
# Youngs Moduli (GPa) = 32.74596 29.06571 106.41443
#
# Poissons Ratio (x) = 0.57697 0.34309
# Poissons Ratio (y) = 0.65002 0.44837
# Poissons Ratio (z) = 0.10558 0.12247
#
# Static dielectric constant tensor:
#      x y z
#    x 4.368300 0.233030 0.215640 
#    y 0.233030 3.558490 0.026710 
#    z 0.215640 0.026710 4.271650 
# 
# 
# High freq. dielectric constant tensor:
#      x y z
#    x 1.912290 0.024690 0.015860 
#    y 0.024690 1.840440 -0.007500 
#    z 0.015860 -0.007500 1.904580 
# 
# From -- ./inp_files/381364.got.cif
#   From: 2010.06.25/outbox.cif.g09.slc.cpg/sg2_191_cif.got.tgz:381364.got - 2010.06.27 13:26:56.
