data_PCOD8007287
_publ_section_title
;
Structure prediction by ZEFSAII (Michael W. Deem and Ramdas Pophale) SiO2 
 PCOD8007287
Probable space group: P -1
;
_chemical_formula_sum "Si O2"
_cell_formula_units_Z 16
_cell_length_a 11.296529
_cell_length_b 9.684834
_cell_length_c 7.485429
_cell_angle_alpha 81.180368
_cell_angle_beta 90.607932
_cell_angle_gamma 57.029021
_cell_volume 674.542632
_symmetry_space_group_name_H-M "P -1"
_symmetry_group_IT_number 2
_symmetry_cell_setting 'triclinic'
loop_
_space_group_symop_operation_xyz
x,y,z
-x,-y,-z
loop_
_atom_site_type_symbol
_atom_site_label
_atom_site_fract_x
_atom_site_fract_y
_atom_site_fract_z
Si Si1 0.248701 0.360286 0.275608
Si Si2 0.369143 0.683476 0.496855
Si Si3 0.885658 0.746269 0.984645
Si Si4 0.826480 0.764437 0.383029
Si Si5 0.683843 0.136966 0.904834
Si Si6 0.563472 0.137475 0.251740
Si Si7 0.853599 0.285372 0.904635
Si Si8 0.055127 0.826158 0.442615
O O1 0.197121 0.360086 0.476338
O O2 0.404957 0.192172 0.286287
O O3 0.249815 0.527021 0.217352
O O4 0.142098 0.362877 0.127838
O O5 0.500000 0.500000 0.500000
O O6 0.368128 0.786417 0.305804
O O7 0.394356 0.753036 0.661339
O O8 0.221743 0.693897 0.519510
O O9 0.882194 0.690562 0.200384
O O10 0.041321 0.711635 0.950918
O O11 0.776218 0.940640 0.913498
O O12 0.945919 0.772394 0.496585
O O13 0.677368 0.943267 0.333402
O O14 0.763176 0.214950 0.991904
O O15 0.558998 0.177398 0.031999
O O16 0.952434 0.152947 0.776796
O O17 0.000000 0.000000 0.500000
#
# Coordination Sequence:
#
# PCOD8007287 Si02
#       8
#     2   2   2   2   2   2   2   2
#     4  12  25  41  64  97 143 179 214 279 342 399
#     4  11  23  40  66 101 138 167 214 282 345 383
#     4  10  23  42  68  93 128 176 226 270 334 399
#     4  10  23  42  67  96 130 178 231 272 323 407
#     4  10  23  43  69  94 128 172 228 280 319 400
#     4  11  23  41  65  96 132 180 229 268 331 401
#     4  10  23  42  65 100 134 166 226 283 339 386
#     4  10  20  40  70  97 130 170 227 271 322 399
#
# _framework density 23.719776
#
# number of rings (size 3 to 8) (size 9 to 14) (size 15 to 20)
#    0.000    1.500    1.250    3.375    1.750    9.000 
#    0.000    3.750    0.000    0.000    0.000    0.000 
#    0.000    0.000    0.000    0.000    0.000    0.000 
#
# Total GULP energy -198328.942598 kJ/mol
# GULP energy per Si atom -12395.558912 kJ/mol
# Density = 2.366579 g / cm^3
# Si number density = 23.719776 Si / 1000 Ang^3
#
#
#
# Elastic Constant Matrix: (Units=GPa)
#
#
# Indices 1 2 3 4 5 6 
#
# 1 76.5558 -3.8260 -0.2487 3.2078 0.0288 -10.9889
# 2 -3.8260 72.8637 24.6986 8.8169 -1.7540 2.1538
# 3 -0.2487 24.6986 68.6758 -5.3674 -10.4752 -0.1743
# 4 3.2078 8.8169 -5.3674 16.7189 7.8525 1.3724
# 5 0.0288 -1.7540 -10.4752 7.8525 37.0594 -3.3369
# 6 -10.9889 2.1538 -0.1743 1.3724 -3.3369 34.0537
#
#
#
# Elastic Compliance Matrix: (Units=1/GPa)
#
#
# Indices 1 2 3 4 5 6 
#
# 1 0.014002 0.001386 -0.000599 -0.004604 0.001288 0.004739
# 2 0.001386 0.017789 -0.007153 -0.012639 0.001492 -0.000059
# 3 -0.000599 -0.007153 0.018251 0.008265 0.003099 0.000323
# 4 -0.004604 -0.012639 0.008265 0.077570 -0.015168 -0.005256
# 5 0.001288 0.001492 0.003099 -0.015168 0.031506 0.004036
# 6 0.004739 -0.000059 0.000323 -0.005256 0.004036 0.031507
#
#
# Mechanical properties :
#
#
# Convention : Reuss Voigt Hill
#
# Bulk Modulus (GPa) = 26.80222 28.81589 27.80906
# Shear Modulus (GPa) = 23.17020 30.73118 26.95069
#
# Velocity S-wave (km/s) = 3.12882 3.60334 3.37443
# Velocity P-wave (km/s) = 4.93728 5.43019 5.18959
#
# Compressibility (1/GPa) = 0.03731034
#
# Stress axis : x y z
#
# Youngs Moduli (GPa) = 71.41618 56.21528 54.79190
#
# Poissons Ratio (x) = -0.07794 0.03284
# Poissons Ratio (y) = -0.09901 0.39192
# Poissons Ratio (z) = 0.04280 0.40211
#
# Static dielectric constant tensor:
#      x y z
#    x 4.583670 -0.350180 -0.007580 
#    y -0.350180 5.737240 0.402480 
#    z -0.007580 0.402480 4.386450 
# 
# 
# High freq. dielectric constant tensor:
#      x y z
#    x 1.942940 -0.004030 0.005160 
#    y -0.004030 1.941990 0.007880 
#    z 0.005160 0.007880 1.930940 
# 
# From -- ./inp_files/238451.got.cif
#   From: 2010.06.25/outbox.cif.g09.slc.cpg/sg2_120_cif.got.tgz:238451.got - 2010.06.27 13:26:56.
