data_PCOD8007278
_publ_section_title
;
Structure prediction by ZEFSAII (Michael W. Deem and Ramdas Pophale) SiO2 
 PCOD8007278
Probable space group: P -1
;
_chemical_formula_sum "Si O2"
_cell_formula_units_Z 14
_cell_length_a 10.810887
_cell_length_b 19.549502
_cell_length_c 14.472760
_cell_angle_alpha 20.002735
_cell_angle_beta 139.323073
_cell_angle_gamma 148.641443
_cell_volume 527.577168
_symmetry_space_group_name_H-M "P -1"
_symmetry_group_IT_number 2
_symmetry_cell_setting 'triclinic'
loop_
_space_group_symop_operation_xyz
x,y,z
-x,-y,-z
loop_
_atom_site_type_symbol
_atom_site_label
_atom_site_fract_x
_atom_site_fract_y
_atom_site_fract_z
Si Si1 0.035294 0.188538 0.432675
Si Si2 0.568262 0.486657 0.328633
Si Si3 0.095692 0.581688 0.665902
Si Si4 0.709509 0.953087 0.928747
Si Si5 0.445215 0.308407 0.133767
Si Si6 0.829520 0.322109 0.017216
Si Si7 0.256058 0.821198 0.151459
O O1 0.291331 0.238292 0.520032
O O2 0.060496 0.426849 0.180938
O O3 0.830404 0.950397 0.681462
O O4 0.947621 0.181347 0.286381
O O5 0.697144 0.713451 0.192586
O O6 0.721530 0.387299 0.524829
O O7 0.531487 0.590793 0.083402
O O8 0.341275 0.712835 0.699599
O O9 0.861407 0.409084 0.819239
O O10 0.008239 0.355991 0.827115
O O11 0.102889 0.804159 0.339926
O O12 0.454314 0.896666 0.842721
O O13 0.775657 0.026084 0.982598
O O14 0.500000 0.500000 0.000000
O O15 0.500000 0.000000 0.000000
#
# Coordination Sequence:
#
# PCOD8007278 Si02
#       7
#     2   2   2   2   2   2   2
#     4  10  22  41  70 105 145 176 236 291 355 415
#     4  11  27  48  74 107 140 187 240 295 350 423
#     4  12  24  44  71 102 147 189 230 293 356 418
#     4  11  24  47  74 102 144 188 238 291 354 420
#     4  12  26  41  72 111 143 184 237 293 354 419
#     4  10  20  40  70 107 136 185 229 295 354 413
#     4  12  28  50  72 102 145 192 237 289 361 424
#
# _framework density 26.536401000000001
#
# number of rings (size 3 to 8) (size 9 to 14) (size 15 to 20)
#    0.000    0.857    4.286    2.143    2.000    2.857 
#    0.000    0.000    0.000    0.000    0.000    0.000 
#    0.000    0.000    0.000    0.000    0.000    0.000 
#
# Total GULP energy -173448.050138 kJ/mol
# GULP energy per Si atom -12389.146438 kJ/mol
# Density = 2.647600 g / cm^3
# Si number density = 26.536401 Si / 1000 Ang^3
#
#
#
# Elastic Constant Matrix: (Units=GPa)
#
#
# Indices 1 2 3 4 5 6 
#
# 1 98.4233 24.2501 45.4341 6.5824 6.7405 -28.2370
# 2 24.2501 120.1665 26.1571 -10.0618 -7.0175 -8.2134
# 3 45.4341 26.1571 156.6609 -13.2845 43.8671 -52.1451
# 4 6.5824 -10.0618 -13.2845 31.9151 -7.9902 7.9129
# 5 6.7405 -7.0175 43.8671 -7.9902 79.0832 -30.9354
# 6 -28.2370 -8.2134 -52.1451 7.9129 -30.9354 62.7986
#
#
#
# Elastic Compliance Matrix: (Units=1/GPa)
#
#
# Indices 1 2 3 4 5 6 
#
# 1 0.013715 -0.002169 -0.002880 -0.005541 0.001629 0.004993
# 2 -0.002169 0.009428 -0.001301 0.003443 0.001981 -0.000280
# 3 -0.002880 -0.001301 0.010274 0.002356 -0.003324 0.005132
# 4 -0.005541 0.003443 0.002356 0.035890 0.001604 -0.003817
# 5 0.001629 0.001981 -0.003324 0.001604 0.017239 0.006522
# 6 0.004993 -0.000280 0.005132 -0.003817 0.006522 0.026088
#
#
# Mechanical properties :
#
#
# Convention : Reuss Voigt Hill
#
# Bulk Modulus (GPa) = 48.26732 62.99258 55.62995
# Shear Modulus (GPa) = 37.81041 53.38669 45.59855
#
# Velocity S-wave (km/s) = 3.77881 4.49021 4.14978
# Velocity P-wave (km/s) = 6.10474 7.11845 6.63099
#
# Compressibility (1/GPa) = 0.02071795
#
# Stress axis : x y z
#
# Youngs Moduli (GPa) = 72.91138 106.07219 97.32987
#
# Poissons Ratio (x) = 0.23002 0.28028
# Poissons Ratio (y) = 0.15811 0.12666
# Poissons Ratio (z) = 0.20997 0.13804
#
# Static dielectric constant tensor:
#      x y z
#    x 4.754780 0.406140 -0.195430 
#    y 0.406140 8.859300 -0.042290 
#    z -0.195430 -0.042290 4.576570 
# 
# 
# High freq. dielectric constant tensor:
#      x y z
#    x 2.053810 0.000780 -0.017520 
#    y 0.000780 2.085290 -0.008730 
#    z -0.017520 -0.008730 2.064110 
# 
# From -- ./inp_files/186869.got.cif
#   From: 2010.06.25/outbox.cif.g09.slc.cpg/sg2_94_cif.got.tgz:186869.got - 2010.06.27 13:26:56.
