data_PCOD8007236
_publ_section_title
;
Structure prediction by ZEFSAII (Michael W. Deem and Ramdas Pophale) SiO2 
 PCOD8007236
Probable space group: P -1
;
_chemical_formula_sum "Si O2"
_cell_formula_units_Z 16
_cell_length_a 8.851421
_cell_length_b 18.812850
_cell_length_c 9.182431
_cell_angle_alpha 50.210724
_cell_angle_beta 112.048786
_cell_angle_gamma 142.954390
_cell_volume 676.888372
_symmetry_space_group_name_H-M "P -1"
_symmetry_group_IT_number 2
_symmetry_cell_setting 'triclinic'
loop_
_space_group_symop_operation_xyz
x,y,z
-x,-y,-z
loop_
_atom_site_type_symbol
_atom_site_label
_atom_site_fract_x
_atom_site_fract_y
_atom_site_fract_z
Si Si1 0.634996 0.392528 0.544483
Si Si2 0.703489 0.686181 0.962484
Si Si3 0.232556 0.753994 0.565854
Si Si4 0.894611 0.689761 0.309400
Si Si5 0.036586 0.478541 0.775714
Si Si6 0.077516 0.112509 0.765902
Si Si7 0.225305 0.075056 0.368962
Si Si8 0.125651 0.357258 0.168526
O O1 0.666231 0.508896 0.477075
O O2 0.718887 0.439926 0.344793
O O3 0.358809 0.218242 0.659635
O O4 0.795016 0.388920 0.699831
O O5 0.668332 0.780089 0.842532
O O6 0.827240 0.715999 0.810295
O O7 0.906255 0.733735 0.091687
O O8 0.414475 0.518060 0.111158
O O9 0.109727 0.597807 0.746452
O O10 0.545105 0.887014 0.528768
O O11 0.168620 0.762990 0.366736
O O12 0.070513 0.747534 0.629394
O O13 0.857423 0.760108 0.307197
O O14 0.975295 0.365383 0.004908
O O15 0.870928 0.025299 0.674447
O O16 0.000000 0.000000 0.000000
O O17 0.000000 0.000000 0.500000
#
# Coordination Sequence:
#
# PCOD8007236 Si02
#       8
#     2   2   2   2   2   2   2   2
#     4  10  23  41  72 102 141 180 239 294 355 417
#     4  11  25  45  70 108 144 185 233 294 365 416
#     4  11  26  43  73 106 139 184 241 295 354 411
#     4  11  25  46  72 105 138 185 242 300 345 420
#     4  10  20  40  69 105 137 180 234 299 355 409
#     4  12  27  43  70 104 143 195 232 287 358 434
#     4  12  28  50  70  97 151 195 233 285 363 438
#     4  11  24  40  75 109 142 175 241 304 349 416
#
# _framework density 23.637577
#
# number of rings (size 3 to 8) (size 9 to 14) (size 15 to 20)
#    0.000    1.000    3.750    1.500    8.750    0.500 
#    0.000    0.625    0.000    0.000    0.000    0.000 
#    0.000    0.000    0.000    0.000    0.000    0.000 
#
# Total GULP energy -198286.727944 kJ/mol
# GULP energy per Si atom -12392.920496 kJ/mol
# Density = 2.358378 g / cm^3
# Si number density = 23.637577 Si / 1000 Ang^3
#
#
#
# Elastic Constant Matrix: (Units=GPa)
#
#
# Indices 1 2 3 4 5 6 
#
# 1 92.7762 44.1917 26.5791 2.0030 -3.7461 6.5541
# 2 44.1917 121.7599 38.1743 11.5264 -6.6170 11.0800
# 3 26.5791 38.1743 67.2886 13.2273 10.2683 9.6648
# 4 2.0030 11.5264 13.2273 33.5002 3.9892 4.9866
# 5 -3.7461 -6.6170 10.2683 3.9892 39.3825 3.8872
# 6 6.5541 11.0800 9.6648 4.9866 3.8872 44.7603
#
#
#
# Elastic Compliance Matrix: (Units=1/GPa)
#
#
# Indices 1 2 3 4 5 6 
#
# 1 0.013755 -0.003856 -0.003764 0.001899 0.001508 -0.000589
# 2 -0.003856 0.011666 -0.005009 -0.001997 0.003230 -0.001300
# 3 -0.003764 -0.005009 0.021449 -0.005546 -0.006063 -0.001696
# 4 0.001899 -0.001997 -0.005546 0.033150 -0.001858 -0.002118
# 5 0.001508 0.003230 -0.006063 -0.001858 0.028038 -0.001939
# 6 -0.000589 -0.001300 -0.001696 -0.002118 -0.001939 0.023520
#
#
# Mechanical properties :
#
#
# Convention : Reuss Voigt Hill
#
# Bulk Modulus (GPa) = 46.27221 55.52386 50.89804
# Shear Modulus (GPa) = 30.48023 35.05391 32.76707
#
# Velocity S-wave (km/s) = 3.59483 3.85512 3.72725
# Velocity P-wave (km/s) = 6.07031 6.58457 6.33266
#
# Compressibility (1/GPa) = 0.02161124
#
# Stress axis : x y z
#
# Youngs Moduli (GPa) = 72.69827 85.72187 46.62278
#
# Poissons Ratio (x) = 0.33058 0.17550
# Poissons Ratio (y) = 0.28036 0.23351
# Poissons Ratio (z) = 0.27366 0.42934
#
# Static dielectric constant tensor:
#      x y z
#    x 4.390850 -0.074940 0.206860 
#    y -0.074940 4.407070 0.255530 
#    z 0.206860 0.255530 4.090810 
# 
# 
# High freq. dielectric constant tensor:
#      x y z
#    x 1.938970 -0.006500 0.018450 
#    y -0.006500 1.941100 0.024700 
#    z 0.018450 0.024700 1.918800 
# 
# From -- ./inp_files/217123.got.cif
#   From: 2010.06.25/outbox.cif.g09.slc.cpg/sg2_109_cif.got.tgz:217123.got - 2010.06.27 13:26:56.
