data_PCOD8007371
_publ_section_title
;
Structure prediction by ZEFSAII (Michael W. Deem and Ramdas Pophale) SiO2 
 PCOD8007371
Probable space group: P -1
;
_chemical_formula_sum "Si O2"
_cell_formula_units_Z 14
_cell_length_a 11.831551
_cell_length_b 7.532094
_cell_length_c 9.012662
_cell_angle_alpha 106.349587
_cell_angle_beta 121.305966
_cell_angle_gamma 98.523232
_cell_volume 614.543978
_symmetry_space_group_name_H-M "P -1"
_symmetry_group_IT_number 2
_symmetry_cell_setting 'triclinic'
loop_
_space_group_symop_operation_xyz
x,y,z
-x,-y,-z
loop_
_atom_site_type_symbol
_atom_site_label
_atom_site_fract_x
_atom_site_fract_y
_atom_site_fract_z
Si Si1 0.641747 0.265028 0.565102
Si Si2 0.148533 0.157269 0.481466
Si Si3 0.674714 0.917239 0.684009
Si Si4 0.838547 0.222571 0.446630
Si Si5 0.907021 0.968315 0.073657
Si Si6 0.145968 0.521338 0.737351
Si Si7 0.139528 0.463388 0.034043
O O1 0.480224 0.249304 0.432887
O O2 0.700745 0.221375 0.440316
O O3 0.658643 0.119306 0.669611
O O4 0.741360 0.482125 0.742714
O O5 0.249843 0.162143 0.413281
O O6 0.202991 0.368556 0.651346
O O7 0.140812 0.985910 0.556458
O O8 0.990826 0.125626 0.296832
O O9 0.755547 0.963953 0.909640
O O10 0.809840 0.266320 0.266068
O O11 0.977198 0.412315 0.628083
O O12 0.901030 0.763234 0.092320
O O13 0.000000 0.000000 0.000000
O O14 0.209334 0.581156 0.958875
O O15 0.000000 0.500000 0.000000
#
# Coordination Sequence:
#
# PCOD8007371 Si02
#       7
#     2   2   2   2   2   2   2
#     4  10  21  41  64  87 125 158 213 250 302 374
#     4  10  20  41  61  92 127 156 209 255 304 376
#     4   9  21  40  65  89 118 169 201 254 312 358
#     4  10  21  37  62  90 120 164 200 254 309 361
#     4  10  21  35  60  93 118 156 203 256 307 352
#     4  11  23  36  61  94 125 163 198 256 320 353
#     4  12  22  39  59  94 122 157 208 258 299 370
#
# _framework density 22.781120999999999
#
# number of rings (size 3 to 8) (size 9 to 14) (size 15 to 20)
#    0.000    1.714    2.857    2.143    4.000    2.857 
#    0.000    0.714    0.000    3.429    0.000    0.000 
#    0.000    0.000    0.000    0.000    0.000    0.000 
#
# Total GULP energy -173471.344699 kJ/mol
# GULP energy per Si atom -12390.810336 kJ/mol
# Density = 2.272927 g / cm^3
# Si number density = 22.781121 Si / 1000 Ang^3
#
#
#
# Elastic Constant Matrix: (Units=GPa)
#
#
# Indices 1 2 3 4 5 6 
#
# 1 104.8354 34.3967 43.0782 -6.0435 12.2969 2.3248
# 2 34.3967 91.3582 19.8609 -25.5796 -4.6163 5.5607
# 3 43.0782 19.8609 84.1559 -15.2026 4.1734 -4.7669
# 4 -6.0435 -25.5796 -15.2026 36.6683 3.1624 -3.4030
# 5 12.2969 -4.6163 4.1734 3.1624 35.7121 2.1919
# 6 2.3248 5.5607 -4.7669 -3.4030 2.1919 25.4226
#
#
#
# Elastic Compliance Matrix: (Units=1/GPa)
#
#
# Indices 1 2 3 4 5 6 
#
# 1 0.014277 -0.005100 -0.006650 -0.003729 -0.004372 -0.001559
# 2 -0.005100 0.015821 0.000420 0.009942 0.002985 -0.001842
# 3 -0.006650 0.000420 0.016655 0.006565 -0.000463 0.004558
# 4 -0.003729 0.009942 0.006565 0.036881 -0.001739 0.004484
# 5 -0.004372 0.002985 -0.000463 -0.001739 0.030297 -0.003185
# 6 -0.001559 -0.001842 0.004558 0.004484 -0.003185 0.041610
#
#
# Mechanical properties :
#
#
# Convention : Reuss Voigt Hill
#
# Bulk Modulus (GPa) = 41.50344 52.78013 47.14178
# Shear Modulus (GPa) = 26.84855 31.76152 29.30503
#
# Velocity S-wave (km/s) = 3.43672 3.73795 3.59050
# Velocity P-wave (km/s) = 5.83146 6.46903 6.15850
#
# Compressibility (1/GPa) = 0.02409439
#
# Stress axis : x y z
#
# Youngs Moduli (GPa) = 70.04297 63.20580 60.04374
#
# Poissons Ratio (x) = 0.32234 0.39928
# Poissons Ratio (y) = 0.35721 -0.02524
# Poissons Ratio (z) = 0.46577 -0.02657
#
# Static dielectric constant tensor:
#      x y z
#    x 3.950300 0.099770 0.059190 
#    y 0.099770 4.263780 -0.272550 
#    z 0.059190 -0.272550 4.274730 
# 
# 
# High freq. dielectric constant tensor:
#      x y z
#    x 1.881910 -0.001850 -0.021800 
#    y -0.001850 1.908000 -0.017530 
#    z -0.021800 -0.017530 1.883580 
# 
# From -- ./inp_files/245134.got.cif
#   From: 2010.06.25/outbox.cif.g09.slc.cpg/sg2_123_cif.got.tgz:245134.got - 2010.06.27 13:26:56.
