data_PCOD8007716
_publ_section_title
;
Structure prediction by ZEFSAII (Michael W. Deem and Ramdas Pophale) SiO2 
 PCOD8007716
Probable space group: P -1
;
_chemical_formula_sum "Si O2"
_cell_formula_units_Z 14
_cell_length_a 22.185823
_cell_length_b 13.765125
_cell_length_c 11.243872
_cell_angle_alpha 30.153928
_cell_angle_beta 32.232687
_cell_angle_gamma 22.294716
_cell_volume 635.143746
_symmetry_space_group_name_H-M "P -1"
_symmetry_group_IT_number 2
_symmetry_cell_setting 'triclinic'
loop_
_space_group_symop_operation_xyz
x,y,z
-x,-y,-z
loop_
_atom_site_type_symbol
_atom_site_label
_atom_site_fract_x
_atom_site_fract_y
_atom_site_fract_z
Si Si1 0.373086 0.325808 0.394089
Si Si2 0.494459 0.331857 0.427319
Si Si3 0.222810 0.762665 0.982171
Si Si4 0.859233 0.269674 0.097912
Si Si5 0.718307 0.691422 0.077889
Si Si6 0.754224 0.098310 0.636038
Si Si7 0.929661 0.379709 0.267363
O O1 0.442314 0.370506 0.337139
O O2 0.344660 0.493832 0.148870
O O3 0.199682 0.447403 0.591995
O O4 0.500000 0.000000 0.500000
O O5 0.459410 0.183053 0.724971
O O6 0.400895 0.632727 0.318987
O O7 0.686013 0.152050 0.300355
O O8 0.182014 0.676224 0.029730
O O9 0.054999 0.030082 0.044680
O O10 0.778327 0.560880 0.984147
O O11 0.778386 0.178785 0.386396
O O12 0.840012 0.423811 0.248883
O O13 0.719587 0.917458 0.855526
O O14 0.915409 0.941395 0.613683
O O15 0.000000 0.500000 0.000000
#
# Coordination Sequence:
#
# PCOD8007716 Si02
#       7
#     2   2   2   2   2   2   2
#     4  11  24  41  65  97 128 165 208 262 325 371
#     4  10  24  39  65  95 125 165 208 270 319 361
#     4  11  24  44  61  92 139 165 206 261 317 389
#     4  10  23  44  65  91 127 176 210 253 316 378
#     4   9  21  39  65  95 122 168 218 259 309 368
#     4  10  20  41  67  93 126 166 219 259 311 366
#     4   9  19  35  64  92 122 158 212 264 298 369
#
# _framework density 22.042255000000001
#
# number of rings (size 3 to 8) (size 9 to 14) (size 15 to 20)
#    0.000    2.000    1.429    0.429    8.000    6.286 
#    2.571    2.857    0.000    0.000    0.000    0.000 
#    0.000    0.000    0.000    0.000    0.000    0.000 
#
# Total GULP energy -173563.069284 kJ/mol
# GULP energy per Si atom -12397.362092 kJ/mol
# Density = 2.199209 g / cm^3
# Si number density = 22.042255 Si / 1000 Ang^3
#
#
#
# Elastic Constant Matrix: (Units=GPa)
#
#
# Indices 1 2 3 4 5 6 
#
# 1 80.1510 37.1576 24.1773 6.7641 -3.6839 21.6078
# 2 37.1576 90.0585 56.5438 14.7123 -11.2761 12.6995
# 3 24.1773 56.5438 85.7037 18.9904 -22.9508 16.4655
# 4 6.7641 14.7123 18.9904 35.0210 1.2969 -4.8998
# 5 -3.6839 -11.2761 -22.9508 1.2969 34.6230 2.6020
# 6 21.6078 12.6995 16.4655 -4.8998 2.6020 27.9058
#
#
#
# Elastic Compliance Matrix: (Units=1/GPa)
#
#
# Indices 1 2 3 4 5 6 
#
# 1 0.019380 -0.007316 0.004821 -0.005669 0.004283 -0.015916
# 2 -0.007316 0.021964 -0.014477 0.000827 -0.003605 0.004693
# 3 0.004821 -0.014477 0.032882 -0.016389 0.019807 -0.021270
# 4 -0.005669 0.000827 -0.016389 0.041855 -0.014448 0.022380
# 5 0.004283 -0.003605 0.019807 -0.014448 0.043333 -0.019940
# 6 -0.015916 0.004693 -0.021270 0.022380 -0.019940 0.064362
#
#
# Mechanical properties :
#
#
# Convention : Reuss Voigt Hill
#
# Bulk Modulus (GPa) = 24.82588 54.63006 39.72797
# Shear Modulus (GPa) = 18.44008 28.71225 23.57616
#
# Velocity S-wave (km/s) = 2.89550 3.61307 3.27401
# Velocity P-wave (km/s) = 4.73982 6.49952 5.68813
#
# Compressibility (1/GPa) = 0.04028055
#
# Stress axis : x y z
#
# Youngs Moduli (GPa) = 51.59960 45.52949 30.41191
#
# Poissons Ratio (x) = 0.33309 -0.14660
# Poissons Ratio (y) = 0.37750 0.44028
# Poissons Ratio (z) = -0.24874 0.65914
#
# Static dielectric constant tensor:
#      x y z
#    x 4.270000 -0.355740 0.060070 
#    y -0.355740 4.350130 0.299910 
#    z 0.060070 0.299910 3.964710 
# 
# 
# High freq. dielectric constant tensor:
#      x y z
#    x 1.868640 -0.000570 -0.000480 
#    y -0.000570 1.860190 0.019460 
#    z -0.000480 0.019460 1.870870 
# 
# From -- ./inp_files/281637.got.cif
#   From: 2010.06.25/outbox.cif.g09.slc.cpg/sg2_141_cif.got.tgz:281637.got - 2010.06.27 13:26:56.
