data_PCOD8007234
_publ_section_title
;
Structure prediction by ZEFSAII (Michael W. Deem and Ramdas Pophale) SiO2 
 PCOD8007234
Probable space group: P -1
;
_chemical_formula_sum "Si O2"
_cell_formula_units_Z 16
_cell_length_a 8.749404
_cell_length_b 13.796250
_cell_length_c 8.692096
_cell_angle_alpha 115.992688
_cell_angle_beta 43.260820
_cell_angle_gamma 101.988599
_cell_volume 635.651907
_symmetry_space_group_name_H-M "P -1"
_symmetry_group_IT_number 2
_symmetry_cell_setting 'triclinic'
loop_
_space_group_symop_operation_xyz
x,y,z
-x,-y,-z
loop_
_atom_site_type_symbol
_atom_site_label
_atom_site_fract_x
_atom_site_fract_y
_atom_site_fract_z
Si Si1 0.873163 0.054025 0.283609
Si Si2 0.349373 0.962192 0.859024
Si Si3 0.839565 0.414152 0.535939
Si Si4 0.900578 0.778322 0.956354
Si Si5 0.725253 0.757741 0.396518
Si Si6 0.408949 0.474354 0.713589
Si Si7 0.544925 0.163647 0.850945
Si Si8 0.839815 0.321698 0.807102
O O1 0.693942 0.004245 0.270363
O O2 0.751838 0.123168 0.556904
O O3 0.969278 0.130262 0.141059
O O4 0.098010 0.970860 0.126646
O O5 0.505085 0.842664 0.676984
O O6 0.479710 0.054873 0.902840
O O7 0.593600 0.478643 0.713939
O O8 0.823324 0.345142 0.654105
O O9 0.000000 0.500000 0.500000
O O10 0.931576 0.337143 0.270185
O O11 0.840088 0.805196 0.198025
O O12 0.673224 0.767473 0.023123
O O13 0.658481 0.643995 0.317275
O O14 0.905515 0.741495 0.391449
O O15 0.500000 0.500000 0.500000
O O16 0.199673 0.568800 0.983115
O O17 0.652607 0.246128 0.939973
#
# Coordination Sequence:
#
# PCOD8007234 Si02
#       8
#     2   2   2   2   2   2   2   2
#     4  10  20  40  69 104 137 184 241 281 341 411
#     4  10  23  38  70 103 139 187 231 289 338 418
#     4  12  23  42  71 102 136 182 233 288 354 409
#     4  11  22  40  71 102 137 182 232 288 339 416
#     4  12  25  44  68 104 140 184 238 285 347 416
#     4  12  26  49  73 101 139 184 236 289 349 419
#     4  11  22  43  68 103 144 180 237 285 346 411
#     4  12  26  45  69 101 146 179 229 294 351 415
#
# _framework density 25.171008
#
# number of rings (size 3 to 8) (size 9 to 14) (size 15 to 20)
#    0.000    0.750    2.500    5.625    3.500    0.500 
#    0.000    0.625    0.000    0.000    0.000    0.000 
#    0.000    0.000    0.000    0.000    0.000    0.000 
#
# Total GULP energy -198337.739671 kJ/mol
# GULP energy per Si atom -12396.108729 kJ/mol
# Density = 2.511372 g / cm^3
# Si number density = 25.171008 Si / 1000 Ang^3
#
#
#
# Elastic Constant Matrix: (Units=GPa)
#
#
# Indices 1 2 3 4 5 6 
#
# 1 92.6682 27.2567 -14.8638 -5.8105 -24.8985 -0.5514
# 2 27.2567 93.4444 9.6526 11.8942 -15.0276 20.9921
# 3 -14.8638 9.6526 70.6747 8.1871 -12.1696 -17.4576
# 4 -5.8105 11.8942 8.1871 43.8907 -4.0030 -1.1274
# 5 -24.8985 -15.0276 -12.1696 -4.0030 38.9017 -1.8861
# 6 -0.5514 20.9921 -17.4576 -1.1274 -1.8861 49.2845
#
#
#
# Elastic Compliance Matrix: (Units=1/GPa)
#
#
# Indices 1 2 3 4 5 6 
#
# 1 0.017005 -0.005579 0.007337 0.003605 0.011671 0.005695
# 2 -0.005579 0.015234 -0.004842 -0.004182 -0.000036 -0.008363
# 3 0.007337 -0.004842 0.020474 -0.000404 0.009662 0.009757
# 4 0.003605 -0.004182 -0.000404 0.024826 0.003235 0.002370
# 5 0.011671 -0.000036 0.009662 0.003235 0.036762 0.005049
# 6 0.005695 -0.008363 0.009757 0.002370 0.005049 0.027620
#
#
# Mechanical properties :
#
#
# Convention : Reuss Voigt Hill
#
# Bulk Modulus (GPa) = 21.48449 33.43093 27.45771
# Shear Modulus (GPa) = 30.56150 42.06482 36.31316
#
# Velocity S-wave (km/s) = 3.48825 4.09242 3.80235
# Velocity P-wave (km/s) = 4.97773 5.97000 5.49630
#
# Compressibility (1/GPa) = 0.04654521
#
# Stress axis : x y z
#
# Youngs Moduli (GPa) = 58.80718 65.64087 48.84151
#
# Poissons Ratio (x) = 0.36623 -0.35835
# Poissons Ratio (y) = 0.32810 0.23648
# Poissons Ratio (z) = -0.43146 0.31782
#
# Static dielectric constant tensor:
#      x y z
#    x 4.483350 0.097800 -0.321120 
#    y 0.097800 4.746930 0.217730 
#    z -0.321120 0.217730 4.855230 
# 
# 
# High freq. dielectric constant tensor:
#      x y z
#    x 1.997330 0.017020 -0.021420 
#    y 0.017020 2.010790 0.015950 
#    z -0.021420 0.015950 2.010960 
# 
# From -- ./inp_files/208102.got.cif
#   From: 2010.06.25/outbox.cif.g09.slc.cpg/sg2_105_cif.got.tgz:208102.got - 2010.06.27 13:26:56.
