data_PCOD8007269
_publ_section_title
;
Structure prediction by ZEFSAII (Michael W. Deem and Ramdas Pophale) SiO2 
 PCOD8007269
Probable space group: P -1
;
_chemical_formula_sum "Si O2"
_cell_formula_units_Z 14
_cell_length_a 16.480215
_cell_length_b 8.449441
_cell_length_c 9.388501
_cell_angle_alpha 61.480666
_cell_angle_beta 62.799328
_cell_angle_gamma 33.140272
_cell_volume 623.495819
_symmetry_space_group_name_H-M "P -1"
_symmetry_group_IT_number 2
_symmetry_cell_setting 'triclinic'
loop_
_space_group_symop_operation_xyz
x,y,z
-x,-y,-z
loop_
_atom_site_type_symbol
_atom_site_label
_atom_site_fract_x
_atom_site_fract_y
_atom_site_fract_z
Si Si1 0.074912 0.225372 0.640379
Si Si2 0.576453 0.583271 0.734988
Si Si3 0.077746 0.228874 0.959632
Si Si4 0.363943 0.893100 0.007379
Si Si5 0.863312 0.247109 0.783890
Si Si6 0.352153 0.171129 0.129272
Si Si7 0.406499 0.812373 0.495147
O O1 0.024377 0.326623 0.799682
O O2 0.000000 0.500000 0.500000
O O3 0.000036 0.161346 0.663495
O O4 0.251584 0.959098 0.597670
O O5 0.569839 0.376424 0.838492
O O6 0.747375 0.390856 0.683980
O O7 0.490088 0.775484 0.578326
O O8 0.495505 0.787832 0.856141
O O9 0.000000 0.500000 0.000000
O O10 0.254638 0.988290 0.932832
O O11 0.051621 0.066456 0.103196
O O12 0.278032 0.156478 0.075002
O O13 0.766589 0.485783 0.889156
O O14 0.387276 0.002816 0.315980
O O15 0.500000 0.000000 0.000000
O O16 0.500000 0.500000 0.500000
#
# Coordination Sequence:
#
# PCOD8007269 Si02
#       7
#     2   2   2   2   2   2   2
#     4  12  26  48  71 107 152 190 240 304 371 432
#     4  10  21  43  71 103 138 188 241 297 349 427
#     4  11  25  46  74 100 141 199 248 293 365 437
#     4  10  20  40  70 101 141 183 240 296 354 422
#     4  11  25  46  74 104 148 187 246 302 364 434
#     4  12  24  42  73 109 146 185 245 300 372 430
#     4  12  26  46  76 106 148 196 243 300 367 430
#
# _framework density 22.454039000000002
#
# number of rings (size 3 to 8) (size 9 to 14) (size 15 to 20)
#    0.000    0.857    5.714    1.286    2.000    0.571 
#    2.571    1.429    0.000    0.000    0.000    0.000 
#    0.000    0.000    0.000    0.000    0.000    0.000 
#
# Total GULP energy -173540.593195 kJ/mol
# GULP energy per Si atom -12395.756657 kJ/mol
# Density = 2.240293 g / cm^3
# Si number density = 22.454039 Si / 1000 Ang^3
#
#
#
# Elastic Constant Matrix: (Units=GPa)
#
#
# Indices 1 2 3 4 5 6 
#
# 1 131.8550 43.8235 79.4602 -6.0745 0.2597 -13.4341
# 2 43.8235 114.8989 36.3830 -1.4219 -7.9365 19.7895
# 3 79.4602 36.3830 119.0386 -13.2281 -2.7026 -5.0642
# 4 -6.0745 -1.4219 -13.2281 32.3651 -3.9485 -3.4756
# 5 0.2597 -7.9365 -2.7026 -3.9485 39.4370 0.1413
# 6 -13.4341 19.7895 -5.0642 -3.4756 0.1413 45.9615
#
#
#
# Elastic Compliance Matrix: (Units=1/GPa)
#
#
# Indices 1 2 3 4 5 6 
#
# 1 0.014303 -0.003781 -0.008277 -0.000525 -0.001492 0.004862
# 2 -0.003781 0.011860 -0.001461 -0.001210 0.002214 -0.006471
# 3 -0.008277 -0.001461 0.014927 0.004657 0.001249 0.000203
# 4 -0.000525 -0.001210 0.004657 0.033431 0.003414 0.003399
# 5 -0.001492 0.002214 0.001249 0.003414 0.026243 -0.001074
# 6 0.004862 -0.006471 0.000203 0.003399 -0.001074 0.026247
#
#
# Mechanical properties :
#
#
# Convention : Reuss Voigt Hill
#
# Bulk Modulus (GPa) = 71.16281 76.12512 73.64396
# Shear Modulus (GPa) = 31.49931 37.29445 34.39688
#
# Velocity S-wave (km/s) = 3.74951 4.07986 3.91817
# Velocity P-wave (km/s) = 7.10679 7.49466 7.30330
#
# Compressibility (1/GPa) = 0.01405228
#
# Stress axis : x y z
#
# Youngs Moduli (GPa) = 69.91533 84.31359 66.99406
#
# Poissons Ratio (x) = 0.31881 0.55452
# Poissons Ratio (y) = 0.26437 0.09785
# Poissons Ratio (z) = 0.57870 0.12315
#
# Static dielectric constant tensor:
#      x y z
#    x 4.532310 0.001320 0.271860 
#    y 0.001320 4.023260 -0.064680 
#    z 0.271860 -0.064680 3.915220 
# 
# 
# High freq. dielectric constant tensor:
#      x y z
#    x 1.909390 -0.006840 0.003870 
#    y -0.006840 1.886150 -0.004760 
#    z 0.003870 -0.004760 1.868350 
# 
# From -- ./inp_files/185373.got.cif
#   From: 2010.06.25/outbox.cif.g09.slc.cpg/sg2_93_cif.got.tgz:185373.got - 2010.06.27 13:26:56.
