data_PCOD8007033
_publ_section_title
;
Structure prediction by ZEFSAII (Michael W. Deem and Ramdas Pophale) SiO2 
 PCOD8007033
Probable space group: P -1
;
_chemical_formula_sum "Si O2"
_cell_formula_units_Z 14
_cell_length_a 8.634498
_cell_length_b 11.885377
_cell_length_c 15.748990
_cell_angle_alpha 156.519222
_cell_angle_beta 113.406014
_cell_angle_gamma 74.530106
_cell_volume 569.532372
_symmetry_space_group_name_H-M "P -1"
_symmetry_group_IT_number 2
_symmetry_cell_setting 'triclinic'
loop_
_space_group_symop_operation_xyz
x,y,z
-x,-y,-z
loop_
_atom_site_type_symbol
_atom_site_label
_atom_site_fract_x
_atom_site_fract_y
_atom_site_fract_z
Si Si1 0.578278 0.666158 0.859643
Si Si2 0.012590 0.340006 0.266076
Si Si3 0.044874 0.265174 0.037554
Si Si4 0.141194 0.280174 0.758777
Si Si5 0.378141 0.213285 0.626214
Si Si6 0.989765 0.946146 0.642794
Si Si7 0.711367 0.324436 0.318872
O O1 0.750913 0.554239 0.798608
O O2 0.481885 0.520867 0.822347
O O3 0.447056 0.571691 0.685760
O O4 0.630191 0.013064 0.130705
O O5 0.004567 0.128582 0.031958
O O6 0.189223 0.423831 0.419344
O O7 0.836505 0.262061 0.228058
O O8 0.019697 0.629952 0.409044
O O9 0.913438 0.432804 0.084086
O O10 0.015521 0.977663 0.772083
O O11 0.328489 0.282867 0.760195
O O12 0.131745 0.221016 0.817721
O O13 0.000000 0.000000 0.500000
O O14 0.500000 0.000000 0.500000
O O15 0.205643 0.054437 0.425824
#
# Coordination Sequence:
#
# PCOD8007033 Si02
#       7
#     2   2   2   2   2   2   2
#     4  11  22  40  67 102 133 169 222 278 330 383
#     4  11  22  45  69  91 132 181 223 270 327 393
#     4  12  23  40  70  98 130 178 224 265 333 401
#     4  10  20  40  66  94 131 174 215 270 328 395
#     4  11  23  43  70 100 137 170 220 279 334 392
#     4  11  22  43  66  98 132 175 223 265 329 404
#     4  10  23  44  67  95 136 175 223 280 322 388
#
# _framework density 24.581569999999999
#
# number of rings (size 3 to 8) (size 9 to 14) (size 15 to 20)
#    0.000    1.143    5.714    2.143    0.000    1.143 
#    0.000    8.571    0.000    0.000    0.000    0.000 
#    0.000    0.000    0.000    0.000    0.000    0.000 
#
# Total GULP energy -173558.551060 kJ/mol
# GULP energy per Si atom -12397.039361 kJ/mol
# Density = 2.452562 g / cm^3
# Si number density = 24.581570 Si / 1000 Ang^3
#
#
#
# Elastic Constant Matrix: (Units=GPa)
#
#
# Indices 1 2 3 4 5 6 
#
# 1 153.3399 57.1442 26.6057 -8.8151 6.4442 8.9863
# 2 57.1442 120.0150 23.7129 -2.0322 5.1809 33.8360
# 3 26.6057 23.7129 78.3631 -26.6001 4.0524 13.0527
# 4 -8.8151 -2.0322 -26.6001 42.6794 4.0355 5.7283
# 5 6.4442 5.1809 4.0524 4.0355 32.6234 0.4528
# 6 8.9863 33.8360 13.0527 5.7283 0.4528 60.3539
#
#
#
# Elastic Compliance Matrix: (Units=1/GPa)
#
#
# Indices 1 2 3 4 5 6 
#
# 1 0.008254 -0.003926 -0.001651 0.000397 -0.000869 0.001298
# 2 -0.003926 0.012179 -0.001399 -0.000227 -0.000875 -0.005912
# 3 -0.001651 -0.001399 0.018715 0.012117 -0.003218 -0.004143
# 4 0.000397 -0.000227 0.012117 0.032319 -0.005468 -0.005579
# 5 -0.000869 -0.000875 -0.003218 -0.005468 0.032017 0.001594
# 6 0.001298 -0.005912 -0.004143 -0.005579 0.001594 0.021104
#
#
# Mechanical properties :
#
#
# Convention : Reuss Voigt Hill
#
# Bulk Modulus (GPa) = 39.69000 62.96041 51.32520
# Shear Modulus (GPa) = 34.02788 43.41501 38.72144
#
# Velocity S-wave (km/s) = 3.72463 4.20713 3.97321
# Velocity P-wave (km/s) = 5.88884 7.01914 6.47869
#
# Compressibility (1/GPa) = 0.02519526
#
# Stress axis : x y z
#
# Youngs Moduli (GPa) = 121.15152 82.11016 53.43449
#
# Poissons Ratio (x) = 0.32233 0.08822
# Poissons Ratio (y) = 0.47559 0.07478
# Poissons Ratio (z) = 0.20002 0.11491
#
# Static dielectric constant tensor:
#      x y z
#    x 4.732730 0.620770 0.143480 
#    y 0.620770 6.715170 0.421090 
#    z 0.143480 0.421090 4.423180 
# 
# 
# High freq. dielectric constant tensor:
#      x y z
#    x 1.971660 0.004970 0.002690 
#    y 0.004970 2.014380 0.011000 
#    z 0.002690 0.011000 1.965450 
# 
# From -- ./inp_files/382630.got.cif
#   From: 2010.06.25/outbox.cif.g09.slc.cpg/sg2_192_cif.got.tgz:382630.got - 2010.06.27 13:26:56.
