data_PCOD8007007
_publ_section_title
;
Structure prediction by ZEFSAII (Michael W. Deem and Ramdas Pophale) SiO2 
 PCOD8007007
Probable space group: P -1
;
_chemical_formula_sum "Si O2"
_cell_formula_units_Z 16
_cell_length_a 7.936752
_cell_length_b 11.256216
_cell_length_c 20.992805
_cell_angle_alpha 136.721707
_cell_angle_beta 35.103354
_cell_angle_gamma 125.791824
_cell_volume 739.070541
_symmetry_space_group_name_H-M "P -1"
_symmetry_group_IT_number 2
_symmetry_cell_setting 'triclinic'
loop_
_space_group_symop_operation_xyz
x,y,z
-x,-y,-z
loop_
_atom_site_type_symbol
_atom_site_label
_atom_site_fract_x
_atom_site_fract_y
_atom_site_fract_z
Si Si1 0.487044 0.046706 0.595928
Si Si2 0.805172 0.391844 0.670345
Si Si3 0.627531 0.560524 0.550089
Si Si4 0.846309 0.042314 0.970911
Si Si5 0.775845 0.697993 0.378742
Si Si6 0.440147 0.932937 0.797277
Si Si7 0.908076 0.180800 0.792648
Si Si8 0.539643 0.272453 0.056391
O O1 0.660526 0.214750 0.626691
O O2 0.139760 0.080788 0.729630
O O3 0.500000 0.000000 0.500000
O O4 0.635356 0.880256 0.520140
O O5 0.556157 0.539745 0.815085
O O6 0.018738 0.449564 0.568989
O O7 0.980701 0.368722 0.672968
O O8 0.500000 0.500000 0.500000
O O9 0.493506 0.435161 0.596324
O O10 0.522777 0.755667 0.668973
O O11 0.194525 0.033595 0.870370
O O12 0.738252 0.852258 0.909782
O O13 0.782165 0.187452 0.994716
O O14 0.678002 0.104199 0.110428
O O15 0.918740 0.702550 0.265928
O O16 0.729730 0.045066 0.753124
O O17 0.685940 0.294130 0.949696
#
# Coordination Sequence:
#
# PCOD8007007 Si02
#       8
#     2   2   2   2   2   2   2   2
#     4  10  22  41  59  86 124 159 203 252 308 363
#     4  11  23  40  63  90 123 164 209 251 301 368
#     4  10  21  36  62  92 120 153 204 257 293 354
#     4   9  20  38  64  93 126 159 201 255 301 367
#     4  10  22  40  63  90 123 162 204 254 308 362
#     4  10  20  40  66  92 120 164 209 243 304 367
#     4  10  23  41  62  89 125 163 202 253 307 369
#     4  10  22  40  62  95 127 157 201 255 312 358
#
# _framework density 21.648812
#
# number of rings (size 3 to 8) (size 9 to 14) (size 15 to 20)
#    0.000    2.000    0.000    3.375    0.000   10.000 
#    0.000    3.750    0.000    0.000    0.000    0.000 
#    0.000    0.000    0.000    0.000    0.000    0.000 
#
# Total GULP energy -198369.647413 kJ/mol
# GULP energy per Si atom -12398.102963 kJ/mol
# Density = 2.159954 g / cm^3
# Si number density = 21.648812 Si / 1000 Ang^3
#
#
#
# Elastic Constant Matrix: (Units=GPa)
#
#
# Indices 1 2 3 4 5 6 
#
# 1 77.3760 41.3899 27.5988 -2.4008 -7.3308 3.9800
# 2 41.3899 107.2902 64.0536 -7.4986 -12.0699 -5.9953
# 3 27.5988 64.0536 119.0155 4.4134 -0.3448 1.3424
# 4 -2.4008 -7.4986 4.4134 31.3101 9.6735 -0.7103
# 5 -7.3308 -12.0699 -0.3448 9.6735 28.9071 -3.6937
# 6 3.9800 -5.9953 1.3424 -0.7103 -3.6937 29.3108
#
#
#
# Elastic Compliance Matrix: (Units=1/GPa)
#
#
# Indices 1 2 3 4 5 6 
#
# 1 0.016717 -0.006263 -0.000439 -0.000669 0.001412 -0.003369
# 2 -0.006263 0.017877 -0.008345 0.003455 0.005342 0.005646
# 3 -0.000439 -0.008345 0.013132 -0.003096 -0.002744 -0.002670
# 4 -0.000669 0.003455 -0.003096 0.036540 -0.010934 0.000447
# 5 0.001412 0.005342 -0.002744 -0.010934 0.041575 0.006001
# 6 -0.003369 0.005646 -0.002670 0.000447 0.006001 0.036619
#
#
# Mechanical properties :
#
#
# Convention : Reuss Voigt Hill
#
# Bulk Modulus (GPa) = 56.71558 63.30737 60.01148
# Shear Modulus (GPa) = 25.19764 29.28157 27.23960
#
# Velocity S-wave (km/s) = 3.41534 3.68172 3.55103
# Velocity P-wave (km/s) = 6.46588 6.88330 6.67785
#
# Compressibility (1/GPa) = 0.01763184
#
# Stress axis : x y z
#
# Youngs Moduli (GPa) = 59.81904 55.93864 76.14802
#
# Poissons Ratio (x) = 0.35035 0.03342
# Poissons Ratio (y) = 0.37466 0.63546
# Poissons Ratio (z) = 0.02625 0.46682
#
# Static dielectric constant tensor:
#      x y z
#    x 4.004570 0.086730 -0.195200 
#    y 0.086730 4.255230 -0.100540 
#    z -0.195200 -0.100540 4.206650 
# 
# 
# High freq. dielectric constant tensor:
#      x y z
#    x 1.849100 0.009650 -0.002330 
#    y 0.009650 1.841300 -0.005660 
#    z -0.002330 -0.005660 1.861410 
# 
# From -- ./inp_files/333647.got.cif
#   From: 2010.06.25/outbox.cif.g09.slc.cpg/sg2_167_cif.got.tgz:333647.got - 2010.06.27 13:26:56.
