data_PCOD8007363
_publ_section_title
;
Structure prediction by ZEFSAII (Michael W. Deem and Ramdas Pophale) SiO2 
 PCOD8007363
Probable space group: P -1
;
_chemical_formula_sum "Si O2"
_cell_formula_units_Z 12
_cell_length_a 9.492902
_cell_length_b 10.610814
_cell_length_c 13.048109
_cell_angle_alpha 35.821317
_cell_angle_beta 45.885418
_cell_angle_gamma 43.753072
_cell_volume 511.775410
_symmetry_space_group_name_H-M "P -1"
_symmetry_group_IT_number 2
_symmetry_cell_setting 'triclinic'
loop_
_space_group_symop_operation_xyz
x,y,z
-x,-y,-z
loop_
_atom_site_type_symbol
_atom_site_label
_atom_site_fract_x
_atom_site_fract_y
_atom_site_fract_z
Si Si1 0.123216 0.102109 0.976381
Si Si2 0.781241 0.614717 0.094787
Si Si3 0.292979 0.846572 0.750280
Si Si4 0.206820 0.846245 0.556697
Si Si5 0.345934 0.228457 0.602272
Si Si6 0.604189 0.403903 0.804146
O O1 0.872253 0.186341 0.063251
O O2 0.210185 0.823559 0.096166
O O3 0.229643 0.159974 0.985126
O O4 0.165606 0.237264 0.768133
O O5 0.766689 0.416784 0.309193
O O6 0.580287 0.687982 0.073448
O O7 0.000000 0.500000 0.000000
O O8 0.189661 0.887142 0.661872
O O9 0.503087 0.609384 0.803225
O O10 0.351249 0.063823 0.611493
O O11 0.421423 0.878877 0.389867
O O12 0.000000 0.000000 0.500000
O O13 0.306807 0.485739 0.408045
#
# Coordination Sequence:
#
# PCOD8007363 Si02
#       6
#     2   2   2   2   2   2
#     4  12  23  38  71  95 127 179 218 262 331 390
#     4  10  20  41  61  89 136 165 209 278 321 375
#     4  10  22  46  65  92 143 170 210 276 323 382
#     4  10  22  39  71  97 123 178 219 263 335 380
#     4  10  24  43  64  99 136 168 221 272 315 396
#     4  10  23  41  65  93 132 177 214 270 330 373
#
# _framework density 23.447783999999999
#
# number of rings (size 3 to 8) (size 9 to 14) (size 15 to 20)
#    0.000    2.000    3.333    3.000    2.333    6.667 
#    0.000    5.000    0.000    0.000    0.000    0.000 
#    0.000    0.000    0.000    0.000    0.000    0.000 
#
# Total GULP energy -148696.721224 kJ/mol
# GULP energy per Si atom -12391.393435 kJ/mol
# Density = 2.339442 g / cm^3
# Si number density = 23.447784 Si / 1000 Ang^3
#
#
#
# Elastic Constant Matrix: (Units=GPa)
#
#
# Indices 1 2 3 4 5 6 
#
# 1 41.7214 6.0387 13.2458 -5.6325 -13.5336 15.7288
# 2 6.0387 100.9520 43.9809 6.4985 2.8023 0.8030
# 3 13.2458 43.9809 115.3769 14.5171 -6.3048 -10.1628
# 4 -5.6325 6.4985 14.5171 35.4341 8.3421 -10.3786
# 5 -13.5336 2.8023 -6.3048 8.3421 29.0948 -8.1240
# 6 15.7288 0.8030 -10.1628 -10.3786 -8.1240 31.4244
#
#
#
# Elastic Compliance Matrix: (Units=1/GPa)
#
#
# Indices 1 2 3 4 5 6 
#
# 1 0.035203 -0.000172 -0.004871 0.000327 0.010685 -0.016320
# 2 -0.000172 0.012222 -0.005005 -0.000307 -0.003015 -0.002726
# 3 -0.004871 -0.005005 0.012394 -0.004001 0.003789 0.006233
# 4 0.000327 -0.000307 -0.004001 0.034183 -0.008341 0.007684
# 5 0.010685 -0.003015 0.003789 -0.008341 0.044130 0.004609
# 6 -0.016320 -0.002726 0.006233 0.007684 0.004609 0.045806
#
#
# Mechanical properties :
#
#
# Convention : Reuss Voigt Hill
#
# Bulk Modulus (GPa) = 25.17459 42.73124 33.95291
# Shear Modulus (GPa) = 23.01247 32.17633 27.59440
#
# Velocity S-wave (km/s) = 3.13618 3.70841 3.43424
# Velocity P-wave (km/s) = 4.88610 6.04979 5.49882
#
# Compressibility (1/GPa) = 0.03972260
#
# Stress axis : x y z
#
# Youngs Moduli (GPa) = 28.40704 81.82137 80.68477
#
# Poissons Ratio (x) = 0.01403 0.39300
# Poissons Ratio (y) = 0.00487 0.40386
# Poissons Ratio (z) = 0.13837 0.40955
#
# Static dielectric constant tensor:
#      x y z
#    x 4.206110 0.153750 -0.543850 
#    y 0.153750 4.214770 0.006320 
#    z -0.543850 0.006320 4.330460 
# 
# 
# High freq. dielectric constant tensor:
#      x y z
#    x 1.919780 0.007360 -0.034580 
#    y 0.007360 1.920940 0.008090 
#    z -0.034580 0.008090 1.930830 
# 
# From -- ./inp_files/422677.got.cif
#   From: 2010.06.25/outbox.cif.g09.slc.cpg/sg2_212_cif.got.tgz:422677.got - 2010.06.27 13:26:56.
