data_PCOD8007864
_publ_section_title
;
Structure prediction by ZEFSAII (Michael W. Deem and Ramdas Pophale) SiO2 
 PCOD8007864
Probable space group: P -1
;
_chemical_formula_sum "Si O2"
_cell_formula_units_Z 16
_cell_length_a 7.764515
_cell_length_b 12.639662
_cell_length_c 9.320010
_cell_angle_alpha 51.069511
_cell_angle_beta 83.230517
_cell_angle_gamma 85.307370
_cell_volume 706.536790
_symmetry_space_group_name_H-M "P -1"
_symmetry_group_IT_number 2
_symmetry_cell_setting 'triclinic'
loop_
_space_group_symop_operation_xyz
x,y,z
-x,-y,-z
loop_
_atom_site_type_symbol
_atom_site_label
_atom_site_fract_x
_atom_site_fract_y
_atom_site_fract_z
Si Si1 0.563253 0.652035 0.886161
Si Si2 0.888479 0.438483 0.439755
Si Si3 0.806917 0.224812 0.146686
Si Si4 0.065344 0.296236 0.302130
Si Si5 0.375097 0.334560 0.811584
Si Si6 0.734425 0.243312 0.820943
Si Si7 0.956467 0.957911 0.283964
Si Si8 0.775048 0.941284 0.024402
O O1 0.389388 0.744057 0.804302
O O2 0.724619 0.690705 0.734060
O O3 0.500000 0.500000 0.000000
O O4 0.656062 0.673107 0.010137
O O5 0.724256 0.537039 0.352035
O O6 0.839263 0.287413 0.631212
O O7 0.000000 0.500000 0.500000
O O8 0.994268 0.423297 0.294512
O O9 0.956589 0.298754 0.161795
O O10 0.824406 0.061357 0.288978
O O11 0.837969 0.267165 0.940415
O O12 0.012765 0.159556 0.504882
O O13 0.578111 0.352372 0.749009
O O14 0.342375 0.189548 0.864511
O O15 0.677276 0.084876 0.947817
O O16 0.898644 0.903257 0.179431
O O17 0.129430 0.041640 0.153839
#
# Coordination Sequence:
#
# PCOD8007864 Si02
#       8
#     2   2   2   2   2   2   2   2
#     4  11  27  46  67  98 140 185 230 278 343 412
#     4  12  27  42  68 102 134 180 231 281 343 407
#     4  10  24  44  72  98 136 181 226 281 341 410
#     4  12  25  45  71 101 136 184 228 282 343 406
#     4  11  24  42  70  99 135 182 227 284 341 409
#     4  10  23  46  68 100 139 176 230 287 339 404
#     4  10  21  40  70 101 138 174 226 286 338 408
#     4  10  20  41  70 103 136 176 225 279 354 397
#
# _framework density 22.645669999999999
#
# number of rings (size 3 to 8) (size 9 to 14) (size 15 to 20)
#    0.000    1.250    1.250    3.375    8.750    1.500 
#    6.750    1.250    0.000    0.000    0.000    0.000 
#    0.000    0.000    0.000    0.000    0.000    0.000 
#
# Total GULP energy -198255.021515 kJ/mol
# GULP energy per Si atom -12390.938845 kJ/mol
# Density = 2.259413 g / cm^3
# Si number density = 22.645670 Si / 1000 Ang^3
#
#
#
# Elastic Constant Matrix: (Units=GPa)
#
#
# Indices 1 2 3 4 5 6 
#
# 1 91.2732 34.2467 41.6623 7.1339 14.2200 -13.7142
# 2 34.2467 127.5224 36.0593 7.1784 7.1529 -1.8802
# 3 41.6623 36.0593 83.4351 0.4002 5.3786 -6.6862
# 4 7.1339 7.1784 0.4002 28.8342 -7.0735 1.9935
# 5 14.2200 7.1529 5.3786 -7.0735 34.2629 -2.7350
# 6 -13.7142 -1.8802 -6.6862 1.9935 -2.7350 40.7306
#
#
#
# Elastic Compliance Matrix: (Units=1/GPa)
#
#
# Indices 1 2 3 4 5 6 
#
# 1 0.016822 -0.001867 -0.006816 -0.005446 -0.006303 0.004302
# 2 -0.001867 0.009391 -0.003095 -0.002076 -0.001183 -0.000681
# 3 -0.006816 -0.003095 0.016644 0.002553 0.001410 0.000264
# 4 -0.005446 -0.002076 0.002553 0.039194 0.010165 -0.002746
# 5 -0.006303 -0.001183 0.001410 0.010165 0.033913 -0.000166
# 6 0.004302 -0.000681 0.000264 -0.002746 -0.000166 0.026135
#
#
# Mechanical properties :
#
#
# Convention : Reuss Voigt Hill
#
# Bulk Modulus (GPa) = 51.80684 58.46302 55.13493
# Shear Modulus (GPa) = 29.05487 33.44972 31.25229
#
# Velocity S-wave (km/s) = 3.58581 3.84746 3.71894
# Velocity P-wave (km/s) = 6.33016 6.75350 6.54525
#
# Compressibility (1/GPa) = 0.01930247
#
# Stress axis : x y z
#
# Youngs Moduli (GPa) = 59.44723 106.47973 60.08047
#
# Poissons Ratio (x) = 0.19877 0.40949
# Poissons Ratio (y) = 0.11097 0.18595
# Poissons Ratio (z) = 0.40518 0.32956
#
# Static dielectric constant tensor:
#      x y z
#    x 4.079300 -0.256950 0.083010 
#    y -0.256950 4.226930 0.157640 
#    z 0.083010 0.157640 4.245540 
# 
# 
# High freq. dielectric constant tensor:
#      x y z
#    x 1.889260 -0.016920 0.012420 
#    y -0.016920 1.910400 -0.000540 
#    z 0.012420 -0.000540 1.882880 
# 
# From -- ./inp_files/184243.got.cif
#   From: 2010.06.25/outbox.cif.g09.slc.cpg/sg2_93_cif.got.tgz:184243.got - 2010.06.27 13:26:56.
