data_PCOD8007116
_publ_section_title
;
Structure prediction by ZEFSAII (Michael W. Deem and Ramdas Pophale) SiO2 
 PCOD8007116
Probable space group: P -1
;
_chemical_formula_sum "Si O2"
_cell_formula_units_Z 16
_cell_length_a 20.263443
_cell_length_b 9.410987
_cell_length_c 9.916231
_cell_angle_alpha 44.878512
_cell_angle_beta 134.670049
_cell_angle_gamma 144.886832
_cell_volume 731.168977
_symmetry_space_group_name_H-M "P -1"
_symmetry_group_IT_number 2
_symmetry_cell_setting 'triclinic'
loop_
_space_group_symop_operation_xyz
x,y,z
-x,-y,-z
loop_
_atom_site_type_symbol
_atom_site_label
_atom_site_fract_x
_atom_site_fract_y
_atom_site_fract_z
Si Si1 0.983555 0.007655 0.312823
Si Si2 0.106615 0.725952 0.093766
Si Si3 0.772339 0.441925 0.762473
Si Si4 0.408474 0.859793 0.840238
Si Si5 0.734619 0.128049 0.168368
Si Si6 0.483402 0.808208 0.493282
Si Si7 0.499302 0.575271 0.100372
Si Si8 0.001739 0.594469 0.584226
O O1 0.110021 0.257320 0.266651
O O2 0.943706 0.734438 0.386800
O O3 0.000000 0.000000 0.500000
O O4 0.879732 0.020167 0.102155
O O5 0.219799 0.742447 0.203782
O O6 0.074473 0.648438 0.257151
O O7 0.000000 0.500000 0.000000
O O8 0.660059 0.422302 0.570543
O O9 0.746944 0.333499 0.949070
O O10 0.288840 0.804745 0.761882
O O11 0.454871 0.045933 0.654361
O O12 0.398069 0.609501 0.951888
O O13 0.500000 0.000000 0.000000
O O14 0.861114 0.185165 0.315149
O O15 0.630095 0.836716 0.159473
O O16 0.540581 0.672008 0.703171
O O17 0.500000 0.000000 0.500000
O O18 0.500000 0.500000 0.000000
O O19 0.000000 0.500000 0.500000
#
# Coordination Sequence:
#
# PCOD8007116 Si02
#       8
#     2   2   2   2   2   2   2   2
#     4  11  20  41  71  94 121 173 222 271 329 386
#     4  10  20  40  67  93 125 165 225 269 316 389
#     4  11  20  40  71  91 126 174 223 263 330 384
#     4  10  22  42  63  94 136 168 218 266 329 387
#     4  11  22  44  66  93 137 179 211 274 335 385
#     4  12  23  40  66  99 132 169 218 268 323 395
#     4  11  22  43  70  97 130 171 218 275 324 385
#     4  12  25  43  62  98 135 170 217 277 327 388
#
# _framework density 21.882766
#
# number of rings (size 3 to 8) (size 9 to 14) (size 15 to 20)
#    0.000    1.000    8.750    0.750    0.000    3.500 
#    2.250    1.250    0.000    0.000    0.000    0.000 
#    0.000    0.000    0.000    0.000    0.000    0.000 
#
# Total GULP energy -198289.209022 kJ/mol
# GULP energy per Si atom -12393.075564 kJ/mol
# Density = 2.183296 g / cm^3
# Si number density = 21.882766 Si / 1000 Ang^3
#
#
#
# Elastic Constant Matrix: (Units=GPa)
#
#
# Indices 1 2 3 4 5 6 
#
# 1 124.7773 11.5323 58.9718 -10.8890 -12.7493 -24.8587
# 2 11.5323 45.4460 24.0710 -10.9322 -7.5745 -20.5596
# 3 58.9718 24.0710 164.9989 -32.6783 -13.3948 -24.1516
# 4 -10.8890 -10.9322 -32.6783 31.9614 -7.7774 2.0489
# 5 -12.7493 -7.5745 -13.3948 -7.7774 52.0652 -0.8750
# 6 -24.8587 -20.5596 -24.1516 2.0489 -0.8750 40.3360
#
#
#
# Elastic Compliance Matrix: (Units=1/GPa)
#
#
# Indices 1 2 3 4 5 6 
#
# 1 0.010741 0.002441 -0.002661 0.002034 0.002709 0.006226
# 2 0.002441 0.034251 0.000153 0.013446 0.007940 0.018543
# 3 -0.002661 0.000153 0.009748 0.009691 0.003391 0.003856
# 4 0.002034 0.013446 0.009691 0.048762 0.012428 0.011702
# 5 0.002709 0.007940 0.003391 0.012428 0.023882 0.007634
# 6 0.006226 0.018543 0.003856 0.011702 0.007634 0.039960
#
#
# Mechanical properties :
#
#
# Convention : Reuss Voigt Hill
#
# Bulk Modulus (GPa) = 18.31305 58.26358 38.28832
# Shear Modulus (GPa) = 26.92795 40.91568 33.92182
#
# Velocity S-wave (km/s) = 3.51173 4.32877 3.94148
# Velocity P-wave (km/s) = 4.98296 7.18801 6.18455
#
# Compressibility (1/GPa) = 0.05460586
#
# Stress axis : x y z
#
# Youngs Moduli (GPa) = 93.10162 29.19665 102.58097
#
# Poissons Ratio (x) = -0.07128 0.27296
# Poissons Ratio (y) = -0.22728 -0.01567
# Poissons Ratio (z) = 0.24774 -0.00446
#
# Static dielectric constant tensor:
#      x y z
#    x 4.719750 0.135490 0.089630 
#    y 0.135490 3.620420 0.168820 
#    z 0.089630 0.168820 3.951980 
# 
# 
# High freq. dielectric constant tensor:
#      x y z
#    x 1.870990 -0.006280 0.000670 
#    y -0.006280 1.825760 -0.006190 
#    z 0.000670 -0.006190 1.876940 
# 
# From -- ./inp_files/293994.got.cif
#   From: 2010.06.25/outbox.cif.g09.slc.cpg/sg2_147_cif.got.tgz:293994.got - 2010.06.27 13:26:56.
