data_PCOD8007293
_publ_section_title
;
Structure prediction by ZEFSAII (Michael W. Deem and Ramdas Pophale) SiO2 
 PCOD8007293
Probable space group: P -1
;
_chemical_formula_sum "Si O2"
_cell_formula_units_Z 14
_cell_length_a 14.874547
_cell_length_b 9.410958
_cell_length_c 14.240699
_cell_angle_alpha 115.294544
_cell_angle_beta 30.740492
_cell_angle_gamma 134.073784
_cell_volume 648.302357
_symmetry_space_group_name_H-M "P -1"
_symmetry_group_IT_number 2
_symmetry_cell_setting 'triclinic'
loop_
_space_group_symop_operation_xyz
x,y,z
-x,-y,-z
loop_
_atom_site_type_symbol
_atom_site_label
_atom_site_fract_x
_atom_site_fract_y
_atom_site_fract_z
Si Si1 0.802282 0.750121 0.566246
Si Si2 0.504549 0.128702 0.647268
Si Si3 0.228816 0.339842 0.653601
Si Si4 0.244919 0.509826 0.037093
Si Si5 0.824936 0.348863 0.240482
Si Si6 0.964144 0.513804 0.429795
Si Si7 0.904484 0.919492 0.957290
O O1 0.801367 0.722086 0.446947
O O2 0.872641 0.631238 0.520796
O O3 0.533886 0.654547 0.804842
O O4 0.000000 0.000000 0.500000
O O5 0.600795 0.222264 0.482042
O O6 0.750418 0.250817 0.521119
O O7 0.288616 0.860729 0.781839
O O8 0.385096 0.213870 0.817336
O O9 0.500000 0.500000 0.500000
O O10 0.143822 0.464977 0.786392
O O11 0.056531 0.112662 0.799974
O O12 0.212687 0.621979 0.178916
O O13 0.089388 0.255314 0.132270
O O14 0.103257 0.483325 0.063872
O O15 0.000000 0.500000 0.500000
O O16 0.000000 0.000000 0.000000
#
# Coordination Sequence:
#
# PCOD8007293 Si02
#       7
#     2   2   2   2   2   2   2
#     4  12  28  51  71 106 149 188 242 310 364 433
#     4  10  20  40  70  99 142 177 238 287 357 420
#     4  12  27  44  69 110 151 188 245 304 362 424
#     4  11  23  47  76  98 145 190 241 289 369 429
#     4  10  21  42  71 103 141 185 233 299 356 428
#     4  11  26  46  72 106 142 191 246 291 356 442
#     4  12  23  41  71 105 142 190 237 295 369 433
#
# _framework density 21.594861999999999
#
# number of rings (size 3 to 8) (size 9 to 14) (size 15 to 20)
#    0.000    0.857    5.714    1.714    6.000    2.857 
#    2.571    0.000    0.000    0.000    0.000    0.000 
#    0.000    0.000    0.000    0.000    0.000    0.000 
#
# Total GULP energy -173438.930145 kJ/mol
# GULP energy per Si atom -12388.495010 kJ/mol
# Density = 2.154571 g / cm^3
# Si number density = 21.594862 Si / 1000 Ang^3
#
#
#
# Elastic Constant Matrix: (Units=GPa)
#
#
# Indices 1 2 3 4 5 6 
#
# 1 140.9239 59.6525 44.1002 -3.0928 -2.2462 -10.6666
# 2 59.6525 112.5335 37.0734 1.5058 -18.5530 -13.1417
# 3 44.1002 37.0734 112.8479 8.1720 -22.7993 -17.8142
# 4 -3.0928 1.5058 8.1720 34.9747 -6.9101 -1.6141
# 5 -2.2462 -18.5530 -22.7993 -6.9101 27.0665 5.5799
# 6 -10.6666 -13.1417 -17.8142 -1.6141 5.5799 39.9109
#
#
#
# Elastic Compliance Matrix: (Units=1/GPa)
#
#
# Indices 1 2 3 4 5 6 
#
# 1 0.010340 -0.005223 -0.003444 0.000879 -0.005461 0.000306
# 2 -0.005223 0.013345 -0.000487 0.000766 0.008154 0.001672
# 3 -0.003444 -0.000487 0.012840 -0.001318 0.009176 0.003314
# 4 0.000879 0.000766 -0.001318 0.030376 0.007219 0.000118
# 5 -0.005461 0.008154 0.009176 0.007219 0.051996 -0.001656
# 6 0.000306 0.001672 0.003314 0.000118 -0.001656 0.027404
#
#
# Mechanical properties :
#
#
# Convention : Reuss Voigt Hill
#
# Bulk Modulus (GPa) = 54.89401 71.99527 63.44464
# Shear Modulus (GPa) = 29.29451 35.42237 32.35844
#
# Velocity S-wave (km/s) = 3.68713 4.05447 3.87516
# Velocity P-wave (km/s) = 6.60316 7.43840 7.03319
#
# Compressibility (1/GPa) = 0.01821692
#
# Stress axis : x y z
#
# Youngs Moduli (GPa) = 96.71236 74.93606 77.88310
#
# Poissons Ratio (x) = 0.39139 0.26820
# Poissons Ratio (y) = 0.50513 0.03793
# Poissons Ratio (z) = 0.33305 0.03650
#
# Static dielectric constant tensor:
#      x y z
#    x 3.827140 -0.190770 -0.294450 
#    y -0.190770 3.311630 -0.373420 
#    z -0.294450 -0.373420 3.760350 
# 
# 
# High freq. dielectric constant tensor:
#      x y z
#    x 1.837500 -0.005700 -0.016310 
#    y -0.005700 1.860180 0.011600 
#    z -0.016310 0.011600 1.858980 
# 
# From -- ./inp_files/272915.got.cif
#   From: 2010.06.25/outbox.cif.g09.slc.cpg/sg2_137_cif.got.tgz:272915.got - 2010.06.27 13:26:56.
