data_PCOD8007928
_publ_section_title
;
Structure prediction by ZEFSAII (Michael W. Deem and Ramdas Pophale) SiO2 
 PCOD8007928
Probable space group: P -1
;
_chemical_formula_sum "Si O2"
_cell_formula_units_Z 16
_cell_length_a 12.528841
_cell_length_b 9.396463
_cell_length_c 9.663697
_cell_angle_alpha 67.702072
_cell_angle_beta 100.145574
_cell_angle_gamma 131.333751
_cell_volume 785.824652
_symmetry_space_group_name_H-M "P -1"
_symmetry_group_IT_number 2
_symmetry_cell_setting 'triclinic'
loop_
_space_group_symop_operation_xyz
x,y,z
-x,-y,-z
loop_
_atom_site_type_symbol
_atom_site_label
_atom_site_fract_x
_atom_site_fract_y
_atom_site_fract_z
Si Si1 0.723704 0.378946 0.113150
Si Si2 0.201166 0.813817 0.999181
Si Si3 0.954497 0.830010 0.944599
Si Si4 0.126838 0.183249 0.369244
Si Si5 0.502953 0.252857 0.887837
Si Si6 0.256002 0.627469 0.297123
Si Si7 0.608859 0.237542 0.432929
Si Si8 0.444818 0.397320 0.376964
O O1 0.701323 0.305527 0.291190
O O2 0.808746 0.323952 0.071802
O O3 0.813315 0.618135 0.047307
O O4 0.573641 0.276810 0.041851
O O5 0.188107 0.718740 0.181433
O O6 0.074355 0.814363 0.951871
O O7 0.344550 0.043584 0.929931
O O8 0.920355 0.883554 0.774302
O O9 0.000000 0.000000 0.000000
O O10 0.153475 0.387801 0.332168
O O11 0.272925 0.222901 0.411775
O O12 0.000000 0.000000 0.500000
O O13 0.589689 0.251665 0.784065
O O14 0.506596 0.438408 0.791577
O O15 0.278644 0.666786 0.450964
O O16 0.515731 0.304624 0.385118
O O17 0.500000 0.000000 0.500000
O O18 0.500000 0.500000 0.500000
#
# Coordination Sequence:
#
# PCOD8007928 Si02
#       8
#     2   2   2   2   2   2   2   2
#     4  11  24  44  67  98 137 173 220 288 331 393
#     4  11  23  44  74  92 132 180 220 268 349 399
#     4  12  28  45  67 101 136 176 230 276 330 399
#     4  11  25  44  70  97 138 181 228 268 336 403
#     4  10  20  41  72  95 126 175 227 270 336 396
#     4  10  21  44  65 101 133 174 223 275 326 410
#     4  12  25  40  69 105 136 166 229 282 334 392
#     4  11  23  43  69  97 135 177 225 274 337 395
#
# _framework density 20.360776000000001
#
# number of rings (size 3 to 8) (size 9 to 14) (size 15 to 20)
#    0.000    1.000    6.250    3.375    5.250    2.500 
#    0.000    0.625    0.000    0.000    0.000    0.000 
#    0.000    0.000    0.000    0.000    0.000    0.000 
#
# Total GULP energy -198456.857008 kJ/mol
# GULP energy per Si atom -12403.553563 kJ/mol
# Density = 2.031443 g / cm^3
# Si number density = 20.360776 Si / 1000 Ang^3
#
#
#
# Elastic Constant Matrix: (Units=GPa)
#
#
# Indices 1 2 3 4 5 6 
#
# 1 91.3506 21.4220 32.8959 9.9475 14.1675 -5.2165
# 2 21.4220 89.8799 46.8214 4.2473 -3.3505 -1.0830
# 3 32.8959 46.8214 162.1024 15.8356 -0.8372 5.0202
# 4 9.9475 4.2473 15.8356 45.1565 5.9639 -2.8648
# 5 14.1675 -3.3505 -0.8372 5.9639 19.8275 0.2909
# 6 -5.2165 -1.0830 5.0202 -2.8648 0.2909 35.0856
#
#
#
# Elastic Compliance Matrix: (Units=1/GPa)
#
#
# Indices 1 2 3 4 5 6 
#
# 1 0.014172 -0.002564 -0.002208 -0.000566 -0.010518 0.002385
# 2 -0.002564 0.013676 -0.003423 -0.000018 0.003997 0.000496
# 3 -0.002208 -0.003423 0.007901 -0.002347 0.002065 -0.001773
# 4 -0.000566 -0.000018 -0.002347 0.024164 -0.006999 0.002282
# 5 -0.010518 0.003997 0.002065 -0.006999 0.060860 -0.002812
# 6 0.002385 0.000496 -0.001773 0.002282 -0.002812 0.029335
#
#
# Mechanical properties :
#
#
# Convention : Reuss Voigt Hill
#
# Bulk Modulus (GPa) = 51.65681 60.62349 56.14015
# Shear Modulus (GPa) = 28.90996 36.16016 32.53506
#
# Velocity S-wave (km/s) = 3.77222 4.21880 4.00175
# Velocity P-wave (km/s) = 6.66324 7.31917 6.99889
#
# Compressibility (1/GPa) = 0.01935853
#
# Stress axis : x y z
#
# Youngs Moduli (GPa) = 70.55970 73.12125 126.57225
#
# Poissons Ratio (x) = 0.18749 0.27951
# Poissons Ratio (y) = 0.18092 0.43323
# Poissons Ratio (z) = 0.15582 0.25028
#
# Static dielectric constant tensor:
#      x y z
#    x 3.687760 -0.008410 0.231200 
#    y -0.008410 3.809100 -0.028730 
#    z 0.231200 -0.028730 3.908300 
# 
# 
# High freq. dielectric constant tensor:
#      x y z
#    x 1.784440 0.002250 0.015290 
#    y 0.002250 1.808690 -0.003530 
#    z 0.015290 -0.003530 1.804550 
# 
# From -- ./inp_files/243558.got.cif
#   From: 2010.06.25/outbox.cif.g09.slc.cpg/sg2_122_cif.got.tgz:243558.got - 2010.06.27 13:26:56.
