data_PCOD8007914
_publ_section_title
;
Structure prediction by ZEFSAII (Michael W. Deem and Ramdas Pophale) SiO2 
 PCOD8007914
Probable space group: P -1
;
_chemical_formula_sum "Si O2"
_cell_formula_units_Z 14
_cell_length_a 24.544025
_cell_length_b 8.478392
_cell_length_c 24.981602
_cell_angle_alpha 42.763166
_cell_angle_beta 11.397334
_cell_angle_gamma 39.797598
_cell_volume 650.088756
_symmetry_space_group_name_H-M "P -1"
_symmetry_group_IT_number 2
_symmetry_cell_setting 'triclinic'
loop_
_space_group_symop_operation_xyz
x,y,z
-x,-y,-z
loop_
_atom_site_type_symbol
_atom_site_label
_atom_site_fract_x
_atom_site_fract_y
_atom_site_fract_z
Si Si1 0.658674 0.109684 0.911302
Si Si2 0.291629 0.401128 0.280664
Si Si3 0.694622 0.691283 0.590730
Si Si4 0.924930 0.185572 0.075773
Si Si5 0.204937 0.866382 0.385234
Si Si6 0.031080 0.978712 0.141611
Si Si7 0.338140 0.501241 0.600464
O O1 0.554231 0.169889 0.058330
O O2 0.484676 0.950145 0.092114
O O3 0.583938 0.374850 0.886517
O O4 0.010819 0.957239 0.604106
O O5 0.215171 0.312392 0.433116
O O6 0.000000 0.500000 0.500000
O O7 0.680148 0.429305 0.652476
O O8 0.940220 0.749557 0.305158
O O9 0.380581 0.905958 0.828480
O O10 0.936676 0.034135 0.156897
O O11 0.592291 0.392827 0.337352
O O12 0.155276 0.321841 0.824392
O O13 0.000000 0.000000 0.000000
O O14 0.000000 0.000000 0.500000
O O15 0.879013 0.213162 0.269870
O O16 0.500000 0.500000 0.500000
#
# Coordination Sequence:
#
# PCOD8007914 Si02
#       7
#     2   2   2   2   2   2   2
#     4  11  23  39  63  85 117 154 234 263 309 382
#     4  11  24  42  65  90 119 171 226 268 320 387
#     4  12  26  40  66  92 134 166 214 284 323 370
#     4  11  22  42  74 102 131 173 212 259 312 398
#     4  12  23  40  62  90 122 172 221 264 327 390
#     4  11  24  43  62 101 131 168 215 262 330 379
#     4  10  20  41  71  97 133 175 218 248 305 411
#
# _framework density 21.535520000000002
#
# number of rings (size 3 to 8) (size 9 to 14) (size 15 to 20)
#    0.000    0.857    2.857    6.000    6.000    0.000 
#    0.000    8.571    0.000    0.000    0.000    0.000 
#    0.000    0.000    0.000    0.000    0.000    0.000 
#
# Total GULP energy -173582.552271 kJ/mol
# GULP energy per Si atom -12398.753734 kJ/mol
# Density = 2.148650 g / cm^3
# Si number density = 21.535520 Si / 1000 Ang^3
#
#
#
# Elastic Constant Matrix: (Units=GPa)
#
#
# Indices 1 2 3 4 5 6 
#
# 1 86.3635 42.3450 30.9371 -1.4390 14.6352 7.0736
# 2 42.3450 113.1001 31.4581 0.3482 3.4627 20.1020
# 3 30.9371 31.4581 117.3285 -6.3735 9.5168 8.7561
# 4 -1.4390 0.3482 -6.3735 60.4594 8.6845 2.2829
# 5 14.6352 3.4627 9.5168 8.6845 25.7963 8.7364
# 6 7.0736 20.1020 8.7561 2.2829 8.7364 25.8272
#
#
#
# Elastic Compliance Matrix: (Units=1/GPa)
#
#
# Indices 1 2 3 4 5 6 
#
# 1 0.016673 -0.006054 -0.002211 0.001437 -0.009684 0.004044
# 2 -0.006054 0.013178 -0.001726 -0.000884 0.005972 -0.009955
# 3 -0.002211 -0.001726 0.009890 0.001369 -0.002379 -0.000720
# 4 0.001437 -0.000884 0.001369 0.017764 -0.007446 0.000779
# 5 -0.009684 0.005972 -0.002379 -0.007446 0.053106 -0.018495
# 6 0.004044 -0.009955 -0.000720 0.000779 -0.018495 0.051791
#
#
# Mechanical properties :
#
#
# Convention : Reuss Voigt Hill
#
# Bulk Modulus (GPa) = 50.61370 58.47474 54.54422
# Shear Modulus (GPa) = 26.45900 36.55337 31.50618
#
# Velocity S-wave (km/s) = 3.50897 4.12436 3.82905
# Velocity P-wave (km/s) = 6.32223 7.06344 6.70309
#
# Compressibility (1/GPa) = 0.01975750
#
# Stress axis : x y z
#
# Youngs Moduli (GPa) = 59.97585 75.88468 101.11092
#
# Poissons Ratio (x) = 0.45942 0.22360
# Poissons Ratio (y) = 0.36310 0.17455
# Poissons Ratio (z) = 0.13263 0.13100
#
# Static dielectric constant tensor:
#      x y z
#    x 3.577720 0.320060 0.333720 
#    y 0.320060 4.251370 0.287530 
#    z 0.333720 0.287530 4.225850 
# 
# 
# High freq. dielectric constant tensor:
#      x y z
#    x 1.809530 0.023970 0.009140 
#    y 0.023970 1.851420 0.002110 
#    z 0.009140 0.002110 1.872900 
# 
# From -- ./inp_files/621102.got.cif
#   From: 2010.06.25/outbox.cif.g09.slc.cpg/sg2_311_cif.got.tgz:621102.got - 2010.06.27 13:26:56.
