data_PCOD8007777
_publ_section_title
;
Structure prediction by ZEFSAII (Michael W. Deem and Ramdas Pophale) SiO2 
 PCOD8007777
Probable space group: P -1
;
_chemical_formula_sum "Si O2"
_cell_formula_units_Z 16
_cell_length_a 11.971866
_cell_length_b 11.516488
_cell_length_c 13.586112
_cell_angle_alpha 63.325991
_cell_angle_beta 149.189505
_cell_angle_gamma 93.736867
_cell_volume 612.256286
_symmetry_space_group_name_H-M "P -1"
_symmetry_group_IT_number 2
_symmetry_cell_setting 'triclinic'
loop_
_space_group_symop_operation_xyz
x,y,z
-x,-y,-z
loop_
_atom_site_type_symbol
_atom_site_label
_atom_site_fract_x
_atom_site_fract_y
_atom_site_fract_z
Si Si1 0.475056 0.625907 0.643236
Si Si2 0.177123 0.990675 0.007036
Si Si3 0.814710 0.205843 0.264839
Si Si4 0.287487 0.303024 0.365071
Si Si5 0.004051 0.145525 0.226615
Si Si6 0.452026 0.269809 0.140685
Si Si7 0.370395 0.135240 0.760984
Si Si8 0.230492 0.461171 0.471357
O O1 0.731943 0.600611 0.785614
O O2 0.536924 0.623649 0.806189
O O3 0.477067 0.473781 0.671079
O O4 0.140515 0.810512 0.287375
O O5 0.135423 0.868000 0.968338
O O6 0.358703 0.894529 0.283730
O O7 0.394495 0.990576 0.102688
O O8 0.524913 0.316160 0.076333
O O9 0.751430 0.243597 0.085999
O O10 0.025733 0.239218 0.438660
O O11 0.000000 0.000000 0.500000
O O12 0.062043 0.273375 0.197596
O O13 0.229838 0.409938 0.378641
O O14 0.314690 0.942636 0.573552
O O15 0.116662 0.347581 0.843886
O O16 0.335095 0.304353 0.686032
O O17 0.500000 0.000000 0.000000
#
# Coordination Sequence:
#
# PCOD8007777 Si02
#       8
#     2   2   2   2   2   2   2   2
#     4  11  24  43  66  98 138 176 220 280 331 392
#     4  10  22  40  69 100 131 170 231 272 327 391
#     4  10  20  41  68  94 130 173 216 276 324 391
#     4  11  23  42  67  98 133 179 230 271 329 391
#     4  10  20  42  69  96 130 181 225 277 321 386
#     4  10  24  42  64  99 136 176 225 271 336 396
#     4  11  22  43  66  94 128 171 224 268 331 401
#     4  11  25  42  64  96 137 175 220 275 339 399
#
# _framework density 26.132846000000001
#
# number of rings (size 3 to 8) (size 9 to 14) (size 15 to 20)
#    0.000    1.500    2.500    3.750    1.750    6.000 
#    4.500    2.500    0.000    0.000    0.000    0.000 
#    0.000    0.000    0.000    0.000    0.000    0.000 
#
# Total GULP energy -198336.665565 kJ/mol
# GULP energy per Si atom -12396.041598 kJ/mol
# Density = 2.607337 g / cm^3
# Si number density = 26.132846 Si / 1000 Ang^3
#
#
#
# Elastic Constant Matrix: (Units=GPa)
#
#
# Indices 1 2 3 4 5 6 
#
# 1 132.1087 58.6186 39.0828 0.7450 6.3086 22.3711
# 2 58.6186 130.5783 9.1129 19.7483 -3.8332 18.4114
# 3 39.0828 9.1129 67.6962 19.5355 12.7528 9.8421
# 4 0.7450 19.7483 19.5355 42.1807 7.0514 5.6523
# 5 6.3086 -3.8332 12.7528 7.0514 44.8280 3.3907
# 6 22.3711 18.4114 9.8421 5.6523 3.3907 36.6810
#
#
#
# Elastic Compliance Matrix: (Units=1/GPa)
#
#
# Indices 1 2 3 4 5 6 
#
# 1 0.013272 -0.005915 -0.008146 0.006978 -0.000856 -0.003936
# 2 -0.005915 0.011500 0.003872 -0.007100 0.002005 -0.002295
# 3 -0.008146 0.003872 0.023079 -0.011684 -0.003169 -0.001074
# 4 0.006978 -0.007100 -0.011684 0.033190 -0.003307 -0.002366
# 5 -0.000856 0.002005 -0.003169 -0.003307 0.024124 -0.001354
# 6 -0.003936 -0.002295 -0.001074 -0.002366 -0.001354 0.031592
#
#
# Mechanical properties :
#
#
# Convention : Reuss Voigt Hill
#
# Bulk Modulus (GPa) = 36.40203 60.44576 48.42389
# Shear Modulus (GPa) = 30.06759 39.64253 34.85506
#
# Velocity S-wave (km/s) = 3.39568 3.89904 3.65604
# Velocity P-wave (km/s) = 5.41609 6.59170 6.03260
#
# Compressibility (1/GPa) = 0.02747100
#
# Stress axis : x y z
#
# Youngs Moduli (GPa) = 75.34549 86.95937 43.33023
#
# Poissons Ratio (x) = 0.51438 0.35299
# Poissons Ratio (y) = 0.44568 -0.16777
# Poissons Ratio (z) = 0.61380 -0.33669
#
# Static dielectric constant tensor:
#      x y z
#    x 6.416470 0.768960 0.747360 
#    y 0.768960 5.068680 0.312310 
#    z 0.747360 0.312310 5.344850 
# 
# 
# High freq. dielectric constant tensor:
#      x y z
#    x 2.035860 0.014140 0.005730 
#    y 0.014140 2.049550 0.001760 
#    z 0.005730 0.001760 2.081640 
# 
# From -- ./inp_files/519649.got.cif
#   From: 2010.06.25/outbox.cif.g09.slc.cpg/sg2_260_cif.got.tgz:519649.got - 2010.06.27 13:26:56.
