data_PCOD8007606
_publ_section_title
;
Structure prediction by ZEFSAII (Michael W. Deem and Ramdas Pophale) SiO2 
 PCOD8007606
Probable space group: P -1
;
_chemical_formula_sum "Si O2"
_cell_formula_units_Z 14
_cell_length_a 9.247569
_cell_length_b 9.509478
_cell_length_c 11.668472
_cell_angle_alpha 134.336824
_cell_angle_beta 77.510289
_cell_angle_gamma 121.617282
_cell_volume 605.708914
_symmetry_space_group_name_H-M "P -1"
_symmetry_group_IT_number 2
_symmetry_cell_setting 'triclinic'
loop_
_space_group_symop_operation_xyz
x,y,z
-x,-y,-z
loop_
_atom_site_type_symbol
_atom_site_label
_atom_site_fract_x
_atom_site_fract_y
_atom_site_fract_z
Si Si1 0.379754 0.033597 0.124662
Si Si2 0.193892 0.560715 0.988517
Si Si3 0.544057 0.484394 0.647407
Si Si4 0.171771 0.538942 0.554286
Si Si5 0.838581 0.741453 0.397962
Si Si6 0.133665 0.870370 0.879292
Si Si7 0.220989 0.344938 0.087740
O O1 0.459278 0.304684 0.300587
O O2 0.500000 0.000000 0.000000
O O3 0.323056 0.842809 0.125861
O O4 0.202616 0.967254 0.049556
O O5 0.197899 0.436938 0.800658
O O6 0.258809 0.483094 0.042124
O O7 0.000000 0.500000 0.000000
O O8 0.672455 0.418907 0.530518
O O9 0.343257 0.266329 0.557329
O O10 0.601859 0.547877 0.806739
O O11 0.111734 0.329142 0.532594
O O12 0.248014 0.777682 0.749400
O O13 0.000000 0.500000 0.500000
O O14 0.000000 0.000000 0.500000
O O15 0.930115 0.660281 0.810383
O O16 0.149854 0.076197 0.915301
#
# Coordination Sequence:
#
# PCOD8007606 Si02
#       7
#     2   2   2   2   2   2   2
#     4  11  21  43  71 101 136 182 239 290 348 416
#     4  12  24  43  73 105 140 180 237 299 353 413
#     4  11  25  48  73 103 142 189 241 287 350 433
#     4  12  24  44  73 102 140 191 234 280 352 434
#     4  12  29  48  67 103 147 187 234 295 358 415
#     4  10  20  41  66 102 138 180 233 283 349 424
#     4  10  22  40  73 106 134 182 236 293 351 406
#
# _framework density 23.113416000000001
#
# number of rings (size 3 to 8) (size 9 to 14) (size 15 to 20)
#    0.000    0.857    5.714    0.429    4.000    0.571 
#    0.000    2.143    0.000    0.000    0.000    0.000 
#    0.000    0.000    0.000    0.000    0.000    0.000 
#
# Total GULP energy -173529.597773 kJ/mol
# GULP energy per Si atom -12394.971269 kJ/mol
# Density = 2.306081 g / cm^3
# Si number density = 23.113416 Si / 1000 Ang^3
#
#
#
# Elastic Constant Matrix: (Units=GPa)
#
#
# Indices 1 2 3 4 5 6 
#
# 1 130.4694 68.3393 31.6653 -2.8970 -4.4136 9.6646
# 2 68.3393 162.9713 29.8865 6.4085 12.0970 -5.0596
# 3 31.6653 29.8865 63.8939 3.6474 -8.7934 11.8871
# 4 -2.8970 6.4085 3.6474 33.0797 1.8238 8.0560
# 5 -4.4136 12.0970 -8.7934 1.8238 47.9728 -9.0508
# 6 9.6646 -5.0596 11.8871 8.0560 -9.0508 44.4125
#
#
#
# Elastic Compliance Matrix: (Units=1/GPa)
#
#
# Indices 1 2 3 4 5 6 
#
# 1 0.010888 -0.004269 -0.002979 0.002622 0.000993 -0.002332
# 2 -0.004269 0.008773 -0.002680 -0.002257 -0.002531 0.002539
# 3 -0.002979 -0.002680 0.019648 -0.001103 0.003282 -0.004047
# 4 0.002622 -0.002257 -0.001103 0.032800 -0.001936 -0.006877
# 5 0.000993 -0.002531 0.003282 -0.001936 0.022937 0.003643
# 6 -0.002332 0.002539 -0.004047 -0.006877 0.003643 0.026386
#
#
# Mechanical properties :
#
#
# Convention : Reuss Voigt Hill
#
# Bulk Modulus (GPa) = 51.40143 68.56852 59.98498
# Shear Modulus (GPa) = 33.83603 40.25591 37.04597
#
# Velocity S-wave (km/s) = 3.83026 4.17786 4.00783
# Velocity P-wave (km/s) = 6.46902 7.28033 6.88663
#
# Compressibility (1/GPa) = 0.01945471
#
# Stress axis : x y z
#
# Youngs Moduli (GPa) = 91.84463 113.98647 50.89506
#
# Poissons Ratio (x) = 0.48657 0.15160
# Poissons Ratio (y) = 0.39205 0.13640
# Poissons Ratio (z) = 0.27357 0.30549
#
# Static dielectric constant tensor:
#      x y z
#    x 4.444830 0.021390 0.002950 
#    y 0.021390 4.140620 0.204410 
#    z 0.002950 0.204410 4.445550 
# 
# 
# High freq. dielectric constant tensor:
#      x y z
#    x 1.940990 -0.001870 0.000860 
#    y -0.001870 1.899030 -0.002500 
#    z 0.000860 -0.002500 1.903320 
# 
# From -- ./inp_files/186194.got.cif
#   From: 2010.06.25/outbox.cif.g09.slc.cpg/sg2_94_cif.got.tgz:186194.got - 2010.06.27 13:26:56.
