data_PCOD8007955
_publ_section_title
;
Structure prediction by ZEFSAII (Michael W. Deem and Ramdas Pophale) SiO2 
 PCOD8007955
Probable space group: P -1
;
_chemical_formula_sum "Si O2"
_cell_formula_units_Z 14
_cell_length_a 10.664575
_cell_length_b 9.482694
_cell_length_c 8.018975
_cell_angle_alpha 99.306756
_cell_angle_beta 123.597189
_cell_angle_gamma 93.864350
_cell_volume 654.334544
_symmetry_space_group_name_H-M "P -1"
_symmetry_group_IT_number 2
_symmetry_cell_setting 'triclinic'
loop_
_space_group_symop_operation_xyz
x,y,z
-x,-y,-z
loop_
_atom_site_type_symbol
_atom_site_label
_atom_site_fract_x
_atom_site_fract_y
_atom_site_fract_z
Si Si1 0.123282 0.485793 0.309176
Si Si2 0.932896 0.235782 0.503560
Si Si3 0.234213 0.242074 0.518159
Si Si4 0.803314 0.327549 0.923081
Si Si5 0.232427 0.928977 0.375829
Si Si6 0.608692 0.124963 0.202567
Si Si7 0.473537 0.657667 0.040941
O O1 0.082723 0.597001 0.439732
O O2 0.243543 0.388974 0.446136
O O3 0.201881 0.571584 0.223705
O O4 0.970577 0.367756 0.135223
O O5 0.923005 0.149338 0.656651
O O6 0.785851 0.156436 0.269590
O O7 0.089500 0.224109 0.530217
O O8 0.384349 0.247032 0.740106
O O9 0.225785 0.097757 0.369894
O O10 0.762841 0.156231 0.810514
O O11 0.679820 0.357089 0.968257
O O12 0.380684 0.908538 0.597580
O O13 0.543391 0.270510 0.139282
O O14 0.500000 0.000000 0.000000
O O15 0.500000 0.500000 0.000000
#
# Coordination Sequence:
#
# PCOD8007955 Si02
#       7
#     2   2   2   2   2   2   2
#     4  10  21  40  63  87 121 161 200 246 305 346
#     4   9  19  37  63  87 124 153 195 250 295 349
#     4  12  21  36  62  96 119 152 209 249 287 359
#     4  10  23  44  60  83 126 164 193 247 309 356
#     4   9  22  39  63  87 123 159 200 240 306 353
#     4  10  20  42  59  91 122 159 196 242 306 356
#     4  12  24  38  64  92 118 158 207 246 296 361
#
# _framework density 21.395783999999999
#
# number of rings (size 3 to 8) (size 9 to 14) (size 15 to 20)
#    0.857    0.857    1.429    3.429    0.000    1.714 
#    0.000    0.000    0.000    0.000    0.000    0.000 
#    0.000    0.000    0.000    0.000    0.000    0.000 
#
# Total GULP energy -173467.644939 kJ/mol
# GULP energy per Si atom -12390.546067 kJ/mol
# Density = 2.134709 g / cm^3
# Si number density = 21.395784 Si / 1000 Ang^3
#
#
#
# Elastic Constant Matrix: (Units=GPa)
#
#
# Indices 1 2 3 4 5 6 
#
# 1 37.6046 20.7985 15.0635 2.0966 -5.5920 -8.4107
# 2 20.7985 128.8753 16.7793 17.0422 -5.0177 -18.3183
# 3 15.0635 16.7793 79.7532 17.2450 7.8074 -4.4149
# 4 2.0966 17.0422 17.2450 43.0782 -6.5481 0.2895
# 5 -5.5920 -5.0177 7.8074 -6.5481 19.6273 8.7879
# 6 -8.4107 -18.3183 -4.4149 0.2895 8.7879 20.1708
#
#
#
# Elastic Compliance Matrix: (Units=1/GPa)
#
#
# Indices 1 2 3 4 5 6 
#
# 1 0.034218 -0.004194 -0.007542 0.004754 0.011615 0.003680
# 2 -0.004194 0.010212 0.000755 -0.004963 -0.004989 0.009936
# 3 -0.007542 0.000755 0.017953 -0.009638 -0.016191 0.008663
# 4 0.004754 -0.004963 -0.009638 0.032093 0.021005 -0.014247
# 5 0.011615 -0.004989 -0.016191 0.021005 0.084496 -0.040346
# 6 0.003680 0.009936 0.008663 -0.014247 -0.040346 0.079813
#
#
# Mechanical properties :
#
#
# Convention : Reuss Voigt Hill
#
# Bulk Modulus (GPa) = 24.73858 39.05731 31.89794
# Shear Modulus (GPa) = 16.99408 29.48139 23.23773
#
# Velocity S-wave (km/s) = 2.82134 3.71604 3.29916
# Velocity P-wave (km/s) = 4.71177 6.05857 5.42711
#
# Compressibility (1/GPa) = 0.04042269
#
# Stress axis : x y z
#
# Youngs Moduli (GPa) = 29.22407 97.92115 55.70136
#
# Poissons Ratio (x) = 0.41065 0.42010
# Poissons Ratio (y) = 0.12256 -0.04206
# Poissons Ratio (z) = 0.22041 -0.07395
#
# Static dielectric constant tensor:
#      x y z
#    x 3.625480 0.165280 0.191150 
#    y 0.165280 4.101820 0.068780 
#    z 0.191150 0.068780 4.244140 
# 
# 
# High freq. dielectric constant tensor:
#      x y z
#    x 1.809020 0.011190 0.013480 
#    y 0.011190 1.852760 0.008000 
#    z 0.013480 0.008000 1.840560 
# 
# From -- ./inp_files/240760.got.cif
#   From: 2010.06.25/outbox.cif.g09.slc.cpg/sg2_121_cif.got.tgz:240760.got - 2010.06.27 13:26:56.
