data_PCOD8007713
_publ_section_title
;
Structure prediction by ZEFSAII (Michael W. Deem and Ramdas Pophale) SiO2 
 PCOD8007713
Probable space group: P -1
;
_chemical_formula_sum "Si O2"
_cell_formula_units_Z 14
_cell_length_a 14.918896
_cell_length_b 8.893920
_cell_length_c 7.268178
_cell_angle_alpha 121.562889
_cell_angle_beta 97.072703
_cell_angle_gamma 119.878606
_cell_volume 608.774293
_symmetry_space_group_name_H-M "P -1"
_symmetry_group_IT_number 2
_symmetry_cell_setting 'triclinic'
loop_
_space_group_symop_operation_xyz
x,y,z
-x,-y,-z
loop_
_atom_site_type_symbol
_atom_site_label
_atom_site_fract_x
_atom_site_fract_y
_atom_site_fract_z
Si Si1 0.129936 0.246925 0.772635
Si Si2 0.805972 0.697860 0.780280
Si Si3 0.618313 0.481975 0.874250
Si Si4 0.155918 0.990446 0.332441
Si Si5 0.367600 0.131486 0.720752
Si Si6 0.059091 0.537625 0.826262
Si Si7 0.175318 0.665602 0.565470
O O1 0.082555 0.032623 0.478467
O O2 0.079207 0.373756 0.812095
O O3 0.106210 0.161915 0.927789
O O4 0.276866 0.443437 0.906915
O O5 0.666655 0.503476 0.693635
O O6 0.821474 0.885707 0.775632
O O7 0.840166 0.564958 0.595781
O O8 0.491736 0.219088 0.716873
O O9 0.599237 0.668227 0.002921
O O10 0.282545 0.094135 0.513833
O O11 0.075363 0.710091 0.096877
O O12 0.305801 0.894892 0.670001
O O13 0.156867 0.700080 0.793550
O O14 0.923428 0.362637 0.601310
#
# Coordination Sequence:
#
# PCOD8007713 Si02
#       7
#     2   2   2   2   2   2   2
#     4   9  21  44  64  97 129 164 216 267 315 385
#     4  10  21  41  64  95 134 161 216 264 319 378
#     4   8  20  40  66  94 128 162 215 266 315 386
#     4  11  22  40  69  95 130 171 212 262 321 385
#     4  10  20  41  67  92 130 167 213 264 323 375
#     4  11  24  44  64  95 132 171 222 258 322 384
#     4  11  24  42  65  94 132 172 214 272 313 385
#
# _framework density 22.997026999999999
#
# number of rings (size 3 to 8) (size 9 to 14) (size 15 to 20)
#    0.857    1.143    1.429    1.714    0.000    4.000 
#    2.571    4.286    0.000    0.000    0.000    0.000 
#    0.000    0.000    0.000    0.000    0.000    0.000 
#
# Total GULP energy -173589.923376 kJ/mol
# GULP energy per Si atom -12399.280241 kJ/mol
# Density = 2.294469 g / cm^3
# Si number density = 22.997027 Si / 1000 Ang^3
#
#
#
# Elastic Constant Matrix: (Units=GPa)
#
#
# Indices 1 2 3 4 5 6 
#
# 1 117.2676 44.8412 47.3832 10.7672 -18.0750 6.7427
# 2 44.8412 118.1986 53.8718 8.5299 4.3174 2.9461
# 3 47.3832 53.8718 108.9174 2.0197 -18.4556 3.1640
# 4 10.7672 8.5299 2.0197 38.4399 6.5527 -0.4807
# 5 -18.0750 4.3174 -18.4556 6.5527 26.4174 -0.3159
# 6 6.7427 2.9461 3.1640 -0.4807 -0.3159 39.1620
#
#
#
# Elastic Compliance Matrix: (Units=1/GPa)
#
#
# Indices 1 2 3 4 5 6 
#
# 1 0.012660 -0.003910 -0.001930 -0.004125 0.008955 -0.001708
# 2 -0.003910 0.013198 -0.006414 0.000097 -0.009336 0.000124
# 3 -0.001930 -0.006414 0.014963 -0.000586 0.010322 -0.000318
# 4 -0.004125 0.000097 -0.000586 0.028969 -0.010421 0.001022
# 5 0.008955 -0.009336 0.010322 -0.010421 0.055287 -0.001355
# 6 -0.001708 0.000124 -0.000318 0.001022 -0.001355 0.025847
#
#
# Mechanical properties :
#
#
# Convention : Reuss Voigt Hill
#
# Bulk Modulus (GPa) = 61.30446 70.73068 66.01757
# Shear Modulus (GPa) = 27.64437 34.02300 30.83368
#
# Velocity S-wave (km/s) = 3.47087 3.85054 3.66562
# Velocity P-wave (km/s) = 6.54049 7.11281 6.83265
#
# Compressibility (1/GPa) = 0.01631203
#
# Stress axis : x y z
#
# Youngs Moduli (GPa) = 78.99069 75.76893 66.83319
#
# Poissons Ratio (x) = 0.29625 0.12899
# Poissons Ratio (y) = 0.30885 0.42868
# Poissons Ratio (z) = 0.15245 0.48600
#
# Static dielectric constant tensor:
#      x y z
#    x 4.347750 0.218540 -0.064920 
#    y 0.218540 4.004270 -0.085650 
#    z -0.064920 -0.085650 4.044490 
# 
# 
# High freq. dielectric constant tensor:
#      x y z
#    x 1.922540 0.013700 -0.014520 
#    y 0.013700 1.911160 0.001490 
#    z -0.014520 0.001490 1.895780 
# 
# From -- ./inp_files/299735.got.cif
#   From: 2010.06.25/outbox.cif.g09.slc.cpg/sg2_150_cif.got.tgz:299735.got - 2010.06.27 13:26:56.
