data_PCOD8007888
_publ_section_title
;
Structure prediction by ZEFSAII (Michael W. Deem and Ramdas Pophale) SiO2 
 PCOD8007888
Probable space group: P -1
;
_chemical_formula_sum "Si O2"
_cell_formula_units_Z 14
_cell_length_a 13.729422
_cell_length_b 7.631171
_cell_length_c 8.760908
_cell_angle_alpha 90.494163
_cell_angle_beta 43.169385
_cell_angle_gamma 83.808466
_cell_volume 619.158906
_symmetry_space_group_name_H-M "P -1"
_symmetry_group_IT_number 2
_symmetry_cell_setting 'triclinic'
loop_
_space_group_symop_operation_xyz
x,y,z
-x,-y,-z
loop_
_atom_site_type_symbol
_atom_site_label
_atom_site_fract_x
_atom_site_fract_y
_atom_site_fract_z
Si Si1 0.903942 0.850611 0.754441
Si Si2 0.032615 0.865085 0.103143
Si Si3 0.703219 0.363809 0.099799
Si Si4 0.140675 0.579774 0.387820
Si Si5 0.346142 0.242656 0.778522
Si Si6 0.527137 0.896757 0.670281
Si Si7 0.779300 0.776483 0.577697
O O1 0.828838 0.866480 0.674794
O O2 0.073092 0.757704 0.557551
O O3 0.907712 0.044709 0.815505
O O4 0.815701 0.744657 0.970917
O O5 0.888576 0.792065 0.313404
O O6 0.168146 0.704135 0.923629
O O7 0.000000 0.000000 0.000000
O O8 0.619070 0.556729 0.253173
O O9 0.594038 0.225210 0.213134
O O10 0.765627 0.380065 0.860620
O O11 0.233167 0.431333 0.387468
O O12 0.000000 0.500000 0.500000
O O13 0.356208 0.158917 0.597862
O O14 0.458462 0.105297 0.750243
O O15 0.617181 0.869437 0.723588
#
# Coordination Sequence:
#
# PCOD8007888 Si02
#       7
#     2   2   2   2   2   2   2
#     4  11  21  44  71  99 134 181 224 288 339 398
#     4  12  25  41  72 106 133 178 234 284 344 408
#     4  12  23  47  72  99 141 181 229 285 341 407
#     4  10  20  41  70  98 131 176 230 282 343 392
#     4  11  23  46  70  94 147 185 226 274 348 403
#     4  11  27  43  68 102 143 187 224 278 343 414
#     4  11  23  44  68 102 138 176 235 282 338 411
#
# _framework density 22.611318000000001
#
# number of rings (size 3 to 8) (size 9 to 14) (size 15 to 20)
#    0.000    0.857    7.143    1.714    2.000    2.286 
#    2.571    2.857    0.000    0.000    0.000    0.000 
#    0.000    0.000    0.000    0.000    0.000    0.000 
#
# Total GULP energy -173528.888264 kJ/mol
# GULP energy per Si atom -12394.920590 kJ/mol
# Density = 2.255985 g / cm^3
# Si number density = 22.611318 Si / 1000 Ang^3
#
#
#
# Elastic Constant Matrix: (Units=GPa)
#
#
# Indices 1 2 3 4 5 6 
#
# 1 82.9962 54.7078 18.2876 8.7836 -10.6996 -25.4713
# 2 54.7078 156.6835 33.8594 14.8221 -0.8099 -31.3730
# 3 18.2876 33.8594 90.0868 -2.9907 7.3012 -17.5520
# 4 8.7836 14.8221 -2.9907 45.8173 -0.9322 3.3352
# 5 -10.6996 -0.8099 7.3012 -0.9322 24.7251 0.3280
# 6 -25.4713 -31.3730 -17.5520 3.3352 0.3280 34.5936
#
#
#
# Elastic Compliance Matrix: (Units=1/GPa)
#
#
# Indices 1 2 3 4 5 6 
#
# 1 0.019655 -0.004219 -0.001194 -0.003055 0.008469 0.010254
# 2 -0.004219 0.009460 -0.001748 -0.002743 -0.001167 0.004862
# 3 -0.001194 -0.001748 0.013216 0.001263 -0.004484 0.004161
# 4 -0.003055 -0.002743 0.001263 0.023830 -0.000802 -0.006387
# 5 0.008469 -0.001167 -0.004484 -0.000802 0.045331 0.002549
# 6 0.010254 0.004862 0.004161 -0.006387 0.002549 0.043569
#
#
# Mechanical properties :
#
#
# Convention : Reuss Voigt Hill
#
# Bulk Modulus (GPa) = 35.70360 60.38624 48.04492
# Shear Modulus (GPa) = 27.97666 35.88798 31.93232
#
# Velocity S-wave (km/s) = 3.52132 3.98825 3.76204
# Velocity P-wave (km/s) = 5.68835 6.92621 6.33758
#
# Compressibility (1/GPa) = 0.02800838
#
# Stress axis : x y z
#
# Youngs Moduli (GPa) = 50.87839 105.70783 75.66506
#
# Poissons Ratio (x) = 0.44593 0.09036
# Poissons Ratio (y) = 0.21463 0.13230
# Poissons Ratio (z) = 0.06076 0.18483
#
# Static dielectric constant tensor:
#      x y z
#    x 3.743090 -0.261520 -0.097400 
#    y -0.261520 4.920870 0.409280 
#    z -0.097400 0.409280 4.630370 
# 
# 
# High freq. dielectric constant tensor:
#      x y z
#    x 1.853980 -0.011980 -0.004290 
#    y -0.011980 1.911150 -0.001440 
#    z -0.004290 -0.001440 1.902150 
# 
# From -- ./inp_files/295118.got.cif
#   From: 2010.06.25/outbox.cif.g09.slc.cpg/sg2_148_cif.got.tgz:295118.got - 2010.06.27 13:26:56.
