data_PCOD8007366
_publ_section_title
;
Structure prediction by ZEFSAII (Michael W. Deem and Ramdas Pophale) SiO2 
 PCOD8007366
Probable space group: P -1
;
_chemical_formula_sum "Si O2"
_cell_formula_units_Z 14
_cell_length_a 6.214080
_cell_length_b 11.011829
_cell_length_c 10.481935
_cell_angle_alpha 87.445716
_cell_angle_beta 114.242554
_cell_angle_gamma 100.943910
_cell_volume 641.669628
_symmetry_space_group_name_H-M "P -1"
_symmetry_group_IT_number 2
_symmetry_cell_setting 'triclinic'
loop_
_space_group_symop_operation_xyz
x,y,z
-x,-y,-z
loop_
_atom_site_type_symbol
_atom_site_label
_atom_site_fract_x
_atom_site_fract_y
_atom_site_fract_z
Si Si1 0.103287 0.345743 0.055644
Si Si2 0.138318 0.504023 0.830581
Si Si3 0.439437 0.706956 0.739727
Si Si4 0.977221 0.171257 0.386761
Si Si5 0.780297 0.041271 0.597494
Si Si6 0.801681 0.268106 0.758651
Si Si7 0.560431 0.646414 0.498091
O O1 0.290472 0.255585 0.139756
O O2 0.033722 0.400238 0.171028
O O3 0.239442 0.457579 0.991445
O O4 0.865233 0.272795 0.925990
O O5 0.336479 0.570252 0.777681
O O6 0.987862 0.381223 0.730195
O O7 0.437698 0.702033 0.586328
O O8 0.274002 0.805320 0.737028
O O9 0.153536 0.304515 0.436375
O O10 0.928503 0.112460 0.515571
O O11 0.104302 0.079535 0.335776
O O12 0.821746 0.131494 0.724589
O O13 0.500000 0.000000 0.500000
O O14 0.541321 0.298253 0.657654
O O15 0.500000 0.500000 0.500000
#
# Coordination Sequence:
#
# PCOD8007366 Si02
#       7
#     2   2   2   2   2   2   2
#     4   9  21  40  58  92 130 167 206 253 318 384
#     4   9  21  38  62  91 128 170 203 252 318 378
#     4  12  21  39  61  91 131 167 199 261 324 371
#     4  11  24  39  63  91 128 167 209 260 321 362
#     4  11  22  44  63  90 124 172 216 261 307 367
#     4  10  20  41  61  91 123 163 211 258 305 372
#     4  12  25  37  63 100 129 159 207 265 319 379
#
# _framework density 21.818079999999998
#
# number of rings (size 3 to 8) (size 9 to 14) (size 15 to 20)
#    0.857    0.571    2.857    3.000    2.000    1.143 
#    2.571    0.714    0.000    6.000    0.000    0.000 
#    0.000    0.000    0.000    0.000    0.000    0.000 
#
# Total GULP energy -173440.765106 kJ/mol
# GULP energy per Si atom -12388.626079 kJ/mol
# Density = 2.176842 g / cm^3
# Si number density = 21.818080 Si / 1000 Ang^3
#
#
#
# Elastic Constant Matrix: (Units=GPa)
#
#
# Indices 1 2 3 4 5 6 
#
# 1 86.1469 44.0338 42.7266 -0.8192 23.1511 -17.7709
# 2 44.0338 108.2107 37.0372 18.4743 12.2096 -18.7648
# 3 42.7266 37.0372 93.4433 5.9864 28.6939 -11.9115
# 4 -0.8192 18.4743 5.9864 31.3118 -7.3025 1.6767
# 5 23.1511 12.2096 28.6939 -7.3025 34.1791 -21.8595
# 6 -17.7709 -18.7648 -11.9115 1.6767 -21.8595 46.7779
#
#
#
# Elastic Compliance Matrix: (Units=1/GPa)
#
#
# Indices 1 2 3 4 5 6 
#
# 1 0.018510 -0.005777 -0.004694 0.003538 -0.005145 0.000988
# 2 -0.005777 0.014313 -0.002587 -0.007880 0.001877 0.004048
# 3 -0.004694 -0.002587 0.018474 -0.005585 -0.016069 -0.005426
# 4 0.003538 -0.007880 -0.005585 0.041236 0.015548 0.002548
# 5 -0.005145 0.001877 -0.016069 0.015548 0.064385 0.024237
# 6 0.000988 0.004048 -0.005426 0.002548 0.024237 0.033230
#
#
# Mechanical properties :
#
#
# Convention : Reuss Voigt Hill
#
# Bulk Modulus (GPa) = 39.71556 59.48845 49.60201
# Shear Modulus (GPa) = 22.25605 33.38733 27.82169
#
# Velocity S-wave (km/s) = 3.19732 3.91610 3.57482
# Velocity P-wave (km/s) = 5.64562 6.91177 6.31053
#
# Compressibility (1/GPa) = 0.02517905
#
# Stress axis : x y z
#
# Youngs Moduli (GPa) = 54.02625 69.86545 54.12999
#
# Poissons Ratio (x) = 0.40365 0.25410
# Poissons Ratio (y) = 0.31214 0.14004
# Poissons Ratio (z) = 0.25361 0.18075
#
# Static dielectric constant tensor:
#      x y z
#    x 3.862090 -0.093850 0.078180 
#    y -0.093850 4.036380 -0.110910 
#    z 0.078180 -0.110910 3.762220 
# 
# 
# High freq. dielectric constant tensor:
#      x y z
#    x 1.849850 -0.005840 0.013190 
#    y -0.005840 1.846770 -0.016950 
#    z 0.013190 -0.016950 1.838060 
# 
# From -- ./inp_files/362143.got.cif
#   From: 2010.06.25/outbox.cif.g09.slc.cpg/sg2_182_cif.got.tgz:362143.got - 2010.06.27 13:26:56.
