data_PCOD8007117
_publ_section_title
;
Structure prediction by ZEFSAII (Michael W. Deem and Ramdas Pophale) SiO2 
 PCOD8007117
Probable space group: P -1
;
_chemical_formula_sum "Si O2"
_cell_formula_units_Z 16
_cell_length_a 11.055347
_cell_length_b 9.283574
_cell_length_c 16.111485
_cell_angle_alpha 42.266539
_cell_angle_beta 103.909825
_cell_angle_gamma 71.473911
_cell_volume 702.659898
_symmetry_space_group_name_H-M "P -1"
_symmetry_group_IT_number 2
_symmetry_cell_setting 'triclinic'
loop_
_space_group_symop_operation_xyz
x,y,z
-x,-y,-z
loop_
_atom_site_type_symbol
_atom_site_label
_atom_site_fract_x
_atom_site_fract_y
_atom_site_fract_z
Si Si1 0.302074 0.839043 0.789521
Si Si2 0.976456 0.966669 0.214401
Si Si3 0.599934 0.145302 0.462039
Si Si4 0.222051 0.299017 0.463240
Si Si5 0.858047 0.637416 0.166384
Si Si6 0.934036 0.722516 0.815569
Si Si7 0.223783 0.700319 0.675052
Si Si8 0.199865 0.801592 0.077586
O O1 0.261207 0.716040 0.767538
O O2 0.315245 0.060929 0.659574
O O3 0.500000 0.500000 0.000000
O O4 0.135144 0.060581 0.736575
O O5 0.153980 0.623971 0.340324
O O6 0.061550 0.038595 0.255811
O O7 0.821529 0.252015 0.998553
O O8 0.667253 0.288654 0.375953
O O9 0.370569 0.462801 0.300124
O O10 0.630536 0.907542 0.502757
O O11 0.716441 0.952654 0.649343
O O12 0.042735 0.393646 0.360754
O O13 0.718709 0.629311 0.180607
O O14 0.920587 0.509356 0.136534
O O15 0.757749 0.999189 0.999368
O O16 0.000000 0.500000 0.000000
O O17 0.000000 0.000000 0.500000
O O18 0.000000 0.000000 0.000000
#
# Coordination Sequence:
#
# PCOD8007117 Si02
#       8
#     2   2   2   2   2   2   2   2
#     4  11  20  34  58  99 135 161 203 267 328 391
#     4  11  21  39  63  94 125 171 213 267 331 373
#     4  10  22  43  68  97 128 177 221 264 336 399
#     4   9  20  37  64  91 131 168 210 256 327 408
#     4  10  20  40  67  93 126 177 216 260 330 392
#     4  11  22  41  67  95 130 170 217 275 323 385
#     4  11  17  38  71  91 133 168 212 264 330 408
#     4  11  25  46  65  90 133 179 230 270 316 400
#
# _framework density 22.770617999999999
#
# number of rings (size 3 to 8) (size 9 to 14) (size 15 to 20)
#    0.000    1.500    5.000    2.625    0.000    0.500 
#    2.250   15.000    0.000    0.000    0.000    0.000 
#    0.000    0.000    0.000    0.000    0.000    0.000 
#
# Total GULP energy -198252.390451 kJ/mol
# GULP energy per Si atom -12390.774403 kJ/mol
# Density = 2.271879 g / cm^3
# Si number density = 22.770618 Si / 1000 Ang^3
#
#
#
# Elastic Constant Matrix: (Units=GPa)
#
#
# Indices 1 2 3 4 5 6 
#
# 1 48.0907 20.6512 30.2340 -7.5175 -6.2052 0.3478
# 2 20.6512 100.4711 50.7771 8.8004 8.8330 6.5225
# 3 30.2340 50.7771 174.0189 10.0549 5.5704 -4.3899
# 4 -7.5175 8.8004 10.0549 42.4486 -2.5987 -2.3303
# 5 -6.2052 8.8330 5.5704 -2.5987 35.3259 -0.6694
# 6 0.3478 6.5225 -4.3899 -2.3303 -0.6694 33.5764
#
#
#
# Elastic Compliance Matrix: (Units=1/GPa)
#
#
# Indices 1 2 3 4 5 6 
#
# 1 0.027499 -0.004985 -0.003958 0.007330 0.007256 0.000819
# 2 -0.004985 0.013229 -0.002748 -0.003398 -0.004061 -0.003194
# 3 -0.003958 -0.002748 0.007422 -0.001892 -0.001291 0.001388
# 4 0.007330 -0.003398 -0.001892 0.026403 0.004421 0.002257
# 5 0.007256 -0.004061 -0.001291 0.004421 0.031154 0.001473
# 6 0.000819 -0.003194 0.001388 0.002257 0.001473 0.030762
#
#
# Mechanical properties :
#
#
# Convention : Reuss Voigt Hill
#
# Bulk Modulus (GPa) = 40.37640 58.43392 49.40516
# Shear Modulus (GPa) = 29.74267 36.99807 33.37037
#
# Velocity S-wave (km/s) = 3.61804 4.03527 3.83234
# Velocity P-wave (km/s) = 5.93497 6.88687 6.42856
#
# Compressibility (1/GPa) = 0.02476694
#
# Stress axis : x y z
#
# Youngs Moduli (GPa) = 36.36440 75.59340 134.73851
#
# Poissons Ratio (x) = 0.37683 0.53334
# Poissons Ratio (y) = 0.18128 0.37028
# Poissons Ratio (z) = 0.14394 0.20774
#
# Static dielectric constant tensor:
#      x y z
#    x 4.437220 0.307640 -0.216260 
#    y 0.307640 4.390590 0.144750 
#    z -0.216260 0.144750 4.304960 
# 
# 
# High freq. dielectric constant tensor:
#      x y z
#    x 1.894830 0.008680 -0.018040 
#    y 0.008680 1.891340 0.008860 
#    z -0.018040 0.008860 1.903590 
# 
# From -- ./inp_files/515072.got.cif
#   From: 2010.06.25/outbox.cif.g09.slc.cpg/sg2_258_cif.got.tgz:515072.got - 2010.06.27 13:26:56.
