data_PCOD8007166
_publ_section_title
;
Structure prediction by ZEFSAII (Michael W. Deem and Ramdas Pophale) SiO2 
 PCOD8007166
Probable space group: P -1
;
_chemical_formula_sum "Si O2"
_cell_formula_units_Z 16
_cell_length_a 13.828187
_cell_length_b 11.302317
_cell_length_c 8.840139
_cell_angle_alpha 81.901012
_cell_angle_beta 99.206130
_cell_angle_gamma 147.724406
_cell_volume 728.235252
_symmetry_space_group_name_H-M "P -1"
_symmetry_group_IT_number 2
_symmetry_cell_setting 'triclinic'
loop_
_space_group_symop_operation_xyz
x,y,z
-x,-y,-z
loop_
_atom_site_type_symbol
_atom_site_label
_atom_site_fract_x
_atom_site_fract_y
_atom_site_fract_z
Si Si1 0.220979 0.722821 0.876587
Si Si2 0.195006 0.710755 0.206945
Si Si3 0.818800 0.548680 0.581578
Si Si4 0.336697 0.103037 0.283125
Si Si5 0.177913 0.946990 0.768307
Si Si6 0.471553 0.337059 0.575081
Si Si7 0.721388 0.450076 0.230857
Si Si8 0.035175 0.898256 0.054734
O O1 0.251636 0.887228 0.792027
O O2 0.328300 0.736163 0.800278
O O3 0.011325 0.469078 0.853195
O O4 0.291962 0.786064 0.056202
O O5 0.216618 0.620485 0.337257
O O6 0.276743 0.905664 0.281419
O O7 0.666989 0.479166 0.627668
O O8 0.818161 0.547737 0.400409
O O9 0.013114 0.797432 0.637714
O O10 0.357966 0.144618 0.459178
O O11 0.532032 0.327290 0.213179
O O12 0.191090 0.047163 0.193157
O O13 0.347035 0.205667 0.718627
O O14 0.107222 0.903912 0.924743
O O15 0.500000 0.500000 0.500000
O O16 0.848325 0.645659 0.105786
O O17 0.000000 0.000000 0.000000
#
# Coordination Sequence:
#
# PCOD8007166 Si02
#       8
#     2   2   2   2   2   2   2   2
#     4  10  20  40  68 102 142 168 221 277 338 407
#     4  10  20  41  66 100 141 171 224 273 340 403
#     4  10  25  42  70 102 135 180 223 274 341 403
#     4  11  25  45  69 102 136 177 223 282 336 397
#     4  11  25  44  72 100 131 183 223 278 342 394
#     4  11  28  47  67  97 141 176 234 278 326 403
#     4  11  24  42  68 101 139 177 220 279 338 397
#     4  12  27  46  69  97 135 181 232 274 334 401
#
# _framework density 21.970922999999999
#
# number of rings (size 3 to 8) (size 9 to 14) (size 15 to 20)
#    0.000    1.250    2.500    2.250    8.750    5.500 
#    0.000    0.000    0.000    0.000    0.000    0.000 
#    0.000    0.000    0.000    0.000    0.000    0.000 
#
# Total GULP energy -198468.836776 kJ/mol
# GULP energy per Si atom -12404.302299 kJ/mol
# Density = 2.192092 g / cm^3
# Si number density = 21.970923 Si / 1000 Ang^3
#
#
#
# Elastic Constant Matrix: (Units=GPa)
#
#
# Indices 1 2 3 4 5 6 
#
# 1 86.7355 27.2193 18.1366 -11.6157 16.3398 2.9525
# 2 27.2193 82.7633 31.9764 -25.0472 5.7666 -6.3398
# 3 18.1366 31.9764 60.4054 -20.7779 -0.4464 0.1516
# 4 -11.6157 -25.0472 -20.7779 37.3045 -0.1730 -6.1285
# 5 16.3398 5.7666 -0.4464 -0.1730 34.8947 -1.6205
# 6 2.9525 -6.3398 0.1516 -6.1285 -1.6205 26.5400
#
#
#
# Elastic Compliance Matrix: (Units=1/GPa)
#
#
# Indices 1 2 3 4 5 6 
#
# 1 0.014465 -0.003488 -0.002422 0.000334 -0.006354 -0.002739
# 2 -0.003488 0.018982 -0.005712 0.009640 -0.001199 0.007108
# 3 -0.002422 -0.005712 0.023252 0.008519 0.002459 0.000889
# 4 0.000334 0.009640 0.008519 0.039996 -0.000913 0.011397
# 5 -0.006354 -0.001199 0.002459 -0.000913 0.031958 0.002147
# 6 -0.002739 0.007108 0.000889 0.011397 0.002147 0.042439
#
#
# Mechanical properties :
#
#
# Convention : Reuss Voigt Hill
#
# Bulk Modulus (GPa) = 29.89054 42.72985 36.31019
# Shear Modulus (GPa) = 24.33243 29.91930 27.12587
#
# Velocity S-wave (km/s) = 3.33150 3.69422 3.51754
# Velocity P-wave (km/s) = 5.33223 6.13897 5.74976
#
# Compressibility (1/GPa) = 0.03345540
#
# Stress axis : x y z
#
# Youngs Moduli (GPa) = 69.13167 52.68191 43.00689
#
# Poissons Ratio (x) = 0.18373 0.10417
# Poissons Ratio (y) = 0.24110 0.24566
# Poissons Ratio (z) = 0.16745 0.30092
#
# Static dielectric constant tensor:
#      x y z
#    x 4.075210 0.108590 -0.049870 
#    y 0.108590 3.916610 0.105730 
#    z -0.049870 0.105730 3.977840 
# 
# 
# High freq. dielectric constant tensor:
#      x y z
#    x 1.869370 0.006360 -0.002460 
#    y 0.006360 1.864740 0.002290 
#    z -0.002460 0.002290 1.866730 
# 
# From -- ./inp_files/283010.got.cif
#   From: 2010.06.25/outbox.cif.g09.slc.cpg/sg2_142_cif.got.tgz:283010.got - 2010.06.27 13:26:56.
