data_PCOD8007201
_publ_section_title
;
Structure prediction by ZEFSAII (Michael W. Deem and Ramdas Pophale) SiO2 
 PCOD8007201
Probable space group: P -1
;
_chemical_formula_sum "Si O2"
_cell_formula_units_Z 16
_cell_length_a 12.825068
_cell_length_b 13.780305
_cell_length_c 9.060003
_cell_angle_alpha 126.313202
_cell_angle_beta 117.027290
_cell_angle_gamma 106.387268
_cell_volume 736.149617
_symmetry_space_group_name_H-M "P -1"
_symmetry_group_IT_number 2
_symmetry_cell_setting 'triclinic'
loop_
_space_group_symop_operation_xyz
x,y,z
-x,-y,-z
loop_
_atom_site_type_symbol
_atom_site_label
_atom_site_fract_x
_atom_site_fract_y
_atom_site_fract_z
Si Si1 0.401667 0.017825 0.852528
Si Si2 0.104693 0.862387 0.734963
Si Si3 0.835934 0.319521 0.829043
Si Si4 0.378897 0.596882 0.778962
Si Si5 0.738437 0.483097 0.042664
Si Si6 0.990826 0.028988 0.744888
Si Si7 0.710860 0.697165 0.044136
Si Si8 0.968393 0.245491 0.095348
O O1 0.279336 0.004044 0.868998
O O2 0.283995 0.865267 0.510702
O O3 0.500000 0.000000 0.000000
O O4 0.556987 0.220567 0.061558
O O5 0.954133 0.663972 0.375251
O O6 0.143929 0.833510 0.893839
O O7 0.031806 0.940547 0.784058
O O8 0.707865 0.327829 0.810539
O O9 0.000000 0.500000 0.000000
O O10 0.913878 0.311472 0.014040
O O11 0.377255 0.590955 0.949909
O O12 0.182693 0.418174 0.422354
O O13 0.514309 0.602175 0.807772
O O14 0.674848 0.534795 0.934243
O O15 0.175955 0.223453 0.962632
O O16 0.915570 0.074797 0.840672
O O17 0.828544 0.875126 0.387636
#
# Coordination Sequence:
#
# PCOD8007201 Si02
#       8
#     2   2   2   2   2   2   2   2
#     4  12  26  45  67  95 135 169 216 269 331 375
#     4  10  22  44  66  95 131 175 212 269 324 384
#     4  12  24  45  70  95 127 177 224 254 318 406
#     4  11  24  42  63 101 134 167 212 280 325 369
#     4  10  23  40  68  95 132 175 217 263 325 383
#     4  10  20  40  68  95 126 177 220 257 326 389
#     4  10  20  40  68  95 132 169 217 272 321 377
#     4  11  25  40  70  97 131 170 220 264 319 393
#
# _framework density 21.734711999999998
#
# number of rings (size 3 to 8) (size 9 to 14) (size 15 to 20)
#    0.000    1.250    2.500    3.000    3.500    2.000 
#    4.500    0.000    0.000    0.000    0.000    0.000 
#    0.000    0.000    0.000    0.000    0.000    0.000 
#
# Total GULP energy -198474.714874 kJ/mol
# GULP energy per Si atom -12404.669680 kJ/mol
# Density = 2.168524 g / cm^3
# Si number density = 21.734712 Si / 1000 Ang^3
#
#
#
# Elastic Constant Matrix: (Units=GPa)
#
#
# Indices 1 2 3 4 5 6 
#
# 1 78.1525 13.8934 19.8564 0.7628 -10.8248 -14.1843
# 2 13.8934 129.3884 24.2691 -7.7172 -3.3367 -10.8112
# 3 19.8564 24.2691 54.5727 -3.5060 -7.5931 -1.1432
# 4 0.7628 -7.7172 -3.5060 30.6573 -3.5957 3.5850
# 5 -10.8248 -3.3367 -7.5931 -3.5957 30.3374 5.4073
# 6 -14.1843 -10.8112 -1.1432 3.5850 5.4073 35.1429
#
#
#
# Elastic Compliance Matrix: (Units=1/GPa)
#
#
# Indices 1 2 3 4 5 6 
#
# 1 0.015617 -0.000240 -0.005112 -0.001341 0.003087 0.005725
# 2 -0.000240 0.008724 -0.003690 0.001469 -0.000297 0.002363
# 3 -0.005112 -0.003690 0.022529 0.002681 0.004334 -0.003406
# 4 -0.001341 0.001469 0.002681 0.034444 0.005206 -0.004317
# 5 0.003087 -0.000297 0.004334 0.005206 0.036601 -0.004867
# 6 0.005725 0.002363 -0.003406 -0.004317 -0.004867 0.032571
#
#
# Mechanical properties :
#
#
# Convention : Reuss Voigt Hill
#
# Bulk Modulus (GPa) = 34.73925 42.01682 38.37803
# Shear Modulus (GPa) = 28.06399 32.83385 30.44892
#
# Velocity S-wave (km/s) = 3.59723 3.89094 3.74697
# Velocity P-wave (km/s) = 5.76814 6.28964 6.03453
#
# Compressibility (1/GPa) = 0.02878589
#
# Stress axis : x y z
#
# Youngs Moduli (GPa) = 64.03399 114.62784 44.38725
#
# Poissons Ratio (x) = 0.02752 0.22691
# Poissons Ratio (y) = 0.01537 0.16377
# Poissons Ratio (z) = 0.32735 0.42294
#
# Static dielectric constant tensor:
#      x y z
#    x 3.564090 0.028320 -0.244050 
#    y 0.028320 4.120550 0.011140 
#    z -0.244050 0.011140 3.669680 
# 
# 
# High freq. dielectric constant tensor:
#      x y z
#    x 1.854840 -0.001860 -0.005250 
#    y -0.001860 1.873680 0.002300 
#    z -0.005250 0.002300 1.839400 
# 
# From -- ./inp_files/185714.got.cif
#   From: 2010.06.25/outbox.cif.g09.slc.cpg/sg2_93_cif.got.tgz:185714.got - 2010.06.27 13:26:56.
