data_PCOD8007193
_publ_section_title
;
Structure prediction by ZEFSAII (Michael W. Deem and Ramdas Pophale) SiO2 
 PCOD8007193
Probable space group: P -1
;
_chemical_formula_sum "Si O2"
_cell_formula_units_Z 16
_cell_length_a 9.929175
_cell_length_b 8.311692
_cell_length_c 12.397806
_cell_angle_alpha 89.011032
_cell_angle_beta 97.068141
_cell_angle_gamma 130.161062
_cell_volume 773.393206
_symmetry_space_group_name_H-M "P -1"
_symmetry_group_IT_number 2
_symmetry_cell_setting 'triclinic'
loop_
_space_group_symop_operation_xyz
x,y,z
-x,-y,-z
loop_
_atom_site_type_symbol
_atom_site_label
_atom_site_fract_x
_atom_site_fract_y
_atom_site_fract_z
Si Si1 0.632943 0.479558 0.840852
Si Si2 0.383891 0.540122 0.549977
Si Si3 0.206404 0.713676 0.749260
Si Si4 0.811822 0.812454 0.030027
Si Si5 0.609057 0.948627 0.072004
Si Si6 0.200356 0.565241 0.333863
Si Si7 0.481991 0.037886 0.377094
Si Si8 0.302017 0.427445 0.769092
O O1 0.521336 0.232287 0.851945
O O2 0.760220 0.539355 0.751610
O O3 0.507884 0.536058 0.803577
O O4 0.740807 0.605617 0.958314
O O5 0.500000 0.500000 0.500000
O O6 0.254356 0.534599 0.455707
O O7 0.520242 0.768281 0.622675
O O8 0.263090 0.369315 0.636899
O O9 0.342591 0.885207 0.670736
O O10 0.267861 0.585058 0.795624
O O11 0.008434 0.557762 0.683994
O O12 0.222296 0.841976 0.852681
O O13 0.684579 0.870127 0.999982
O O14 0.818941 0.773555 0.159332
O O15 0.000000 0.000000 0.000000
O O16 0.500000 0.000000 0.000000
O O17 0.304841 0.813675 0.315963
O O18 0.500000 0.000000 0.500000
#
# Coordination Sequence:
#
# PCOD8007193 Si02
#       8
#     2   2   2   2   2   2   2   2
#     4  11  21  41  65  88 130 172 210 264 328 384
#     4  10  20  40  68  93 127 171 216 263 322 394
#     4  11  22  40  65  99 127 166 220 271 314 388
#     4  11  24  41  61  93 129 168 216 271 318 387
#     4  11  22  40  67  90 126 171 216 261 326 385
#     4  11  22  40  67  96 130 170 217 266 324 382
#     4   9  21  38  62  88 128 169 206 259 323 375
#     4  10  22  41  64  89 129 168 216 259 326 385
#
# _framework density 20.688053
#
# number of rings (size 3 to 8) (size 9 to 14) (size 15 to 20)
#    0.000    1.500    2.500    3.750    0.000    5.500 
#    4.500    3.750    0.000    8.250    0.000    0.000 
#    0.000    0.000    0.000    0.000    0.000    0.000 
#
# Total GULP energy -198280.958696 kJ/mol
# GULP energy per Si atom -12392.559918 kJ/mol
# Density = 2.064097 g / cm^3
# Si number density = 20.688053 Si / 1000 Ang^3
#
#
#
# Elastic Constant Matrix: (Units=GPa)
#
#
# Indices 1 2 3 4 5 6 
#
# 1 96.5300 63.7996 54.4357 -1.7759 -0.4731 -2.6057
# 2 63.7996 111.9406 59.3190 3.8879 1.7362 13.3530
# 3 54.4357 59.3190 117.6016 -9.0023 -8.6810 0.1876
# 4 -1.7759 3.8879 -9.0023 40.2184 -1.7578 -3.1093
# 5 -0.4731 1.7362 -8.6810 -1.7578 39.6837 -0.9517
# 6 -2.6057 13.3530 0.1876 -3.1093 -0.9517 34.4769
#
#
#
# Elastic Compliance Matrix: (Units=1/GPa)
#
#
# Indices 1 2 3 4 5 6 
#
# 1 0.018942 -0.009357 -0.003965 0.001252 -0.000052 0.005189
# 2 -0.009357 0.018270 -0.005369 -0.004122 -0.002464 -0.008194
# 3 -0.003965 -0.005369 0.013575 0.003695 0.003372 0.002132
# 4 0.001252 -0.004122 0.003695 0.026564 0.002279 0.004130
# 5 -0.000052 -0.002464 0.003372 0.002279 0.026190 0.001861
# 6 0.005189 -0.008194 0.002132 0.004130 0.001861 0.032983
#
#
# Mechanical properties :
#
#
# Convention : Reuss Voigt Hill
#
# Bulk Modulus (GPa) = 74.59003 75.68675 75.13839
# Shear Modulus (GPa) = 28.03126 32.77700 30.40413
#
# Velocity S-wave (km/s) = 3.68496 3.98470 3.83776
# Velocity P-wave (km/s) = 7.36465 7.60491 7.48574
#
# Compressibility (1/GPa) = 0.01340662
#
# Stress axis : x y z
#
# Youngs Moduli (GPa) = 52.79224 54.73509 73.66538
#
# Poissons Ratio (x) = 0.51213 0.29207
# Poissons Ratio (y) = 0.49395 0.39550
# Poissons Ratio (z) = 0.20931 0.29386
#
# Static dielectric constant tensor:
#      x y z
#    x 3.324130 0.761300 -0.678770 
#    y 0.761300 1.555090 1.055810 
#    z -0.678770 1.055810 3.525660 
# 
# 
# High freq. dielectric constant tensor:
#      x y z
#    x 1.805220 -0.015360 -0.018910 
#    y -0.015360 1.799090 -0.008870 
#    z -0.018910 -0.008870 1.816760 
# 
# From -- ./inp_files/357305.got.cif
#   From: 2010.06.25/outbox.cif.g09.slc.cpg/sg2_179_cif.got.tgz:357305.got - 2010.06.27 13:26:56.
