data_PCOD8007128
_publ_section_title
;
Structure prediction by ZEFSAII (Michael W. Deem and Ramdas Pophale) SiO2 
 PCOD8007128
Probable space group: P -1
;
_chemical_formula_sum "Si O2"
_cell_formula_units_Z 16
_cell_length_a 11.728087
_cell_length_b 9.045476
_cell_length_c 10.164062
_cell_angle_alpha 118.872661
_cell_angle_beta 122.977137
_cell_angle_gamma 86.975283
_cell_volume 759.031193
_symmetry_space_group_name_H-M "P -1"
_symmetry_group_IT_number 2
_symmetry_cell_setting 'triclinic'
loop_
_space_group_symop_operation_xyz
x,y,z
-x,-y,-z
loop_
_atom_site_type_symbol
_atom_site_label
_atom_site_fract_x
_atom_site_fract_y
_atom_site_fract_z
Si Si1 0.345309 0.878470 0.375872
Si Si2 0.109627 0.264461 0.167071
Si Si3 0.610120 0.654836 0.963551
Si Si4 0.839408 0.956217 0.123775
Si Si5 0.691100 0.516390 0.223598
Si Si6 0.852587 0.881549 0.607158
Si Si7 0.808437 0.248249 0.041397
Si Si8 0.365978 0.537570 0.363223
O O1 0.365580 0.739845 0.438514
O O2 0.500000 0.000000 0.500000
O O3 0.243260 0.986613 0.421231
O O4 0.293540 0.789229 0.164792
O O5 0.122270 0.118276 0.219193
O O6 0.235984 0.443725 0.335787
O O7 0.966824 0.317375 0.117310
O O8 0.114728 0.189628 0.993609
O O9 0.438835 0.617428 0.834225
O O10 0.652581 0.537034 0.828310
O O11 0.707490 0.858596 0.094148
O O12 0.638108 0.600703 0.102428
O O13 0.779101 0.078090 0.042656
O O14 0.989210 0.056735 0.334897
O O15 0.776020 0.680229 0.435721
O O16 0.792485 0.405116 0.190467
O O17 0.500000 0.500000 0.500000
#
# Coordination Sequence:
#
# PCOD8007128 Si02
#       8
#     2   2   2   2   2   2   2   2
#     4  12  23  37  64  98 123 163 216 259 311 368
#     4  10  20  40  67  95 126 162 210 268 319 359
#     4  10  23  41  61  87 129 176 198 259 326 371
#     4  10  21  40  68  93 126 164 216 268 310 364
#     4  11  24  41  61  90 136 172 208 249 323 387
#     4  11  22  42  65  94 129 166 209 263 315 377
#     4  11  22  41  65  95 125 169 209 257 319 381
#     4  11  23  40  66  98 125 158 214 270 312 371
#
# _framework density 21.079502999999999
#
# number of rings (size 3 to 8) (size 9 to 14) (size 15 to 20)
#    0.000    1.250    3.750    3.000    3.500    4.500 
#    0.000    2.500    0.000    0.000    0.000    0.000 
#    0.000    0.000    0.000    0.000    0.000    0.000 
#
# Total GULP energy -198303.198107 kJ/mol
# GULP energy per Si atom -12393.949882 kJ/mol
# Density = 2.103153 g / cm^3
# Si number density = 21.079503 Si / 1000 Ang^3
#
#
#
# Elastic Constant Matrix: (Units=GPa)
#
#
# Indices 1 2 3 4 5 6 
#
# 1 86.9916 49.8498 50.9938 12.3325 23.5199 4.3722
# 2 49.8498 122.7067 36.8220 5.4622 26.6944 -2.8399
# 3 50.9938 36.8220 93.3320 5.8216 32.4552 0.9523
# 4 12.3325 5.4622 5.8216 29.0859 3.1735 4.3556
# 5 23.5199 26.6944 32.4552 3.1735 43.4217 11.9767
# 6 4.3722 -2.8399 0.9523 4.3556 11.9767 40.0596
#
#
#
# Elastic Compliance Matrix: (Units=1/GPa)
#
#
# Indices 1 2 3 4 5 6 
#
# 1 0.020730 -0.005509 -0.008589 -0.005727 -0.000544 -0.001663
# 2 -0.005509 0.011481 0.000182 0.000260 -0.005025 0.002885
# 3 -0.008589 0.000182 0.018989 0.000427 -0.010690 0.003649
# 4 -0.005727 0.000260 0.000427 0.037125 0.000925 -0.003680
# 5 -0.000544 -0.005025 -0.010690 0.000925 0.037466 -0.011345
# 6 -0.001663 0.002885 0.003649 -0.003680 -0.011345 0.029054
#
#
# Mechanical properties :
#
#
# Convention : Reuss Voigt Hill
#
# Bulk Modulus (GPa) = 42.79361 64.26241 53.52801
# Shear Modulus (GPa) = 26.25117 33.53773 29.89445
#
# Velocity S-wave (km/s) = 3.53277 3.99308 3.76995
# Velocity P-wave (km/s) = 6.08159 7.19802 6.66323
#
# Compressibility (1/GPa) = 0.02336797
#
# Stress axis : x y z
#
# Youngs Moduli (GPa) = 48.23911 87.09719 52.66197
#
# Poissons Ratio (x) = 0.47984 0.45232
# Poissons Ratio (y) = 0.26576 -0.00959
# Poissons Ratio (z) = 0.41434 -0.01587
#
# Static dielectric constant tensor:
#      x y z
#    x 4.034580 0.208810 0.307550 
#    y 0.208810 4.104730 -0.118100 
#    z 0.307550 -0.118100 4.410960 
# 
# 
# High freq. dielectric constant tensor:
#      x y z
#    x 1.824540 0.008390 0.021010 
#    y 0.008390 1.819660 0.005550 
#    z 0.021010 0.005550 1.828740 
# 
# From -- ./inp_files/320280.got.cif
#   From: 2010.06.25/outbox.cif.g09.slc.cpg/sg2_161_cif.got.tgz:320280.got - 2010.06.27 13:26:56.
