data_PCOD8007575
_publ_section_title
;
Structure prediction by ZEFSAII (Michael W. Deem and Ramdas Pophale) SiO2 
 PCOD8007575
Probable space group: P -1
;
_chemical_formula_sum "Si O2"
_cell_formula_units_Z 16
_cell_length_a 7.412151
_cell_length_b 13.967046
_cell_length_c 11.831332
_cell_angle_alpha 61.715413
_cell_angle_beta 104.046244
_cell_angle_gamma 135.404372
_cell_volume 748.350290
_symmetry_space_group_name_H-M "P -1"
_symmetry_group_IT_number 2
_symmetry_cell_setting 'triclinic'
loop_
_space_group_symop_operation_xyz
x,y,z
-x,-y,-z
loop_
_atom_site_type_symbol
_atom_site_label
_atom_site_fract_x
_atom_site_fract_y
_atom_site_fract_z
Si Si1 0.693861 0.595021 0.873718
Si Si2 0.048699 0.663532 0.064083
Si Si3 0.319451 0.147407 0.741389
Si Si4 0.260043 0.084824 0.176472
Si Si5 0.486996 0.303443 0.903747
Si Si6 0.277459 0.860713 0.199896
Si Si7 0.744499 0.327415 0.534228
Si Si8 0.597091 0.322656 0.266738
O O1 0.638911 0.479090 0.837948
O O2 0.643987 0.689914 0.751384
O O3 0.500000 0.500000 0.000000
O O4 0.976017 0.699574 0.917723
O O5 0.841179 0.483811 0.159471
O O6 0.317273 0.717010 0.047588
O O7 0.072495 0.751881 0.128200
O O8 0.340294 0.239356 0.798118
O O9 0.440308 0.076271 0.827852
O O10 0.490540 0.268555 0.597027
O O11 0.013536 0.017111 0.741222
O O12 0.493473 0.183395 0.248374
O O13 0.290212 0.992827 0.151888
O O14 0.284545 0.200867 0.033526
O O15 0.187937 0.765637 0.356686
O O16 0.676197 0.298598 0.408651
O O17 0.000000 0.500000 0.500000
#
# Coordination Sequence:
#
# PCOD8007575 Si02
#       8
#     2   2   2   2   2   2   2   2
#     4  10  21  35  59  99 124 158 209 267 306 373
#     4  10  20  41  65  92 125 162 216 264 302 379
#     4   9  24  41  61  94 130 163 213 256 307 387
#     4  12  24  38  63  97 132 168 197 260 329 377
#     4  11  21  39  63  92 132 162 208 263 315 370
#     4   9  23  42  66  92 125 165 216 257 305 380
#     4  10  20  47  69  83 126 170 212 265 301 365
#     4  11  23  40  65  92 127 168 209 257 320 363
#
# _framework density 21.380362000000002
#
# number of rings (size 3 to 8) (size 9 to 14) (size 15 to 20)
#    0.750    1.000    3.750    0.750    3.500    5.000 
#    0.000    3.750    0.000    0.000    0.000    0.000 
#    0.000    0.000    0.000    0.000    0.000    0.000 
#
# Total GULP energy -198257.399991 kJ/mol
# GULP energy per Si atom -12391.087499 kJ/mol
# Density = 2.133170 g / cm^3
# Si number density = 21.380362 Si / 1000 Ang^3
#
#
#
# Elastic Constant Matrix: (Units=GPa)
#
#
# Indices 1 2 3 4 5 6 
#
# 1 45.6336 32.8132 0.2586 -3.5340 -4.2824 -1.9358
# 2 32.8132 148.1446 29.5172 15.2567 -5.2257 0.1530
# 3 0.2586 29.5172 61.0390 4.7815 -2.8105 13.8123
# 4 -3.5340 15.2567 4.7815 27.5094 4.4066 -1.9101
# 5 -4.2824 -5.2257 -2.8105 4.4066 32.1428 -3.6964
# 6 -1.9358 0.1530 13.8123 -1.9101 -3.6964 31.5103
#
#
#
# Elastic Compliance Matrix: (Units=1/GPa)
#
#
# Indices 1 2 3 4 5 6 
#
# 1 0.027993 -0.007396 0.002725 0.006997 0.001946 0.001213
# 2 -0.007396 0.009929 -0.004555 -0.005763 0.001168 0.001282
# 3 0.002725 -0.004555 0.020733 -0.001444 0.000608 -0.008915
# 4 0.006997 -0.005763 -0.001444 0.041788 -0.005518 0.002976
# 5 0.001946 0.001168 0.000608 -0.005518 0.032756 0.003355
# 6 0.001213 0.001282 -0.008915 0.002976 0.003355 0.036286
#
#
# Mechanical properties :
#
#
# Convention : Reuss Voigt Hill
#
# Bulk Modulus (GPa) = 24.87464 42.22169 33.54817
# Shear Modulus (GPa) = 24.83395 31.04772 27.94083
#
# Velocity S-wave (km/s) = 3.41182 3.81486 3.61895
# Velocity P-wave (km/s) = 5.21347 6.26059 5.76087
#
# Compressibility (1/GPa) = 0.04020158
#
# Stress axis : x y z
#
# Youngs Moduli (GPa) = 35.72379 100.71071 48.23338
#
# Poissons Ratio (x) = 0.74489 -0.13144
# Poissons Ratio (y) = 0.26423 0.21971
# Poissons Ratio (z) = -0.09735 0.45875
#
# Static dielectric constant tensor:
#      x y z
#    x 4.079230 0.317800 0.261510 
#    y 0.317800 4.306680 0.444720 
#    z 0.261510 0.444720 3.902340 
# 
# 
# High freq. dielectric constant tensor:
#      x y z
#    x 1.827420 0.006060 -0.000770 
#    y 0.006060 1.851320 0.013990 
#    z -0.000770 0.013990 1.807410 
# 
# From -- ./inp_files/395777.got.cif
#   From: 2010.06.25/outbox.cif.g09.slc.cpg/sg2_198_cif.got.tgz:395777.got - 2010.06.27 13:26:56.
