data_PCOD8007774
_publ_section_title
;
Structure prediction by ZEFSAII (Michael W. Deem and Ramdas Pophale) SiO2 
 PCOD8007774
Probable space group: P -1
;
_chemical_formula_sum "Si O2"
_cell_formula_units_Z 16
_cell_length_a 30.859200
_cell_length_b 11.502903
_cell_length_c 12.932362
_cell_angle_alpha 131.325904
_cell_angle_beta 151.531042
_cell_angle_gamma 28.211923
_cell_volume 891.505077
_symmetry_space_group_name_H-M "P -1"
_symmetry_group_IT_number 2
_symmetry_cell_setting 'triclinic'
loop_
_space_group_symop_operation_xyz
x,y,z
-x,-y,-z
loop_
_atom_site_type_symbol
_atom_site_label
_atom_site_fract_x
_atom_site_fract_y
_atom_site_fract_z
Si Si1 0.683167 0.289622 0.218193
Si Si2 0.612527 0.598184 0.531897
Si Si3 0.011709 0.139901 0.253161
Si Si4 0.699749 0.752717 0.938759
Si Si5 0.252935 0.054536 0.002040
Si Si6 0.942025 0.495699 0.976726
Si Si7 0.106420 0.005239 0.144669
Si Si8 0.342092 0.351942 0.568425
O O1 0.697948 0.453242 0.319599
O O2 0.822121 0.040088 0.447791
O O3 0.500000 0.500000 0.000000
O O4 0.735693 0.137266 0.129108
O O5 0.666201 0.689122 0.734713
O O6 0.709562 0.319689 0.629885
O O7 0.646411 0.555584 0.455810
O O8 0.418491 0.851197 0.296884
O O9 0.007821 0.184781 0.148855
O O10 0.849650 0.462728 0.151497
O O11 0.990812 0.983530 0.122864
O O12 0.759479 0.828919 0.061020
O O13 0.523810 0.022153 0.788650
O O14 0.104402 0.308438 0.919230
O O15 0.790509 0.596125 0.688998
O O16 0.000000 0.500000 0.000000
O O17 0.100693 0.170005 0.161705
#
# Coordination Sequence:
#
# PCOD8007774 Si02
#       8
#     2   2   2   2   2   2   2   2
#     4  12  21  31  53  90 121 141 162 217 302 345
#     4  10  16  30  61  82 109 134 169 241 290 312
#     4  10  18  30  54  86 113 137 168 227 290 329
#     4  10  17  29  56  81 112 135 173 233 278 315
#     4  11  20  34  50  87 118 136 179 221 278 332
#     4  12  23  38  57  76 106 154 198 223 251 313
#     4  10  17  33  54  81 106 137 185 225 272 317
#     4  11  18  35  53  82 109 140 179 218 275 336
#
# _framework density 17.947175999999999
#
# number of rings (size 3 to 8) (size 9 to 14) (size 15 to 20)
#    0.000    1.250    8.750    1.500    0.000    0.500 
#    0.000    1.250    0.000    0.000    0.000    4.375 
#    0.000    0.000    0.000    0.000    0.000    0.000 
#
# Total GULP energy -198221.871038 kJ/mol
# GULP energy per Si atom -12388.866940 kJ/mol
# Density = 1.790633 g / cm^3
# Si number density = 17.947176 Si / 1000 Ang^3
#
#
#
# Elastic Constant Matrix: (Units=GPa)
#
#
# Indices 1 2 3 4 5 6 
#
# 1 66.2415 37.3471 12.6792 -4.3683 2.4900 8.2306
# 2 37.3471 118.8145 41.9183 -2.3643 -1.2226 5.2074
# 3 12.6792 41.9183 86.1710 -13.4789 -3.1517 2.1820
# 4 -4.3683 -2.3643 -13.4789 32.5702 2.1006 -6.7246
# 5 2.4900 -1.2226 -3.1517 2.1006 8.4047 -1.7836
# 6 8.2306 5.2074 2.1820 -6.7246 -1.7836 16.3200
#
#
#
# Elastic Compliance Matrix: (Units=1/GPa)
#
#
# Indices 1 2 3 4 5 6 
#
# 1 0.019937 -0.005965 0.000025 0.001027 -0.008868 -0.008701
# 2 -0.005965 0.012189 -0.005339 -0.002449 0.001946 -0.000964
# 3 0.000025 -0.005339 0.015248 0.006218 0.003941 0.002645
# 4 0.001027 -0.002449 0.006218 0.036403 -0.004468 0.013944
# 5 -0.008868 0.001946 0.003941 -0.004468 0.127765 0.015447
# 6 -0.008701 -0.000964 0.002645 0.013944 0.015447 0.073050
#
#
# Mechanical properties :
#
#
# Convention : Reuss Voigt Hill
#
# Bulk Modulus (GPa) = 40.29814 50.56844 45.43329
# Shear Modulus (GPa) = 15.85180 23.41114 19.63147
#
# Velocity S-wave (km/s) = 2.97517 3.61563 3.31092
# Velocity P-wave (km/s) = 5.85702 6.75780 6.32347
#
# Compressibility (1/GPa) = 0.02481504
#
# Stress axis : x y z
#
# Youngs Moduli (GPa) = 50.15867 82.04377 65.58147
#
# Poissons Ratio (x) = 0.48939 -0.00162
# Poissons Ratio (y) = 0.29919 0.35014
# Poissons Ratio (z) = -0.00124 0.43804
#
# Static dielectric constant tensor:
#      x y z
#    x 2.610150 0.028780 -0.022620 
#    y 0.028780 3.848880 -0.104490 
#    z -0.022620 -0.104490 3.376370 
# 
# 
# High freq. dielectric constant tensor:
#      x y z
#    x 1.601950 0.007730 -0.005540 
#    y 0.007730 1.730180 -0.008850 
#    z -0.005540 -0.008850 1.694060 
# 
# From -- ./inp_files/438258.got.cif
#   From: 2010.06.25/outbox.cif.g09.slc.cpg/sg2_220_cif.got.tgz:438258.got - 2010.06.27 13:26:56.
