data_PCOD8007006
_publ_section_title
;
Structure prediction by ZEFSAII (Michael W. Deem and Ramdas Pophale) SiO2 
 PCOD8007006
Probable space group: P -1
;
_chemical_formula_sum "Si O2"
_cell_formula_units_Z 14
_cell_length_a 19.015524
_cell_length_b 8.703824
_cell_length_c 12.025800
_cell_angle_alpha 46.782869
_cell_angle_beta 29.480767
_cell_angle_gamma 40.065276
_cell_volume 629.396510
_symmetry_space_group_name_H-M "P -1"
_symmetry_group_IT_number 2
_symmetry_cell_setting 'triclinic'
loop_
_space_group_symop_operation_xyz
x,y,z
-x,-y,-z
loop_
_atom_site_type_symbol
_atom_site_label
_atom_site_fract_x
_atom_site_fract_y
_atom_site_fract_z
Si Si1 0.507872 0.509144 0.232866
Si Si2 0.011584 0.659371 0.040443
Si Si3 0.172365 0.547472 0.109258
Si Si4 0.011291 0.950496 0.288118
Si Si5 0.705717 0.004471 0.792891
Si Si6 0.724672 0.704349 0.289670
Si Si7 0.659434 0.133604 0.040400
O O1 0.377355 0.437735 0.496427
O O2 0.550312 0.405420 0.098875
O O3 0.433543 0.797775 0.192163
O O4 0.672506 0.399474 0.134699
O O5 0.139615 0.406613 0.938731
O O6 0.057764 0.652590 0.108700
O O7 0.027694 0.871272 0.850968
O O8 0.827985 0.690021 0.266586
O O9 0.062631 0.687300 0.297096
O O10 0.249670 0.265154 0.161957
O O11 0.864187 0.033903 0.535298
O O12 0.151484 0.948914 0.170682
O O13 0.630248 0.086552 0.978125
O O14 0.611438 0.976920 0.270019
#
# Coordination Sequence:
#
# PCOD8007006 Si02
#       7
#     2   2   2   2   2   2   2
#     4  11  24  41  61  92 126 159 199 251 305 358
#     4  10  20  40  66  92 117 154 207 255 295 357
#     4  11  24  41  61  92 126 159 199 251 305 358
#     4  10  22  40  64  91 121 158 206 251 299 358
#     4  12  22  40  60  88 125 168 199 244 297 362
#     4  10  20  40  66  92 117 154 207 255 295 357
#     4  10  22  40  64  91 121 158 206 251 299 358
#
# _framework density 22.243528999999999
#
# number of rings (size 3 to 8) (size 9 to 14) (size 15 to 20)
#    0.000    1.429    2.857    2.571    0.000    1.714 
#    0.000    2.857    0.000    0.000    0.000    0.000 
#    0.000    0.000    0.000    0.000    0.000    0.000 
#
# Total GULP energy -173510.139860 kJ/mol
# GULP energy per Si atom -12393.581419 kJ/mol
# Density = 2.219290 g / cm^3
# Si number density = 22.243529 Si / 1000 Ang^3
#
#
#
# Elastic Constant Matrix: (Units=GPa)
#
#
# Indices 1 2 3 4 5 6 
#
# 1 77.0307 -1.9691 8.5559 -5.7965 -8.0738 -2.2130
# 2 -1.9691 99.1238 -6.6360 -4.5604 2.0037 7.1527
# 3 8.5559 -6.6360 60.5454 -6.2690 -9.4257 -12.9885
# 4 -5.7965 -4.5604 -6.2690 24.8900 4.9214 -0.0488
# 5 -8.0738 2.0037 -9.4257 4.9214 25.0005 4.7366
# 6 -2.2130 7.1527 -12.9885 -0.0488 4.7366 24.4331
#
#
#
# Elastic Compliance Matrix: (Units=1/GPa)
#
#
# Indices 1 2 3 4 5 6 
#
# 1 0.013651 0.000234 -0.001148 0.002233 0.003541 -0.000124
# 2 0.000234 0.010438 0.000724 0.002232 -0.000442 -0.002559
# 3 -0.001148 0.000724 0.019888 0.004003 0.004502 0.009392
# 4 0.002233 0.002232 0.004003 0.043526 -0.007112 0.003142
# 5 0.003541 -0.000442 0.004502 -0.007112 0.045407 -0.005973
# 6 -0.000124 -0.002559 0.009392 0.003142 -0.005973 0.047823
#
#
# Mechanical properties :
#
#
# Convention : Reuss Voigt Hill
#
# Bulk Modulus (GPa) = 22.93639 26.28905 24.61272
# Shear Modulus (GPa) = 25.55656 30.64801 28.10229
#
# Velocity S-wave (km/s) = 3.39328 3.71595 3.55828
# Velocity P-wave (km/s) = 5.06817 5.50050 5.28875
#
# Compressibility (1/GPa) = 0.04359884
#
# Stress axis : x y z
#
# Youngs Moduli (GPa) = 73.25536 95.80544 50.28109
#
# Poissons Ratio (x) = -0.02246 0.05770
# Poissons Ratio (y) = -0.01717 -0.03641
# Poissons Ratio (z) = 0.08407 -0.06937
#
# Static dielectric constant tensor:
#      x y z
#    x 3.718890 0.036000 -0.192890 
#    y 0.036000 4.306910 0.122080 
#    z -0.192890 0.122080 3.812490 
# 
# 
# High freq. dielectric constant tensor:
#      x y z
#    x 1.853820 0.006260 -0.013110 
#    y 0.006260 1.899090 0.008970 
#    z -0.013110 0.008970 1.862460 
# 
# From -- ./inp_files/152126.got.cif
#   From: 2010.06.25/outbox.cif.g09.slc.cpg/sg2_77_cif.got.tgz:152126.got - 2010.06.27 13:26:56.
