data_PCOD8007409
_publ_section_title
;
Structure prediction by ZEFSAII (Michael W. Deem and Ramdas Pophale) SiO2 
 PCOD8007409
Probable space group: P -1
;
_chemical_formula_sum "Si O2"
_cell_formula_units_Z 14
_cell_length_a 13.731334
_cell_length_b 18.548149
_cell_length_c 6.833354
_cell_angle_alpha 78.954031
_cell_angle_beta 98.405116
_cell_angle_gamma 158.291974
_cell_volume 629.370735
_symmetry_space_group_name_H-M "P -1"
_symmetry_group_IT_number 2
_symmetry_cell_setting 'triclinic'
loop_
_space_group_symop_operation_xyz
x,y,z
-x,-y,-z
loop_
_atom_site_type_symbol
_atom_site_label
_atom_site_fract_x
_atom_site_fract_y
_atom_site_fract_z
Si Si1 0.958701 0.980189 0.223245
Si Si2 0.167096 0.629354 0.788946
Si Si3 0.343902 0.949511 0.118009
Si Si4 0.541752 0.537083 0.262622
Si Si5 0.066770 0.432918 0.579593
Si Si6 0.569260 0.691155 0.562798
Si Si7 0.054441 0.204831 0.057521
O O1 0.685981 0.751916 0.342425
O O2 0.190225 0.102332 0.358469
O O3 0.928235 0.047626 0.217604
O O4 0.000000 0.000000 0.000000
O O5 0.023883 0.585759 0.625391
O O6 0.183073 0.562377 0.721681
O O7 0.454487 0.860005 0.802247
O O8 0.000000 0.500000 0.000000
O O9 0.169558 0.782661 0.305468
O O10 0.159327 0.878050 0.980356
O O11 0.500000 0.000000 0.000000
O O12 0.500000 0.500000 0.500000
O O13 0.503076 0.424165 0.252048
O O14 0.298805 0.409419 0.147424
O O15 0.833371 0.752077 0.140826
O O16 0.313854 0.559961 0.506620
#
# Coordination Sequence:
#
# PCOD8007409 Si02
#       7
#     2   2   2   2   2   2   2
#     4  10  22  39  63  96 135 170 218 278 342 408
#     4  11  26  46  71  99 132 183 235 286 349 405
#     4  12  25  47  71 101 143 186 235 289 348 410
#     4  10  20  41  62  93 129 172 220 274 344 403
#     4  11  25  47  69  98 141 178 236 293 337 421
#     4  10  22  39  62  95 129 173 221 275 341 402
#     4  10  23  39  63  97 133 170 227 275 331 415
#
# _framework density 22.244439
#
# number of rings (size 3 to 8) (size 9 to 14) (size 15 to 20)
#    0.000    1.429    2.857    1.286    4.000    1.143 
#    2.571    0.000    0.000    0.000    0.000    0.000 
#    0.000    0.000    0.000    0.000    0.000    0.000 
#
# Total GULP energy -173446.402070 kJ/mol
# GULP energy per Si atom -12389.028719 kJ/mol
# Density = 2.219381 g / cm^3
# Si number density = 22.244439 Si / 1000 Ang^3
#
#
#
# Elastic Constant Matrix: (Units=GPa)
#
#
# Indices 1 2 3 4 5 6 
#
# 1 69.7688 36.6074 25.0818 -2.4585 11.8500 23.1584
# 2 36.6074 126.4225 43.8050 -11.6172 1.2119 5.5713
# 3 25.0818 43.8050 135.3587 -9.7796 -3.8845 11.9756
# 4 -2.4585 -11.6172 -9.7796 44.4733 -4.1499 6.2921
# 5 11.8500 1.2119 -3.8845 -4.1499 26.3647 -9.1752
# 6 23.1584 5.5713 11.9756 6.2921 -9.1752 42.5832
#
#
#
# Elastic Compliance Matrix: (Units=1/GPa)
#
#
# Indices 1 2 3 4 5 6 
#
# 1 0.027185 -0.006222 -0.001997 0.000194 -0.018241 -0.017368
# 2 -0.006222 0.010501 -0.002298 0.001765 0.003337 0.003114
# 3 -0.001997 -0.002298 0.008749 0.001539 0.002250 -0.000817
# 4 0.000194 0.001765 0.001539 0.024066 0.002531 -0.003780
# 5 -0.018241 0.003337 0.002250 0.002531 0.053680 0.020043
# 6 -0.017368 0.003114 -0.000817 -0.003780 0.020043 0.037628
#
#
# Mechanical properties :
#
#
# Convention : Reuss Voigt Hill
#
# Bulk Modulus (GPa) = 39.36590 60.28203 49.82396
# Shear Modulus (GPa) = 26.13559 37.75462 31.94510
#
# Velocity S-wave (km/s) = 3.43144 4.12425 3.79369
# Velocity P-wave (km/s) = 5.78231 7.05960 6.45264
#
# Compressibility (1/GPa) = 0.02540270
#
# Stress axis : x y z
#
# Youngs Moduli (GPa) = 36.78438 95.23193 114.29439
#
# Poissons Ratio (x) = 0.59254 0.22822
# Poissons Ratio (y) = 0.22887 0.26260
# Poissons Ratio (z) = 0.07345 0.21880
#
# Static dielectric constant tensor:
#      x y z
#    x 4.463110 -0.809700 0.179560 
#    y -0.809700 5.108610 -0.395160 
#    z 0.179560 -0.395160 4.602800 
# 
# 
# High freq. dielectric constant tensor:
#      x y z
#    x 1.868290 -0.015890 0.012560 
#    y -0.015890 1.891070 -0.011390 
#    z 0.012560 -0.011390 1.894510 
# 
# From -- ./inp_files/100579.got.cif
#   From: 2010.06.25/outbox.cif.g09.slc.cpg/sg2_51_cif.got.tgz:100579.got - 2010.06.27 13:26:56.
