data_PCOD8007217
_publ_section_title
;
Structure prediction by ZEFSAII (Michael W. Deem and Ramdas Pophale) SiO2 
 PCOD8007217
Probable space group: P -1
;
_chemical_formula_sum "Si O2"
_cell_formula_units_Z 14
_cell_length_a 9.177094
_cell_length_b 12.289450
_cell_length_c 12.956068
_cell_angle_alpha 144.877951
_cell_angle_beta 128.809720
_cell_angle_gamma 46.014946
_cell_volume 598.758362
_symmetry_space_group_name_H-M "P -1"
_symmetry_group_IT_number 2
_symmetry_cell_setting 'triclinic'
loop_
_space_group_symop_operation_xyz
x,y,z
-x,-y,-z
loop_
_atom_site_type_symbol
_atom_site_label
_atom_site_fract_x
_atom_site_fract_y
_atom_site_fract_z
Si Si1 0.202566 0.622622 0.624980
Si Si2 0.382957 0.957322 0.586114
Si Si3 0.173213 0.193074 0.272756
Si Si4 0.500606 0.434223 0.787715
Si Si5 0.204872 0.222962 0.090691
Si Si6 0.775286 0.577048 0.157927
Si Si7 0.353323 0.850085 0.717929
O O1 0.151679 0.427452 0.427424
O O2 0.398555 0.563310 0.740424
O O3 0.247472 0.703883 0.599249
O O4 0.007763 0.805397 0.733354
O O5 0.236902 0.191273 0.675413
O O6 0.612321 0.949090 0.689860
O O7 0.373795 0.807383 0.373551
O O8 0.317091 0.881898 0.604362
O O9 0.157668 0.114716 0.088784
O O10 0.316588 0.458079 0.802232
O O11 0.653640 0.527197 0.972178
O O12 0.406564 0.262900 0.236675
O O13 0.013656 0.433689 0.142506
O O14 0.247084 0.073547 0.896496
#
# Coordination Sequence:
#
# PCOD8007217 Si02
#       7
#     2   2   2   2   2   2   2
#     4  10  20  40  68  98 125 162 221 274 316 386
#     4  10  23  44  66  96 135 171 212 272 326 390
#     4   9  20  39  69  95 120 169 218 271 326 360
#     4  10  23  40  68 101 125 174 221 271 322 384
#     4  10  22  42  63  95 130 172 217 261 324 388
#     4  11  23  43  67  95 133 174 219 268 324 387
#     4  10  24  42  66  97 130 169 215 268 332 379
#
# _framework density 23.381720000000001
#
# number of rings (size 3 to 8) (size 9 to 14) (size 15 to 20)
#    0.000    2.000    1.429    0.429    6.000    8.571 
#    2.571    0.714    0.000    0.000    0.000    0.000 
#    0.000    0.000    0.000    0.000    0.000    0.000 
#
# Total GULP energy -173621.666391 kJ/mol
# GULP energy per Si atom -12401.547599 kJ/mol
# Density = 2.332850 g / cm^3
# Si number density = 23.381720 Si / 1000 Ang^3
#
#
#
# Elastic Constant Matrix: (Units=GPa)
#
#
# Indices 1 2 3 4 5 6 
#
# 1 109.9306 39.9195 21.2226 14.4833 -15.7221 -9.3509
# 2 39.9195 71.7705 -1.9593 23.9585 -4.5572 -10.6549
# 3 21.2226 -1.9593 69.7628 6.4475 -19.8211 -5.5593
# 4 14.4833 23.9585 6.4475 29.4003 0.2696 -10.2120
# 5 -15.7221 -4.5572 -19.8211 0.2696 31.3377 9.4229
# 6 -9.3509 -10.6549 -5.5593 -10.2120 9.4229 29.7500
#
#
#
# Elastic Compliance Matrix: (Units=1/GPa)
#
#
# Indices 1 2 3 4 5 6 
#
# 1 0.012698 -0.006951 -0.003089 -0.000005 0.003458 -0.000173
# 2 -0.006951 0.023955 0.005378 -0.017159 0.003417 0.000427
# 3 -0.003089 0.005378 0.019470 -0.007938 0.012217 -0.002001
# 4 -0.000005 -0.017159 -0.007938 0.055168 -0.012592 0.015295
# 5 0.003458 0.003417 0.012217 -0.012592 0.046307 -0.014396
# 6 -0.000173 0.000427 -0.002001 0.015295 -0.014396 0.043148
#
#
# Mechanical properties :
#
#
# Convention : Reuss Voigt Hill
#
# Bulk Modulus (GPa) = 21.36800 41.09216 31.23008
# Shear Modulus (GPa) = 22.15628 30.91634 26.53631
#
# Velocity S-wave (km/s) = 3.08163 3.64021 3.37251
# Velocity P-wave (km/s) = 4.67125 5.93977 5.34329
#
# Compressibility (1/GPa) = 0.04679894
#
# Stress axis : x y z
#
# Youngs Moduli (GPa) = 78.75416 41.74480 51.35998
#
# Poissons Ratio (x) = 0.29019 0.15865
# Poissons Ratio (y) = 0.54745 -0.27623
# Poissons Ratio (z) = 0.24327 -0.22451
#
# Static dielectric constant tensor:
#      x y z
#    x 4.311570 -0.160350 -0.476080 
#    y -0.160350 3.936620 -0.003100 
#    z -0.476080 -0.003100 4.292240 
# 
# 
# High freq. dielectric constant tensor:
#      x y z
#    x 1.922860 -0.007270 -0.026270 
#    y -0.007270 1.911100 0.002180 
#    z -0.026270 0.002180 1.929300 
# 
# From -- ./inp_files/186604.got.cif
#   From: 2010.06.25/outbox.cif.g09.slc.cpg/sg2_94_cif.got.tgz:186604.got - 2010.06.27 13:26:56.
