data_PCOD8007832
_publ_section_title
;
Structure prediction by ZEFSAII (Michael W. Deem and Ramdas Pophale) SiO2 
 PCOD8007832
Probable space group: P -1
;
_chemical_formula_sum "Si O2"
_cell_formula_units_Z 16
_cell_length_a 19.492786
_cell_length_b 6.202428
_cell_length_c 23.648411
_cell_angle_alpha 50.738430
_cell_angle_beta 20.080484
_cell_angle_gamma 59.273889
_cell_volume 721.639632
_symmetry_space_group_name_H-M "P -1"
_symmetry_group_IT_number 2
_symmetry_cell_setting 'triclinic'
loop_
_space_group_symop_operation_xyz
x,y,z
-x,-y,-z
loop_
_atom_site_type_symbol
_atom_site_label
_atom_site_fract_x
_atom_site_fract_y
_atom_site_fract_z
Si Si1 0.236859 0.176559 0.855649
Si Si2 0.892415 0.085085 0.289317
Si Si3 0.815176 0.687196 0.248405
Si Si4 0.602757 0.142685 0.995761
Si Si5 0.107035 0.185942 0.216962
Si Si6 0.533222 0.740677 0.551845
Si Si7 0.747328 0.137718 0.003763
Si Si8 0.834425 0.810838 0.703274
O O1 0.300279 0.226093 0.731815
O O2 0.305307 0.499270 0.779369
O O3 0.357877 0.004313 0.831256
O O4 0.991333 0.990254 0.080263
O O5 0.905411 0.420253 0.208514
O O6 0.920422 0.027633 0.344020
O O7 0.664458 0.857862 0.487623
O O8 0.078157 0.016430 0.122528
O O9 0.658831 0.583853 0.439233
O O10 0.579501 0.100010 0.089103
O O11 0.771975 0.462023 0.798246
O O12 0.682571 0.892825 0.948082
O O13 0.377509 0.101124 0.149850
O O14 0.142620 0.525625 0.123776
O O15 0.051850 0.100658 0.338907
O O16 0.500000 0.000000 0.500000
O O17 0.000000 0.000000 0.500000
#
# Coordination Sequence:
#
# PCOD8007832 Si02
#       8
#     2   2   2   2   2   2   2   2
#     4  11  23  41  66  90 123 170 217 267 318 380
#     4  11  21  42  66  85 131 173 205 271 327 364
#     4  11  24  43  61  90 127 165 221 270 319 376
#     4   9  21  41  66  94 134 164 199 266 315 375
#     4  10  20  41  69  91 133 171 204 262 325 377
#     4  12  25  41  61  90 127 166 220 274 323 371
#     4  10  21  42  65  92 126 169 213 258 322 375
#     4  10  21  41  70  98 126 164 211 251 315 387
#
# _framework density 22.171731999999999
#
# number of rings (size 3 to 8) (size 9 to 14) (size 15 to 20)
#    0.000    1.500    3.750    0.750    0.000    3.500 
#    9.000    0.000    5.500    0.000    0.000    0.000 
#    0.000    0.000    0.000    0.000    0.000    0.000 
#
# Total GULP energy -198223.510913 kJ/mol
# GULP energy per Si atom -12388.969432 kJ/mol
# Density = 2.212127 g / cm^3
# Si number density = 22.171732 Si / 1000 Ang^3
#
#
#
# Elastic Constant Matrix: (Units=GPa)
#
#
# Indices 1 2 3 4 5 6 
#
# 1 191.2934 46.6510 60.2491 -26.9349 8.4839 2.3101
# 2 46.6510 126.3806 42.0167 -5.7419 -3.4993 -4.2981
# 3 60.2491 42.0167 80.5126 -24.9684 -7.2792 6.5687
# 4 -26.9349 -5.7419 -24.9684 25.6798 4.7684 -0.3047
# 5 8.4839 -3.4993 -7.2792 4.7684 40.0757 -7.8885
# 6 2.3101 -4.2981 6.5687 -0.3047 -7.8885 30.8624
#
#
#
# Elastic Compliance Matrix: (Units=1/GPa)
#
#
# Indices 1 2 3 4 5 6 
#
# 1 0.007528 -0.001459 -0.003678 0.004556 -0.003074 -0.000725
# 2 -0.001459 0.010392 -0.006137 -0.005390 0.001364 0.003158
# 3 -0.003678 -0.006137 0.024643 0.018390 0.001495 -0.005261
# 4 0.004556 -0.005390 0.018390 0.061552 -0.006617 -0.006089
# 5 -0.003074 0.001364 0.001495 -0.006617 0.028208 0.007247
# 6 -0.000725 0.003158 -0.005261 -0.006089 0.007247 0.035808
#
#
# Mechanical properties :
#
#
# Convention : Reuss Voigt Hill
#
# Bulk Modulus (GPa) = 49.96275 77.33558 63.64916
# Shear Modulus (GPa) = 25.33555 35.94156 30.63855
#
# Velocity S-wave (km/s) = 3.38405 4.03060 3.72139
# Velocity P-wave (km/s) = 6.15243 7.52442 6.87275
#
# Compressibility (1/GPa) = 0.02001491
#
# Stress axis : x y z
#
# Youngs Moduli (GPa) = 132.83002 96.22966 40.57918
#
# Poissons Ratio (x) = 0.14039 0.14926
# Poissons Ratio (y) = 0.19378 0.24904
# Poissons Ratio (z) = 0.48858 0.59058
#
# Static dielectric constant tensor:
#      x y z
#    x 4.846310 0.191640 0.128280 
#    y 0.191640 4.234610 0.047310 
#    z 0.128280 0.047310 3.990910 
# 
# 
# High freq. dielectric constant tensor:
#      x y z
#    x 1.906170 0.000710 -0.006410 
#    y 0.000710 1.872260 -0.018380 
#    z -0.006410 -0.018380 1.829330 
# 
# From -- ./inp_files/613412.got.cif
#   From: 2010.06.25/outbox.cif.g09.slc.cpg/sg2_307_cif.got.tgz:613412.got - 2010.06.27 13:26:56.
