data_PCOD8007654
_publ_section_title
;
Structure prediction by ZEFSAII (Michael W. Deem and Ramdas Pophale) SiO2 
 PCOD8007654
Probable space group: P -1
;
_chemical_formula_sum "Si O2"
_cell_formula_units_Z 16
_cell_length_a 14.540823
_cell_length_b 10.638120
_cell_length_c 11.477141
_cell_angle_alpha 120.832070
_cell_angle_beta 146.936874
_cell_angle_gamma 52.258674
_cell_volume 765.929752
_symmetry_space_group_name_H-M "P -1"
_symmetry_group_IT_number 2
_symmetry_cell_setting 'triclinic'
loop_
_space_group_symop_operation_xyz
x,y,z
-x,-y,-z
loop_
_atom_site_type_symbol
_atom_site_label
_atom_site_fract_x
_atom_site_fract_y
_atom_site_fract_z
Si Si1 0.813101 0.650822 0.894891
Si Si2 0.175719 0.525471 0.547668
Si Si3 0.552614 0.691381 0.440046
Si Si4 0.838868 0.440374 0.179718
Si Si5 0.159210 0.890653 0.033327
Si Si6 0.556098 0.581466 0.761969
Si Si7 0.868282 0.954135 0.170855
Si Si8 0.780008 0.177368 0.379711
O O1 0.699263 0.730485 0.694003
O O2 0.694175 0.580987 0.810096
O O3 0.848289 0.786080 0.069103
O O4 0.000000 0.500000 0.000000
O O5 0.350818 0.378905 0.613798
O O6 0.200546 0.532669 0.713980
O O7 0.158715 0.688139 0.545779
O O8 0.991892 0.495932 0.315872
O O9 0.513418 0.557516 0.408924
O O10 0.361047 0.840459 0.283307
O O11 0.894065 0.257500 0.119386
O O12 0.647937 0.545544 0.969213
O O13 0.159631 0.980286 0.957468
O O14 0.000000 0.000000 0.000000
O O15 0.391469 0.751189 0.682058
O O16 0.064922 0.935074 0.421955
O O17 0.731010 0.078704 0.176841
#
# Coordination Sequence:
#
# PCOD8007654 Si02
#       8
#     2   2   2   2   2   2   2   2
#     4  12  25  42  66  93 129 164 212 259 311 376
#     4  10  20  41  66  95 120 162 214 262 305 367
#     4  10  24  40  67  91 125 165 213 254 311 376
#     4  10  21  39  67  93 125 164 210 258 311 369
#     4  11  26  42  62  92 135 171 202 253 318 381
#     4  10  22  39  67  91 119 162 212 266 307 366
#     4  11  25  42  64  90 130 168 203 262 317 368
#     4  10  22  43  67  92 123 162 215 261 315 367
#
# _framework density 20.889643
#
# number of rings (size 3 to 8) (size 9 to 14) (size 15 to 20)
#    0.000    1.500    1.250    3.375    8.750    2.500 
#    0.000    0.000    0.000    0.000    0.000    0.000 
#    0.000    0.000    0.000    0.000    0.000    0.000 
#
# Total GULP energy -198374.679593 kJ/mol
# GULP energy per Si atom -12398.417475 kJ/mol
# Density = 2.084210 g / cm^3
# Si number density = 20.889643 Si / 1000 Ang^3
#
#
#
# Elastic Constant Matrix: (Units=GPa)
#
#
# Indices 1 2 3 4 5 6 
#
# 1 102.0761 35.4333 29.7967 -6.3125 7.1558 -16.3125
# 2 35.4333 87.1783 37.3450 -2.9705 0.9674 -16.3029
# 3 29.7967 37.3450 91.4171 2.2872 -3.4369 -11.2309
# 4 -6.3125 -2.9705 2.2872 37.8120 -1.1772 3.1759
# 5 7.1558 0.9674 -3.4369 -1.1772 26.0016 -5.4897
# 6 -16.3125 -16.3029 -11.2309 3.1759 -5.4897 29.3468
#
#
#
# Elastic Compliance Matrix: (Units=1/GPa)
#
#
# Indices 1 2 3 4 5 6 
#
# 1 0.012511 -0.003299 -0.002449 0.001597 -0.002837 0.003481
# 2 -0.003299 0.015828 -0.004730 0.000564 0.000826 0.005243
# 3 -0.002449 -0.004730 0.014095 -0.001719 0.003093 0.002170
# 4 0.001597 0.000564 -0.001719 0.027062 0.000035 -0.002379
# 5 -0.002837 0.000826 0.003093 0.000035 0.041262 0.007781
# 6 0.003481 0.005243 0.002170 -0.002379 0.007781 0.041466
#
#
# Mechanical properties :
#
#
# Convention : Reuss Voigt Hill
#
# Bulk Modulus (GPa) = 46.55828 53.98014 50.26921
# Shear Modulus (GPa) = 27.72552 30.50518 29.11535
#
# Velocity S-wave (km/s) = 3.64708 3.82554 3.73737
# Velocity P-wave (km/s) = 6.33017 6.73867 6.53761
#
# Compressibility (1/GPa) = 0.02147846
#
# Stress axis : x y z
#
# Youngs Moduli (GPa) = 79.93284 63.17866 70.94628
#
# Poissons Ratio (x) = 0.20842 0.17375
# Poissons Ratio (y) = 0.26369 0.33555
# Poissons Ratio (z) = 0.19576 0.29882
#
# Static dielectric constant tensor:
#      x y z
#    x 3.739190 -0.078000 -0.000820 
#    y -0.078000 3.837710 0.083930 
#    z -0.000820 0.083930 4.030190 
# 
# 
# High freq. dielectric constant tensor:
#      x y z
#    x 1.822240 -0.009120 -0.007420 
#    y -0.009120 1.814130 0.000560 
#    z -0.007420 0.000560 1.829340 
# 
# From -- ./inp_files/308253.got.cif
#   From: 2010.06.25/outbox.cif.g09.slc.cpg/sg2_155_cif.got.tgz:308253.got - 2010.06.27 13:26:56.
