data_PCOD8007297
_publ_section_title
;
Structure prediction by ZEFSAII (Michael W. Deem and Ramdas Pophale) SiO2 
 PCOD8007297
Probable space group: P -1
;
_chemical_formula_sum "Si O2"
_cell_formula_units_Z 16
_cell_length_a 8.481724
_cell_length_b 8.952359
_cell_length_c 11.776271
_cell_angle_alpha 128.479934
_cell_angle_beta 101.547828
_cell_angle_gamma 88.781021
_cell_volume 679.577688
_symmetry_space_group_name_H-M "P -1"
_symmetry_group_IT_number 2
_symmetry_cell_setting 'triclinic'
loop_
_space_group_symop_operation_xyz
x,y,z
-x,-y,-z
loop_
_atom_site_type_symbol
_atom_site_label
_atom_site_fract_x
_atom_site_fract_y
_atom_site_fract_z
Si Si1 0.167660 0.753137 0.217947
Si Si2 0.488201 0.099861 0.664124
Si Si3 0.664225 0.587931 0.623904
Si Si4 0.691127 0.547047 0.210390
Si Si5 0.561221 0.796706 0.928517
Si Si6 0.830353 0.663745 0.043844
Si Si7 0.202830 0.805221 0.502623
Si Si8 0.093808 0.342081 0.492719
O O1 0.333514 0.860365 0.232440
O O2 0.159811 0.849341 0.386967
O O3 0.011044 0.784852 0.134713
O O4 0.171797 0.523374 0.125073
O O5 0.439187 0.306962 0.728232
O O6 0.500000 0.000000 0.500000
O O7 0.349862 0.960907 0.647817
O O8 0.500000 0.500000 0.500000
O O9 0.624762 0.723121 0.784231
O O10 0.753830 0.410647 0.591776
O O11 0.777384 0.718967 0.609671
O O12 0.591569 0.336287 0.103033
O O13 0.785010 0.579081 0.121517
O O14 0.817742 0.569230 0.340677
O O15 0.708230 0.804186 0.044303
O O16 0.500000 0.000000 0.000000
O O17 0.045235 0.830671 0.569692
O O18 0.000000 0.500000 0.500000
#
# Coordination Sequence:
#
# PCOD8007297 Si02
#       8
#     2   2   2   2   2   2   2   2
#     4  10  20  40  71 103 135 179 236 295 372 416
#     4  10  22  39  68 102 138 176 232 307 363 428
#     4  11  22  43  73 100 142 196 243 294 365 436
#     4  12  23  46  67 103 146 186 244 295 367 428
#     4  12  26  46  72 109 149 200 246 288 365 452
#     4  11  23  43  74 100 142 193 235 303 359 438
#     4  10  20  43  68 103 142 178 242 303 367 427
#     4  10  23  41  70 103 143 193 233 304 370 429
#
# _framework density 23.544035000000001
#
# number of rings (size 3 to 8) (size 9 to 14) (size 15 to 20)
#    0.000    1.250    5.000    1.125    0.000    1.500 
#    0.000    0.000    2.750    6.000    0.000    0.875 
#    0.000    0.000    0.000    0.000    0.000    0.000 
#
# Total GULP energy -198312.158556 kJ/mol
# GULP energy per Si atom -12394.509910 kJ/mol
# Density = 2.349045 g / cm^3
# Si number density = 23.544035 Si / 1000 Ang^3
#
#
#
# Elastic Constant Matrix: (Units=GPa)
#
#
# Indices 1 2 3 4 5 6 
#
# 1 198.9025 69.1689 67.3266 -3.6170 44.0698 22.5115
# 2 69.1689 99.5067 49.6805 1.9009 10.4500 -5.6334
# 3 67.3266 49.6805 91.2329 -5.5968 13.2327 7.0805
# 4 -3.6170 1.9009 -5.5968 42.3638 0.8401 0.8276
# 5 44.0698 10.4500 13.2327 0.8401 50.5644 3.5943
# 6 22.5115 -5.6334 7.0805 0.8276 3.5943 39.9371
#
#
#
# Elastic Compliance Matrix: (Units=1/GPa)
#
#
# Indices 1 2 3 4 5 6 
#
# 1 0.009800 -0.004836 -0.003231 0.000852 -0.006350 -0.005080
# 2 -0.004836 0.016831 -0.006501 -0.002187 0.002040 0.006114
# 3 -0.003231 -0.006501 0.017232 0.002340 -0.000234 -0.002178
# 4 0.000852 -0.002187 0.002340 0.024140 -0.001190 -0.001597
# 5 -0.006350 0.002040 -0.000234 -0.001190 0.024850 0.001697
# 6 -0.005080 0.006114 -0.002178 -0.001597 0.001697 0.029032
#
#
# Mechanical properties :
#
#
# Convention : Reuss Voigt Hill
#
# Bulk Modulus (GPa) = 67.90420 84.66600 76.28510
# Shear Modulus (GPa) = 32.06583 40.13746 36.10164
#
# Velocity S-wave (km/s) = 3.69447 4.13338 3.92007
# Velocity P-wave (km/s) = 6.86314 7.66933 7.27741
#
# Compressibility (1/GPa) = 0.01472663
#
# Stress axis : x y z
#
# Youngs Moduli (GPa) = 102.03645 59.41580 58.03179
#
# Poissons Ratio (x) = 0.28734 0.18752
# Poissons Ratio (y) = 0.49346 0.37724
# Poissons Ratio (z) = 0.32972 0.38624
#
# Static dielectric constant tensor:
#      x y z
#    x 5.074190 0.397430 0.179180 
#    y 0.397430 4.305640 -0.067170 
#    z 0.179180 -0.067170 4.233680 
# 
# 
# High freq. dielectric constant tensor:
#      x y z
#    x 1.960080 0.002590 0.006050 
#    y 0.002590 1.909820 -0.004500 
#    z 0.006050 -0.004500 1.925190 
# 
# From -- ./inp_files/383600.got.cif
#   From: 2010.06.25/outbox.cif.g09.slc.cpg/sg2_192_cif.got.tgz:383600.got - 2010.06.27 13:26:56.
