data_PCOD8007266
_publ_section_title
;
Structure prediction by ZEFSAII (Michael W. Deem and Ramdas Pophale) SiO2 
 PCOD8007266
Probable space group: P -1
;
_chemical_formula_sum "Si O2"
_cell_formula_units_Z 14
_cell_length_a 4.998911
_cell_length_b 12.031669
_cell_length_c 10.701346
_cell_angle_alpha 75.685044
_cell_angle_beta 84.397484
_cell_angle_gamma 98.852191
_cell_volume 610.003577
_symmetry_space_group_name_H-M "P -1"
_symmetry_group_IT_number 2
_symmetry_cell_setting 'triclinic'
loop_
_space_group_symop_operation_xyz
x,y,z
-x,-y,-z
loop_
_atom_site_type_symbol
_atom_site_label
_atom_site_fract_x
_atom_site_fract_y
_atom_site_fract_z
Si Si1 0.803183 0.592239 0.294443
Si Si2 0.944399 0.846741 0.912299
Si Si3 0.826564 0.595092 0.011616
Si Si4 0.655781 0.271767 0.663378
Si Si5 0.376089 0.294950 0.222626
Si Si6 0.850644 0.333916 0.376284
Si Si7 0.647743 0.939068 0.115339
O O1 0.702451 0.578061 0.159828
O O2 0.580019 0.650460 0.360824
O O3 0.822910 0.464742 0.381629
O O4 0.102505 0.670101 0.272277
O O5 0.723817 0.828978 0.811887
O O6 0.039836 0.721072 0.954931
O O7 0.826952 0.861958 0.052219
O O8 0.173951 0.958344 0.838215
O O9 0.589709 0.600855 0.914930
O O10 0.000000 0.500000 0.000000
O O11 0.769345 0.255005 0.524187
O O12 0.547814 0.142948 0.758311
O O13 0.657063 0.289104 0.280161
O O14 0.156374 0.323112 0.326681
O O15 0.500000 0.000000 0.000000
#
# Coordination Sequence:
#
# PCOD8007266 Si02
#       7
#     2   2   2   2   2   2   2
#     4  12  23  42  66 101 133 175 224 278 335 395
#     4   9  22  42  65 100 126 175 217 292 329 389
#     4  10  20  40  69  99 136 166 222 275 345 395
#     4  12  26  42  68  96 133 179 230 271 333 399
#     4  10  24  41  66  94 137 172 220 266 344 394
#     4  12  24  44  63  97 140 181 215 272 335 416
#     4  11  23  42  71  94 132 171 235 284 331 384
#
# _framework density 22.950685
#
# number of rings (size 3 to 8) (size 9 to 14) (size 15 to 20)
#    0.857    0.286    2.857    3.429    4.000    1.714 
#    0.000    1.429    0.000    0.000    0.000    0.000 
#    0.000    0.000    0.000    0.000    0.000    0.000 
#
# Total GULP energy -173523.468215 kJ/mol
# GULP energy per Si atom -12394.533444 kJ/mol
# Density = 2.289845 g / cm^3
# Si number density = 22.950685 Si / 1000 Ang^3
#
#
#
# Elastic Constant Matrix: (Units=GPa)
#
#
# Indices 1 2 3 4 5 6 
#
# 1 53.8829 2.5143 -2.7312 -2.1427 3.8660 4.7090
# 2 2.5143 82.5896 12.8947 -2.9948 10.4633 -2.8251
# 3 -2.7312 12.8947 126.7061 -14.8618 -4.9252 6.4192
# 4 -2.1427 -2.9948 -14.8618 30.8889 7.0596 -1.3913
# 5 3.8660 10.4633 -4.9252 7.0596 32.7568 8.1096
# 6 4.7090 -2.8251 6.4192 -1.3913 8.1096 25.7590
#
#
#
# Elastic Compliance Matrix: (Units=1/GPa)
#
#
# Indices 1 2 3 4 5 6 
#
# 1 0.019087 -0.000542 0.000783 0.001869 -0.001586 -0.003144
# 2 -0.000542 0.013310 -0.001553 0.002010 -0.005816 0.003886
# 3 0.000783 -0.001553 0.008693 0.003588 0.001631 -0.002800
# 4 0.001869 0.002010 0.003588 0.036698 -0.009188 0.003859
# 5 -0.001586 -0.005816 0.001631 -0.009188 0.038076 -0.013238
# 6 -0.003144 0.003886 -0.002800 0.003859 -0.013238 0.044896
#
#
# Mechanical properties :
#
#
# Convention : Reuss Voigt Hill
#
# Bulk Modulus (GPa) = 25.99736 32.05935 29.02835
# Shear Modulus (GPa) = 28.37596 34.58099 31.47848
#
# Velocity S-wave (km/s) = 3.52005 3.88590 3.70749
# Velocity P-wave (km/s) = 5.27949 5.84233 5.56803
#
# Compressibility (1/GPa) = 0.03846545
#
# Stress axis : x y z
#
# Youngs Moduli (GPa) = 52.39266 75.13300 115.03147
#
# Poissons Ratio (x) = 0.04073 -0.09012
# Poissons Ratio (y) = 0.02840 0.17869
# Poissons Ratio (z) = -0.04105 0.11671
#
# Static dielectric constant tensor:
#      x y z
#    x 3.832910 0.258890 -0.008100 
#    y 0.258890 4.273830 -0.036690 
#    z -0.008100 -0.036690 4.233900 
# 
# 
# High freq. dielectric constant tensor:
#      x y z
#    x 1.898450 0.009210 -0.002210 
#    y 0.009210 1.907970 0.008460 
#    z -0.002210 0.008460 1.900780 
# 
# From -- ./inp_files/362024.got.cif
#   From: 2010.06.25/outbox.cif.g09.slc.cpg/sg2_182_cif.got.tgz:362024.got - 2010.06.27 13:26:56.
