data_PCOD8007368
_publ_section_title
;
Structure prediction by ZEFSAII (Michael W. Deem and Ramdas Pophale) SiO2 
 PCOD8007368
Probable space group: P -1
;
_chemical_formula_sum "Si O2"
_cell_formula_units_Z 14
_cell_length_a 13.589448
_cell_length_b 11.875197
_cell_length_c 8.602705
_cell_angle_alpha 89.719502
_cell_angle_beta 75.568124
_cell_angle_gamma 147.408514
_cell_volume 659.900171
_symmetry_space_group_name_H-M "P -1"
_symmetry_group_IT_number 2
_symmetry_cell_setting 'triclinic'
loop_
_space_group_symop_operation_xyz
x,y,z
-x,-y,-z
loop_
_atom_site_type_symbol
_atom_site_label
_atom_site_fract_x
_atom_site_fract_y
_atom_site_fract_z
Si Si1 0.235157 0.064618 0.141931
Si Si2 0.645999 0.341792 0.065465
Si Si3 0.118525 0.382369 0.500434
Si Si4 0.998840 0.601852 0.738165
Si Si5 0.961297 0.148809 0.104663
Si Si6 0.664309 0.248789 0.378157
Si Si7 0.119089 0.171755 0.313372
O O1 0.046663 0.827867 0.313194
O O2 0.437485 0.184504 0.071166
O O3 0.176075 0.019252 0.985163
O O4 0.283389 0.237526 0.186669
O O5 0.586330 0.217801 0.244759
O O6 0.763203 0.369522 0.899904
O O7 0.799652 0.594733 0.042322
O O8 0.312078 0.623144 0.514488
O O9 0.006416 0.370762 0.442198
O O10 0.214060 0.380238 0.343245
O O11 0.127953 0.823309 0.779520
O O12 0.107971 0.587819 0.723314
O O13 0.963753 0.051129 0.232408
O O14 0.500000 0.000000 0.500000
O O15 0.000000 0.000000 0.500000
#
# Coordination Sequence:
#
# PCOD8007368 Si02
#       7
#     2   2   2   2   2   2   2
#     4  11  20  39  69  90 126 168 201 251 319 364
#     4  10  23  39  61  95 126 160 213 253 304 373
#     4  10  20  41  61  91 127 161 207 264 296 374
#     4   9  21  40  60  88 129 158 206 263 303 365
#     4   9  20  40  62  91 132 155 207 256 299 373
#     4  12  23  40  64  89 125 170 210 255 317 361
#     4   9  20  38  67  93 123 165 204 249 316 366
#
# _framework density 21.215332
#
# number of rings (size 3 to 8) (size 9 to 14) (size 15 to 20)
#    0.857    1.143    1.429    2.143    0.000    1.714 
#    0.000    2.857    3.143    0.000    0.000    0.000 
#    0.000    0.000    0.000    0.000    0.000    0.000 
#
# Total GULP energy -173490.196680 kJ/mol
# GULP energy per Si atom -12392.156906 kJ/mol
# Density = 2.116704 g / cm^3
# Si number density = 21.215332 Si / 1000 Ang^3
#
#
#
# Elastic Constant Matrix: (Units=GPa)
#
#
# Indices 1 2 3 4 5 6 
#
# 1 106.4607 45.4127 59.4902 9.4974 18.4361 9.3212
# 2 45.4127 88.8435 42.6170 4.8274 -0.2247 3.8061
# 3 59.4902 42.6170 103.0519 17.5944 24.3356 12.9439
# 4 9.4974 4.8274 17.5944 22.5959 0.1144 -0.3643
# 5 18.4361 -0.2247 24.3356 0.1144 40.8386 1.4597
# 6 9.3212 3.8061 12.9439 -0.3643 1.4597 24.8786
#
#
#
# Elastic Compliance Matrix: (Units=1/GPa)
#
#
# Indices 1 2 3 4 5 6 
#
# 1 0.015626 -0.005182 -0.005563 -0.001142 -0.003694 -0.001967
# 2 -0.005182 0.016593 -0.006169 0.003443 0.006014 0.002310
# 3 -0.005563 -0.006169 0.020833 -0.012636 -0.009636 -0.007430
# 4 -0.001142 0.003443 -0.012636 0.053910 0.007670 0.006815
# 5 -0.003694 0.006014 -0.009636 0.007670 0.031775 0.003725
# 6 -0.001967 0.002310 -0.007430 0.006815 0.003725 0.044326
#
#
# Mechanical properties :
#
#
# Convention : Reuss Voigt Hill
#
# Bulk Modulus (GPa) = 52.01930 65.93286 58.97608
# Shear Modulus (GPa) = 22.39157 27.71838 25.05498
#
# Velocity S-wave (km/s) = 3.25228 3.61851 3.44027
# Velocity P-wave (km/s) = 6.21901 6.97163 6.60604
#
# Compressibility (1/GPa) = 0.01922363
#
# Stress axis : x y z
#
# Youngs Moduli (GPa) = 63.99532 60.26766 48.00115
#
# Poissons Ratio (x) = 0.31229 0.26705
# Poissons Ratio (y) = 0.33160 0.29611
# Poissons Ratio (z) = 0.35604 0.37178
#
# Static dielectric constant tensor:
#      x y z
#    x 3.980270 -0.305840 0.031230 
#    y -0.305840 3.575160 0.227040 
#    z 0.031230 0.227040 3.921500 
# 
# 
# High freq. dielectric constant tensor:
#      x y z
#    x 1.834010 -0.015320 0.017900 
#    y -0.015320 1.798270 0.016860 
#    z 0.017900 0.016860 1.840060 
# 
# From -- ./inp_files/307684.got.cif
#   From: 2010.06.25/outbox.cif.g09.slc.cpg/sg2_154_cif.got.tgz:307684.got - 2010.06.27 13:26:56.
