data_PCOD8007475
_publ_section_title
;
Structure prediction by ZEFSAII (Michael W. Deem and Ramdas Pophale) SiO2 
 PCOD8007475
Probable space group: P -1
;
_chemical_formula_sum "Si O2"
_cell_formula_units_Z 14
_cell_length_a 11.604225
_cell_length_b 15.386368
_cell_length_c 11.804546
_cell_angle_alpha 29.899528
_cell_angle_beta 140.105854
_cell_angle_gamma 130.320050
_cell_volume 672.768363
_symmetry_space_group_name_H-M "P -1"
_symmetry_group_IT_number 2
_symmetry_cell_setting 'triclinic'
loop_
_space_group_symop_operation_xyz
x,y,z
-x,-y,-z
loop_
_atom_site_type_symbol
_atom_site_label
_atom_site_fract_x
_atom_site_fract_y
_atom_site_fract_z
Si Si1 0.699851 0.211414 0.658989
Si Si2 0.041236 0.302235 0.236286
Si Si3 0.196024 0.449586 0.749702
Si Si4 0.604559 0.883975 0.301359
Si Si5 0.758104 0.091519 0.370453
Si Si6 0.956169 0.761465 0.952397
Si Si7 0.405592 0.104373 0.208526
O O1 0.685568 0.381542 0.371529
O O2 0.521537 0.217753 0.593963
O O3 0.709125 0.032484 0.795256
O O4 0.866576 0.222418 0.856767
O O5 0.248729 0.256716 0.481280
O O6 0.996572 0.254722 0.125987
O O7 0.913908 0.221999 0.324297
O O8 0.000000 0.500000 0.000000
O O9 0.000000 0.500000 0.500000
O O10 0.162708 0.399350 0.913428
O O11 0.278790 0.274372 0.949328
O O12 0.726257 0.016667 0.306986
O O13 0.500000 0.000000 0.000000
O O14 0.570061 0.178031 0.176798
O O15 0.830904 0.936294 0.684399
O O16 0.500000 0.000000 0.500000
#
# Coordination Sequence:
#
# PCOD8007475 Si02
#       7
#     2   2   2   2   2   2   2
#     4  10  23  40  68  93 129 169 210 263 314 370
#     4  11  24  39  62  96 123 164 209 262 317 369
#     4  10  23  42  64  96 130 163 214 261 310 379
#     4  10  20  41  64  88 122 168 208 251 319 372
#     4  10  21  40  64  86 128 163 209 255 312 383
#     4  10  20  44  62  88 129 170 205 257 317 374
#     4  11  23  42  65  97 125 169 213 255 320 376
#
# _framework density 20.809539999999998
#
# number of rings (size 3 to 8) (size 9 to 14) (size 15 to 20)
#    0.000    1.714    1.429    3.429    2.000    4.000 
#   15.429    1.429    0.000    0.000    0.000    0.000 
#    0.000    0.000    0.000    0.000    0.000    0.000 
#
# Total GULP energy -173456.935255 kJ/mol
# GULP energy per Si atom -12389.781090 kJ/mol
# Density = 2.076218 g / cm^3
# Si number density = 20.809540 Si / 1000 Ang^3
#
#
#
# Elastic Constant Matrix: (Units=GPa)
#
#
# Indices 1 2 3 4 5 6 
#
# 1 111.1033 33.0728 58.2595 -14.7679 0.4894 23.2286
# 2 33.0728 70.4462 43.3584 0.1971 5.2770 11.3417
# 3 58.2595 43.3584 145.9834 -6.9834 12.4985 8.5285
# 4 -14.7679 0.1971 -6.9834 30.7668 -2.1140 -5.5867
# 5 0.4894 5.2770 12.4985 -2.1140 47.4673 -8.7271
# 6 23.2286 11.3417 8.5285 -5.5867 -8.7271 32.8279
#
#
#
# Elastic Compliance Matrix: (Units=1/GPa)
#
#
# Indices 1 2 3 4 5 6 
#
# 1 0.014151 -0.002980 -0.004144 0.004598 0.000180 -0.007076
# 2 -0.002980 0.019064 -0.004208 -0.003458 -0.001961 -0.004495
# 3 -0.004144 -0.004208 0.009845 0.000406 -0.001803 0.001419
# 4 0.004598 -0.003458 0.000406 0.035853 0.002682 0.004650
# 5 0.000180 -0.001961 -0.001803 0.002682 0.023287 0.007665
# 6 -0.007076 -0.004495 0.001419 0.004650 0.007665 0.039482
#
#
# Mechanical properties :
#
#
# Convention : Reuss Voigt Hill
#
# Bulk Modulus (GPa) = 49.03059 66.32382 57.67720
# Shear Modulus (GPa) = 29.21508 35.06854 32.14181
#
# Velocity S-wave (km/s) = 3.75097 4.10959 3.93437
# Velocity P-wave (km/s) = 6.50941 7.37966 6.95815
#
# Compressibility (1/GPa) = 0.02039543
#
# Stress axis : x y z
#
# Youngs Moduli (GPa) = 70.66814 52.45380 101.57682
#
# Poissons Ratio (x) = 0.15630 0.42097
# Poissons Ratio (y) = 0.21057 0.42745
# Poissons Ratio (z) = 0.29287 0.22073
#
# Static dielectric constant tensor:
#      x y z
#    x 2.164790 0.029400 -1.015230 
#    y 0.029400 3.648900 -0.127210 
#    z -1.015230 -0.127210 3.706090 
# 
# 
# High freq. dielectric constant tensor:
#      x y z
#    x 1.834120 0.018760 -0.003170 
#    y 0.018760 1.791350 0.003310 
#    z -0.003170 0.003310 1.825380 
# 
# From -- ./inp_files/270629.got.cif
#   From: 2010.06.25/outbox.cif.g09.slc.cpg/sg2_136_cif.got.tgz:270629.got - 2010.06.27 13:26:56.
