data_PCOD8007170
_publ_section_title
;
Structure prediction by ZEFSAII (Michael W. Deem and Ramdas Pophale) SiO2 
 PCOD8007170
Probable space group: P -1
;
_chemical_formula_sum "Si O2"
_cell_formula_units_Z 16
_cell_length_a 8.888379
_cell_length_b 12.839516
_cell_length_c 21.402356
_cell_angle_alpha 159.970443
_cell_angle_beta 111.951238
_cell_angle_gamma 69.863344
_cell_volume 775.730151
_symmetry_space_group_name_H-M "P -1"
_symmetry_group_IT_number 2
_symmetry_cell_setting 'triclinic'
loop_
_space_group_symop_operation_xyz
x,y,z
-x,-y,-z
loop_
_atom_site_type_symbol
_atom_site_label
_atom_site_fract_x
_atom_site_fract_y
_atom_site_fract_z
Si Si1 0.765446 0.789682 0.476195
Si Si2 0.888000 0.137894 0.451016
Si Si3 0.684343 0.138334 0.784038
Si Si4 0.522055 0.668038 0.844219
Si Si5 0.683639 0.687195 0.013995
Si Si6 0.582795 0.206779 0.372856
Si Si7 0.023139 0.529714 0.927166
Si Si8 0.190111 0.708785 0.340179
O O1 0.649687 0.507348 0.282274
O O2 0.949940 0.671199 0.435368
O O3 0.729883 0.904301 0.604826
O O4 0.750482 0.061706 0.576521
O O5 0.731404 0.308306 0.497822
O O6 0.878443 0.111857 0.510138
O O7 0.899464 0.799557 0.232352
O O8 0.545336 0.998741 0.726337
O O9 0.609480 0.440074 0.911630
O O10 0.838457 0.212828 0.895288
O O11 0.655871 0.484811 0.722212
O O12 0.586673 0.674885 0.928070
O O13 0.500000 0.000000 0.000000
O O14 0.660879 0.026634 0.226157
O O15 0.873343 0.599543 0.989420
O O16 0.500000 0.500000 0.500000
O O17 0.950549 0.517563 0.838187
#
# Coordination Sequence:
#
# PCOD8007170 Si02
#       8
#     2   2   2   2   2   2   2   2
#     4  11  22  41  69 100 119 174 222 267 327 380
#     4  11  22  42  69  96 138 161 217 279 320 386
#     4  12  22  42  71  93 128 172 227 272 317 389
#     4  11  25  42  65  97 137 172 215 263 326 397
#     4  11  23  43  69  95 130 172 220 271 318 392
#     4  12  29  43  60  99 137 175 213 270 335 384
#     4  10  20  40  68 104 124 163 226 270 320 369
#     4  10  22  39  69 100 132 166 214 276 322 381
#
# _framework density 20.625729
#
# number of rings (size 3 to 8) (size 9 to 14) (size 15 to 20)
#    0.000    1.000    5.000    4.125    5.250    1.000 
#    4.500    1.875    0.000    0.000    0.000    0.000 
#    0.000    0.000    0.000    0.000    0.000    0.000 
#
# Total GULP energy -198366.272955 kJ/mol
# GULP energy per Si atom -12397.892060 kJ/mol
# Density = 2.057878 g / cm^3
# Si number density = 20.625729 Si / 1000 Ang^3
#
#
#
# Elastic Constant Matrix: (Units=GPa)
#
#
# Indices 1 2 3 4 5 6 
#
# 1 119.4169 63.7331 56.4048 -4.1206 4.1192 -24.2024
# 2 63.7331 101.0459 59.1560 0.5814 2.9863 -21.4883
# 3 56.4048 59.1560 91.9323 -2.0718 -3.7022 -7.1052
# 4 -4.1206 0.5814 -2.0718 35.1063 -3.1046 -10.5838
# 5 4.1192 2.9863 -3.7022 -3.1046 38.5256 -13.9191
# 6 -24.2024 -21.4883 -7.1052 -10.5838 -13.9191 33.5164
#
#
#
# Elastic Compliance Matrix: (Units=1/GPa)
#
#
# Indices 1 2 3 4 5 6 
#
# 1 0.015429 -0.004540 -0.005656 0.004496 0.001852 0.009220
# 2 -0.004540 0.019982 -0.009346 0.001232 0.001184 0.008433
# 3 -0.005656 -0.009346 0.019946 -0.000947 0.001116 -0.005683
# 4 0.004496 0.001232 -0.000947 0.035372 0.008947 0.018721
# 5 0.001852 0.001184 0.001116 0.008947 0.033365 0.019015
# 6 0.009220 0.008433 -0.005683 0.018721 0.019015 0.054504
#
#
# Mechanical properties :
#
#
# Convention : Reuss Voigt Hill
#
# Bulk Modulus (GPa) = 61.44944 74.55364 68.00154
# Shear Modulus (GPa) = 22.41088 30.30307 26.35697
#
# Velocity S-wave (km/s) = 3.29986 3.83716 3.57861
# Velocity P-wave (km/s) = 6.66154 7.47369 7.07927
#
# Compressibility (1/GPa) = 0.01627354
#
# Stress axis : x y z
#
# Youngs Moduli (GPa) = 64.81503 50.04443 50.13514
#
# Poissons Ratio (x) = 0.22718 0.28359
# Poissons Ratio (y) = 0.29424 0.46854
# Poissons Ratio (z) = 0.36662 0.46769
#
# Static dielectric constant tensor:
#      x y z
#    x 3.993090 -0.243320 -0.180250 
#    y -0.243320 3.726780 -0.233180 
#    z -0.180250 -0.233180 3.759860 
# 
# 
# High freq. dielectric constant tensor:
#      x y z
#    x 1.817070 -0.014130 -0.013030 
#    y -0.014130 1.803160 -0.032200 
#    z -0.013030 -0.032200 1.794890 
# 
# From -- ./inp_files/589787.got.cif
#   From: 2010.06.25/outbox.cif.g09.slc.cpg/sg2_295_cif.got.tgz:589787.got - 2010.06.27 13:26:56.
