data_PCOD8007974
_publ_section_title
;
Structure prediction by ZEFSAII (Michael W. Deem and Ramdas Pophale) SiO2 
 PCOD8007974
Probable space group: P -1
;
_chemical_formula_sum "Si O2"
_cell_formula_units_Z 16
_cell_length_a 9.413185
_cell_length_b 7.989207
_cell_length_c 17.819838
_cell_angle_alpha 145.999938
_cell_angle_beta 96.443817
_cell_angle_gamma 82.694547
_cell_volume 743.248082
_symmetry_space_group_name_H-M "P -1"
_symmetry_group_IT_number 2
_symmetry_cell_setting 'triclinic'
loop_
_space_group_symop_operation_xyz
x,y,z
-x,-y,-z
loop_
_atom_site_type_symbol
_atom_site_label
_atom_site_fract_x
_atom_site_fract_y
_atom_site_fract_z
Si Si1 0.938558 0.894842 0.035613
Si Si2 0.660370 0.132964 0.723885
Si Si3 0.606211 0.807956 0.986948
Si Si4 0.874221 0.327261 0.462408
Si Si5 0.040048 0.725991 0.247400
Si Si6 0.869398 0.640441 0.736042
Si Si7 0.426132 0.086897 0.200140
Si Si8 0.593330 0.543741 0.450425
O O1 0.765908 0.927676 0.043565
O O2 0.992185 0.541809 0.912815
O O3 0.011293 0.112003 0.180856
O O4 0.000000 0.000000 0.000000
O O5 0.605733 0.471884 0.830362
O O6 0.831635 0.097565 0.714800
O O7 0.615087 0.033708 0.766396
O O8 0.602093 0.903611 0.572925
O O9 0.500000 0.000000 0.000000
O O10 0.528905 0.829115 0.071277
O O11 0.837837 0.455635 0.590790
O O12 0.746305 0.377555 0.415016
O O13 0.000000 0.500000 0.500000
O O14 0.906827 0.967503 0.337308
O O15 0.081042 0.588098 0.280121
O O16 0.720460 0.820507 0.819475
O O17 0.518826 0.384171 0.317579
O O18 0.500000 0.500000 0.500000
#
# Coordination Sequence:
#
# PCOD8007974 Si02
#       8
#     2   2   2   2   2   2   2   2
#     4   9  21  41  60  89 126 155 200 252 304 363
#     4  10  20  42  62  89 124 160 203 251 304 364
#     4  11  23  41  65  93 124 162 204 254 305 365
#     4  12  22  40  65  87 124 164 207 256 299 367
#     4  10  21  40  64  93 119 161 206 255 310 358
#     4  11  22  42  64  89 129 160 203 260 304 361
#     4  11  22  42  64  91 124 164 204 249 308 364
#     4  10  21  42  61  86 126 161 205 250 305 360
#
# _framework density 21.527132999999999
#
# number of rings (size 3 to 8) (size 9 to 14) (size 15 to 20)
#    0.000    1.500    3.750    3.000    1.750    0.000 
#   15.750    4.375    0.000    0.000    0.000    0.000 
#    0.000    0.000    0.000    0.000    0.000    0.000 
#
# Total GULP energy -198264.575128 kJ/mol
# GULP energy per Si atom -12391.535946 kJ/mol
# Density = 2.147814 g / cm^3
# Si number density = 21.527133 Si / 1000 Ang^3
#
#
#
# Elastic Constant Matrix: (Units=GPa)
#
#
# Indices 1 2 3 4 5 6 
#
# 1 138.8578 27.9310 54.4548 18.7299 1.4402 -11.7409
# 2 27.9310 50.8219 20.5491 12.0352 3.3572 -8.1711
# 3 54.4548 20.5491 121.2694 23.9540 7.3345 -14.3289
# 4 18.7299 12.0352 23.9540 31.6077 -0.3730 -5.7624
# 5 1.4402 3.3572 7.3345 -0.3730 42.0112 1.3462
# 6 -11.7409 -8.1711 -14.3289 -5.7624 1.3462 36.8336
#
#
#
# Elastic Compliance Matrix: (Units=1/GPa)
#
#
# Indices 1 2 3 4 5 6 
#
# 1 0.009453 -0.003386 -0.003283 -0.001690 0.000482 0.000703
# 2 -0.003386 0.023898 -0.000903 -0.005880 -0.001785 0.003016
# 3 -0.003283 -0.000903 0.011450 -0.005984 -0.001942 0.002342
# 4 -0.001690 -0.005880 -0.005984 0.039797 0.001862 0.001987
# 5 0.000482 -0.001785 -0.001942 0.001862 0.024336 -0.001596
# 6 0.000703 0.003016 0.002342 0.001987 -0.001596 0.029323
#
#
# Mechanical properties :
#
#
# Convention : Reuss Voigt Hill
#
# Bulk Modulus (GPa) = 33.72104 57.42430 45.57267
# Shear Modulus (GPa) = 30.62111 35.95811 33.28961
#
# Velocity S-wave (km/s) = 3.77562 4.09144 3.93670
# Velocity P-wave (km/s) = 5.89114 7.00379 6.47142
#
# Compressibility (1/GPa) = 0.02965507
#
# Stress axis : x y z
#
# Youngs Moduli (GPa) = 105.79062 41.84449 87.33974
#
# Poissons Ratio (x) = 0.14169 0.28675
# Poissons Ratio (y) = 0.35823 0.07889
# Poissons Ratio (z) = 0.34732 0.03780
#
# Static dielectric constant tensor:
#      x y z
#    x 4.317200 0.104600 0.241430 
#    y 0.104600 3.553430 0.060980 
#    z 0.241430 0.060980 5.694000 
# 
# 
# High freq. dielectric constant tensor:
#      x y z
#    x 1.856140 0.008210 -0.002650 
#    y 0.008210 1.819000 0.009680 
#    z -0.002650 0.009680 1.860520 
# 
# From -- ./inp_files/222847.got.cif
#   From: 2010.06.25/outbox.cif.g09.slc.cpg/sg2_112_cif.got.tgz:222847.got - 2010.06.27 13:26:56.
