data_PCOD8007943
_publ_section_title
;
Structure prediction by ZEFSAII (Michael W. Deem and Ramdas Pophale) SiO2 
 PCOD8007943
Probable space group: P -1
;
_chemical_formula_sum "Si O2"
_cell_formula_units_Z 14
_cell_length_a 13.871590
_cell_length_b 10.500732
_cell_length_c 10.143540
_cell_angle_alpha 57.751383
_cell_angle_beta 122.155703
_cell_angle_gamma 148.540661
_cell_volume 642.144236
_symmetry_space_group_name_H-M "P -1"
_symmetry_group_IT_number 2
_symmetry_cell_setting 'triclinic'
loop_
_space_group_symop_operation_xyz
x,y,z
-x,-y,-z
loop_
_atom_site_type_symbol
_atom_site_label
_atom_site_fract_x
_atom_site_fract_y
_atom_site_fract_z
Si Si1 0.049178 0.718515 0.569364
Si Si2 0.009782 0.346874 0.738007
Si Si3 0.421304 0.258429 0.624661
Si Si4 0.801519 0.750918 0.053202
Si Si5 0.562857 0.681562 0.093273
Si Si6 0.368586 0.696868 0.455191
Si Si7 0.609059 0.923536 0.750443
O O1 0.068265 0.712280 0.432306
O O2 0.849145 0.578733 0.541277
O O3 0.075527 0.575361 0.724850
O O4 0.204967 0.000870 0.573353
O O5 0.184335 0.415598 0.826584
O O6 0.823940 0.086554 0.819346
O O7 0.500000 0.500000 0.500000
O O8 0.430179 0.250407 0.792406
O O9 0.552377 0.272379 0.644861
O O10 0.747295 0.774545 0.140063
O O11 0.630804 0.618310 0.902667
O O12 0.000000 0.000000 0.000000
O O13 0.530608 0.785353 0.909749
O O14 0.387806 0.894830 0.360720
O O15 0.482145 0.735860 0.636772
#
# Coordination Sequence:
#
# PCOD8007943 Si02
#       7
#     2   2   2   2   2   2   2
#     4  10  23  42  70  99 127 176 222 270 338 385
#     4  10  20  41  74 101 126 166 230 282 315 394
#     4  12  29  45  61  97 144 176 219 274 338 403
#     4  11  24  41  69  97 133 173 223 276 322 393
#     4  11  27  43  65  99 135 181 217 269 341 391
#     4  10  23  43  72  99 130 173 220 280 326 394
#     4  10  20  44  73 101 127 169 232 273 326 396
#
# _framework density 21.801953999999999
#
# number of rings (size 3 to 8) (size 9 to 14) (size 15 to 20)
#    0.000    1.429    2.857    0.857   12.000    2.286 
#    0.000    1.429    0.000    0.000    0.000    0.000 
#    0.000    0.000    0.000    0.000    0.000    0.000 
#
# Total GULP energy -173499.893240 kJ/mol
# GULP energy per Si atom -12392.849517 kJ/mol
# Density = 2.175233 g / cm^3
# Si number density = 21.801954 Si / 1000 Ang^3
#
#
#
# Elastic Constant Matrix: (Units=GPa)
#
#
# Indices 1 2 3 4 5 6 
#
# 1 116.0868 52.8315 52.1878 12.3636 -19.5983 28.6810
# 2 52.8315 159.5353 41.5355 -0.7301 -12.4706 16.6366
# 3 52.1878 41.5355 104.9739 5.2280 -17.7445 7.4214
# 4 12.3636 -0.7301 5.2280 21.1080 -0.6646 -7.4089
# 5 -19.5983 -12.4706 -17.7445 -0.6646 40.7323 4.0128
# 6 28.6810 16.6366 7.4214 -7.4089 4.0128 27.5851
#
#
#
# Elastic Compliance Matrix: (Units=1/GPa)
#
#
# Indices 1 2 3 4 5 6 
#
# 1 0.023854 -0.002597 -0.005837 -0.022555 0.010655 -0.029272
# 2 -0.002597 0.007732 -0.001696 0.001844 0.000516 -0.001086
# 3 -0.005837 -0.001696 0.013114 0.001461 0.002049 0.003658
# 4 -0.022555 0.001844 0.001461 0.075344 -0.012761 0.044039
# 5 0.010655 0.000516 0.002049 -0.012761 0.032499 -0.020095
# 6 -0.029272 -0.001086 0.003658 0.044039 -0.020095 0.081109
#
#
# Mechanical properties :
#
#
# Convention : Reuss Voigt Hill
#
# Bulk Modulus (GPa) = 40.91894 74.85617 57.88756
# Shear Modulus (GPa) = 19.07964 33.48782 26.28373
#
# Velocity S-wave (km/s) = 2.96148 3.92344 3.47590
# Velocity P-wave (km/s) = 5.52295 7.41172 6.53592
#
# Compressibility (1/GPa) = 0.02443856
#
# Stress axis : x y z
#
# Youngs Moduli (GPa) = 41.92224 129.33444 76.25372
#
# Poissons Ratio (x) = 0.33593 0.44511
# Poissons Ratio (y) = 0.10889 0.12932
# Poissons Ratio (z) = 0.24471 0.21934
#
# Static dielectric constant tensor:
#      x y z
#    x 4.277910 0.119960 0.155630 
#    y 0.119960 4.247380 -0.162670 
#    z 0.155630 -0.162670 3.816820 
# 
# 
# High freq. dielectric constant tensor:
#      x y z
#    x 1.865200 0.017480 0.014760 
#    y 0.017480 1.868830 -0.026510 
#    z 0.014760 -0.026510 1.837160 
# 
# From -- ./inp_files/304843.got.cif
#   From: 2010.06.25/outbox.cif.g09.slc.cpg/sg2_153_cif.got.tgz:304843.got - 2010.06.27 13:26:56.
