data_PCOD8007041
_publ_section_title
;
Structure prediction by ZEFSAII (Michael W. Deem and Ramdas Pophale) SiO2 
 PCOD8007041
Probable space group: P -1
;
_chemical_formula_sum "Si O2"
_cell_formula_units_Z 16
_cell_length_a 15.443821
_cell_length_b 8.784337
_cell_length_c 11.740381
_cell_angle_alpha 67.155707
_cell_angle_beta 32.799920
_cell_angle_gamma 80.781467
_cell_volume 749.805708
_symmetry_space_group_name_H-M "P -1"
_symmetry_group_IT_number 2
_symmetry_cell_setting 'triclinic'
loop_
_space_group_symop_operation_xyz
x,y,z
-x,-y,-z
loop_
_atom_site_type_symbol
_atom_site_label
_atom_site_fract_x
_atom_site_fract_y
_atom_site_fract_z
Si Si1 0.849073 0.815758 0.704360
Si Si2 0.660370 0.652408 0.326832
Si Si3 0.472348 0.102044 0.892987
Si Si4 0.886624 0.590619 0.923659
Si Si5 0.536422 0.909828 0.669909
Si Si6 0.325763 0.359321 0.279887
Si Si7 0.235313 0.538116 0.534255
Si Si8 0.382281 0.780979 0.656391
O O1 0.890815 0.661099 0.770075
O O2 0.802670 0.746370 0.646657
O O3 0.688418 0.838455 0.935388
O O4 0.000000 0.000000 0.500000
O O5 0.500000 0.500000 0.500000
O O6 0.722288 0.600531 0.392732
O O7 0.578610 0.803900 0.397047
O O8 0.824777 0.716077 0.041578
O O9 0.630484 0.272990 0.650045
O O10 0.446466 0.972107 0.854374
O O11 0.500000 0.000000 0.000000
O O12 0.064688 0.567086 0.756195
O O13 0.751222 0.406604 0.161261
O O14 0.635326 0.784785 0.642930
O O15 0.383958 0.810865 0.781642
O O16 0.665462 0.075497 0.409008
O O17 0.232311 0.467109 0.428532
O O18 0.500000 0.500000 0.000000
#
# Coordination Sequence:
#
# PCOD8007041 Si02
#       8
#     2   2   2   2   2   2   2   2
#     4  12  26  44  67 102 140 175 227 288 340 399
#     4  10  20  40  66  95 130 173 223 278 334 402
#     4  12  22  40  66  94 129 178 224 274 334 401
#     4  11  24  41  66  99 139 173 228 280 343 406
#     4  11  22  39  70  98 130 170 233 274 334 406
#     4  12  24  45  72  96 137 185 228 278 335 414
#     4  12  24  42  68  99 130 181 231 273 339 412
#     4  10  21  41  68  97 131 176 220 283 341 404
#
# _framework density 21.338858999999999
#
# number of rings (size 3 to 8) (size 9 to 14) (size 15 to 20)
#    0.000    0.750    3.750    5.625    0.000    1.500 
#    0.000    0.625    0.000    0.000    0.000    0.000 
#    0.000    0.000    0.000    0.000    0.000    0.000 
#
# Total GULP energy -198271.079038 kJ/mol
# GULP energy per Si atom -12391.942440 kJ/mol
# Density = 2.129029 g / cm^3
# Si number density = 21.338859 Si / 1000 Ang^3
#
#
#
# Elastic Constant Matrix: (Units=GPa)
#
#
# Indices 1 2 3 4 5 6 
#
# 1 111.6106 28.8018 36.4577 -1.0298 11.6372 -3.4282
# 2 28.8018 79.2703 44.2046 9.4331 -3.5204 -4.9018
# 3 36.4577 44.2046 121.7060 11.3458 -9.4696 1.3772
# 4 -1.0298 9.4331 11.3458 40.0964 -1.0319 20.3737
# 5 11.6372 -3.5204 -9.4696 -1.0319 32.1490 -0.7682
# 6 -3.4282 -4.9018 1.3772 20.3737 -0.7682 50.6654
#
#
#
# Elastic Compliance Matrix: (Units=1/GPa)
#
#
# Indices 1 2 3 4 5 6 
#
# 1 0.011196 -0.002932 -0.002853 0.001774 -0.005163 -0.000240
# 2 -0.002932 0.017206 -0.004884 -0.004434 0.001446 0.003404
# 3 -0.002853 -0.004884 0.011323 -0.001968 0.003767 -0.000125
# 4 0.001774 -0.004434 -0.001968 0.033554 -0.000959 -0.013763
# 5 -0.005163 0.001446 0.003767 -0.000959 0.034225 0.000593
# 6 -0.000240 0.003404 -0.000125 -0.013763 0.000593 0.025597
#
#
# Mechanical properties :
#
#
# Convention : Reuss Voigt Hill
#
# Bulk Modulus (GPa) = 54.38657 59.05723 56.72190
# Shear Modulus (GPa) = 31.13957 38.12369 34.63163
#
# Velocity S-wave (km/s) = 3.82421 4.23139 4.03294
# Velocity P-wave (km/s) = 6.71132 7.18393 6.95164
#
# Compressibility (1/GPa) = 0.01838689
#
# Stress axis : x y z
#
# Youngs Moduli (GPa) = 89.32076 58.11903 88.31570
#
# Poissons Ratio (x) = 0.17040 0.25198
# Poissons Ratio (y) = 0.26188 0.43132
# Poissons Ratio (z) = 0.25485 0.28384
#
# Static dielectric constant tensor:
#      x y z
#    x 4.073180 -0.013020 0.060480 
#    y -0.013020 4.323020 0.514120 
#    z 0.060480 0.514120 5.024540 
# 
# 
# High freq. dielectric constant tensor:
#      x y z
#    x 1.851210 -0.004290 0.020510 
#    y -0.004290 1.851730 0.009510 
#    z 0.020510 0.009510 1.818320 
# 
# From -- ./inp_files/447051.got.cif
#   From: 2010.06.25/outbox.cif.g09.slc.cpg/sg2_224_cif.got.tgz:447051.got - 2010.06.27 13:26:56.
