data_PCOD8007705
_publ_section_title
;
Structure prediction by ZEFSAII (Michael W. Deem and Ramdas Pophale) SiO2 
 PCOD8007705
Probable space group: P -1
;
_chemical_formula_sum "Si O2"
_cell_formula_units_Z 14
_cell_length_a 13.117188
_cell_length_b 8.035701
_cell_length_c 8.752465
_cell_angle_alpha 109.959245
_cell_angle_beta 131.076496
_cell_angle_gamma 79.728585
_cell_volume 652.306712
_symmetry_space_group_name_H-M "P -1"
_symmetry_group_IT_number 2
_symmetry_cell_setting 'triclinic'
loop_
_space_group_symop_operation_xyz
x,y,z
-x,-y,-z
loop_
_atom_site_type_symbol
_atom_site_label
_atom_site_fract_x
_atom_site_fract_y
_atom_site_fract_z
Si Si1 0.120714 0.398950 0.651511
Si Si2 0.915557 0.416181 0.029751
Si Si3 0.992367 0.880302 0.747623
Si Si4 0.300564 0.963335 0.079392
Si Si5 0.247987 0.895032 0.336230
Si Si6 0.534946 0.135309 0.210500
Si Si7 0.378738 0.614354 0.874131
O O1 0.132198 0.428618 0.855355
O O2 0.084961 0.194011 0.505953
O O3 0.250165 0.476331 0.709672
O O4 0.000000 0.500000 0.500000
O O5 0.996683 0.275680 0.164822
O O6 0.781995 0.314751 0.792712
O O7 0.000000 0.500000 0.000000
O O8 0.900097 0.029598 0.766940
O O9 0.142058 0.965631 0.877722
O O10 0.320086 0.981270 0.285603
O O11 0.391144 0.135418 0.159062
O O12 0.358868 0.780260 0.018889
O O13 0.346398 0.932731 0.587440
O O14 0.590029 0.321168 0.249247
O O15 0.500000 0.000000 0.000000
O O16 0.500000 0.500000 0.000000
#
# Coordination Sequence:
#
# PCOD8007705 Si02
#       7
#     2   2   2   2   2   2   2
#     4  10  20  41  67  90 129 165 206 268 319 363
#     4  10  21  38  64  97 131 161 206 266 323 368
#     4  10  22  40  70  97 128 168 208 260 326 381
#     4  10  20  45  63  95 132 163 209 268 317 373
#     4  11  22  43  68  95 128 170 212 266 323 373
#     4  10  25  41  63  91 126 170 216 261 307 387
#     4  11  23  43  64  87 129 170 216 255 319 377
#
# _framework density 21.462298000000001
#
# number of rings (size 3 to 8) (size 9 to 14) (size 15 to 20)
#    0.000    1.714    4.286    2.143    8.000    0.000 
#    5.143    4.286    0.000    0.000    0.000    0.000 
#    0.000    0.000    0.000    0.000    0.000    0.000 
#
# Total GULP energy -173455.353412 kJ/mol
# GULP energy per Si atom -12389.668101 kJ/mol
# Density = 2.141345 g / cm^3
# Si number density = 21.462298 Si / 1000 Ang^3
#
#
#
# Elastic Constant Matrix: (Units=GPa)
#
#
# Indices 1 2 3 4 5 6 
#
# 1 182.0440 51.4194 66.6227 -9.3257 16.9304 27.0983
# 2 51.4194 37.8583 34.5055 -8.1533 3.3768 1.4845
# 3 66.6227 34.5055 144.5871 -0.0382 2.1987 9.4957
# 4 -9.3257 -8.1533 -0.0382 21.1158 -7.8712 1.2692
# 5 16.9304 3.3768 2.1987 -7.8712 41.5589 2.6947
# 6 27.0983 1.4845 9.4957 1.2692 2.6947 40.5096
#
#
#
# Elastic Compliance Matrix: (Units=1/GPa)
#
#
# Indices 1 2 3 4 5 6 
#
# 1 0.010914 -0.013249 -0.001410 -0.001076 -0.003094 -0.006245
# 2 -0.013249 0.053848 -0.007317 0.015915 0.003915 0.007845
# 3 -0.001410 -0.007317 0.009368 -0.003341 0.000098 -0.000886
# 4 -0.001076 0.015915 -0.003341 0.056918 0.010202 -0.001542
# 5 -0.003094 0.003915 0.000098 0.010202 0.026945 -0.000209
# 6 -0.006245 0.007845 -0.000886 -0.001542 -0.000209 0.028845
#
#
# Mechanical properties :
#
#
# Convention : Reuss Voigt Hill
#
# Bulk Modulus (GPa) = 33.13570 74.39830 53.76700
# Shear Modulus (GPa) = 20.75996 34.76631 27.76313
#
# Velocity S-wave (km/s) = 3.11348 4.02914 3.60053
# Velocity P-wave (km/s) = 5.32894 7.50901 6.51086
#
# Compressibility (1/GPa) = 0.03017893
#
# Stress axis : x y z
#
# Youngs Moduli (GPa) = 91.62891 18.57073 106.74718
#
# Poissons Ratio (x) = 0.24604 0.15052
# Poissons Ratio (y) = 1.21396 0.78103
# Poissons Ratio (z) = 0.12920 0.13588
#
# Static dielectric constant tensor:
#      x y z
#    x 4.829440 0.089760 -0.557760 
#    y 0.089760 3.975680 0.642300 
#    z -0.557760 0.642300 4.691920 
# 
# 
# High freq. dielectric constant tensor:
#      x y z
#    x 1.859010 0.009030 -0.000140 
#    y 0.009030 1.807320 0.014240 
#    z -0.000140 0.014240 1.848560 
# 
# From -- ./inp_files/240765.got.cif
#   From: 2010.06.25/outbox.cif.g09.slc.cpg/sg2_121_cif.got.tgz:240765.got - 2010.06.27 13:26:56.
