data_PCOD8007069
_publ_section_title
;
Structure prediction by ZEFSAII (Michael W. Deem and Ramdas Pophale) SiO2 
 PCOD8007069
Probable space group: P -1
;
_chemical_formula_sum "Si O2"
_cell_formula_units_Z 16
_cell_length_a 14.033076
_cell_length_b 11.675660
_cell_length_c 9.372503
_cell_angle_alpha 91.230887
_cell_angle_beta 100.460084
_cell_angle_gamma 29.351126
_cell_volume 709.781950
_symmetry_space_group_name_H-M "P -1"
_symmetry_group_IT_number 2
_symmetry_cell_setting 'triclinic'
loop_
_space_group_symop_operation_xyz
x,y,z
-x,-y,-z
loop_
_atom_site_type_symbol
_atom_site_label
_atom_site_fract_x
_atom_site_fract_y
_atom_site_fract_z
Si Si1 0.032112 0.642950 0.848967
Si Si2 0.555104 0.778622 0.606480
Si Si3 0.162520 0.311853 0.414484
Si Si4 0.151854 0.711981 0.391273
Si Si5 0.276224 0.690997 0.974682
Si Si6 0.861173 0.929869 0.075863
Si Si7 0.001180 0.889907 0.669998
Si Si8 0.580368 0.687597 0.925255
O O1 0.930031 0.850247 0.731560
O O2 0.960715 0.598423 0.758721
O O3 0.283169 0.384574 0.922390
O O4 0.951022 0.739858 0.991112
O O5 0.722182 0.690983 0.585751
O O6 0.621391 0.582108 0.566989
O O7 0.551999 0.789656 0.777430
O O8 0.327645 0.042466 0.495302
O O9 0.000000 0.500000 0.500000
O O10 0.058515 0.792940 0.524406
O O11 0.000261 0.797262 0.249958
O O12 0.170063 0.829215 0.365836
O O13 0.283654 0.571903 0.078642
O O14 0.500000 0.500000 0.000000
O O15 0.200305 0.733450 0.798595
O O16 0.146296 0.936591 0.003907
O O17 0.635639 0.121290 0.061665
#
# Coordination Sequence:
#
# PCOD8007069 Si02
#       8
#     2   2   2   2   2   2   2   2
#     4  11  23  42  68  98 127 174 218 262 333 396
#     4  11  25  44  70  97 124 176 226 270 332 393
#     4  11  28  49  68  90 131 174 220 286 340 384
#     4  10  20  40  66  98 139 172 218 267 325 391
#     4   8  17  34  57  92 137 174 207 248 320 384
#     4  10  21  37  66  96 138 173 209 267 323 389
#     4   9  20  34  65 100 137 178 206 264 327 389
#     4  10  22  38  65 101 130 169 220 267 318 390
#
# _framework density 22.542134999999998
#
# number of rings (size 3 to 8) (size 9 to 14) (size 15 to 20)
#    0.000    2.000    1.250    0.750    5.250    7.000 
#    0.000    1.875    0.000    0.000    0.000    0.000 
#    0.000    0.000    0.000    0.000    0.000    0.000 
#
# Total GULP energy -198320.799877 kJ/mol
# GULP energy per Si atom -12395.049992 kJ/mol
# Density = 2.249083 g / cm^3
# Si number density = 22.542135 Si / 1000 Ang^3
#
#
#
# Elastic Constant Matrix: (Units=GPa)
#
#
# Indices 1 2 3 4 5 6 
#
# 1 51.6774 15.3897 26.2512 -2.1927 -0.6422 -10.6804
# 2 15.3897 88.9904 27.2913 0.9586 8.7728 -0.9909
# 3 26.2512 27.2913 107.1157 11.5471 7.0697 0.0895
# 4 -2.1927 0.9586 11.5471 35.8135 6.8489 -1.1154
# 5 -0.6422 8.7728 7.0697 6.8489 37.2883 -3.1902
# 6 -10.6804 -0.9909 0.0895 -1.1154 -3.1902 19.3019
#
#
#
# Elastic Compliance Matrix: (Units=1/GPa)
#
#
# Indices 1 2 3 4 5 6 
#
# 1 0.026874 -0.002824 -0.006478 0.003718 0.002996 0.015465
# 2 -0.002824 0.012733 -0.002447 0.000777 -0.002836 -0.001321
# 3 -0.006478 -0.002447 0.012086 -0.004085 -0.001440 -0.004240
# 4 0.003718 0.000777 -0.004085 0.030436 -0.004669 0.003103
# 5 0.002996 -0.002836 -0.001440 -0.004669 0.029187 0.006073
# 6 0.015465 -0.001321 -0.004240 0.003103 0.006073 0.061501
#
#
# Mechanical properties :
#
#
# Convention : Reuss Voigt Hill
#
# Bulk Modulus (GPa) = 35.46941 42.84978 39.15960
# Shear Modulus (GPa) = 24.30578 30.40416 27.35497
#
# Velocity S-wave (km/s) = 3.28722 3.67654 3.48732
# Velocity P-wave (km/s) = 5.49332 6.08873 5.79867
#
# Compressibility (1/GPa) = 0.02819331
#
# Stress axis : x y z
#
# Youngs Moduli (GPa) = 37.21089 78.53865 82.74208
#
# Poissons Ratio (x) = 0.22179 0.53601
# Poissons Ratio (y) = 0.10508 0.20250
# Poissons Ratio (z) = 0.24105 0.19222
#
# Static dielectric constant tensor:
#      x y z
#    x 4.074930 0.236240 -0.035750 
#    y 0.236240 4.245080 -0.242970 
#    z -0.035750 -0.242970 4.129960 
# 
# 
# High freq. dielectric constant tensor:
#      x y z
#    x 1.881530 0.003180 -0.002180 
#    y 0.003180 1.885300 -0.011930 
#    z -0.002180 -0.011930 1.890680 
# 
# From -- ./inp_files/299787.got.cif
#   From: 2010.06.25/outbox.cif.g09.slc.cpg/sg2_150_cif.got.tgz:299787.got - 2010.06.27 13:26:56.
