data_PCOD8007485
_publ_section_title
;
Structure prediction by ZEFSAII (Michael W. Deem and Ramdas Pophale) SiO2 
 PCOD8007485
Probable space group: P -1
;
_chemical_formula_sum "Si O2"
_cell_formula_units_Z 14
_cell_length_a 9.086133
_cell_length_b 9.013986
_cell_length_c 12.603099
_cell_angle_alpha 51.138109
_cell_angle_beta 111.464948
_cell_angle_gamma 115.992328
_cell_volume 716.327618
_symmetry_space_group_name_H-M "P -1"
_symmetry_group_IT_number 2
_symmetry_cell_setting 'triclinic'
loop_
_space_group_symop_operation_xyz
x,y,z
-x,-y,-z
loop_
_atom_site_type_symbol
_atom_site_label
_atom_site_fract_x
_atom_site_fract_y
_atom_site_fract_z
Si Si1 0.483568 0.056535 0.691109
Si Si2 0.422983 0.322749 0.140171
Si Si3 0.879676 0.600017 0.866796
Si Si4 0.545719 0.340652 0.399403
Si Si5 0.862586 0.588022 0.467412
Si Si6 0.904087 0.010332 0.363185
Si Si7 0.686948 0.428319 0.698657
O O1 0.549043 0.139195 0.552893
O O2 0.284410 0.985485 0.671760
O O3 0.554729 0.218930 0.729358
O O4 0.563926 0.879739 0.819910
O O5 0.237599 0.327178 0.114497
O O6 0.523418 0.326715 0.274190
O O7 0.500000 0.500000 0.000000
O O8 0.771785 0.429721 0.835014
O O9 0.993898 0.789029 0.753846
O O10 0.000000 0.500000 0.000000
O O11 0.710410 0.518141 0.379048
O O12 0.400194 0.396721 0.398732
O O13 0.914768 0.826344 0.375544
O O14 0.825255 0.494904 0.616116
O O15 0.000000 0.500000 0.500000
O O16 0.000000 0.000000 0.500000
#
# Coordination Sequence:
#
# PCOD8007485 Si02
#       7
#     2   2   2   2   2   2   2
#     4  11  21  40  69  92 122 162 208 252 304 370
#     4  11  25  42  62  91 123 165 212 251 301 368
#     4  11  25  44  63  88 127 166 204 256 311 366
#     4  10  20  41  64  90 125 163 204 246 304 371
#     4  11  22  34  61  98 128 154 200 259 307 355
#     4  12  22  39  65  96 126 161 202 255 315 357
#     4  10  20  44  62  90 126 163 203 247 308 374
#
# _framework density 19.544129999999999
#
# number of rings (size 3 to 8) (size 9 to 14) (size 15 to 20)
#    0.000    1.143    4.286    3.000    6.000    1.143 
#    2.571    2.857    0.000    0.000    0.000    0.000 
#    0.000    0.000    0.000    0.000    0.000    0.000 
#
# Total GULP energy -173548.612883 kJ/mol
# GULP energy per Si atom -12396.329492 kJ/mol
# Density = 1.949965 g / cm^3
# Si number density = 19.544130 Si / 1000 Ang^3
#
#
#
# Elastic Constant Matrix: (Units=GPa)
#
#
# Indices 1 2 3 4 5 6 
#
# 1 114.6911 46.0105 49.8100 1.7766 7.3548 3.1114
# 2 46.0105 88.4676 44.4754 -12.4623 3.2311 8.9163
# 3 49.8100 44.4754 119.7192 -20.5595 4.1256 7.1053
# 4 1.7766 -12.4623 -20.5595 25.9388 3.3818 3.5811
# 5 7.3548 3.2311 4.1256 3.3818 36.6084 -2.4749
# 6 3.1114 8.9163 7.1053 3.5811 -2.4749 35.2812
#
#
#
# Elastic Compliance Matrix: (Units=1/GPa)
#
#
# Indices 1 2 3 4 5 6 
#
# 1 0.013189 -0.005703 -0.004760 -0.007584 -0.000777 0.001952
# 2 -0.005703 0.016957 -0.002384 0.007353 -0.001040 -0.004122
# 3 -0.004760 -0.002384 0.013185 0.010203 -0.001449 -0.002771
# 4 -0.007584 0.007353 0.010203 0.052684 -0.005750 -0.008995
# 5 -0.000777 -0.001040 -0.001449 -0.005750 0.028475 0.003204
# 6 0.001952 -0.004122 -0.002771 -0.008995 0.003204 0.030909
#
#
# Mechanical properties :
#
#
# Convention : Reuss Voigt Hill
#
# Bulk Modulus (GPa) = 56.69596 67.05218 61.87407
# Shear Modulus (GPa) = 26.74207 31.73779 29.23993
#
# Velocity S-wave (km/s) = 3.70306 4.03414 3.87214
# Velocity P-wave (km/s) = 6.88155 7.48877 7.19157
#
# Compressibility (1/GPa) = 0.01763794
#
# Stress axis : x y z
#
# Youngs Moduli (GPa) = 75.82326 58.97256 75.84099
#
# Poissons Ratio (x) = 0.33631 0.36102
# Poissons Ratio (y) = 0.43241 0.18077
# Poissons Ratio (z) = 0.36093 0.14057
#
# Static dielectric constant tensor:
#      x y z
#    x 3.642280 0.039070 0.079980 
#    y 0.039070 3.875190 0.052100 
#    z 0.079980 0.052100 3.359090 
# 
# 
# High freq. dielectric constant tensor:
#      x y z
#    x 1.770630 0.001600 0.005280 
#    y 0.001600 1.771480 -0.002110 
#    z 0.005280 -0.002110 1.747260 
# 
# From -- ./inp_files/156795.got.cif
#   From: 2010.06.25/outbox.cif.g09.slc.cpg/sg2_79_cif.got.tgz:156795.got - 2010.06.27 13:26:56.
