data_PCOD8007546
_publ_section_title
;
Structure prediction by ZEFSAII (Michael W. Deem and Ramdas Pophale) SiO2 
 PCOD8007546
Probable space group: P -1
;
_chemical_formula_sum "Si O2"
_cell_formula_units_Z 16
_cell_length_a 14.634769
_cell_length_b 11.982949
_cell_length_c 6.676865
_cell_angle_alpha 127.068746
_cell_angle_beta 83.291321
_cell_angle_gamma 120.646136
_cell_volume 772.244665
_symmetry_space_group_name_H-M "P -1"
_symmetry_group_IT_number 2
_symmetry_cell_setting 'triclinic'
loop_
_space_group_symop_operation_xyz
x,y,z
-x,-y,-z
loop_
_atom_site_type_symbol
_atom_site_label
_atom_site_fract_x
_atom_site_fract_y
_atom_site_fract_z
Si Si1 0.857260 0.538036 0.597315
Si Si2 0.695171 0.673914 0.431208
Si Si3 0.279036 0.121986 0.731374
Si Si4 0.255790 0.873915 0.139617
Si Si5 0.404394 0.180324 0.148649
Si Si6 0.031686 0.543117 0.814587
Si Si7 0.350049 0.671229 0.804539
Si Si8 0.874233 0.862639 0.916350
O O1 0.922360 0.565874 0.399979
O O2 0.728007 0.391135 0.440861
O O3 0.865632 0.703347 0.846655
O O4 0.915382 0.485177 0.681903
O O5 0.698620 0.728562 0.260448
O O6 0.598041 0.673125 0.575508
O O7 0.671396 0.488559 0.236278
O O8 0.809470 0.808768 0.662650
O O9 0.259878 0.965531 0.441441
O O10 0.382172 0.185435 0.923422
O O11 0.173647 0.065940 0.837180
O O12 0.313414 0.001734 0.078096
O O13 0.127302 0.740651 0.970455
O O14 0.318806 0.780028 0.064481
O O15 0.524538 0.213321 0.177759
O O16 0.000000 0.500000 0.000000
O O17 0.000000 0.000000 0.000000
#
# Coordination Sequence:
#
# PCOD8007546 Si02
#       8
#     2   2   2   2   2   2   2   2
#     4   9  22  39  58  89 116 154 200 243 295 359
#     4   9  21  41  59  92 120 156 209 243 303 361
#     4  10  23  39  58  89 127 157 198 254 302 354
#     4  10  23  39  61  93 121 159 206 246 305 366
#     4  10  21  40  64  89 122 165 199 251 305 351
#     4  10  22  39  62  86 122 158 193 248 305 358
#     4  10  20  41  65  87 124 160 207 251 295 362
#     4  10  22  36  62  85 117 159 200 244 298 359
#
# _framework density 20.718821999999999
#
# number of rings (size 3 to 8) (size 9 to 14) (size 15 to 20)
#    0.000    2.250    0.000    0.750    7.000    6.500 
#    0.000   10.000    0.000    0.000    0.000    0.000 
#    0.000    0.000    0.000    0.000    0.000    0.000 
#
# Total GULP energy -198342.187193 kJ/mol
# GULP energy per Si atom -12396.386700 kJ/mol
# Density = 2.067167 g / cm^3
# Si number density = 20.718822 Si / 1000 Ang^3
#
#
#
# Elastic Constant Matrix: (Units=GPa)
#
#
# Indices 1 2 3 4 5 6 
#
# 1 138.5943 48.5414 53.5530 4.2234 2.7125 6.7131
# 2 48.5414 101.8278 53.9534 -1.1909 4.8670 1.3579
# 3 53.5530 53.9534 102.1633 -9.5599 -10.6444 -1.5129
# 4 4.2234 -1.1909 -9.5599 29.8503 -7.9638 -2.4336
# 5 2.7125 4.8670 -10.6444 -7.9638 36.0337 12.7444
# 6 6.7131 1.3579 -1.5129 -2.4336 12.7444 34.2712
#
#
#
# Elastic Compliance Matrix: (Units=1/GPa)
#
#
# Indices 1 2 3 4 5 6 
#
# 1 0.010028 -0.002231 -0.004665 -0.003688 -0.002093 -0.001565
# 2 -0.002231 0.015102 -0.007586 -0.002789 -0.005163 0.001226
# 3 -0.004665 -0.007586 0.017927 0.008381 0.008755 -0.000655
# 4 -0.003688 -0.002789 0.008381 0.039782 0.012087 -0.000467
# 5 -0.002093 -0.005163 0.008755 0.012087 0.038236 -0.012359
# 6 -0.001565 0.001226 -0.000655 -0.000467 -0.012359 0.033971
#
#
# Mechanical properties :
#
#
# Convention : Reuss Voigt Hill
#
# Bulk Modulus (GPa) = 70.96284 72.74233 71.85258
# Shear Modulus (GPa) = 26.49600 32.46685 29.48143
#
# Velocity S-wave (km/s) = 3.57996 3.96286 3.77627
# Velocity P-wave (km/s) = 7.17028 7.49163 7.33272
#
# Compressibility (1/GPa) = 0.01409188
#
# Stress axis : x y z
#
# Youngs Moduli (GPa) = 99.71674 66.21831 55.78233
#
# Poissons Ratio (x) = 0.14774 0.26022
# Poissons Ratio (y) = 0.22248 0.42319
# Poissons Ratio (z) = 0.46517 0.50236
#
# Static dielectric constant tensor:
#      x y z
#    x 4.055040 -0.079360 -0.136760 
#    y -0.079360 3.527690 0.162220 
#    z -0.136760 0.162220 3.810860 
# 
# 
# High freq. dielectric constant tensor:
#      x y z
#    x 1.829770 -0.004920 -0.006970 
#    y -0.004920 1.789630 0.008970 
#    z -0.006970 0.008970 1.807060 
# 
# From -- ./inp_files/77998.got.cif
#   From: 2010.06.25/outbox.cif.g09.slc.cpg/sg2_39_cif.got.tgz:77998.got - 2010.06.27 13:26:56.
