data_PCOD8007466
_publ_section_title
;
Structure prediction by ZEFSAII (Michael W. Deem and Ramdas Pophale) SiO2 
 PCOD8007466
Probable space group: P -1
;
_chemical_formula_sum "Si O2"
_cell_formula_units_Z 16
_cell_length_a 19.262547
_cell_length_b 10.088035
_cell_length_c 11.656707
_cell_angle_alpha 120.328702
_cell_angle_beta 32.959391
_cell_angle_gamma 97.817391
_cell_volume 840.722441
_symmetry_space_group_name_H-M "P -1"
_symmetry_group_IT_number 2
_symmetry_cell_setting 'triclinic'
loop_
_space_group_symop_operation_xyz
x,y,z
-x,-y,-z
loop_
_atom_site_type_symbol
_atom_site_label
_atom_site_fract_x
_atom_site_fract_y
_atom_site_fract_z
Si Si1 0.848376 0.488683 0.257447
Si Si2 0.513949 0.990949 0.789760
Si Si3 0.505544 0.744621 0.872454
Si Si4 0.160491 0.125703 0.790375
Si Si5 0.007776 0.269123 0.299984
Si Si6 0.810897 0.119262 0.553766
Si Si7 0.940995 0.728903 0.320426
Si Si8 0.169544 0.294490 0.301520
O O1 0.680657 0.531773 0.545233
O O2 0.820714 0.692051 0.409841
O O3 0.001327 0.321878 0.044598
O O4 0.881872 0.434020 0.051509
O O5 0.494027 0.835187 0.803265
O O6 0.681650 0.881062 0.438235
O O7 0.521694 0.110135 0.929541
O O8 0.360793 0.136358 0.984285
O O9 0.368627 0.717363 0.074157
O O10 0.190756 0.942503 0.602005
O O11 0.120970 0.123477 0.976967
O O12 0.127026 0.250989 0.220724
O O13 0.909634 0.201923 0.461654
O O14 0.878854 0.490718 0.533504
O O15 0.886635 0.938701 0.455629
O O16 0.935744 0.712770 0.457008
#
# Coordination Sequence:
#
# PCOD8007466 Si02
#       8
#     2   2   2   2   2   2   2   2
#     4  10  17  30  60  89 108 136 185 231 276 319
#     4  10  18  32  57  84 108 137 189 228 271 320
#     4  10  16  30  56  88 111 131 176 243 281 307
#     4  10  20  36  59  85 112 144 181 232 272 327
#     4  11  24  39  54  78 117 155 184 212 276 337
#     4  10  21  35  57  87 112 137 181 240 280 310
#     4  10  17  33  56  84 105 139 187 229 268 312
#     4  11  22  39  57  77 111 157 187 218 260 345
#
# _framework density 19.031253
#
# number of rings (size 3 to 8) (size 9 to 14) (size 15 to 20)
#    0.000    1.750    3.750    3.375    0.000    1.000 
#    0.000    8.125    0.000    0.750    0.000    0.000 
#    0.000    0.000    0.000    0.000    0.000    0.000 
#
# Total GULP energy -198290.067772 kJ/mol
# GULP energy per Si atom -12393.129236 kJ/mol
# Density = 1.898794 g / cm^3
# Si number density = 19.031253 Si / 1000 Ang^3
#
#
#
# Elastic Constant Matrix: (Units=GPa)
#
#
# Indices 1 2 3 4 5 6 
#
# 1 39.4079 24.1281 20.6546 4.6997 -8.0517 -8.0204
# 2 24.1281 82.9590 42.1455 -12.1694 -8.8078 -0.7456
# 3 20.6546 42.1455 132.2863 -11.8621 -21.0278 -4.8794
# 4 4.6997 -12.1694 -11.8621 23.7355 -1.1385 -3.6789
# 5 -8.0517 -8.8078 -21.0278 -1.1385 24.4172 -1.7716
# 6 -8.0204 -0.7456 -4.8794 -3.6789 -1.7716 24.7352
#
#
#
# Elastic Compliance Matrix: (Units=1/GPa)
#
#
# Indices 1 2 3 4 5 6 
#
# 1 0.038218 -0.011039 -0.002058 -0.012318 0.007023 0.010324
# 2 -0.011039 0.018372 -0.003273 0.009650 0.000459 -0.002203
# 3 -0.002058 -0.003273 0.010689 0.004850 0.007762 0.002620
# 4 -0.012318 0.009650 0.004850 0.053123 0.006480 0.005619
# 5 0.007023 0.000459 0.007762 0.006480 0.051036 0.008441
# 6 0.010324 -0.002203 0.002620 0.005619 0.008441 0.045667
#
#
# Mechanical properties :
#
#
# Convention : Reuss Voigt Hill
#
# Bulk Modulus (GPa) = 28.95145 47.61215 38.28180
# Shear Modulus (GPa) = 19.13110 25.75925 22.44518
#
# Velocity S-wave (km/s) = 3.17400 3.68302 3.43794
# Velocity P-wave (km/s) = 5.35518 6.56950 5.99318
#
# Compressibility (1/GPa) = 0.03454058
#
# Stress axis : x y z
#
# Youngs Moduli (GPa) = 26.16575 54.43150 93.55752
#
# Poissons Ratio (x) = 0.60084 0.19251
# Poissons Ratio (y) = 0.28883 0.30617
# Poissons Ratio (z) = 0.05384 0.17813
#
# Static dielectric constant tensor:
#      x y z
#    x 3.183440 -0.169600 0.065380 
#    y -0.169600 3.328830 -0.218270 
#    z 0.065380 -0.218270 3.937890 
# 
# 
# High freq. dielectric constant tensor:
#      x y z
#    x 1.698660 -0.017840 0.001580 
#    y -0.017840 1.721340 -0.011920 
#    z 0.001580 -0.011920 1.758100 
# 
# From -- ./inp_files/469468.got.cif
#   From: 2010.06.25/outbox.cif.g09.slc.cpg/sg2_235_cif.got.tgz:469468.got - 2010.06.27 13:26:56.
