data_PCOD8007123
_publ_section_title
;
Structure prediction by ZEFSAII (Michael W. Deem and Ramdas Pophale) SiO2 
 PCOD8007123
Probable space group: P -1
;
_chemical_formula_sum "Si O2"
_cell_formula_units_Z 16
_cell_length_a 11.966083
_cell_length_b 11.407071
_cell_length_c 9.268199
_cell_angle_alpha 86.571680
_cell_angle_beta 59.015034
_cell_angle_gamma 126.741128
_cell_volume 734.096337
_symmetry_space_group_name_H-M "P -1"
_symmetry_group_IT_number 2
_symmetry_cell_setting 'triclinic'
loop_
_space_group_symop_operation_xyz
x,y,z
-x,-y,-z
loop_
_atom_site_type_symbol
_atom_site_label
_atom_site_fract_x
_atom_site_fract_y
_atom_site_fract_z
Si Si1 0.589946 0.662381 0.835645
Si Si2 0.080698 0.678035 0.975186
Si Si3 0.522168 0.017168 0.204556
Si Si4 0.595780 0.717914 0.511670
Si Si5 0.792122 0.100603 0.398187
Si Si6 0.343683 0.064147 0.089291
Si Si7 0.042616 0.213747 0.492670
Si Si8 0.766466 0.584803 0.387354
O O1 0.500301 0.620068 0.738186
O O2 0.543785 0.744808 0.956755
O O3 0.820835 0.802354 0.649922
O O4 0.500000 0.500000 0.000000
O O5 0.284660 0.783533 0.904505
O O6 0.103047 0.780048 0.818573
O O7 0.000000 0.500000 0.000000
O O8 0.947372 0.657746 0.175488
O O9 0.400238 0.996562 0.162440
O O10 0.384125 0.927477 0.443134
O O11 0.590969 0.931475 0.115856
O O12 0.734605 0.703523 0.369409
O O13 0.423021 0.614687 0.517769
O O14 0.712968 0.916814 0.434517
O O15 0.947260 0.207163 0.415960
O O16 0.115289 0.933353 0.273350
O O17 0.183373 0.396733 0.475675
#
# Coordination Sequence:
#
# PCOD8007123 Si02
#       8
#     2   2   2   2   2   2   2   2
#     4  11  23  38  67 101 134 167 209 269 334 379
#     4  12  26  42  66  95 132 169 219 268 322 384
#     4  10  21  41  65  91 128 173 215 262 318 375
#     4  10  22  45  66  90 135 172 213 268 325 390
#     4  11  24  43  71  93 127 174 221 262 324 386
#     4  10  20  40  67  94 128 167 220 264 311 390
#     4  10  21  42  68  96 125 168 215 269 318 383
#     4  10  23  42  66  96 134 165 212 273 327 374
#
# _framework density 21.795504999999999
#
# number of rings (size 3 to 8) (size 9 to 14) (size 15 to 20)
#    0.000    1.500    3.750    1.500    3.500    0.500 
#   11.250    0.625    0.000    0.000    0.000    0.000 
#    0.000    0.000    0.000    0.000    0.000    0.000 
#
# Total GULP energy -198255.449111 kJ/mol
# GULP energy per Si atom -12390.965569 kJ/mol
# Density = 2.174590 g / cm^3
# Si number density = 21.795505 Si / 1000 Ang^3
#
#
#
# Elastic Constant Matrix: (Units=GPa)
#
#
# Indices 1 2 3 4 5 6 
#
# 1 55.0609 45.3986 30.3257 1.3321 -7.2112 14.5643
# 2 45.3986 136.1146 36.8675 17.2201 6.1692 11.5284
# 3 30.3257 36.8675 55.7846 15.0114 -9.7561 -6.5376
# 4 1.3321 17.2201 15.0114 28.5560 -8.2970 -6.3799
# 5 -7.2112 6.1692 -9.7561 -8.2970 37.9614 -3.7504
# 6 14.5643 11.5284 -6.5376 -6.3799 -3.7504 44.6109
#
#
#
# Elastic Compliance Matrix: (Units=1/GPa)
#
#
# Indices 1 2 3 4 5 6 
#
# 1 0.039552 -0.008876 -0.019412 0.012872 0.005679 -0.011145
# 2 -0.008876 0.012574 -0.002702 -0.008172 -0.006453 -0.002459
# 3 -0.019412 -0.002702 0.035654 -0.012558 0.004239 0.010821
# 4 0.012872 -0.008172 -0.012558 0.050386 0.011981 0.004282
# 5 0.005679 -0.006453 0.004239 0.011981 0.032662 0.004894
# 6 -0.011145 -0.002459 0.010821 0.004282 0.004894 0.029300
#
#
# Mechanical properties :
#
#
# Convention : Reuss Voigt Hill
#
# Bulk Modulus (GPa) = 38.76154 52.46040 45.61097
# Shear Modulus (GPa) = 18.47019 31.18355 24.82687
#
# Velocity S-wave (km/s) = 2.91423 3.78661 3.37869
# Velocity P-wave (km/s) = 5.39874 6.57567 6.01606
#
# Compressibility (1/GPa) = 0.02579877
#
# Stress axis : x y z
#
# Youngs Moduli (GPa) = 25.28325 79.53151 28.04761
#
# Poissons Ratio (x) = 0.70591 0.54446
# Poissons Ratio (y) = 0.22441 0.07580
# Poissons Ratio (z) = 0.49080 0.21493
#
# Static dielectric constant tensor:
#      x y z
#    x 4.022040 0.233670 -0.373320 
#    y 0.233670 4.107130 0.478220 
#    z -0.373320 0.478220 4.209670 
# 
# 
# High freq. dielectric constant tensor:
#      x y z
#    x 1.846780 0.018820 -0.027500 
#    y 0.018820 1.864830 0.028490 
#    z -0.027500 0.028490 1.851690 
# 
# From -- ./inp_files/262525.got.cif
#   From: 2010.06.25/outbox.cif.g09.slc.cpg/sg2_132_cif.got.tgz:262525.got - 2010.06.27 13:26:56.
