data_PCOD8007151
_publ_section_title
;
Structure prediction by ZEFSAII (Michael W. Deem and Ramdas Pophale) SiO2 
 PCOD8007151
Probable space group: P -1
;
_chemical_formula_sum "Si O2"
_cell_formula_units_Z 12
_cell_length_a 7.383648
_cell_length_b 11.211503
_cell_length_c 13.501522
_cell_angle_alpha 144.627563
_cell_angle_beta 105.560050
_cell_angle_gamma 95.210998
_cell_volume 518.457156
_symmetry_space_group_name_H-M "P -1"
_symmetry_group_IT_number 2
_symmetry_cell_setting 'triclinic'
loop_
_space_group_symop_operation_xyz
x,y,z
-x,-y,-z
loop_
_atom_site_type_symbol
_atom_site_label
_atom_site_fract_x
_atom_site_fract_y
_atom_site_fract_z
Si Si1 0.131991 0.113186 0.944809
Si Si2 0.788080 0.476976 0.904623
Si Si3 0.447921 0.067412 0.828969
Si Si4 0.706235 0.045336 0.488846
Si Si5 0.757141 0.616379 0.199146
Si Si6 0.655132 0.782513 0.742662
O O1 0.214292 0.001072 0.798549
O O2 0.143148 0.351691 0.065161
O O3 0.289445 0.198256 0.120874
O O4 0.876198 0.901828 0.788180
O O5 0.628095 0.183033 0.649416
O O6 0.685429 0.560157 0.032675
O O7 0.000000 0.500000 0.000000
O O8 0.412041 0.985619 0.654288
O O9 0.528747 0.918911 0.799723
O O10 0.635095 0.361240 0.069189
O O11 0.975034 0.244510 0.651413
O O12 0.670106 0.784550 0.342041
O O13 0.500000 0.500000 0.500000
#
# Coordination Sequence:
#
# PCOD8007151 Si02
#       6
#     2   2   2   2   2   2
#     4  11  25  46  68  97 141 174 226 296 330 400
#     4  10  20  40  67  98 142 178 213 280 336 402
#     4  12  24  44  72 100 137 182 226 284 342 406
#     4  10  21  38  65 100 142 182 220 270 337 410
#     4  10  22  41  62 104 144 175 222 275 340 412
#     4  11  26  47  69  98 128 182 239 279 346 402
#
# _framework density 23.145596999999999
#
# number of rings (size 3 to 8) (size 9 to 14) (size 15 to 20)
#    0.000    1.333    1.667    4.000    0.000    4.000 
#    3.000    0.000    0.000    0.000    0.000    0.000 
#    0.000    0.000    0.000    0.000    0.000    0.000 
#
# Total GULP energy -148869.664045 kJ/mol
# GULP energy per Si atom -12405.805337 kJ/mol
# Density = 2.309292 g / cm^3
# Si number density = 23.145597 Si / 1000 Ang^3
#
#
#
# Elastic Constant Matrix: (Units=GPa)
#
#
# Indices 1 2 3 4 5 6 
#
# 1 129.1421 50.1931 69.4994 3.7719 -27.7104 -3.7268
# 2 50.1931 155.1035 66.2567 20.4005 -6.7198 -20.2216
# 3 69.4994 66.2567 174.8913 21.9790 -2.7627 -6.6215
# 4 3.7719 20.4005 21.9790 37.6486 -0.4645 -4.4766
# 5 -27.7104 -6.7198 -2.7627 -0.4645 38.7616 0.7701
# 6 -3.7268 -20.2216 -6.6215 -4.4766 0.7701 40.4708
#
#
#
# Elastic Compliance Matrix: (Units=1/GPa)
#
#
# Indices 1 2 3 4 5 6 
#
# 1 0.012713 -0.002282 -0.004399 0.002567 0.008421 -0.000565
# 2 -0.002282 0.008863 -0.001942 -0.003020 -0.000340 0.003573
# 3 -0.004399 -0.001942 0.008596 -0.003598 -0.002905 -0.000312
# 4 0.002567 -0.003020 -0.003598 0.030232 0.001389 0.001456
# 5 0.008421 -0.000340 -0.002905 0.001389 0.031576 -0.000317
# 6 -0.000565 0.003573 -0.000312 0.001456 -0.000317 0.026559
#
#
# Mechanical properties :
#
#
# Convention : Reuss Voigt Hill
#
# Bulk Modulus (GPa) = 77.34850 92.33728 84.84289
# Shear Modulus (GPa) = 35.69075 41.58871 38.63973
#
# Velocity S-wave (km/s) = 3.93110 4.24350 4.09029
# Velocity P-wave (km/s) = 7.35497 7.99940 7.68394
#
# Compressibility (1/GPa) = 0.01292850
#
# Stress axis : x y z
#
# Youngs Moduli (GPa) = 78.65913 112.82242 116.33406
#
# Poissons Ratio (x) = 0.25742 0.51171
# Poissons Ratio (y) = 0.17947 0.22589
# Poissons Ratio (z) = 0.34599 0.21908
#
# Static dielectric constant tensor:
#      x y z
#    x 5.240650 0.363270 -0.562580 
#    y 0.363270 4.383420 -0.271310 
#    z -0.562580 -0.271310 5.147000 
# 
# 
# High freq. dielectric constant tensor:
#      x y z
#    x 1.958010 -0.004910 0.007150 
#    y -0.004910 1.903500 0.005640 
#    z 0.007150 0.005640 1.940930 
# 
# From -- ./inp_files/499580.got.cif
#   From: 2010.06.25/outbox.cif.g09.slc.cpg/sg2_250_cif.got.tgz:499580.got - 2010.06.27 13:26:56.
