data_PCOD8007362
_publ_section_title
;
Structure prediction by ZEFSAII (Michael W. Deem and Ramdas Pophale) SiO2 
 PCOD8007362
Probable space group: P -1
;
_chemical_formula_sum "Si O2"
_cell_formula_units_Z 16
_cell_length_a 15.981524
_cell_length_b 9.334888
_cell_length_c 21.155718
_cell_angle_alpha 117.953466
_cell_angle_beta 160.143019
_cell_angle_gamma 75.428480
_cell_volume 734.729465
_symmetry_space_group_name_H-M "P -1"
_symmetry_group_IT_number 2
_symmetry_cell_setting 'triclinic'
loop_
_space_group_symop_operation_xyz
x,y,z
-x,-y,-z
loop_
_atom_site_type_symbol
_atom_site_label
_atom_site_fract_x
_atom_site_fract_y
_atom_site_fract_z
Si Si1 0.660253 0.047770 0.845223
Si Si2 0.687288 0.759725 0.221327
Si Si3 0.354492 0.341095 0.447762
Si Si4 0.639881 0.306968 0.531554
Si Si5 0.646641 0.408432 0.916220
Si Si6 0.436982 0.951704 0.017893
Si Si7 0.743466 0.622677 0.478663
Si Si8 0.179670 0.723444 0.537819
O O1 0.618321 0.926094 0.726860
O O2 0.377412 0.900161 0.662391
O O3 0.646684 0.227772 0.851011
O O4 0.989892 0.143849 0.133610
O O5 0.511416 0.651616 0.139893
O O6 0.811554 0.637747 0.255604
O O7 0.465940 0.773030 0.020308
O O8 0.000000 0.000000 0.500000
O O9 0.582091 0.307809 0.566011
O O10 0.431525 0.553706 0.524235
O O11 0.423984 0.363617 0.576815
O O12 0.988003 0.381608 0.778069
O O13 0.465727 0.449760 0.747676
O O14 0.075384 0.853463 0.753371
O O15 0.500000 0.000000 0.000000
O O16 0.674562 0.170885 0.268541
O O17 0.808302 0.460973 0.505509
#
# Coordination Sequence:
#
# PCOD8007362 Si02
#       8
#     2   2   2   2   2   2   2   2
#     4  11  20  42  67  92 121 171 214 257 319 385
#     4  10  20  41  61  89 125 169 210 253 308 376
#     4  10  21  41  68  95 126 160 215 270 317 370
#     4  10  22  41  67  96 122 168 213 263 321 379
#     4  11  24  41  63  93 134 165 211 262 316 374
#     4  11  23  40  63  92 130 167 213 265 312 366
#     4  12  24  41  62  97 132 164 212 267 309 375
#     4  11  23  40  65  90 127 172 213 253 315 380
#
# _framework density 21.776720999999998
#
# number of rings (size 3 to 8) (size 9 to 14) (size 15 to 20)
#    0.000    1.250    5.000    2.625    0.000    4.000 
#    0.000    0.625    0.000    0.000    0.000    0.000 
#    0.000    0.000    0.000    0.000    0.000    0.000 
#
# Total GULP energy -198410.386291 kJ/mol
# GULP energy per Si atom -12400.649143 kJ/mol
# Density = 2.172716 g / cm^3
# Si number density = 21.776721 Si / 1000 Ang^3
#
#
#
# Elastic Constant Matrix: (Units=GPa)
#
#
# Indices 1 2 3 4 5 6 
#
# 1 149.3526 35.3011 9.5841 -0.3802 5.6382 -1.1043
# 2 35.3011 52.2628 19.9300 -1.3992 -4.3001 -0.9289
# 3 9.5841 19.9300 45.2535 -2.3131 8.1158 -5.7037
# 4 -0.3802 -1.3992 -2.3131 25.0156 -1.9383 -6.0393
# 5 5.6382 -4.3001 8.1158 -1.9383 38.3564 -1.5387
# 6 -1.1043 -0.9289 -5.7037 -6.0393 -1.5387 30.7060
#
#
#
# Elastic Compliance Matrix: (Units=1/GPa)
#
#
# Indices 1 2 3 4 5 6 
#
# 1 0.008164 -0.006244 0.001433 -0.000211 -0.002205 0.000219
# 2 -0.006244 0.028741 -0.012686 0.000563 0.006802 -0.001260
# 3 0.001433 -0.012686 0.029542 0.002744 -0.007532 0.005318
# 4 -0.000211 0.000563 0.002744 0.042586 0.002026 0.008997
# 5 -0.002205 0.006802 -0.007532 0.002026 0.028877 0.000573
# 6 0.000219 -0.001260 0.005318 0.008997 0.000573 0.035323
#
#
# Mechanical properties :
#
#
# Convention : Reuss Voigt Hill
#
# Bulk Modulus (GPa) = 31.79151 41.83325 36.81238
# Shear Modulus (GPa) = 22.86127 30.95251 26.90689
#
# Velocity S-wave (km/s) = 3.24358 3.77418 3.51890
# Velocity P-wave (km/s) = 5.35335 6.18420 5.78371
#
# Compressibility (1/GPa) = 0.03145494
#
# Stress axis : x y z
#
# Youngs Moduli (GPa) = 122.49280 34.79299 33.84983
#
# Poissons Ratio (x) = 0.21725 -0.04851
# Poissons Ratio (y) = 0.76484 0.42940
# Poissons Ratio (z) = -0.17556 0.44137
#
# Static dielectric constant tensor:
#      x y z
#    x 4.073090 -0.233200 0.160830 
#    y -0.233200 4.082690 0.140210 
#    z 0.160830 0.140210 4.207240 
# 
# 
# High freq. dielectric constant tensor:
#      x y z
#    x 1.863060 -0.010790 0.008720 
#    y -0.010790 1.836920 0.013350 
#    z 0.008720 0.013350 1.862830 
# 
# From -- ./inp_files/537623.got.cif
#   From: 2010.06.25/outbox.cif.g09.slc.cpg/sg2_269_cif.got.tgz:537623.got - 2010.06.27 13:26:56.
