data_PCOD8007985
_publ_section_title
;
Structure prediction by ZEFSAII (Michael W. Deem and Ramdas Pophale) SiO2 
 PCOD8007985
Probable space group: P -1
;
_chemical_formula_sum "Si O2"
_cell_formula_units_Z 16
_cell_length_a 11.597103
_cell_length_b 9.828100
_cell_length_c 8.867095
_cell_angle_alpha 106.520177
_cell_angle_beta 119.762605
_cell_angle_gamma 66.110179
_cell_volume 797.737435
_symmetry_space_group_name_H-M "P -1"
_symmetry_group_IT_number 2
_symmetry_cell_setting 'triclinic'
loop_
_space_group_symop_operation_xyz
x,y,z
-x,-y,-z
loop_
_atom_site_type_symbol
_atom_site_label
_atom_site_fract_x
_atom_site_fract_y
_atom_site_fract_z
Si Si1 0.841803 0.403431 0.819229
Si Si2 0.583630 0.846181 0.082791
Si Si3 0.588151 0.365266 0.114922
Si Si4 0.823908 0.197746 0.990128
Si Si5 0.606598 0.850781 0.455593
Si Si6 0.852732 0.871489 0.802336
Si Si7 0.386213 0.467163 0.522658
Si Si8 0.149454 0.298152 0.963622
O O1 0.772191 0.302448 0.842113
O O2 0.758703 0.478332 0.642656
O O3 0.992816 0.296999 0.825044
O O4 0.854097 0.530352 0.982870
O O5 0.577988 0.852591 0.260586
O O6 0.746102 0.794941 0.124788
O O7 0.513272 0.728475 0.934134
O O8 0.500000 0.000000 0.000000
O O9 0.638703 0.428928 0.315177
O O10 0.500000 0.500000 0.000000
O O11 0.724620 0.261105 0.086200
O O12 0.808979 0.040099 0.886133
O O13 0.980921 0.189330 0.139949
O O14 0.764777 0.853741 0.591927
O O15 0.576235 0.706718 0.462808
O O16 0.500000 0.000000 0.500000
O O17 0.804582 0.776446 0.867725
O O18 0.500000 0.500000 0.500000
#
# Coordination Sequence:
#
# PCOD8007985 Si02
#       8
#     2   2   2   2   2   2   2   2
#     4  10  22  38  67  91 126 166 206 260 315 375
#     4  12  26  41  66  93 129 171 210 267 313 377
#     4  12  24  41  62  94 128 167 212 261 321 370
#     4  10  22  42  66  94 128 169 208 260 311 384
#     4  12  26  43  64  94 129 170 217 262 317 381
#     4  10  22  42  68  92 127 169 213 254 317 376
#     4  12  26  42  64  95 131 169 212 267 319 377
#     4  10  20  42  62  94 126 164 211 256 313 379
#
# _framework density 20.056723999999999
#
# number of rings (size 3 to 8) (size 9 to 14) (size 15 to 20)
#    0.000    1.000    2.500    4.500    3.500    1.000 
#    0.000    1.250    0.000    6.000    0.000    0.000 
#    0.000    0.000    0.000    0.000    0.000    0.000 
#
# Total GULP energy -198430.925366 kJ/mol
# GULP energy per Si atom -12401.932835 kJ/mol
# Density = 2.001107 g / cm^3
# Si number density = 20.056724 Si / 1000 Ang^3
#
#
#
# Elastic Constant Matrix: (Units=GPa)
#
#
# Indices 1 2 3 4 5 6 
#
# 1 98.9477 41.1628 23.4881 0.1540 -9.5699 -2.6489
# 2 41.1628 125.1696 31.6991 -6.8098 -5.6851 10.0759
# 3 23.4881 31.6991 98.6162 -8.4842 -0.8074 2.1657
# 4 0.1540 -6.8098 -8.4842 34.1376 2.4806 -2.2555
# 5 -9.5699 -5.6851 -0.8074 2.4806 25.3205 9.6756
# 6 -2.6489 10.0759 2.1657 -2.2555 9.6756 29.0910
#
#
#
# Elastic Compliance Matrix: (Units=1/GPa)
#
#
# Indices 1 2 3 4 5 6 
#
# 1 0.012444 -0.003627 -0.001920 -0.001427 0.003485 0.001263
# 2 -0.003627 0.010275 -0.002231 0.001037 0.002469 -0.004464
# 3 -0.001920 -0.002231 0.011515 0.002539 -0.001242 0.000351
# 4 -0.001427 0.001037 0.002539 0.030671 -0.004445 0.003178
# 5 0.003485 0.002469 -0.001242 -0.004445 0.048187 -0.016817
# 6 0.001263 -0.004464 0.000351 0.003178 -0.016817 0.041850
#
#
# Mechanical properties :
#
#
# Convention : Reuss Voigt Hill
#
# Bulk Modulus (GPa) = 53.54009 57.27037 55.40523
# Shear Modulus (GPa) = 28.29265 32.80204 30.54735
#
# Velocity S-wave (km/s) = 3.75991 4.04847 3.90686
# Velocity P-wave (km/s) = 6.75289 7.10420 6.93077
#
# Compressibility (1/GPa) = 0.01867759
#
# Stress axis : x y z
#
# Youngs Moduli (GPa) = 80.35966 97.32427 86.84001
#
# Poissons Ratio (x) = 0.35300 0.16673
# Poissons Ratio (y) = 0.29147 0.19378
# Poissons Ratio (z) = 0.15429 0.21717
#
# Static dielectric constant tensor:
#      x y z
#    x 3.609770 0.222560 0.544190 
#    y 0.222560 3.686870 -0.495740 
#    z 0.544190 -0.495740 2.113020 
# 
# 
# High freq. dielectric constant tensor:
#      x y z
#    x 1.789050 0.004340 0.010130 
#    y 0.004340 1.805730 -0.006900 
#    z 0.010130 -0.006900 1.772620 
# 
# From -- ./inp_files/184933.got.cif
#   From: 2010.06.25/outbox.cif.g09.slc.cpg/sg2_93_cif.got.tgz:184933.got - 2010.06.27 13:26:56.
