data_PCOD8007789
_publ_section_title
;
Structure prediction by ZEFSAII (Michael W. Deem and Ramdas Pophale) SiO2 
 PCOD8007789
Probable space group: P -1
;
_chemical_formula_sum "Si O2"
_cell_formula_units_Z 16
_cell_length_a 8.704634
_cell_length_b 25.866361
_cell_length_c 26.079012
_cell_angle_alpha 10.986715
_cell_angle_beta 39.742353
_cell_angle_gamma 39.887501
_cell_volume 711.705001
_symmetry_space_group_name_H-M "P -1"
_symmetry_group_IT_number 2
_symmetry_cell_setting 'triclinic'
loop_
_space_group_symop_operation_xyz
x,y,z
-x,-y,-z
loop_
_atom_site_type_symbol
_atom_site_label
_atom_site_fract_x
_atom_site_fract_y
_atom_site_fract_z
Si Si1 0.762045 0.372063 0.538015
Si Si2 0.897748 0.723265 0.991271
Si Si3 0.851836 0.427561 0.825179
Si Si4 0.868640 0.751936 0.757681
Si Si5 0.797772 0.471499 0.538675
Si Si6 0.457430 0.015593 0.092763
Si Si7 0.121911 0.823449 0.524360
Si Si8 0.542243 0.980852 0.336536
O O1 0.500000 0.500000 0.500000
O O2 0.925789 0.397488 0.522369
O O3 0.883198 0.541561 0.297103
O O4 0.736398 0.064612 0.823113
O O5 0.675098 0.901054 0.901781
O O6 0.984971 0.917471 0.734671
O O7 0.800931 0.445737 0.266307
O O8 0.111631 0.643092 0.055176
O O9 0.679048 0.707671 0.591052
O O10 0.733633 0.174354 0.075356
O O11 0.589233 0.825029 0.773916
O O12 0.909533 0.732596 0.704775
O O13 0.000000 0.000000 0.500000
O O14 0.000000 0.500000 0.000000
O O15 0.000000 0.500000 0.500000
O O16 0.630170 0.746475 0.319916
O O17 0.622438 0.239784 0.815300
O O18 0.356375 0.905270 0.414601
#
# Coordination Sequence:
#
# PCOD8007789 Si02
#       8
#     2   2   2   2   2   2   2   2
#     4  10  23  44  67  89 123 179 222 253 322 410
#     4  12  24  42  63  96 133 173 220 268 325 394
#     4  12  25  42  65  98 138 171 216 280 334 386
#     4  10  20  41  68  96 131 175 220 263 323 405
#     4  11  24  41  65  97 126 158 216 284 330 374
#     4  11  23  43  64  86 128 177 212 258 327 406
#     4  11  23  42  70  97 129 177 225 265 322 399
#     4  11  24  43  67  99 131 170 220 277 332 386
#
# _framework density 22.481224999999998
#
# number of rings (size 3 to 8) (size 9 to 14) (size 15 to 20)
#    0.000    1.000    0.000    9.000    0.000    6.000 
#    0.000    5.000    0.000    0.000    0.000    0.000 
#    0.000    0.000    0.000    0.000    0.000    0.000 
#
# Total GULP energy -198262.589327 kJ/mol
# GULP energy per Si atom -12391.411833 kJ/mol
# Density = 2.243006 g / cm^3
# Si number density = 22.481225 Si / 1000 Ang^3
#
#
#
# Elastic Constant Matrix: (Units=GPa)
#
#
# Indices 1 2 3 4 5 6 
#
# 1 140.8632 52.2570 64.7628 -0.4630 -5.5109 16.9564
# 2 52.2570 81.7234 38.9961 -3.9262 -1.9552 8.0788
# 3 64.7628 38.9961 181.2978 -8.6340 0.9040 5.5794
# 4 -0.4630 -3.9262 -8.6340 40.3532 2.2314 1.4859
# 5 -5.5109 -1.9552 0.9040 2.2314 55.3881 -2.7633
# 6 16.9564 8.0788 5.5794 1.4859 -2.7633 31.4292
#
#
#
# Elastic Compliance Matrix: (Units=1/GPa)
#
#
# Indices 1 2 3 4 5 6 
#
# 1 0.010756 -0.005259 -0.002636 -0.000852 0.000769 -0.003875
# 2 -0.005259 0.016531 -0.001580 0.001255 -0.000024 -0.001193
# 3 -0.002636 -0.001580 0.006845 0.001287 -0.000456 0.000512
# 4 -0.000852 0.001255 0.001287 0.025284 -0.001149 -0.001388
# 5 0.000769 -0.000024 -0.000456 -0.001149 0.018250 0.001331
# 6 -0.003875 -0.001193 0.000512 -0.001388 0.001331 0.034307
#
#
# Mechanical properties :
#
#
# Convention : Reuss Voigt Hill
#
# Bulk Modulus (GPa) = 65.87383 79.54627 72.71005
# Shear Modulus (GPa) = 36.76892 41.95866 39.36379
#
# Velocity S-wave (km/s) = 4.04857 4.32486 4.18899
# Velocity P-wave (km/s) = 7.15680 7.77171 7.47058
#
# Compressibility (1/GPa) = 0.01518054
#
# Stress axis : x y z
#
# Youngs Moduli (GPa) = 92.97242 60.49179 146.08808
#
# Poissons Ratio (x) = 0.31815 0.38510
# Poissons Ratio (y) = 0.48897 0.23088
# Poissons Ratio (z) = 0.24508 0.09560
#
# Static dielectric constant tensor:
#      x y z
#    x 4.624270 0.306710 -0.119440 
#    y 0.306710 2.372060 -0.158330 
#    z -0.119440 -0.158330 4.227370 
# 
# 
# High freq. dielectric constant tensor:
#      x y z
#    x 1.877490 0.009700 -0.004480 
#    y 0.009700 1.885400 -0.006730 
#    z -0.004480 -0.006730 1.914200 
# 
# From -- ./inp_files/617667.got.cif
#   From: 2010.06.25/outbox.cif.g09.slc.cpg/sg2_309_cif.got.tgz:617667.got - 2010.06.27 13:26:56.
