data_PCOD8007837
_publ_section_title
;
Structure prediction by ZEFSAII (Michael W. Deem and Ramdas Pophale) SiO2 
 PCOD8007837
Probable space group: P -1
;
_chemical_formula_sum "Si O2"
_cell_formula_units_Z 16
_cell_length_a 14.578952
_cell_length_b 12.385796
_cell_length_c 8.632806
_cell_angle_alpha 101.333726
_cell_angle_beta 92.417762
_cell_angle_gamma 30.654879
_cell_volume 753.786369
_symmetry_space_group_name_H-M "P -1"
_symmetry_group_IT_number 2
_symmetry_cell_setting 'triclinic'
loop_
_space_group_symop_operation_xyz
x,y,z
-x,-y,-z
loop_
_atom_site_type_symbol
_atom_site_label
_atom_site_fract_x
_atom_site_fract_y
_atom_site_fract_z
Si Si1 0.546631 0.488955 0.246460
Si Si2 0.494521 0.012622 0.819505
Si Si3 0.658065 0.212198 0.404031
Si Si4 0.640603 0.627046 0.719942
Si Si5 0.920302 0.553216 0.174568
Si Si6 0.054177 0.246955 0.594915
Si Si7 0.787947 0.892249 0.767142
Si Si8 0.526845 0.636784 0.005329
O O1 0.701299 0.272063 0.310213
O O2 0.377298 0.711136 0.402118
O O3 0.463381 0.484144 0.126280
O O4 0.620817 0.511147 0.145568
O O5 0.295318 0.253481 0.802539
O O6 0.547352 0.836768 0.713109
O O7 0.642535 0.944765 0.747680
O O8 0.500000 0.000000 0.000000
O O9 0.467007 0.358836 0.367978
O O10 0.825422 0.951218 0.332079
O O11 0.630357 0.623718 0.907732
O O12 0.852126 0.403999 0.618740
O O13 0.952959 0.619871 0.313139
O O14 0.033366 0.330686 0.183253
O O15 0.000000 0.500000 0.000000
O O16 0.144772 0.140818 0.404479
O O17 0.685172 0.100370 0.905597
#
# Coordination Sequence:
#
# PCOD8007837 Si02
#       8
#     2   2   2   2   2   2   2   2
#     4   9  20  41  70  91 121 170 222 265 326 378
#     4  12  22  40  64  95 132 174 212 254 311 391
#     4  10  21  42  70  93 126 171 211 271 329 373
#     4  11  22  40  66  93 131 170 214 257 323 387
#     4  12  24  40  65  94 133 176 213 253 316 387
#     4  12  25  42  63  99 136 168 212 267 320 381
#     4  12  25  41  65  98 137 170 211 265 317 380
#     4  10  20  41  69  93 125 171 214 271 321 374
#
# _framework density 21.226174
#
# number of rings (size 3 to 8) (size 9 to 14) (size 15 to 20)
#    0.000    1.000    6.250    0.375    1.750    1.500 
#    0.000    6.250    0.000    0.000    0.000    0.000 
#    0.000    0.000    0.000    0.000    0.000    0.000 
#
# Total GULP energy -198330.440772 kJ/mol
# GULP energy per Si atom -12395.652548 kJ/mol
# Density = 2.117786 g / cm^3
# Si number density = 21.226174 Si / 1000 Ang^3
#
#
#
# Elastic Constant Matrix: (Units=GPa)
#
#
# Indices 1 2 3 4 5 6 
#
# 1 65.3937 56.7890 30.7453 2.9843 -12.8326 -7.6860
# 2 56.7890 137.7445 41.9761 -6.7244 -15.7052 -3.3540
# 3 30.7453 41.9761 112.5243 1.8594 -14.0887 4.2615
# 4 2.9843 -6.7244 1.8594 29.7228 5.3364 -5.5394
# 5 -12.8326 -15.7052 -14.0887 5.3364 38.6121 3.1126
# 6 -7.6860 -3.3540 4.2615 -5.5394 3.1126 33.0139
#
#
#
# Elastic Compliance Matrix: (Units=1/GPa)
#
#
# Indices 1 2 3 4 5 6 
#
# 1 0.026790 -0.009694 -0.003297 -0.004554 0.004022 0.004535
# 2 -0.009694 0.012048 -0.001833 0.003678 0.000520 -0.000228
# 3 -0.003297 -0.001833 0.010941 -0.001784 0.002632 -0.002913
# 4 -0.004554 0.003678 -0.001784 0.037381 -0.006352 0.006415
# 5 0.004022 0.000520 0.002632 -0.006352 0.029543 -0.003202
# 6 0.004535 -0.000228 -0.002913 0.006415 -0.003202 0.033077
#
#
# Mechanical properties :
#
#
# Convention : Reuss Voigt Hill
#
# Bulk Modulus (GPa) = 49.67063 63.85371 56.76217
# Shear Modulus (GPa) = 26.86185 32.67990 29.77087
#
# Velocity S-wave (km/s) = 3.56125 3.92804 3.74913
# Velocity P-wave (km/s) = 6.35307 7.12183 6.74841
#
# Compressibility (1/GPa) = 0.02013262
#
# Stress axis : x y z
#
# Youngs Moduli (GPa) = 37.32719 83.00039 91.40056
#
# Poissons Ratio (x) = 0.80458 0.30132
# Poissons Ratio (y) = 0.36184 0.16752
# Poissons Ratio (z) = 0.12306 0.15212
#
# Static dielectric constant tensor:
#      x y z
#    x 3.801550 0.475990 -0.277890 
#    y 0.475990 4.142800 0.063450 
#    z -0.277890 0.063450 3.833980 
# 
# 
# High freq. dielectric constant tensor:
#      x y z
#    x 1.806560 0.032870 -0.001240 
#    y 0.032870 1.838930 -0.000400 
#    z -0.001240 -0.000400 1.845140 
# 
# From -- ./inp_files/203392.got.cif
#   From: 2010.06.25/outbox.cif.g09.slc.cpg/sg2_102_cif.got.tgz:203392.got - 2010.06.27 13:26:56.
