data_PCOD8007942
_publ_section_title
;
Structure prediction by ZEFSAII (Michael W. Deem and Ramdas Pophale) SiO2 
 PCOD8007942
Probable space group: P -1
;
_chemical_formula_sum "Si O2"
_cell_formula_units_Z 16
_cell_length_a 9.617132
_cell_length_b 8.805941
_cell_length_c 12.292834
_cell_angle_alpha 113.579102
_cell_angle_beta 55.688233
_cell_angle_gamma 126.052301
_cell_volume 691.563943
_symmetry_space_group_name_H-M "P -1"
_symmetry_group_IT_number 2
_symmetry_cell_setting 'triclinic'
loop_
_space_group_symop_operation_xyz
x,y,z
-x,-y,-z
loop_
_atom_site_type_symbol
_atom_site_label
_atom_site_fract_x
_atom_site_fract_y
_atom_site_fract_z
Si Si1 0.626688 0.684836 0.244770
Si Si2 0.684985 0.060099 0.863495
Si Si3 0.007589 0.695608 0.031227
Si Si4 0.733784 0.720927 0.664952
Si Si5 0.237059 0.716813 0.736083
Si Si6 0.089576 0.711754 0.562582
Si Si7 0.714102 0.632210 0.411969
Si Si8 0.581374 0.100419 0.697419
O O1 0.441710 0.481791 0.284834
O O2 0.718451 0.764925 0.347623
O O3 0.563559 0.820356 0.249735
O O4 0.796339 0.674021 0.100130
O O5 0.878334 0.169190 0.879071
O O6 0.676457 0.181272 0.797781
O O7 0.671233 0.873443 0.764737
O O8 0.500000 0.000000 0.000000
O O9 0.118834 0.771445 0.890046
O O10 0.000000 0.500000 0.000000
O O11 0.811761 0.743397 0.511306
O O12 0.919730 0.763615 0.665591
O O13 0.180326 0.734899 0.645595
O O14 0.202631 0.503875 0.709271
O O15 0.460459 0.872510 0.694037
O O16 0.253988 0.849591 0.448289
O O17 0.000000 0.500000 0.500000
O O18 0.500000 0.500000 0.500000
#
# Coordination Sequence:
#
# PCOD8007942 Si02
#       8
#     2   2   2   2   2   2   2   2
#     4  11  24  45  76 109 149 199 248 300 378 440
#     4  12  28  52  76 108 153 194 253 307 368 446
#     4  12  27  48  79 106 145 205 250 297 371 453
#     4  11  25  48  73 110 150 196 246 310 371 446
#     4  12  25  47  74 106 154 194 245 308 364 444
#     4  12  25  46  74 116 150 190 247 315 375 432
#     4  10  20  41  73  99 142 193 244 292 368 434
#     4  12  27  47  76 111 155 193 245 317 371 433
#
# _framework density 23.135967000000001
#
# number of rings (size 3 to 8) (size 9 to 14) (size 15 to 20)
#    0.000    0.500    5.000    3.375    5.250    3.000 
#    0.000    1.875    0.000    0.000    0.000    0.000 
#    0.000    0.000    0.000    0.000    0.000    0.000 
#
# Total GULP energy -198366.834807 kJ/mol
# GULP energy per Si atom -12397.927175 kJ/mol
# Density = 2.308331 g / cm^3
# Si number density = 23.135967 Si / 1000 Ang^3
#
#
#
# Elastic Constant Matrix: (Units=GPa)
#
#
# Indices 1 2 3 4 5 6 
#
# 1 119.0581 16.5458 65.3369 -1.3077 -12.7882 -2.8888
# 2 16.5458 74.1826 32.8207 8.2770 -3.4228 0.5787
# 3 65.3369 32.8207 135.1442 -1.4876 9.2516 1.8504
# 4 -1.3077 8.2770 -1.4876 37.6434 0.0318 -4.7873
# 5 -12.7882 -3.4228 9.2516 0.0318 46.7393 -1.1522
# 6 -2.8888 0.5787 1.8504 -4.7873 -1.1522 36.7616
#
#
#
# Elastic Compliance Matrix: (Units=1/GPa)
#
#
# Indices 1 2 3 4 5 6 
#
# 1 0.012429 0.000233 -0.006406 0.000312 0.004722 0.001484
# 2 0.000233 0.015754 -0.004112 -0.003676 0.002023 -0.000438
# 3 -0.006406 -0.004112 0.011823 0.001020 -0.004420 -0.001039
# 4 0.000312 -0.003676 0.001020 0.027889 -0.000315 0.003653
# 5 0.004722 0.002023 -0.004420 -0.000315 0.023742 0.001265
# 6 0.001484 -0.000438 -0.001039 0.003653 0.001265 0.027894
#
#
# Mechanical properties :
#
#
# Convention : Reuss Voigt Hill
#
# Bulk Modulus (GPa) = 51.44584 61.97687 56.71135
# Shear Modulus (GPa) = 34.11149 38.47428 36.29289
#
# Velocity S-wave (km/s) = 3.84395 4.08237 3.96495
# Velocity P-wave (km/s) = 6.47965 7.00480 6.74734
#
# Compressibility (1/GPa) = 0.01943792
#
# Stress axis : x y z
#
# Youngs Moduli (GPa) = 80.45857 63.47477 84.58066
#
# Poissons Ratio (x) = -0.01482 0.54179
# Poissons Ratio (y) = -0.01878 0.34778
# Poissons Ratio (z) = 0.51539 0.26100
#
# Static dielectric constant tensor:
#      x y z
#    x 4.577400 -0.318830 -0.850960 
#    y -0.318830 5.042940 2.293400 
#    z -0.850960 2.293400 6.375150 
# 
# 
# High freq. dielectric constant tensor:
#      x y z
#    x 1.933430 0.003160 -0.000890 
#    y 0.003160 1.899560 -0.004970 
#    z -0.000890 -0.004970 1.926350 
# 
# From -- ./inp_files/382544.got.cif
#   From: 2010.06.25/outbox.cif.g09.slc.cpg/sg2_192_cif.got.tgz:382544.got - 2010.06.27 13:26:56.
