data_PCOD8007482
_publ_section_title
;
Structure prediction by ZEFSAII (Michael W. Deem and Ramdas Pophale) SiO2 
 PCOD8007482
Probable space group: P -1
;
_chemical_formula_sum "Si O2"
_cell_formula_units_Z 16
_cell_length_a 7.005092
_cell_length_b 11.525678
_cell_length_c 11.857841
_cell_angle_alpha 99.929509
_cell_angle_beta 53.279769
_cell_angle_gamma 97.817180
_cell_volume 755.252504
_symmetry_space_group_name_H-M "P -1"
_symmetry_group_IT_number 2
_symmetry_cell_setting 'triclinic'
loop_
_space_group_symop_operation_xyz
x,y,z
-x,-y,-z
loop_
_atom_site_type_symbol
_atom_site_label
_atom_site_fract_x
_atom_site_fract_y
_atom_site_fract_z
Si Si1 0.611787 0.213367 0.289929
Si Si2 0.192136 0.538944 0.665451
Si Si3 0.479945 0.754825 0.911630
Si Si4 0.970633 0.126144 0.877422
Si Si5 0.456945 0.622275 0.375008
Si Si6 0.886943 0.872628 0.926128
Si Si7 0.634229 0.511684 0.837006
Si Si8 0.604472 0.870827 0.435578
O O1 0.687903 0.351106 0.290764
O O2 0.513496 0.173241 0.195714
O O3 0.396460 0.175533 0.443249
O O4 0.850333 0.143850 0.220667
O O5 0.254372 0.556426 0.513346
O O6 0.292897 0.421575 0.668650
O O7 0.910076 0.530673 0.773415
O O8 0.691660 0.785604 0.926791
O O9 0.516679 0.622010 0.838115
O O10 0.222384 0.775140 0.063078
O O11 0.133128 0.118956 0.708282
O O12 0.125940 0.155074 0.939965
O O13 0.822546 0.004449 0.936712
O O14 0.412816 0.593630 0.253771
O O15 0.451417 0.765923 0.406772
O O16 0.500000 0.500000 0.000000
O O17 0.500000 0.000000 0.500000
#
# Coordination Sequence:
#
# PCOD8007482 Si02
#       8
#     2   2   2   2   2   2   2   2
#     4  10  20  41  68  91 120 175 209 257 318 377
#     4  10  21  44  66  88 129 169 212 257 315 382
#     4  11  23  40  64  93 128 167 218 253 319 389
#     4  10  23  40  64  92 128 168 213 264 318 371
#     4  10  24  43  67  93 126 170 213 261 318 380
#     4  10  20  41  64  89 128 172 209 259 313 383
#     4  12  26  39  64 101 130 162 211 268 323 375
#     4  11  23  43  69  93 130 167 214 267 320 367
#
# _framework density 21.184968000000001
#
# number of rings (size 3 to 8) (size 9 to 14) (size 15 to 20)
#    0.000    1.500    3.750    0.750    3.500    0.500 
#    0.000    1.875    0.000    0.000    0.000    0.000 
#    0.000    0.000    0.000    0.000    0.000    0.000 
#
# Total GULP energy -198265.660933 kJ/mol
# GULP energy per Si atom -12391.603808 kJ/mol
# Density = 2.113675 g / cm^3
# Si number density = 21.184968 Si / 1000 Ang^3
#
#
#
# Elastic Constant Matrix: (Units=GPa)
#
#
# Indices 1 2 3 4 5 6 
#
# 1 90.4907 37.2610 59.9169 -2.1879 -3.5427 -5.7472
# 2 37.2610 100.3125 28.4628 17.3670 0.0859 0.2823
# 3 59.9169 28.4628 159.6609 0.5160 -5.7637 1.7486
# 4 -2.1879 17.3670 0.5160 32.1265 2.1134 -1.0045
# 5 -3.5427 0.0859 -5.7637 2.1134 35.4291 12.7575
# 6 -5.7472 0.2823 1.7486 -1.0045 12.7575 13.9993
#
#
#
# Elastic Compliance Matrix: (Units=1/GPa)
#
#
# Indices 1 2 3 4 5 6 
#
# 1 0.018321 -0.006014 -0.006096 0.005239 -0.003898 0.012333
# 2 -0.006014 0.013613 -0.000037 -0.008016 0.001535 -0.004713
# 3 -0.006096 -0.000037 0.008751 -0.000958 0.003260 -0.006635
# 4 0.005239 -0.008016 -0.000958 0.036497 -0.005371 0.009945
# 5 -0.003898 0.001535 0.003260 -0.005371 0.043991 -0.042513
# 6 0.012333 -0.004713 -0.006635 0.009945 -0.042513 0.116874
#
#
# Mechanical properties :
#
#
# Convention : Reuss Voigt Hill
#
# Bulk Modulus (GPa) = 61.00893 66.86062 63.93478
# Shear Modulus (GPa) = 18.67039 31.29920 24.98480
#
# Velocity S-wave (km/s) = 2.97190 3.84790 3.43791
# Velocity P-wave (km/s) = 6.37471 7.16733 6.78261
#
# Compressibility (1/GPa) = 0.01639104
#
# Stress axis : x y z
#
# Youngs Moduli (GPa) = 54.58260 73.45916 114.27259
#
# Poissons Ratio (x) = 0.44178 0.69661
# Poissons Ratio (y) = 0.32826 0.00423
# Poissons Ratio (z) = 0.33274 0.00272
#
# Static dielectric constant tensor:
#      x y z
#    x 3.783150 -0.365800 -0.200460 
#    y -0.365800 4.137540 0.432910 
#    z -0.200460 0.432910 4.140780 
# 
# 
# High freq. dielectric constant tensor:
#      x y z
#    x 1.806480 -0.009350 0.003710 
#    y -0.009350 1.832290 0.018750 
#    z 0.003710 0.018750 1.844390 
# 
# From -- ./inp_files/70858.got.cif
#   From: 2010.06.25/outbox.cif.g09.slc.cpg/sg2_36_cif.got.tgz:70858.got - 2010.06.27 13:26:56.
