data_PCOD8007257
_publ_section_title
;
Structure prediction by ZEFSAII (Michael W. Deem and Ramdas Pophale) SiO2 
 PCOD8007257
Probable space group: P -1
;
_chemical_formula_sum "Si O2"
_cell_formula_units_Z 14
_cell_length_a 10.726937
_cell_length_b 9.492553
_cell_length_c 16.457721
_cell_angle_alpha 146.556796
_cell_angle_beta 41.300579
_cell_angle_gamma 135.374561
_cell_volume 592.747442
_symmetry_space_group_name_H-M "P -1"
_symmetry_group_IT_number 2
_symmetry_cell_setting 'triclinic'
loop_
_space_group_symop_operation_xyz
x,y,z
-x,-y,-z
loop_
_atom_site_type_symbol
_atom_site_label
_atom_site_fract_x
_atom_site_fract_y
_atom_site_fract_z
Si Si1 0.802381 0.243076 0.018316
Si Si2 0.445550 0.290188 0.819207
Si Si3 0.837944 0.150386 0.548956
Si Si4 0.801126 0.795643 0.249389
Si Si5 0.736715 0.224885 0.856870
Si Si6 0.865384 0.652027 0.374451
Si Si7 0.390892 0.905071 0.800804
O O1 0.734089 0.143303 0.913342
O O2 0.031846 0.257858 0.918692
O O3 0.749282 0.526660 0.199315
O O4 0.705502 0.044567 0.041015
O O5 0.677975 0.321082 0.718638
O O6 0.372221 0.175095 0.711009
O O7 0.342022 0.093273 0.845449
O O8 0.396273 0.567849 0.994004
O O9 0.044407 0.313428 0.561510
O O10 0.862526 0.058429 0.400048
O O11 0.766437 0.888911 0.513118
O O12 0.955165 0.335962 0.771281
O O13 0.623146 0.968947 0.738021
O O14 0.697657 0.389705 0.327659
#
# Coordination Sequence:
#
# PCOD8007257 Si02
#       7
#     2   2   2   2   2   2   2
#     4  10  20  40  69  97 125 171 229 264 316 390
#     4  11  25  40  69 100 137 167 214 276 337 376
#     4  11  22  45  64  97 137 174 211 274 330 388
#     4  10  20  42  68  94 131 179 212 265 333 389
#     4  11  23  46  67  98 132 175 218 273 319 390
#     4  11  24  42  72  93 132 180 220 262 326 391
#     4  12  23  42  69 103 127 168 230 270 315 392
#
# _framework density 23.618828000000001
#
# number of rings (size 3 to 8) (size 9 to 14) (size 15 to 20)
#    0.000    1.143    4.286    3.000    0.000    2.857 
#    0.000    0.714    0.000    0.000    0.000    0.000 
#    0.000    0.000    0.000    0.000    0.000    0.000 
#
# Total GULP energy -173511.164863 kJ/mol
# GULP energy per Si atom -12393.654633 kJ/mol
# Density = 2.356507 g / cm^3
# Si number density = 23.618828 Si / 1000 Ang^3
#
#
#
# Elastic Constant Matrix: (Units=GPa)
#
#
# Indices 1 2 3 4 5 6 
#
# 1 119.5021 13.3461 25.2743 15.9532 7.9653 3.7683
# 2 13.3461 69.6823 8.4729 4.2888 1.6981 -10.0280
# 3 25.2743 8.4729 65.3992 -5.2763 10.7438 7.6237
# 4 15.9532 4.2888 -5.2763 27.9769 3.6000 13.1035
# 5 7.9653 1.6981 10.7438 3.6000 53.3109 2.8368
# 6 3.7683 -10.0280 7.6237 13.1035 2.8368 30.8647
#
#
#
# Elastic Compliance Matrix: (Units=1/GPa)
#
#
# Indices 1 2 3 4 5 6 
#
# 1 0.010522 -0.000368 -0.005087 -0.008514 -0.000145 0.003480
# 2 -0.000368 0.016733 -0.003812 -0.007623 0.000292 0.009633
# 3 -0.005087 -0.003812 0.020650 0.012936 -0.003575 -0.010881
# 4 -0.008514 -0.007623 0.012936 0.058259 -0.003481 -0.029046
# 5 -0.000145 0.000292 -0.003575 -0.003481 0.019690 0.000664
# 6 0.003480 0.009633 -0.010881 -0.029046 0.000664 0.050062
#
#
# Mechanical properties :
#
#
# Convention : Reuss Voigt Hill
#
# Bulk Modulus (GPa) = 34.04753 38.75224 36.39988
# Shear Modulus (GPa) = 24.48091 36.26322 30.37206
#
# Velocity S-wave (km/s) = 3.22296 3.92261 3.58987
# Velocity P-wave (km/s) = 5.31947 6.07937 5.71207
#
# Compressibility (1/GPa) = 0.02937071
#
# Stress axis : x y z
#
# Youngs Moduli (GPa) = 95.04210 59.76178 48.42649
#
# Poissons Ratio (x) = 0.02200 0.24636
# Poissons Ratio (y) = 0.03499 0.18458
# Poissons Ratio (z) = 0.48350 0.22778
#
# Static dielectric constant tensor:
#      x y z
#    x 4.586890 -0.090010 0.200390 
#    y -0.090010 3.948350 -0.092430 
#    z 0.200390 -0.092430 4.126150 
# 
# 
# High freq. dielectric constant tensor:
#      x y z
#    x 1.964480 -0.006660 0.018800 
#    y -0.006660 1.900700 -0.018770 
#    z 0.018800 -0.018770 1.931050 
# 
# From -- ./inp_files/566312.got.cif
#   From: 2010.06.25/outbox.cif.g09.slc.cpg/sg2_284_cif.got.tgz:566312.got - 2010.06.27 13:26:56.
