data_PCOD8007593
_publ_section_title
;
Structure prediction by ZEFSAII (Michael W. Deem and Ramdas Pophale) SiO2 
 PCOD8007593
Probable space group: P -1
;
_chemical_formula_sum "Si O2"
_cell_formula_units_Z 16
_cell_length_a 11.495492
_cell_length_b 19.468157
_cell_length_c 8.456845
_cell_angle_alpha 136.553097
_cell_angle_beta 124.692545
_cell_angle_gamma 35.893703
_cell_volume 762.209826
_symmetry_space_group_name_H-M "P -1"
_symmetry_group_IT_number 2
_symmetry_cell_setting 'triclinic'
loop_
_space_group_symop_operation_xyz
x,y,z
-x,-y,-z
loop_
_atom_site_type_symbol
_atom_site_label
_atom_site_fract_x
_atom_site_fract_y
_atom_site_fract_z
Si Si1 0.929604 0.611573 0.264655
Si Si2 0.924029 0.300207 0.663657
Si Si3 0.191462 0.578506 0.678217
Si Si4 0.965355 0.186711 0.825889
Si Si5 0.488630 0.587180 0.833382
Si Si6 0.179613 0.849816 0.811667
Si Si7 0.719608 0.125622 0.400067
Si Si8 0.634348 0.643416 0.304630
O O1 0.736281 0.665948 0.293567
O O2 0.896984 0.727729 0.329166
O O3 0.087169 0.563797 0.440859
O O4 0.000000 0.500000 0.000000
O O5 0.962170 0.274615 0.837258
O O6 0.712402 0.459758 0.728233
O O7 0.935025 0.186604 0.408834
O O8 0.397602 0.520121 0.668017
O O9 0.212023 0.495860 0.705702
O O10 0.077349 0.736200 0.911554
O O11 0.810941 0.175579 0.645798
O O12 0.179035 0.029216 0.737263
O O13 0.356476 0.727128 0.858432
O O14 0.496277 0.633369 0.088471
O O15 0.279254 0.862689 0.768429
O O16 0.000000 0.000000 0.000000
O O17 0.495300 0.226251 0.457316
#
# Coordination Sequence:
#
# PCOD8007593 Si02
#       8
#     2   2   2   2   2   2   2   2
#     4  12  26  43  63  96 141 178 216 272 336 394
#     4  11  23  40  65  95 133 170 222 270 332 384
#     4  12  22  41  69  97 130 170 224 277 332 385
#     4  10  20  41  65  97 127 170 213 280 324 390
#     4  12  22  40  70 103 128 166 228 283 325 387
#     4  11  24  40  66 102 136 169 214 276 340 387
#     4  10  23  38  65  98 134 166 218 267 335 387
#     4  12  25  41  65 100 132 175 222 271 326 397
#
# _framework density 20.991595
#
# number of rings (size 3 to 8) (size 9 to 14) (size 15 to 20)
#    0.000    0.750    5.000    3.375    5.250    0.000 
#    0.000    1.250    0.000    0.000    0.000    0.000 
#    0.000    0.000    0.000    0.000    0.000    0.000 
#
# Total GULP energy -198288.707268 kJ/mol
# GULP energy per Si atom -12393.044204 kJ/mol
# Density = 2.094382 g / cm^3
# Si number density = 20.991595 Si / 1000 Ang^3
#
#
#
# Elastic Constant Matrix: (Units=GPa)
#
#
# Indices 1 2 3 4 5 6 
#
# 1 130.2746 44.8802 36.9270 13.1581 -14.7907 2.2278
# 2 44.8802 84.0327 49.8161 11.7325 -4.2125 15.0046
# 3 36.9270 49.8161 118.0160 -4.6208 -22.6094 -0.9735
# 4 13.1581 11.7325 -4.6208 40.7426 -5.9366 -4.8120
# 5 -14.7907 -4.2125 -22.6094 -5.9366 28.8679 1.4133
# 6 2.2278 15.0046 -0.9735 -4.8120 1.4133 25.5844
#
#
#
# Elastic Compliance Matrix: (Units=1/GPa)
#
#
# Indices 1 2 3 4 5 6 
#
# 1 0.010052 -0.005230 -0.000207 -0.000980 0.003936 0.001782
# 2 -0.005230 0.025220 -0.011286 -0.010091 -0.009122 -0.016159
# 3 -0.000207 -0.011286 0.015967 0.007823 0.011967 0.008055
# 4 -0.000980 -0.010091 0.007823 0.031498 0.010058 0.011670
# 5 0.003936 -0.009122 0.011967 0.010058 0.046533 0.004784
# 6 0.001782 -0.016159 0.008055 0.011670 0.004784 0.050645
#
#
# Mechanical properties :
#
#
# Convention : Reuss Voigt Hill
#
# Bulk Modulus (GPa) = 56.19677 66.17443 61.18560
# Shear Modulus (GPa) = 22.80058 32.41897 27.60978
#
# Velocity S-wave (km/s) = 3.29929 3.93412 3.63061
# Velocity P-wave (km/s) = 6.42985 7.22697 6.84003
#
# Compressibility (1/GPa) = 0.01779462
#
# Stress axis : x y z
#
# Youngs Moduli (GPa) = 99.48396 39.65029 62.62732
#
# Poissons Ratio (x) = 0.20736 0.01298
# Poissons Ratio (y) = 0.52027 0.70679
# Poissons Ratio (z) = 0.02062 0.44748
#
# Static dielectric constant tensor:
#      x y z
#    x 4.193170 0.288210 -0.102130 
#    y 0.288210 3.678730 -0.017900 
#    z -0.102130 -0.017900 3.998500 
# 
# 
# High freq. dielectric constant tensor:
#      x y z
#    x 1.824990 0.020420 -0.021110 
#    y 0.020420 1.798050 0.002510 
#    z -0.021110 0.002510 1.833100 
# 
# From -- ./inp_files/158694.got.cif
#   From: 2010.06.25/outbox.cif.g09.slc.cpg/sg2_80_cif.got.tgz:158694.got - 2010.06.27 13:26:56.
