data_PCOD8007010
_publ_section_title
;
Structure prediction by ZEFSAII (Michael W. Deem and Ramdas Pophale) SiO2 
 PCOD8007010
Probable space group: P -1
;
_chemical_formula_sum "Si O2"
_cell_formula_units_Z 16
_cell_length_a 15.305502
_cell_length_b 16.098966
_cell_length_c 9.373121
_cell_angle_alpha 132.762063
_cell_angle_beta 130.450065
_cell_angle_gamma 27.412903
_cell_volume 773.384823
_symmetry_space_group_name_H-M "P -1"
_symmetry_group_IT_number 2
_symmetry_cell_setting 'triclinic'
loop_
_space_group_symop_operation_xyz
x,y,z
-x,-y,-z
loop_
_atom_site_type_symbol
_atom_site_label
_atom_site_fract_x
_atom_site_fract_y
_atom_site_fract_z
Si Si1 0.264338 0.640586 0.547929
Si Si2 0.687789 0.370912 0.744837
Si Si3 0.658198 0.646077 0.064626
Si Si4 0.741994 0.953409 0.904744
Si Si5 0.976553 0.978038 0.111619
Si Si6 0.940676 0.656434 0.992843
Si Si7 0.183104 0.294065 0.515770
Si Si8 0.033098 0.606877 0.337471
O O1 0.487457 0.463981 0.621404
O O2 0.228600 0.671595 0.375328
O O3 0.182256 0.591526 0.474607
O O4 0.159050 0.830688 0.723700
O O5 0.826061 0.188674 0.782241
O O6 0.656159 0.516677 0.959222
O O7 0.677063 0.713952 0.300099
O O8 0.828559 0.534853 0.004746
O O9 0.454475 0.837568 0.002101
O O10 0.858570 0.826582 0.019719
O O11 0.707449 0.870767 0.673347
O O12 0.871965 0.940334 0.943811
O O13 0.000000 0.000000 0.000000
O O14 0.855048 0.603207 0.786485
O O15 0.897785 0.714007 0.179096
O O16 0.000000 0.500000 0.500000
O O17 0.112337 0.268454 0.539155
#
# Coordination Sequence:
#
# PCOD8007010 Si02
#       8
#     2   2   2   2   2   2   2   2
#     4  11  23  42  68  97 126 171 221 259 315 385
#     4  11  23  44  67  94 128 172 214 268 317 376
#     4  11  21  40  68  91 124 162 218 255 317 375
#     4  12  22  42  66  93 124 172 213 253 324 381
#     4  12  25  42  64  96 135 169 212 262 323 383
#     4  10  21  41  67  90 127 162 205 273 312 369
#     4  11  21  40  65  90 126 170 204 259 317 374
#     4  10  20  40  66  92 126 166 208 261 322 364
#
# _framework density 20.688276999999999
#
# number of rings (size 3 to 8) (size 9 to 14) (size 15 to 20)
#    0.000    1.000    6.250    1.500    0.000    0.500 
#    2.250    8.125    0.000    0.000    0.000    0.000 
#    0.000    0.000    0.000    0.000    0.000    0.000 
#
# Total GULP energy -198338.991226 kJ/mol
# GULP energy per Si atom -12396.186952 kJ/mol
# Density = 2.064119 g / cm^3
# Si number density = 20.688277 Si / 1000 Ang^3
#
#
#
# Elastic Constant Matrix: (Units=GPa)
#
#
# Indices 1 2 3 4 5 6 
#
# 1 81.7435 39.4073 22.8592 -11.1442 -1.4264 20.7793
# 2 39.4073 125.9617 27.3829 -5.9916 -18.2009 4.6896
# 3 22.8592 27.3829 81.8930 -2.4467 2.8767 5.7226
# 4 -11.1442 -5.9916 -2.4467 28.1163 3.4410 0.2840
# 5 -1.4264 -18.2009 2.8767 3.4410 38.1180 0.1158
# 6 20.7793 4.6896 5.7226 0.2840 0.1158 26.3371
#
#
#
# Elastic Compliance Matrix: (Units=1/GPa)
#
#
# Indices 1 2 3 4 5 6 
#
# 1 0.020001 -0.005131 -0.002580 0.007011 -0.002096 -0.014373
# 2 -0.005131 0.010712 -0.002537 -0.000631 0.005163 0.002676
# 3 -0.002580 -0.002537 0.013897 -0.000061 -0.002350 -0.000521
# 4 0.007011 -0.000631 -0.000061 0.038694 -0.003509 -0.005808
# 5 -0.002096 0.005163 -0.002350 -0.003509 0.029112 0.001155
# 6 -0.014373 0.002676 -0.000521 -0.005808 0.001155 0.049003
#
#
# Mechanical properties :
#
#
# Convention : Reuss Voigt Hill
#
# Bulk Modulus (GPa) = 41.46872 52.09969 46.78420
# Shear Modulus (GPa) = 26.32239 31.84419 29.08329
#
# Velocity S-wave (km/s) = 3.57085 3.92757 3.75345
# Velocity P-wave (km/s) = 6.09010 6.76798 6.43797
#
# Compressibility (1/GPa) = 0.02411456
#
# Stress axis : x y z
#
# Youngs Moduli (GPa) = 49.99700 93.35316 71.96002
#
# Poissons Ratio (x) = 0.47898 0.18566
# Poissons Ratio (y) = 0.25652 0.18255
# Poissons Ratio (z) = 0.12899 0.23682
#
# Static dielectric constant tensor:
#      x y z
#    x 4.146820 -0.004430 0.231980 
#    y -0.004430 3.754040 -0.042540 
#    z 0.231980 -0.042540 4.163740 
# 
# 
# High freq. dielectric constant tensor:
#      x y z
#    x 1.805320 0.008450 0.010320 
#    y 0.008450 1.797330 0.004260 
#    z 0.010320 0.004260 1.823150 
# 
# From -- ./inp_files/315992.got.cif
#   From: 2010.06.25/outbox.cif.g09.slc.cpg/sg2_158_cif.got.tgz:315992.got - 2010.06.27 13:26:56.
