data_PCOD8007522
_publ_section_title
;
Structure prediction by ZEFSAII (Michael W. Deem and Ramdas Pophale) SiO2 
 PCOD8007522
Probable space group: P -1
;
_chemical_formula_sum "Si O2"
_cell_formula_units_Z 16
_cell_length_a 21.758918
_cell_length_b 27.997110
_cell_length_c 9.816602
_cell_angle_alpha 154.136492
_cell_angle_beta 35.299487
_cell_angle_gamma 162.667670
_cell_volume 733.743192
_symmetry_space_group_name_H-M "P -1"
_symmetry_group_IT_number 2
_symmetry_cell_setting 'triclinic'
loop_
_space_group_symop_operation_xyz
x,y,z
-x,-y,-z
loop_
_atom_site_type_symbol
_atom_site_label
_atom_site_fract_x
_atom_site_fract_y
_atom_site_fract_z
Si Si1 0.911752 0.686242 0.455345
Si Si2 0.542458 0.489425 0.542022
Si Si3 0.722739 0.467808 0.516673
Si Si4 0.295317 0.319070 0.807544
Si Si5 0.660116 0.926377 0.171816
Si Si6 0.944582 0.573911 0.630323
Si Si7 0.771549 0.983510 0.822499
Si Si8 0.232695 0.626305 0.275976
O O1 0.797962 0.703504 0.674041
O O2 0.803999 0.523934 0.360639
O O3 0.902449 0.596055 0.113754
O O4 0.162831 0.934614 0.674232
O O5 0.500000 0.500000 0.500000
O O6 0.395825 0.425723 0.748487
O O7 0.477781 0.305863 0.194159
O O8 0.461787 0.231523 0.381722
O O9 0.804432 0.447212 0.418656
O O10 0.829325 0.680362 0.925582
O O11 0.152205 0.077014 0.456849
O O12 0.500000 0.500000 0.000000
O O13 0.485608 0.859945 0.368425
O O14 0.764250 0.043144 0.134152
O O15 0.126884 0.644810 0.470353
O O16 0.779883 0.402540 0.612602
O O17 0.065905 0.800611 0.012767
#
# Coordination Sequence:
#
# PCOD8007522 Si02
#       8
#     2   2   2   2   2   2   2   2
#     4  11  21  42  64  91 126 166 210 255 311 376
#     4  10  21  38  59  92 133 166 204 256 312 369
#     4  11  21  39  65  96 125 163 215 259 306 371
#     4   9  18  37  61  89 130 159 199 264 295 359
#     4  10  21  42  64  88 128 167 209 260 305 378
#     4  11  25  42  67  92 122 166 212 263 326 367
#     4  10  20  41  64  96 122 163 216 254 307 376
#     4  10  25  46  60  93 132 157 206 276 318 369
#
# _framework density 21.805993999999998
#
# number of rings (size 3 to 8) (size 9 to 14) (size 15 to 20)
#    0.000    1.750    6.250    0.000    3.500    4.000 
#    2.250    2.500    0.000    0.000    0.000    0.000 
#    0.000    0.000    0.000    0.000    0.000    0.000 
#
# Total GULP energy -198329.115663 kJ/mol
# GULP energy per Si atom -12395.569729 kJ/mol
# Density = 2.175636 g / cm^3
# Si number density = 21.805994 Si / 1000 Ang^3
#
#
#
# Elastic Constant Matrix: (Units=GPa)
#
#
# Indices 1 2 3 4 5 6 
#
# 1 148.9036 38.0994 10.7033 -19.2234 11.5890 4.5834
# 2 38.0994 71.4321 13.8454 -17.9634 -7.8205 12.0120
# 3 10.7033 13.8454 37.0764 -10.3967 4.4340 4.2716
# 4 -19.2234 -17.9634 -10.3967 30.9509 3.6125 4.9240
# 5 11.5890 -7.8205 4.4340 3.6125 25.9747 -0.5647
# 6 4.5834 12.0120 4.2716 4.9240 -0.5647 33.7116
#
#
#
# Elastic Compliance Matrix: (Units=1/GPa)
#
#
# Indices 1 2 3 4 5 6 
#
# 1 0.008777 -0.004468 0.001010 0.003962 -0.005993 -0.000408
# 2 -0.004468 0.021527 -0.004423 0.008525 0.007879 -0.007616
# 3 0.001010 -0.004423 0.032987 0.010908 -0.009028 -0.004485
# 4 0.003962 0.008525 0.010908 0.046167 -0.007741 -0.011831
# 5 -0.005993 0.007879 -0.009028 -0.007741 0.046186 0.001056
# 6 -0.000408 -0.007616 -0.004485 -0.011831 0.001056 0.034747
#
#
# Mechanical properties :
#
#
# Convention : Reuss Voigt Hill
#
# Bulk Modulus (GPa) = 21.04094 42.52315 31.78205
# Shear Modulus (GPa) = 22.52291 31.11170 26.81730
#
# Velocity S-wave (km/s) = 3.21733 3.78133 3.51067
# Velocity P-wave (km/s) = 4.84476 6.21350 5.57133
#
# Compressibility (1/GPa) = 0.04752639
#
# Stress axis : x y z
#
# Youngs Moduli (GPa) = 113.93491 46.45356 30.31525
#
# Poissons Ratio (x) = 0.20757 -0.03060
# Poissons Ratio (y) = 0.50910 0.13409
# Poissons Ratio (z) = -0.11502 0.20548
#
# Static dielectric constant tensor:
#      x y z
#    x 2.662940 1.981330 -0.736730 
#    y 1.981330 11.791690 -5.964340 
#    z -0.736730 -5.964340 8.221600 
# 
# 
# High freq. dielectric constant tensor:
#      x y z
#    x 1.860820 0.020910 0.019060 
#    y 0.020910 1.858440 -0.001810 
#    z 0.019060 -0.001810 1.840250 
# 
# From -- ./inp_files/350260.got.cif
#   From: 2010.06.25/outbox.cif.g09.slc.cpg/sg2_176_cif.got.tgz:350260.got - 2010.06.27 13:26:56.
