data_PCOD8007453
_publ_section_title
;
Structure prediction by ZEFSAII (Michael W. Deem and Ramdas Pophale) SiO2 
 PCOD8007453
Probable space group: P -1
;
_chemical_formula_sum "Si O2"
_cell_formula_units_Z 14
_cell_length_a 8.745207
_cell_length_b 11.018611
_cell_length_c 12.660035
_cell_angle_alpha 122.163481
_cell_angle_beta 131.990495
_cell_angle_gamma 89.984058
_cell_volume 633.002658
_symmetry_space_group_name_H-M "P -1"
_symmetry_group_IT_number 2
_symmetry_cell_setting 'triclinic'
loop_
_space_group_symop_operation_xyz
x,y,z
-x,-y,-z
loop_
_atom_site_type_symbol
_atom_site_label
_atom_site_fract_x
_atom_site_fract_y
_atom_site_fract_z
Si Si1 0.651930 0.362664 0.143834
Si Si2 0.975718 0.724200 0.758892
Si Si3 0.412175 0.385757 0.655416
Si Si4 0.248956 0.059195 0.925801
Si Si5 0.464009 0.873175 0.333040
Si Si6 0.084341 0.285074 0.033894
Si Si7 0.254311 0.057126 0.697224
O O1 0.694832 0.546291 0.274608
O O2 0.918310 0.396339 0.254407
O O3 0.532860 0.233662 0.133196
O O4 0.447475 0.265868 0.909571
O O5 0.751891 0.666911 0.549710
O O6 0.869596 0.716843 0.821222
O O7 0.211303 0.922167 0.932958
O O8 0.398766 0.220976 0.618295
O O9 0.697679 0.533727 0.830056
O O10 0.186159 0.961811 0.736237
O O11 0.067679 0.122273 0.896092
O O12 0.594912 0.982890 0.335822
O O13 0.500000 0.000000 0.500000
O O14 0.172339 0.732706 0.113323
O O15 0.000000 0.000000 0.500000
#
# Coordination Sequence:
#
# PCOD8007453 Si02
#       7
#     2   2   2   2   2   2   2
#     4   9  22  40  63  90 128 160 209 256 309 368
#     4  12  20  41  64  94 125 169 211 249 309 370
#     4  11  25  41  62  91 131 168 203 260 310 372
#     4   9  21  38  65  91 124 164 207 258 305 364
#     4  12  25  43  67  94 122 164 212 261 315 372
#     4  11  22  43  60  94 130 165 207 258 309 369
#     4  10  20  41  63  94 124 159 211 260 309 366
#
# _framework density 22.116810000000001
#
# number of rings (size 3 to 8) (size 9 to 14) (size 15 to 20)
#    0.857    0.571    1.429    4.714    0.000    0.571 
#    0.000    2.857    0.000    0.000    0.000    0.000 
#    0.000    0.000    0.000    0.000    0.000    0.000 
#
# Total GULP energy -173486.854318 kJ/mol
# GULP energy per Si atom -12391.918166 kJ/mol
# Density = 2.206647 g / cm^3
# Si number density = 22.116810 Si / 1000 Ang^3
#
#
#
# Elastic Constant Matrix: (Units=GPa)
#
#
# Indices 1 2 3 4 5 6 
#
# 1 128.6535 30.8429 22.8535 -2.5801 -21.2877 -10.4541
# 2 30.8429 75.1267 19.6655 3.2991 -14.7924 -16.0116
# 3 22.8535 19.6655 91.1523 -12.1178 -9.1447 -14.7579
# 4 -2.5801 3.2991 -12.1178 29.2766 -5.8012 0.5187
# 5 -21.2877 -14.7924 -9.1447 -5.8012 46.4547 -7.5503
# 6 -10.4541 -16.0116 -14.7579 0.5187 -7.5503 29.8218
#
#
#
# Elastic Compliance Matrix: (Units=1/GPa)
#
#
# Indices 1 2 3 4 5 6 
#
# 1 0.009388 -0.002363 -0.000822 0.001499 0.003998 0.002601
# 2 -0.002363 0.017875 -0.001398 -0.001850 0.005653 0.009540
# 3 -0.000822 -0.001398 0.013782 0.006419 0.003769 0.006624
# 4 0.001499 -0.001850 0.006419 0.038430 0.006771 0.003755
# 5 0.003998 0.005653 0.003769 0.006771 0.028942 0.013512
# 6 0.002601 0.009540 0.006624 0.003755 0.013512 0.046200
#
#
# Mechanical properties :
#
#
# Convention : Reuss Voigt Hill
#
# Bulk Modulus (GPa) = 31.36955 49.07293 40.22124
# Shear Modulus (GPa) = 28.66784 35.88198 32.27491
#
# Velocity S-wave (km/s) = 3.60419 4.03225 3.82421
# Velocity P-wave (km/s) = 5.61557 6.62684 6.14205
#
# Compressibility (1/GPa) = 0.03187804
#
# Stress axis : x y z
#
# Youngs Moduli (GPa) = 106.51408 55.94504 72.55579
#
# Poissons Ratio (x) = 0.13222 0.05967
# Poissons Ratio (y) = 0.25173 0.10144
# Poissons Ratio (z) = 0.08760 0.07821
#
# Static dielectric constant tensor:
#      x y z
#    x 4.332760 0.026800 -0.145840 
#    y 0.026800 3.644450 -0.026360 
#    z -0.145840 -0.026360 3.894800 
# 
# 
# High freq. dielectric constant tensor:
#      x y z
#    x 1.892500 -0.002920 -0.002740 
#    y -0.002920 1.832860 -0.007180 
#    z -0.002740 -0.007180 1.867520 
# 
# From -- ./inp_files/391488.got.cif
#   From: 2010.06.25/outbox.cif.g09.slc.cpg/sg2_196_cif.got.tgz:391488.got - 2010.06.27 13:26:56.
