data_PCOD8007226
_publ_section_title
;
Structure prediction by ZEFSAII (Michael W. Deem and Ramdas Pophale) SiO2 
 PCOD8007226
Probable space group: P -1
;
_chemical_formula_sum "Si O2"
_cell_formula_units_Z 12
_cell_length_a 7.706045
_cell_length_b 10.427747
_cell_length_c 8.222310
_cell_angle_alpha 67.256483
_cell_angle_beta 123.344954
_cell_angle_gamma 127.589495
_cell_volume 436.048791
_symmetry_space_group_name_H-M "P -1"
_symmetry_group_IT_number 2
_symmetry_cell_setting 'triclinic'
loop_
_space_group_symop_operation_xyz
x,y,z
-x,-y,-z
loop_
_atom_site_type_symbol
_atom_site_label
_atom_site_fract_x
_atom_site_fract_y
_atom_site_fract_z
Si Si1 0.288603 0.561835 0.520899
Si Si2 0.831766 0.421750 0.194258
Si Si3 0.170813 0.989610 0.721820
Si Si4 0.203553 0.332467 0.160373
Si Si5 0.314489 0.151672 0.035450
Si Si6 0.613324 0.094383 0.674616
O O1 0.203785 0.505117 0.690032
O O2 0.564418 0.600822 0.628818
O O3 0.262544 0.716820 0.387836
O O4 0.093623 0.430252 0.352338
O O5 0.839357 0.525408 0.990431
O O6 0.610019 0.239029 0.144393
O O7 0.212243 0.123498 0.814421
O O8 0.427115 0.041655 0.752982
O O9 0.000000 0.000000 0.500000
O O10 0.042350 0.805768 0.814566
O O11 0.253671 0.262683 0.057216
O O12 0.205837 0.968992 0.145473
O O13 0.500000 0.000000 0.500000
#
# Coordination Sequence:
#
# PCOD8007226 Si02
#       6
#     2   2   2   2   2   2
#     4  10  20  40  68  99 134 173 225 270 336 398
#     4  10  22  40  70 100 136 180 222 270 338 409
#     4  12  25  43  66 100 137 173 229 286 333 397
#     4  11  22  45  70 101 138 175 225 277 338 404
#     4  11  23  43  68 103 134 179 224 276 340 400
#     4  12  22  44  71  98 130 176 231 280 333 401
#
# _framework density 27.519857999999999
#
# number of rings (size 3 to 8) (size 9 to 14) (size 15 to 20)
#    0.000    1.000    5.000    4.000    0.000    1.333 
#    3.000    4.167    0.000    0.000    0.000    0.000 
#    0.000    0.000    0.000    0.000    0.000    0.000 
#
# Total GULP energy -148722.190684 kJ/mol
# GULP energy per Si atom -12393.515890 kJ/mol
# Density = 2.745722 g / cm^3
# Si number density = 27.519858 Si / 1000 Ang^3
#
#
#
# Elastic Constant Matrix: (Units=GPa)
#
#
# Indices 1 2 3 4 5 6 
#
# 1 66.2649 7.7823 -7.9645 2.7269 -3.6625 15.1786
# 2 7.7823 94.3456 34.6639 8.5190 -8.6582 27.1327
# 3 -7.9645 34.6639 141.1295 15.6242 -6.0099 -1.8924
# 4 2.7269 8.5190 15.6242 69.5520 5.6347 4.6827
# 5 -3.6625 -8.6582 -6.0099 5.6347 31.6951 -4.8467
# 6 15.1786 27.1327 -1.8924 4.6827 -4.8467 37.9730
#
#
#
# Elastic Compliance Matrix: (Units=1/GPa)
#
#
# Indices 1 2 3 4 5 6 
#
# 1 0.016782 0.000392 0.000877 -0.000555 0.001285 -0.006712
# 2 0.000392 0.015327 -0.003757 -0.000464 0.001921 -0.010993
# 3 0.000877 -0.003757 0.008360 -0.001783 0.001460 0.003156
# 4 -0.000555 -0.000464 -0.001783 0.015269 -0.003529 -0.001868
# 5 0.001285 0.001921 0.001460 -0.003529 0.033573 0.002907
# 6 -0.006712 -0.010993 0.003156 -0.001868 0.002907 0.037631
#
#
# Mechanical properties :
#
#
# Convention : Reuss Voigt Hill
#
# Bulk Modulus (GPa) = 28.17495 41.18926 34.68210
# Shear Modulus (GPa) = 34.78343 45.66126 40.22235
#
# Velocity S-wave (km/s) = 3.55905 4.07776 3.82720
# Velocity P-wave (km/s) = 5.21051 6.09676 5.67097
#
# Compressibility (1/GPa) = 0.03549252
#
# Stress axis : x y z
#
# Youngs Moduli (GPa) = 59.58915 65.24483 119.62064
#
# Poissons Ratio (x) = -0.02556 -0.10491
# Poissons Ratio (y) = -0.02334 0.44937
# Poissons Ratio (z) = -0.05226 0.24510
#
# Static dielectric constant tensor:
#      x y z
#    x 5.079670 0.388920 0.134570 
#    y 0.388920 5.849350 0.047830 
#    z 0.134570 0.047830 5.478240 
# 
# 
# High freq. dielectric constant tensor:
#      x y z
#    x 2.106530 0.016780 -0.004990 
#    y 0.016780 2.111920 0.014670 
#    z -0.004990 0.014670 2.126860 
# 
# From -- ./inp_files/159201.got.cif
#   From: 2010.06.25/outbox.cif.g09.slc.cpg/sg2_80_cif.got.tgz:159201.got - 2010.06.27 13:26:56.
