data_PCOD8007417
_publ_section_title
;
Structure prediction by ZEFSAII (Michael W. Deem and Ramdas Pophale) SiO2 
 PCOD8007417
Probable space group: P -1
;
_chemical_formula_sum "Si O2"
_cell_formula_units_Z 16
_cell_length_a 8.384939
_cell_length_b 6.550830
_cell_length_c 15.203593
_cell_angle_alpha 59.411867
_cell_angle_beta 75.284334
_cell_angle_gamma 86.350580
_cell_volume 693.156931
_symmetry_space_group_name_H-M "P -1"
_symmetry_group_IT_number 2
_symmetry_cell_setting 'triclinic'
loop_
_space_group_symop_operation_xyz
x,y,z
-x,-y,-z
loop_
_atom_site_type_symbol
_atom_site_label
_atom_site_fract_x
_atom_site_fract_y
_atom_site_fract_z
Si Si1 0.710009 0.180291 0.399984
Si Si2 0.331771 0.306068 0.737896
Si Si3 0.052271 0.061962 0.380566
Si Si4 0.246407 0.500264 0.202976
Si Si5 0.979140 0.161466 0.741504
Si Si6 0.490139 0.777471 0.427442
Si Si7 0.126493 0.355091 0.067218
Si Si8 0.582637 0.767064 0.071168
O O1 0.623171 0.408196 0.324460
O O2 0.684747 0.161470 0.516562
O O3 0.900658 0.216094 0.337562
O O4 0.632837 0.933010 0.425658
O O5 0.477582 0.181953 0.690481
O O6 0.317684 0.182800 0.862264
O O7 0.160945 0.274643 0.714522
O O8 0.217597 0.238497 0.308922
O O9 0.052354 0.842999 0.359419
O O10 0.000000 0.000000 0.500000
O O11 0.163922 0.693390 0.230582
O O12 0.173018 0.506369 0.114193
O O13 0.442358 0.558585 0.158264
O O14 0.963151 0.898056 0.840890
O O15 0.500000 0.500000 0.500000
O O16 0.294436 0.324171 0.997598
O O17 0.000000 0.500000 0.000000
O O18 0.500000 0.000000 0.000000
#
# Coordination Sequence:
#
# PCOD8007417 Si02
#       8
#     2   2   2   2   2   2   2   2
#     4  10  20  41  62  99 136 181 241 284 348 427
#     4  11  23  41  70  97 137 186 237 292 347 432
#     4  11  25  42  69 104 142 187 232 296 359 422
#     4  11  25  48  68 100 147 183 240 290 363 428
#     4  11  23  45  71 104 138 187 245 285 351 440
#     4   9  20  37  65  95 133 177 232 293 343 409
#     4  11  26  46  76 103 136 192 241 294 355 431
#     4  12  27  47  70 108 147 185 233 304 370 411
#
# _framework density 23.082795999999998
#
# number of rings (size 3 to 8) (size 9 to 14) (size 15 to 20)
#    0.000    1.250    3.750    1.125    3.500    5.500 
#    2.250    0.000    0.000    0.000    0.000    0.000 
#    0.000    0.000    0.000    0.000    0.000    0.000 
#
# Total GULP energy -198293.648898 kJ/mol
# GULP energy per Si atom -12393.353056 kJ/mol
# Density = 2.303026 g / cm^3
# Si number density = 23.082796 Si / 1000 Ang^3
#
#
#
# Elastic Constant Matrix: (Units=GPa)
#
#
# Indices 1 2 3 4 5 6 
#
# 1 66.3658 35.3487 30.3807 5.4531 -23.5742 -1.6460
# 2 35.3487 138.6950 60.9106 20.3304 -2.3994 -0.4350
# 3 30.3807 60.9106 138.1924 25.9220 -6.3591 2.5352
# 4 5.4531 20.3304 25.9220 47.1974 2.4234 -13.3550
# 5 -23.5742 -2.3994 -6.3591 2.4234 39.4613 4.3897
# 6 -1.6460 -0.4350 2.5352 -13.3550 4.3897 38.0206
#
#
#
# Elastic Compliance Matrix: (Units=1/GPa)
#
#
# Indices 1 2 3 4 5 6 
#
# 1 0.023410 -0.004636 -0.002443 -0.000191 0.013376 -0.000488
# 2 -0.004636 0.010016 -0.003127 -0.002016 -0.002508 -0.000296
# 3 -0.002443 -0.003127 0.010096 -0.004654 0.000543 -0.002512
# 4 -0.000191 -0.002016 -0.004654 0.027801 -0.003861 0.010490
# 5 0.013376 -0.002508 0.000543 -0.003861 0.034035 -0.004772
# 6 -0.000488 -0.000296 -0.002512 0.010490 -0.004772 0.030680
#
#
# Mechanical properties :
#
#
# Convention : Reuss Voigt Hill
#
# Bulk Modulus (GPa) = 43.27094 66.28149 54.77622
# Shear Modulus (GPa) = 30.45912 39.37674 34.91793
#
# Velocity S-wave (km/s) = 3.63651 4.13472 3.89360
# Velocity P-wave (km/s) = 6.03481 7.18134 6.63290
#
# Compressibility (1/GPa) = 0.02311020
#
# Stress axis : x y z
#
# Youngs Moduli (GPa) = 42.71603 99.83738 99.04967
#
# Poissons Ratio (x) = 0.46282 0.24198
# Poissons Ratio (y) = 0.19802 0.30977
# Poissons Ratio (z) = 0.10436 0.31224
#
# Static dielectric constant tensor:
#      x y z
#    x 3.862040 -0.015940 -0.448250 
#    y -0.015940 4.433120 0.349070 
#    z -0.448250 0.349070 4.446310 
# 
# 
# High freq. dielectric constant tensor:
#      x y z
#    x 1.901050 -0.002380 -0.026750 
#    y -0.002380 1.926840 0.015050 
#    z -0.026750 0.015050 1.921610 
# 
# From -- ./inp_files/97744.got.cif
#   From: 2010.06.25/outbox.cif.g09.slc.cpg/sg2_49_cif.got.tgz:97744.got - 2010.06.27 13:26:56.
