data_PCOD8007488
_publ_section_title
;
Structure prediction by ZEFSAII (Michael W. Deem and Ramdas Pophale) SiO2 
 PCOD8007488
Probable space group: P -1
;
_chemical_formula_sum "Si O2"
_cell_formula_units_Z 16
_cell_length_a 22.939179
_cell_length_b 15.211374
_cell_length_c 5.691921
_cell_angle_alpha 95.147465
_cell_angle_beta 87.623158
_cell_angle_gamma 160.931757
_cell_volume 640.482081
_symmetry_space_group_name_H-M "P -1"
_symmetry_group_IT_number 2
_symmetry_cell_setting 'triclinic'
loop_
_space_group_symop_operation_xyz
x,y,z
-x,-y,-z
loop_
_atom_site_type_symbol
_atom_site_label
_atom_site_fract_x
_atom_site_fract_y
_atom_site_fract_z
Si Si1 0.075537 0.402886 0.344672
Si Si2 0.201533 0.086096 0.416615
Si Si3 0.636141 0.047217 0.433029
Si Si4 0.836102 0.782317 0.645367
Si Si5 0.462435 0.706006 0.761396
Si Si6 0.731858 0.476540 0.869704
Si Si7 0.506906 0.436752 0.179892
Si Si8 0.082497 0.650355 0.775349
O O1 0.246062 0.696537 0.497822
O O2 0.137253 0.420707 0.140480
O O3 0.935680 0.269204 0.205882
O O4 0.981256 0.219988 0.536125
O O5 0.157128 0.104291 0.248768
O O6 0.333308 0.201453 0.317677
O O7 0.300769 0.274458 0.662981
O O8 0.713148 0.094577 0.218753
O O9 0.638883 0.000919 0.676221
O O10 0.431948 0.779816 0.341885
O O11 0.647181 0.492662 0.482847
O O12 0.844692 0.727017 0.849198
O O13 0.000000 0.000000 0.500000
O O14 0.508865 0.689542 0.925117
O O15 0.349517 0.622915 0.883054
O O16 0.500000 0.500000 0.000000
O O17 0.000000 0.500000 0.500000
O O18 0.000000 0.500000 0.000000
#
# Coordination Sequence:
#
# PCOD8007488 Si02
#       8
#     2   2   2   2   2   2   2   2
#     4  11  23  44  66 104 133 179 234 286 347 423
#     4  10  21  41  65  94 132 168 226 280 337 416
#     4  10  24  45  68  93 138 184 226 284 350 420
#     4  10  20  41  64  90 134 170 219 282 344 407
#     4  10  23  40  65  96 130 176 223 276 347 419
#     4  11  23  42  69  99 134 183 228 283 354 417
#     4  10  21  41  64  96 125 170 221 280 343 410
#     4  10  24  47  70  99 137 185 235 294 347 408
#
# _framework density 24.981183999999999
#
# number of rings (size 3 to 8) (size 9 to 14) (size 15 to 20)
#    0.000    1.750    1.250    1.875    3.500    4.000 
#   15.750    0.000    0.000    0.000    0.000    0.000 
#    0.000    0.000    0.000    0.000    0.000    0.000 
#
# Total GULP energy -198282.228648 kJ/mol
# GULP energy per Si atom -12392.639290 kJ/mol
# Density = 2.492433 g / cm^3
# Si number density = 24.981184 Si / 1000 Ang^3
#
#
#
# Elastic Constant Matrix: (Units=GPa)
#
#
# Indices 1 2 3 4 5 6 
#
# 1 178.3526 43.2338 30.4889 -26.8978 -17.2761 -15.1414
# 2 43.2338 123.7433 25.4864 -38.6430 -10.5793 -21.6662
# 3 30.4889 25.4864 80.8959 -39.0663 -11.7784 -14.6165
# 4 -26.8978 -38.6430 -39.0663 36.3091 2.7433 -0.6315
# 5 -17.2761 -10.5793 -11.7784 2.7433 30.9614 -6.7822
# 6 -15.1414 -21.6662 -14.6165 -0.6315 -6.7822 39.2803
#
#
#
# Elastic Compliance Matrix: (Units=1/GPa)
#
#
# Indices 1 2 3 4 5 6 
#
# 1 0.007576 0.002780 0.005904 0.014467 0.007950 0.008256
# 2 0.002780 0.029244 0.031145 0.065393 0.025084 0.034174
# 3 0.005904 0.031145 0.069472 0.110001 0.042539 0.054419
# 4 0.014467 0.065393 0.110001 0.222320 0.074244 0.098971
# 5 0.007950 0.025084 0.042539 0.074244 0.064791 0.045110
# 6 0.008256 0.034174 0.054419 0.098971 0.045110 0.077120
#
#
# Mechanical properties :
#
#
# Convention : Reuss Voigt Hill
#
# Bulk Modulus (GPa) = 5.37776 64.60112 34.98944
# Shear Modulus (GPa) = 11.04120 40.22901 25.63510
#
# Velocity S-wave (km/s) = 2.10461 4.01730 3.20687
# Velocity P-wave (km/s) = 2.83959 6.88726 5.26771
#
# Compressibility (1/GPa) = 0.18595113
#
# Stress axis : x y z
#
# Youngs Moduli (GPa) = 131.98784 34.19455 14.39428
#
# Poissons Ratio (x) = -0.09505 -0.08499
# Poissons Ratio (y) = -0.36690 -0.44831
# Poissons Ratio (z) = -0.77928 -1.06500
#
# Static dielectric constant tensor:
#      x y z
#    x 5.369000 -0.051180 0.046900 
#    y -0.051180 4.725250 -0.237200 
#    z 0.046900 -0.237200 4.204880 
# 
# 
# High freq. dielectric constant tensor:
#      x y z
#    x 2.008690 0.001320 -0.003830 
#    y 0.001320 2.004500 -0.014790 
#    z -0.003830 -0.014790 1.970710 
# 
# From -- ./inp_files/82971.got.cif
#   From: 2010.06.25/outbox.cif.g09.slc.cpg/sg2_42_cif.got.tgz:82971.got - 2010.06.27 13:26:56.
