data_PCOD8007157
_publ_section_title
;
Structure prediction by ZEFSAII (Michael W. Deem and Ramdas Pophale) SiO2 
 PCOD8007157
Probable space group: P -1
;
_chemical_formula_sum "Si O2"
_cell_formula_units_Z 16
_cell_length_a 11.801579
_cell_length_b 5.409717
_cell_length_c 24.749444
_cell_angle_alpha 58.924006
_cell_angle_beta 32.703886
_cell_angle_gamma 53.247510
_cell_volume 683.727260
_symmetry_space_group_name_H-M "P -1"
_symmetry_group_IT_number 2
_symmetry_cell_setting 'triclinic'
loop_
_space_group_symop_operation_xyz
x,y,z
-x,-y,-z
loop_
_atom_site_type_symbol
_atom_site_label
_atom_site_fract_x
_atom_site_fract_y
_atom_site_fract_z
Si Si1 0.105743 0.006734 0.801862
Si Si2 0.163438 0.755801 0.503291
Si Si3 0.400246 0.905175 0.228696
Si Si4 0.384029 0.326876 0.723096
Si Si5 0.346211 0.351575 0.023455
Si Si6 0.174311 0.271704 0.994898
Si Si7 0.768162 0.521827 0.830093
Si Si8 0.989602 0.305656 0.578710
O O1 0.260604 0.165131 0.751284
O O2 0.974907 0.192611 0.779658
O O3 0.240348 0.658788 0.768174
O O4 0.912596 0.008510 0.923309
O O5 0.418476 0.630019 0.395952
O O6 0.085920 0.455666 0.572164
O O7 0.136865 0.942065 0.549749
O O8 0.000000 0.000000 0.500000
O O9 0.513221 0.904361 0.241612
O O10 0.579400 0.832035 0.117207
O O11 0.267229 0.664807 0.308958
O O12 0.217230 0.243405 0.249039
O O13 0.178165 0.448957 0.029083
O O14 0.511603 0.541463 0.931350
O O15 0.191139 0.392212 0.134095
O O16 0.500000 0.000000 0.000000
O O17 0.000000 0.500000 0.000000
O O18 0.000000 0.500000 0.500000
#
# Coordination Sequence:
#
# PCOD8007157 Si02
#       8
#     2   2   2   2   2   2   2   2
#     4  12  27  46  65 100 151 194 217 285 364 419
#     4  10  20  40  68 100 130 176 222 300 360 410
#     4  12  25  41  70 111 128 186 247 293 333 436
#     4  12  26  43  73 104 137 181 243 287 355 419
#     4  11  21  45  66  89 140 202 244 277 344 417
#     4  12  25  40  67 105 147 183 232 296 342 410
#     4  11  25  43  67  96 140 198 241 285 345 428
#     4  10  21  40  69 100 135 168 232 302 361 392
#
# _framework density 23.401145
#
# number of rings (size 3 to 8) (size 9 to 14) (size 15 to 20)
#    0.000    0.750    6.250    2.250    3.500    1.500 
#    0.000    0.000    0.000    4.500    0.000    0.000 
#    0.000    0.000    0.000    0.000    0.000    0.000 
#
# Total GULP energy -198256.296856 kJ/mol
# GULP energy per Si atom -12391.018553 kJ/mol
# Density = 2.334788 g / cm^3
# Si number density = 23.401145 Si / 1000 Ang^3
#
#
#
# Elastic Constant Matrix: (Units=GPa)
#
#
# Indices 1 2 3 4 5 6 
#
# 1 115.9686 61.7255 17.1301 -3.8564 -23.2392 -3.9365
# 2 61.7255 118.4110 47.1073 -10.5441 -2.3231 -0.3545
# 3 17.1301 47.1073 132.2996 3.7997 -34.4178 5.7730
# 4 -3.8564 -10.5441 3.7997 31.5048 7.0919 3.9375
# 5 -23.2392 -2.3231 -34.4178 7.0919 28.8818 -6.1315
# 6 -3.9365 -0.3545 5.7730 3.9375 -6.1315 55.4939
#
#
#
# Elastic Compliance Matrix: (Units=1/GPa)
#
#
# Indices 1 2 3 4 5 6 
#
# 1 0.023831 -0.018360 0.013681 -0.014258 0.038656 0.005433
# 2 -0.018360 0.025575 -0.016990 0.017592 -0.038312 -0.004853
# 3 0.013681 -0.016990 0.023124 -0.016852 0.042253 0.004321
# 4 -0.014258 0.017592 -0.016852 0.048674 -0.043667 -0.007424
# 5 0.038656 -0.038312 0.042253 -0.043667 0.126953 0.015227
# 6 0.005433 -0.004853 0.004321 -0.007424 0.015227 0.020134
#
#
# Mechanical properties :
#
#
# Convention : Reuss Voigt Hill
#
# Bulk Modulus (GPa) = 34.25574 68.73392 51.49483
# Shear Modulus (GPa) = 15.55878 39.22387 27.39133
#
# Velocity S-wave (km/s) = 2.58131 4.09852 3.42499
# Velocity P-wave (km/s) = 4.85330 7.19951 6.13952
#
# Compressibility (1/GPa) = 0.02919219
#
# Stress axis : x y z
#
# Youngs Moduli (GPa) = 41.96144 39.09999 43.24456
#
# Poissons Ratio (x) = 0.71789 -0.59161
# Poissons Ratio (y) = 0.77043 0.73471
# Poissons Ratio (z) = -0.57406 0.66430
#
# Static dielectric constant tensor:
#      x y z
#    x 5.121820 0.840190 -0.384830 
#    y 0.840190 5.292260 -0.095660 
#    z -0.384830 -0.095660 4.539170 
# 
# 
# High freq. dielectric constant tensor:
#      x y z
#    x 1.911500 0.013080 -0.015600 
#    y 0.013080 1.928000 0.001720 
#    z -0.015600 0.001720 1.926610 
# 
# From -- ./inp_files/617885.got.cif
#   From: 2010.06.25/outbox.cif.g09.slc.cpg/sg2_309_cif.got.tgz:617885.got - 2010.06.27 13:26:56.
