data_PCOD8007436
_publ_section_title
;
Structure prediction by ZEFSAII (Michael W. Deem and Ramdas Pophale) SiO2 
 PCOD8007436
Probable space group: P -1
;
_chemical_formula_sum "Si O2"
_cell_formula_units_Z 16
_cell_length_a 14.381266
_cell_length_b 8.813065
_cell_length_c 12.942836
_cell_angle_alpha 87.036742
_cell_angle_beta 148.453968
_cell_angle_gamma 83.133390
_cell_volume 813.982356
_symmetry_space_group_name_H-M "P -1"
_symmetry_group_IT_number 2
_symmetry_cell_setting 'triclinic'
loop_
_space_group_symop_operation_xyz
x,y,z
-x,-y,-z
loop_
_atom_site_type_symbol
_atom_site_label
_atom_site_fract_x
_atom_site_fract_y
_atom_site_fract_z
Si Si1 0.552900 0.007289 0.384642
Si Si2 0.162577 0.234344 0.463333
Si Si3 0.032689 0.464116 0.853757
Si Si4 0.780965 0.446218 0.797584
Si Si5 0.258763 0.177134 0.937110
Si Si6 0.548030 0.815726 0.076186
Si Si7 0.539560 0.232126 0.544437
Si Si8 0.869068 0.088232 0.280195
O O1 0.567601 0.157050 0.459213
O O2 0.755992 0.898086 0.543195
O O3 0.454911 0.902772 0.362289
O O4 0.438016 0.069622 0.171023
O O5 0.319005 0.234543 0.696801
O O6 0.114508 0.409458 0.361778
O O7 0.974345 0.203987 0.326189
O O8 0.129146 0.311489 0.881929
O O9 0.951388 0.402648 0.880250
O O10 0.173688 0.546645 0.037661
O O11 0.710029 0.295111 0.727946
O O12 0.646124 0.618092 0.628170
O O13 0.331463 0.266003 0.907969
O O14 0.145239 0.057164 0.799854
O O15 0.341667 0.793239 0.893886
O O16 0.500000 0.000000 0.000000
O O17 0.000000 0.000000 0.500000
#
# Coordination Sequence:
#
# PCOD8007436 Si02
#       8
#     2   2   2   2   2   2   2   2
#     4  11  21  40  64  97 119 164 214 260 303 373
#     4  12  23  40  66  93 126 164 209 257 312 371
#     4  11  25  41  60  91 127 168 204 261 312 373
#     4  10  22  43  58  87 131 166 202 261 321 366
#     4  11  22  41  64  89 128 164 205 257 313 370
#     4  10  20  41  63  90 128 157 199 264 309 358
#     4  10  22  39  64  89 124 165 211 258 313 372
#     4  11  21  40  67  94 122 163 210 256 313 368
#
# _framework density 19.656445999999999
#
# number of rings (size 3 to 8) (size 9 to 14) (size 15 to 20)
#    0.000    1.250    7.500    0.000    3.500    0.500 
#    0.000    1.875    0.000    0.000    0.000    0.000 
#    0.000    0.000    0.000    0.000    0.000    0.000 
#
# Total GULP energy -198295.470593 kJ/mol
# GULP energy per Si atom -12393.466912 kJ/mol
# Density = 1.961171 g / cm^3
# Si number density = 19.656446 Si / 1000 Ang^3
#
#
#
# Elastic Constant Matrix: (Units=GPa)
#
#
# Indices 1 2 3 4 5 6 
#
# 1 81.7499 3.7285 31.4679 -3.2827 -3.0144 -23.7648
# 2 3.7285 35.1948 37.5651 -12.4203 -7.7840 -29.0625
# 3 31.4679 37.5651 102.0551 18.3715 -5.9665 10.1511
# 4 -3.2827 -12.4203 18.3715 20.2774 -2.7908 -9.3825
# 5 -3.0144 -7.7840 -5.9665 -2.7908 33.3470 -2.2666
# 6 -23.7648 -29.0625 10.1511 -9.3825 -2.2666 24.5612
#
#
#
# Elastic Compliance Matrix: (Units=1/GPa)
#
#
# Indices 1 2 3 4 5 6 
#
# 1 0.010564 -0.008878 0.001583 -0.007168 -0.001694 -0.003832
# 2 -0.008878 0.000093 0.007404 -0.016769 -0.002092 -0.018139
# 3 0.001583 0.007404 0.004545 0.006419 0.003985 0.011233
# 4 -0.007168 -0.016769 0.006419 0.021744 -0.003049 -0.021406
# 5 -0.001694 -0.002092 0.003985 -0.003049 0.029518 -0.004203
# 6 -0.003832 -0.018139 0.011233 -0.021406 -0.004203 0.002336
#
#
# Mechanical properties :
#
#
# Convention : Reuss Voigt Hill
#
# Bulk Modulus (GPa) = 64.85037 40.50254 52.67646
# Shear Modulus (GPa) = 67.82166 25.38634 46.60400
#
# Velocity S-wave (km/s) = 5.88034 3.59765 4.87450
# Velocity P-wave (km/s) = 8.89765 6.15690 7.65100
#
# Compressibility (1/GPa) = 0.01542011
#
# Stress axis : x y z
#
# Youngs Moduli (GPa) = 94.66404 10765.37737 220.00039
#
# Poissons Ratio (x) = 95.56978 -0.34825
# Poissons Ratio (y) = 0.84038 -1.62880
# Poissons Ratio (z) = -0.14985 -79.70281
#
# Static dielectric constant tensor:
#      x y z
#    x 4.540360 -0.110990 0.237000 
#    y -0.110990 3.421210 0.171330 
#    z 0.237000 0.171330 4.051670 
# 
# 
# High freq. dielectric constant tensor:
#      x y z
#    x 1.776790 -0.009050 -0.006040 
#    y -0.009050 1.748150 0.001350 
#    z -0.006040 0.001350 1.775930 
# 
# From -- ./inp_files/202737.got.cif
#   From: 2010.06.25/outbox.cif.g09.slc.cpg/sg2_102_cif.got.tgz:202737.got - 2010.06.27 13:26:56.
