data_PCOD8007668
_publ_section_title
;
Structure prediction by ZEFSAII (Michael W. Deem and Ramdas Pophale) SiO2 
 PCOD8007668
Probable space group: P -1
;
_chemical_formula_sum "Si O2"
_cell_formula_units_Z 12
_cell_length_a 6.493214
_cell_length_b 12.306276
_cell_length_c 8.989539
_cell_angle_alpha 88.624864
_cell_angle_beta 103.629358
_cell_angle_gamma 51.268001
_cell_volume 530.469756
_symmetry_space_group_name_H-M "P -1"
_symmetry_group_IT_number 2
_symmetry_cell_setting 'triclinic'
loop_
_space_group_symop_operation_xyz
x,y,z
-x,-y,-z
loop_
_atom_site_type_symbol
_atom_site_label
_atom_site_fract_x
_atom_site_fract_y
_atom_site_fract_z
Si Si1 0.650772 0.590172 0.144372
Si Si2 0.802559 0.293077 0.161440
Si Si3 0.770624 0.147577 0.759861
Si Si4 0.890676 0.457555 0.612594
Si Si5 0.250911 0.039219 0.052467
Si Si6 0.254550 0.721889 0.526474
O O1 0.768109 0.430734 0.187974
O O2 0.422919 0.685061 0.233209
O O3 0.906104 0.590364 0.207723
O O4 0.483680 0.660877 0.958838
O O5 0.860909 0.212937 0.330162
O O6 0.065464 0.192016 0.099491
O O7 0.803665 0.151167 0.587889
O O8 0.627148 0.083796 0.796016
O O9 0.067607 0.041398 0.894928
O O10 0.580987 0.589755 0.604767
O O11 0.910010 0.325877 0.570114
O O12 0.000000 0.500000 0.500000
O O13 0.500000 0.000000 0.000000
#
# Coordination Sequence:
#
# PCOD8007668 Si02
#       6
#     2   2   2   2   2   2
#     4  10  20  41  66  96 135 169 216 262 318 395
#     4  10  22  42  65 105 132 162 225 275 319 380
#     4  10  22  42  65  93 128 175 216 259 334 397
#     4  11  20  37  63 100 139 176 205 256 344 390
#     4  10  24  46  65  86 129 182 218 262 330 400
#     4  11  22  37  65 101 137 163 217 279 314 392
#
# _framework density 22.621459000000002
#
# number of rings (size 3 to 8) (size 9 to 14) (size 15 to 20)
#    0.000    1.667    3.333    1.000    2.333    1.333 
#    9.000    0.833    0.000    0.000    0.000    0.000 
#    0.000    0.000    0.000    0.000    0.000    0.000 
#
# Total GULP energy -148723.577703 kJ/mol
# GULP energy per Si atom -12393.631475 kJ/mol
# Density = 2.256997 g / cm^3
# Si number density = 22.621459 Si / 1000 Ang^3
#
#
#
# Elastic Constant Matrix: (Units=GPa)
#
#
# Indices 1 2 3 4 5 6 
#
# 1 136.1371 36.7472 68.8093 0.3540 -0.7584 -0.4636
# 2 36.7472 72.9988 42.1190 -9.8552 -12.8638 -6.1107
# 3 68.8093 42.1190 157.4680 -6.4372 -12.0617 5.6269
# 4 0.3540 -9.8552 -6.4372 25.9856 7.7202 -4.6796
# 5 -0.7584 -12.8638 -12.0617 7.7202 51.0939 0.9650
# 6 -0.4636 -6.1107 5.6269 -4.6796 0.9650 25.2615
#
#
#
# Elastic Compliance Matrix: (Units=1/GPa)
#
#
# Indices 1 2 3 4 5 6 
#
# 1 0.010144 -0.003503 -0.003671 -0.002024 -0.001289 -0.000169
# 2 -0.003503 0.019404 -0.003392 0.006895 0.002867 0.006553
# 3 -0.003671 -0.003392 0.009069 0.000103 0.001272 -0.002937
# 4 -0.002024 0.006895 0.000103 0.044501 -0.005184 0.010049
# 5 -0.001289 0.002867 0.001272 -0.005184 0.021384 -0.001391
# 6 -0.000169 0.006553 -0.002937 0.010049 -0.001391 0.043737
#
#
# Mechanical properties :
#
#
# Convention : Reuss Voigt Hill
#
# Bulk Modulus (GPa) = 57.19386 73.55056 65.37221
# Shear Modulus (GPa) = 28.53897 35.06342 31.80120
#
# Velocity S-wave (km/s) = 3.55574 3.94128 3.75346
# Velocity P-wave (km/s) = 6.49581 7.30040 6.90983
#
# Compressibility (1/GPa) = 0.01748440
#
# Stress axis : x y z
#
# Youngs Moduli (GPa) = 98.57927 51.53596 110.26959
#
# Poissons Ratio (x) = 0.18052 0.40482
# Poissons Ratio (y) = 0.34530 0.37406
# Poissons Ratio (z) = 0.36191 0.17482
#
# Static dielectric constant tensor:
#      x y z
#    x 4.196980 0.103150 0.117680 
#    y 0.103150 3.932010 -0.008590 
#    z 0.117680 -0.008590 4.375110 
# 
# 
# High freq. dielectric constant tensor:
#      x y z
#    x 1.879700 -0.005840 0.000010 
#    y -0.005840 1.875150 -0.005190 
#    z 0.000010 -0.005190 1.899620 
# 
# From -- ./inp_files/26927.got.cif
#   From: 2010.06.25/outbox.cif.g09.slc.cpg/sg2_14_cif.got.tgz:26927.got - 2010.06.27 13:26:56.
