data_PCOD8007872
_publ_section_title
;
Structure prediction by ZEFSAII (Michael W. Deem and Ramdas Pophale) SiO2 
 PCOD8007872
Probable space group: P -1
;
_chemical_formula_sum "Si O2"
_cell_formula_units_Z 16
_cell_length_a 9.462841
_cell_length_b 8.301871
_cell_length_c 16.804872
_cell_angle_alpha 84.035539
_cell_angle_beta 142.753232
_cell_angle_gamma 108.494696
_cell_volume 731.932839
_symmetry_space_group_name_H-M "P -1"
_symmetry_group_IT_number 2
_symmetry_cell_setting 'triclinic'
loop_
_space_group_symop_operation_xyz
x,y,z
-x,-y,-z
loop_
_atom_site_type_symbol
_atom_site_label
_atom_site_fract_x
_atom_site_fract_y
_atom_site_fract_z
Si Si1 0.090445 0.888956 0.452715
Si Si2 0.723848 0.239630 0.173512
Si Si3 0.621055 0.959268 0.276371
Si Si4 0.952001 0.299809 0.974568
Si Si5 0.590695 0.842797 0.532076
Si Si6 0.796036 0.742225 0.069183
Si Si7 0.061066 0.609701 0.322920
Si Si8 0.014930 0.146296 0.174737
O O1 0.079354 0.723343 0.404465
O O2 0.805903 0.854904 0.353817
O O3 0.279922 0.909368 0.610676
O O4 0.196241 0.079068 0.444794
O O5 0.802280 0.185715 0.126735
O O6 0.961590 0.402532 0.310019
O O7 0.620242 0.071777 0.192896
O O8 0.502067 0.308427 0.056011
O O9 0.339690 0.816076 0.172115
O O10 0.132728 0.291013 0.985745
O O11 0.042063 0.227477 0.095929
O O12 0.000000 0.500000 0.000000
O O13 0.340671 0.673237 0.404590
O O14 0.712289 0.778791 0.663733
O O15 0.500000 0.000000 0.500000
O O16 0.866630 0.624091 0.169913
O O17 0.946846 0.941067 0.151622
#
# Coordination Sequence:
#
# PCOD8007872 Si02
#       8
#     2   2   2   2   2   2   2   2
#     4  10  22  42  68  95 132 187 219 276 337 407
#     4  12  26  42  70 105 137 176 234 278 339 405
#     4  11  24  43  68  94 138 177 227 274 344 403
#     4  12  29  46  69 103 139 178 229 290 341 402
#     4  10  20  41  70  94 131 174 228 271 336 401
#     4  12  24  45  71  99 136 184 226 279 344 408
#     4  11  24  41  70 100 138 178 228 281 336 398
#     4  12  24  45  72 101 133 187 224 280 344 411
#
# _framework density 21.859929000000001
#
# number of rings (size 3 to 8) (size 9 to 14) (size 15 to 20)
#    0.000    0.750    5.000    2.625    5.250    1.000 
#    4.500    0.000    0.000    0.000    0.000    0.000 
#    0.000    0.000    0.000    0.000    0.000    0.000 
#
# Total GULP energy -198426.806593 kJ/mol
# GULP energy per Si atom -12401.675412 kJ/mol
# Density = 2.181017 g / cm^3
# Si number density = 21.859929 Si / 1000 Ang^3
#
#
#
# Elastic Constant Matrix: (Units=GPa)
#
#
# Indices 1 2 3 4 5 6 
#
# 1 109.7044 15.5912 31.1985 -6.6635 -10.3891 -20.9180
# 2 15.5912 73.0793 8.1486 15.8856 1.7912 -1.6402
# 3 31.1985 8.1486 106.8770 -11.8270 2.9285 -2.8672
# 4 -6.6635 15.8856 -11.8270 18.7140 -3.2383 -5.2957
# 5 -10.3891 1.7912 2.9285 -3.2383 40.3572 1.9998
# 6 -20.9180 -1.6402 -2.8672 -5.2957 1.9998 20.5298
#
#
#
# Elastic Compliance Matrix: (Units=1/GPa)
#
#
# Indices 1 2 3 4 5 6 
#
# 1 0.015486 -0.006175 -0.001955 0.015596 0.004734 0.018575
# 2 -0.006175 0.020650 -0.002768 -0.025297 -0.003781 -0.011186
# 3 -0.001955 -0.002768 0.011213 0.009144 -0.000548 0.001765
# 4 0.015596 -0.025297 0.009144 0.099299 0.010473 0.039741
# 5 0.004734 -0.003781 -0.000548 0.010473 0.026821 0.004533
# 6 0.018575 -0.011186 0.001765 0.039741 0.004533 0.076798
#
#
# Mechanical properties :
#
#
# Convention : Reuss Voigt Hill
#
# Bulk Modulus (GPa) = 39.13464 44.39303 41.76384
# Shear Modulus (GPa) = 17.82014 31.56836 24.69425
#
# Velocity S-wave (km/s) = 2.85826 3.80428 3.36468
# Velocity P-wave (km/s) = 5.36975 6.29673 5.85162
#
# Compressibility (1/GPa) = 0.02555281
#
# Stress axis : x y z
#
# Youngs Moduli (GPa) = 64.57278 48.42535 89.18551
#
# Poissons Ratio (x) = 0.29903 0.17439
# Poissons Ratio (y) = 0.39875 0.24684
# Poissons Ratio (z) = 0.12627 0.13403
#
# Static dielectric constant tensor:
#      x y z
#    x 4.193210 0.160530 0.183060 
#    y 0.160530 3.911060 0.159810 
#    z 0.183060 0.159810 4.052880 
# 
# 
# High freq. dielectric constant tensor:
#      x y z
#    x 1.865350 0.003420 0.007980 
#    y 0.003420 1.850430 0.005040 
#    z 0.007980 0.005040 1.871300 
# 
# From -- ./inp_files/494992.got.cif
#   From: 2010.06.25/outbox.cif.g09.slc.cpg/sg2_248_cif.got.tgz:494992.got - 2010.06.27 13:26:56.
