data_PCOD8007999
_publ_section_title
;
Structure prediction by ZEFSAII (Michael W. Deem and Ramdas Pophale) SiO2 
 PCOD8007999
Probable space group: P -1
;
_chemical_formula_sum "Si O2"
_cell_formula_units_Z 16
_cell_length_a 14.835702
_cell_length_b 12.930727
_cell_length_c 9.138462
_cell_angle_alpha 82.944146
_cell_angle_beta 92.506748
_cell_angle_gamma 27.485488
_cell_volume 757.022837
_symmetry_space_group_name_H-M "P -1"
_symmetry_group_IT_number 2
_symmetry_cell_setting 'triclinic'
loop_
_space_group_symop_operation_xyz
x,y,z
-x,-y,-z
loop_
_atom_site_type_symbol
_atom_site_label
_atom_site_fract_x
_atom_site_fract_y
_atom_site_fract_z
Si Si1 0.098666 0.803559 0.631368
Si Si2 0.384424 0.513824 0.453280
Si Si3 0.971480 0.986125 0.160441
Si Si4 0.513846 0.110458 0.988686
Si Si5 0.226643 0.023291 0.483090
Si Si6 0.753670 0.844131 0.791319
Si Si7 0.144697 0.486329 0.080156
Si Si8 0.863345 0.874247 0.210442
O O1 0.297908 0.558276 0.594975
O O2 0.000000 0.000000 0.500000
O O3 0.151002 0.796731 0.795386
O O4 0.931000 0.887457 0.629687
O O5 0.500000 0.500000 0.500000
O O6 0.196589 0.726359 0.290004
O O7 0.546464 0.264264 0.437470
O O8 0.823300 0.037840 0.143426
O O9 0.000000 0.000000 0.000000
O O10 0.307614 0.373188 0.000701
O O11 0.700060 0.960693 0.125630
O O12 0.500000 0.000000 0.000000
O O13 0.557283 0.096686 0.824487
O O14 0.242216 0.113989 0.377754
O O15 0.127353 0.151586 0.610651
O O16 0.744179 0.729119 0.800731
O O17 0.954247 0.660381 0.932667
O O18 0.083100 0.622078 0.190135
#
# Coordination Sequence:
#
# PCOD8007999 Si02
#       8
#     2   2   2   2   2   2   2   2
#     4  10  20  42  63  88 133 169 207 264 316 380
#     4  11  21  41  67  85 129 178 208 258 324 372
#     4  11  24  43  64  96 132 168 215 264 311 381
#     4   9  20  41  64  88 122 163 211 269 319 374
#     4  12  23  39  63  98 127 167 219 256 322 386
#     4   9  21  40  65  91 122 162 212 265 317 387
#     4   9  20  42  63  88 125 165 206 266 327 366
#     4  11  23  39  65  93 131 165 210 271 315 381
#
# _framework density 21.135425999999999
#
# number of rings (size 3 to 8) (size 9 to 14) (size 15 to 20)
#    0.000    1.750    5.000    0.750    5.250    1.500 
#    0.000    5.000    0.000    0.000    0.000    0.000 
#    0.000    0.000    0.000    0.000    0.000    0.000 
#
# Total GULP energy -198237.244501 kJ/mol
# GULP energy per Si atom -12389.827781 kJ/mol
# Density = 2.108732 g / cm^3
# Si number density = 21.135426 Si / 1000 Ang^3
#
#
#
# Elastic Constant Matrix: (Units=GPa)
#
#
# Indices 1 2 3 4 5 6 
#
# 1 103.8580 20.0965 36.0526 8.8170 4.3574 -7.3540
# 2 20.0965 122.4173 43.1084 39.1677 -1.6614 -16.7659
# 3 36.0526 43.1084 110.3202 36.3471 -18.0082 4.3973
# 4 8.8170 39.1677 36.3471 43.2831 -4.4399 -4.6152
# 5 4.3574 -1.6614 -18.0082 -4.4399 32.7671 10.2689
# 6 -7.3540 -16.7659 4.3973 -4.6152 10.2689 29.2678
#
#
#
# Elastic Compliance Matrix: (Units=1/GPa)
#
#
# Indices 1 2 3 4 5 6 
#
# 1 0.012405 0.000263 -0.006496 0.002728 -0.007080 0.007158
# 2 0.000263 0.013293 -0.003641 -0.008635 -0.005263 0.008712
# 3 -0.006496 -0.003641 0.019178 -0.011482 0.013818 -0.013258
# 4 0.002728 -0.008635 -0.011482 0.040201 -0.003208 0.004929
# 5 -0.007080 -0.005263 0.013818 -0.003208 0.045688 -0.023406
# 6 0.007158 0.008712 -0.013258 0.004929 -0.023406 0.051938
#
#
# Mechanical properties :
#
#
# Convention : Reuss Voigt Hill
#
# Bulk Modulus (GPa) = 39.80038 59.45674 49.62856
# Shear Modulus (GPa) = 23.71614 36.88611 30.30112
#
# Velocity S-wave (km/s) = 3.35342 4.18212 3.79048
# Velocity P-wave (km/s) = 5.81944 7.17723 6.53370
#
# Compressibility (1/GPa) = 0.02512539
#
# Stress axis : x y z
#
# Youngs Moduli (GPa) = 80.61183 75.22989 52.14435
#
# Poissons Ratio (x) = -0.01976 0.33875
# Poissons Ratio (y) = -0.02118 0.18987
# Poissons Ratio (z) = 0.52368 0.27393
#
# Static dielectric constant tensor:
#      x y z
#    x 4.167520 -0.069580 0.078680 
#    y -0.069580 4.639660 0.842930 
#    z 0.078680 0.842930 3.962580 
# 
# 
# High freq. dielectric constant tensor:
#      x y z
#    x 1.835470 -0.009670 -0.005690 
#    y -0.009670 1.830690 0.036690 
#    z -0.005690 0.036690 1.803950 
# 
# From -- ./inp_files/307345.got.cif
#   From: 2010.06.25/outbox.cif.g09.slc.cpg/sg2_154_cif.got.tgz:307345.got - 2010.06.27 13:26:56.
