data_PCOD8007719
_publ_section_title
;
Structure prediction by ZEFSAII (Michael W. Deem and Ramdas Pophale) SiO2 
 PCOD8007719
Probable space group: P -1
;
_chemical_formula_sum "Si O2"
_cell_formula_units_Z 12
_cell_length_a 9.130838
_cell_length_b 13.445298
_cell_length_c 12.481585
_cell_angle_alpha 143.417438
_cell_angle_beta 36.861612
_cell_angle_gamma 125.000950
_cell_volume 537.572629
_symmetry_space_group_name_H-M "P -1"
_symmetry_group_IT_number 2
_symmetry_cell_setting 'triclinic'
loop_
_space_group_symop_operation_xyz
x,y,z
-x,-y,-z
loop_
_atom_site_type_symbol
_atom_site_label
_atom_site_fract_x
_atom_site_fract_y
_atom_site_fract_z
Si Si1 0.969269 0.743811 0.038187
Si Si2 0.671415 0.949450 0.218725
Si Si3 0.495050 0.826468 0.792939
Si Si4 0.200312 0.096156 0.515300
Si Si5 0.139583 0.447554 0.540407
Si Si6 0.899424 0.265390 0.353798
O O1 0.727978 0.860129 0.223688
O O2 0.935810 0.756792 0.196763
O O3 0.212703 0.815996 0.919578
O O4 0.996896 0.550150 0.813804
O O5 0.390592 0.953984 0.347876
O O6 0.699395 0.146086 0.379940
O O7 0.846160 0.842899 0.935308
O O8 0.657293 0.815764 0.581170
O O9 0.606289 0.669156 0.668461
O O10 0.500000 0.000000 0.000000
O O11 0.000000 0.000000 0.500000
O O12 0.212439 0.577373 0.522159
O O13 0.957345 0.334672 0.496801
#
# Coordination Sequence:
#
# PCOD8007719 Si02
#       6
#     2   2   2   2   2   2
#     4  11  24  42  66  99 128 172 212 266 321 376
#     4  10  20  41  67  93 129 167 222 260 309 389
#     4  12  23  42  67  93 128 170 214 266 319 380
#     4  12  25  40  65  99 127 170 219 264 316 379
#     4  10  21  38  63 100 132 162 215 266 325 380
#     4   9  19  38  70  97 123 174 213 261 323 379
#
# _framework density 22.322565999999998
#
# number of rings (size 3 to 8) (size 9 to 14) (size 15 to 20)
#    0.000    1.333    1.667    6.000    0.000    0.667 
#    0.000    0.833    0.000    0.000    0.000    0.000 
#    0.000    0.000    0.000    0.000    0.000    0.000 
#
# Total GULP energy -148835.154030 kJ/mol
# GULP energy per Si atom -12402.929502 kJ/mol
# Density = 2.227176 g / cm^3
# Si number density = 22.322566 Si / 1000 Ang^3
#
#
#
# Elastic Constant Matrix: (Units=GPa)
#
#
# Indices 1 2 3 4 5 6 
#
# 1 151.0615 39.5735 69.2670 5.4915 5.5354 5.3577
# 2 39.5735 68.6562 46.4611 -0.1234 4.1893 0.6244
# 3 69.2670 46.4611 98.7238 8.6220 21.4065 -3.7028
# 4 5.4915 -0.1234 8.6220 46.1417 -8.2644 -0.1284
# 5 5.5354 4.1893 21.4065 -8.2644 62.0525 1.9373
# 6 5.3577 0.6244 -3.7028 -0.1284 1.9373 30.3616
#
#
#
# Elastic Compliance Matrix: (Units=1/GPa)
#
#
# Indices 1 2 3 4 5 6 
#
# 1 0.010218 -0.001121 -0.007170 0.000432 0.001781 -0.002766
# 2 -0.001121 0.022191 -0.010521 0.002626 0.002634 -0.001699
# 3 -0.007170 -0.010521 0.022217 -0.004580 -0.007069 0.004623
# 4 0.000432 0.002626 -0.004580 0.023286 0.004493 -0.000877
# 5 0.001781 0.002634 -0.007069 0.004493 0.018891 -0.002417
# 6 -0.002766 -0.001699 0.004623 -0.000877 -0.002417 0.034174
#
#
# Mechanical properties :
#
#
# Convention : Reuss Voigt Hill
#
# Bulk Modulus (GPa) = 58.81332 69.89385 64.35359
# Shear Modulus (GPa) = 28.69160 38.58715 33.63937
#
# Velocity S-wave (km/s) = 3.58902 4.16217 3.88618
# Velocity P-wave (km/s) = 6.60144 7.38086 7.00200
#
# Compressibility (1/GPa) = 0.01700295
#
# Stress axis : x y z
#
# Youngs Moduli (GPa) = 97.86630 45.06408 45.01025
#
# Poissons Ratio (x) = 0.05050 0.32270
# Poissons Ratio (y) = 0.10967 0.47356
# Poissons Ratio (z) = 0.70166 0.47413
#
# Static dielectric constant tensor:
#      x y z
#    x 4.359090 -0.032370 0.171060 
#    y -0.032370 3.727750 0.141270 
#    z 0.171060 0.141270 4.146780 
# 
# 
# High freq. dielectric constant tensor:
#      x y z
#    x 1.904600 -0.005030 0.011510 
#    y -0.005030 1.846640 0.008960 
#    z 0.011510 0.008960 1.883080 
# 
# From -- ./inp_files/150316.got.cif
#   From: 2010.06.25/outbox.cif.g09.slc.cpg/sg2_76_cif.got.tgz:150316.got - 2010.06.27 13:26:56.
