data_PCOD8007205
_publ_section_title
;
Structure prediction by ZEFSAII (Michael W. Deem and Ramdas Pophale) SiO2 
 PCOD8007205
Probable space group: P -1
;
_chemical_formula_sum "Si O2"
_cell_formula_units_Z 16
_cell_length_a 9.950451
_cell_length_b 9.885545
_cell_length_c 16.138307
_cell_angle_alpha 108.106608
_cell_angle_beta 33.365066
_cell_angle_gamma 113.040178
_cell_volume 803.006137
_symmetry_space_group_name_H-M "P -1"
_symmetry_group_IT_number 2
_symmetry_cell_setting 'triclinic'
loop_
_space_group_symop_operation_xyz
x,y,z
-x,-y,-z
loop_
_atom_site_type_symbol
_atom_site_label
_atom_site_fract_x
_atom_site_fract_y
_atom_site_fract_z
Si Si1 0.641651 0.333303 0.651866
Si Si2 0.359575 0.302586 0.953544
Si Si3 0.172496 0.016425 0.094251
Si Si4 0.548138 0.826419 0.865625
Si Si5 0.184201 0.333605 0.425358
Si Si6 0.768136 0.407512 0.896049
Si Si7 0.380175 0.133717 0.604640
Si Si8 0.283478 0.354103 0.570629
O O1 0.415450 0.284884 0.824990
O O2 0.689671 0.505927 0.644253
O O3 0.566008 0.249602 0.589369
O O4 0.887658 0.290087 0.551434
O O5 0.628589 0.359845 0.871744
O O6 0.195644 0.149101 0.043507
O O7 0.192661 0.419322 0.075532
O O8 0.246369 0.073983 0.160040
O O9 0.887399 0.921030 0.222681
O O10 0.356094 0.918133 0.949635
O O11 0.692005 0.784246 0.704907
O O12 0.397574 0.679635 0.961142
O O13 0.229081 0.322079 0.496814
O O14 0.037765 0.372984 0.749180
O O15 0.358937 0.214191 0.544279
O O16 0.500000 0.000000 0.500000
O O17 0.500000 0.500000 0.500000
#
# Coordination Sequence:
#
# PCOD8007205 Si02
#       8
#     2   2   2   2   2   2   2   2
#     4  11  23  42  65 101 133 167 223 277 322 382
#     4  10  21  38  69  96 127 173 218 271 319 384
#     4  10  23  40  64  93 137 170 215 260 334 400
#     4  10  20  41  67  96 124 177 217 272 316 384
#     4  11  23  41  72  99 128 166 231 276 319 381
#     4  10  20  40  68  96 128 170 226 263 322 382
#     4  12  27  45  63  94 140 179 209 269 345 392
#     4  12  25  44  66 100 133 173 220 271 325 397
#
# _framework density 19.925127
#
# number of rings (size 3 to 8) (size 9 to 14) (size 15 to 20)
#    0.000    1.250    5.000    0.750    1.750    1.500 
#    2.250    3.750    0.000    0.000    0.000    0.000 
#    0.000    0.000    0.000    0.000    0.000    0.000 
#
# Total GULP energy -198501.519378 kJ/mol
# GULP energy per Si atom -12406.344961 kJ/mol
# Density = 1.987978 g / cm^3
# Si number density = 19.925127 Si / 1000 Ang^3
#
#
#
# Elastic Constant Matrix: (Units=GPa)
#
#
# Indices 1 2 3 4 5 6 
#
# 1 105.6861 36.3381 49.2530 6.7064 1.6846 -7.8173
# 2 36.3381 99.1953 38.1742 12.9595 -7.3934 -17.7804
# 3 49.2530 38.1742 103.6180 16.5069 3.8115 -1.6018
# 4 6.7064 12.9595 16.5069 33.9900 -2.4943 -2.7905
# 5 1.6846 -7.3934 3.8115 -2.4943 26.9457 -2.3224
# 6 -7.8173 -17.7804 -1.6018 -2.7905 -2.3224 35.8007
#
#
#
# Elastic Compliance Matrix: (Units=1/GPa)
#
#
# Indices 1 2 3 4 5 6 
#
# 1 0.012863 -0.002630 -0.005279 0.001095 -0.000564 0.001315
# 2 -0.002630 0.014319 -0.003754 -0.002216 0.004981 0.006520
# 3 -0.005279 -0.003754 0.014426 -0.005033 -0.003464 -0.002989
# 4 0.001095 -0.002216 -0.005033 0.032868 0.003223 0.001684
# 5 -0.000564 0.004981 -0.003464 0.003223 0.039735 0.005024
# 6 0.001315 0.006520 -0.002989 0.001684 0.005024 0.031781
#
#
# Mechanical properties :
#
#
# Convention : Reuss Voigt Hill
#
# Bulk Modulus (GPa) = 54.69954 61.78113 58.24033
# Shear Modulus (GPa) = 28.50425 31.66288 30.08357
#
# Velocity S-wave (km/s) = 3.78639 3.99067 3.88987
# Velocity P-wave (km/s) = 6.82845 7.23242 7.03334
#
# Compressibility (1/GPa) = 0.01828169
#
# Stress axis : x y z
#
# Youngs Moduli (GPa) = 77.74191 69.83783 69.31905
#
# Poissons Ratio (x) = 0.18368 0.36591
# Poissons Ratio (y) = 0.20447 0.26025
# Poissons Ratio (z) = 0.41037 0.26220
#
# Static dielectric constant tensor:
#      x y z
#    x 3.693660 -0.008540 -0.059600 
#    y -0.008540 3.774900 0.035410 
#    z -0.059600 0.035410 3.536690 
# 
# 
# High freq. dielectric constant tensor:
#      x y z
#    x 1.770670 -0.008880 -0.002170 
#    y -0.008880 1.785940 0.002000 
#    z -0.002170 0.002000 1.781290 
# 
# From -- ./inp_files/242546.got.cif
#   From: 2010.06.25/outbox.cif.g09.slc.cpg/sg2_122_cif.got.tgz:242546.got - 2010.06.27 13:26:56.
