data_PCOD8007152
_publ_section_title
;
Structure prediction by ZEFSAII (Michael W. Deem and Ramdas Pophale) SiO2 
 PCOD8007152
Probable space group: P -1
;
_chemical_formula_sum "Si O2"
_cell_formula_units_Z 16
_cell_length_a 9.151577
_cell_length_b 11.890499
_cell_length_c 13.288869
_cell_angle_alpha 109.080122
_cell_angle_beta 44.493550
_cell_angle_gamma 129.110735
_cell_volume 765.942263
_symmetry_space_group_name_H-M "P -1"
_symmetry_group_IT_number 2
_symmetry_cell_setting 'triclinic'
loop_
_space_group_symop_operation_xyz
x,y,z
-x,-y,-z
loop_
_atom_site_type_symbol
_atom_site_label
_atom_site_fract_x
_atom_site_fract_y
_atom_site_fract_z
Si Si1 0.598788 0.353751 0.327948
Si Si2 0.771388 0.203431 0.072238
Si Si3 0.714349 0.918128 0.071105
Si Si4 0.235098 0.740038 0.394450
Si Si5 0.574414 0.767893 0.887580
Si Si6 0.334300 0.461712 0.819141
Si Si7 0.266934 0.570192 0.490087
Si Si8 0.069523 0.133866 0.435301
O O1 0.677917 0.246718 0.228335
O O2 0.768362 0.503363 0.220642
O O3 0.605726 0.377814 0.448741
O O4 0.304508 0.284645 0.418179
O O5 0.643598 0.211594 0.035301
O O6 0.671380 0.036312 0.087106
O O7 0.084783 0.311436 0.945002
O O8 0.509589 0.814887 0.227561
O O9 0.658640 0.811068 0.973976
O O10 0.000000 0.000000 0.000000
O O11 0.246297 0.696231 0.491097
O O12 0.014751 0.585938 0.402148
O O13 0.169627 0.857821 0.459393
O O14 0.458504 0.595705 0.878187
O O15 0.833786 0.877808 0.724705
O O16 0.552293 0.439905 0.678844
O O17 0.000000 0.000000 0.500000
#
# Coordination Sequence:
#
# PCOD8007152 Si02
#       8
#     2   2   2   2   2   2   2   2
#     4  10  21  38  64  99 124 159 215 260 320 376
#     4  10  22  41  65  98 124 162 209 264 323 383
#     4  12  27  44  60  91 128 174 215 261 320 387
#     4  11  24  42  62  89 132 165 218 255 323 374
#     4  10  22  42  64  93 127 164 213 263 317 374
#     4  10  20  40  67  99 127 157 216 264 317 382
#     4  11  23  40  64  96 127 170 209 267 315 382
#     4  10  21  41  66  95 128 168 211 264 320 384
#
# _framework density 20.889302000000001
#
# number of rings (size 3 to 8) (size 9 to 14) (size 15 to 20)
#    0.000    1.750    2.500    4.500    3.500    3.000 
#    0.000    3.125    0.000    0.000    0.000    0.000 
#    0.000    0.000    0.000    0.000    0.000    0.000 
#
# Total GULP energy -198388.761257 kJ/mol
# GULP energy per Si atom -12399.297579 kJ/mol
# Density = 2.084176 g / cm^3
# Si number density = 20.889302 Si / 1000 Ang^3
#
#
#
# Elastic Constant Matrix: (Units=GPa)
#
#
# Indices 1 2 3 4 5 6 
#
# 1 90.6016 32.6068 34.1497 9.0250 -5.7029 3.3795
# 2 32.6068 78.5849 41.1600 -3.4307 3.0378 -6.9787
# 3 34.1497 41.1600 94.3642 -13.0391 -12.3677 12.8517
# 4 9.0250 -3.4307 -13.0391 31.5423 2.9759 -0.3940
# 5 -5.7029 3.0378 -12.3677 2.9759 32.2932 -0.6142
# 6 3.3795 -6.9787 12.8517 -0.3940 -0.6142 36.2125
#
#
#
# Elastic Compliance Matrix: (Units=1/GPa)
#
#
# Indices 1 2 3 4 5 6 
#
# 1 0.015015 -0.004638 -0.003914 -0.006636 0.002183 -0.000941
# 2 -0.004638 0.020195 -0.008850 0.000525 -0.006016 0.007369
# 3 -0.003914 -0.008850 0.018790 0.007212 0.006524 -0.007820
# 4 -0.006636 0.000525 0.007212 0.036799 -0.001879 -0.001470
# 5 0.002183 -0.006016 0.006524 -0.001879 0.034530 -0.003113
# 6 -0.000941 0.007369 -0.007820 -0.001470 -0.003113 0.031829
#
#
# Mechanical properties :
#
#
# Convention : Reuss Voigt Hill
#
# Bulk Modulus (GPa) = 52.09026 53.26483 52.67755
# Shear Modulus (GPa) = 25.20669 30.38522 27.79596
#
# Velocity S-wave (km/s) = 3.47750 3.81804 3.65174
# Velocity P-wave (km/s) = 6.41206 6.70750 6.56144
#
# Compressibility (1/GPa) = 0.01919745
#
# Stress axis : x y z
#
# Youngs Moduli (GPa) = 66.59929 49.51837 53.21953
#
# Poissons Ratio (x) = 0.22967 0.20827
# Poissons Ratio (y) = 0.30889 0.47097
# Poissons Ratio (z) = 0.26064 0.43822
#
# Static dielectric constant tensor:
#      x y z
#    x 3.678770 -0.113940 -0.102400 
#    y -0.113940 3.795590 -0.201990 
#    z -0.102400 -0.201990 3.816470 
# 
# 
# High freq. dielectric constant tensor:
#      x y z
#    x 1.812940 -0.011710 -0.010560 
#    y -0.011710 1.813870 -0.010430 
#    z -0.010560 -0.010430 1.817990 
# 
# From -- ./inp_files/392721.got.cif
#   From: 2010.06.25/outbox.cif.g09.slc.cpg/sg2_197_cif.got.tgz:392721.got - 2010.06.27 13:26:56.
