data_PCOD8007867
_publ_section_title
;
Structure prediction by ZEFSAII (Michael W. Deem and Ramdas Pophale) SiO2 
 PCOD8007867
Probable space group: P -1
;
_chemical_formula_sum "Si O2"
_cell_formula_units_Z 16
_cell_length_a 9.114986
_cell_length_b 13.775981
_cell_length_c 11.555026
_cell_angle_alpha 56.629904
_cell_angle_beta 138.600532
_cell_angle_gamma 106.352428
_cell_volume 778.435782
_symmetry_space_group_name_H-M "P -1"
_symmetry_group_IT_number 2
_symmetry_cell_setting 'triclinic'
loop_
_space_group_symop_operation_xyz
x,y,z
-x,-y,-z
loop_
_atom_site_type_symbol
_atom_site_label
_atom_site_fract_x
_atom_site_fract_y
_atom_site_fract_z
Si Si1 0.885646 0.902675 0.678670
Si Si2 0.461278 0.247486 0.479123
Si Si3 0.423961 0.875043 0.742059
Si Si4 0.312002 0.724980 0.973607
Si Si5 0.514639 0.347889 0.219399
Si Si6 0.143677 0.569055 0.787369
Si Si7 0.223004 0.993060 0.204147
Si Si8 0.398719 0.395996 0.563492
O O1 0.766936 0.799007 0.636336
O O2 0.812133 0.939620 0.740147
O O3 0.150584 0.836514 0.872062
O O4 0.817406 0.024478 0.480564
O O5 0.472673 0.357832 0.326886
O O6 0.476424 0.284549 0.596489
O O7 0.675908 0.146778 0.630883
O O8 0.446647 0.790116 0.922030
O O9 0.474792 0.789204 0.717210
O O10 0.614675 0.949445 0.817511
O O11 0.176694 0.643558 0.873489
O O12 0.489571 0.642030 0.220247
O O13 0.752711 0.377847 0.299019
O O14 0.292109 0.433659 0.973680
O O15 0.878168 0.568202 0.612780
O O16 0.000000 0.000000 0.000000
O O17 0.500000 0.500000 0.500000
#
# Coordination Sequence:
#
# PCOD8007867 Si02
#       8
#     2   2   2   2   2   2   2   2
#     4  11  20  41  67  95 130 174 216 259 326 391
#     4  11  21  40  65  91 128 169 219 262 323 385
#     4  10  21  41  64  94 126 172 214 264 327 391
#     4  11  24  43  65  95 132 173 214 269 334 383
#     4  10  20  41  70  89 125 175 219 270 326 389
#     4  10  24  43  65  95 128 171 221 271 334 380
#     4  11  22  37  60 101 132 168 215 265 320 388
#     4  12  27  43  65  99 131 173 225 270 328 393
#
# _framework density 20.554041000000002
#
# number of rings (size 3 to 8) (size 9 to 14) (size 15 to 20)
#    0.000    1.250    3.750    2.625    1.750    3.000 
#    0.000   11.875    0.000    0.000    0.000    0.000 
#    0.000    0.000    0.000    0.000    0.000    0.000 
#
# Total GULP energy -198291.774496 kJ/mol
# GULP energy per Si atom -12393.235906 kJ/mol
# Density = 2.050726 g / cm^3
# Si number density = 20.554041 Si / 1000 Ang^3
#
#
#
# Elastic Constant Matrix: (Units=GPa)
#
#
# Indices 1 2 3 4 5 6 
#
# 1 79.8628 25.0482 50.7971 -3.6520 -1.6786 1.3503
# 2 25.0482 78.5726 38.9599 -5.0957 2.9592 5.8109
# 3 50.7971 38.9599 124.9516 1.6361 0.8697 19.9081
# 4 -3.6520 -5.0957 1.6361 30.6766 -1.4349 -0.3312
# 5 -1.6786 2.9592 0.8697 -1.4349 42.9554 -6.2175
# 6 1.3503 5.8109 19.9081 -0.3312 -6.2175 29.0159
#
#
#
# Elastic Compliance Matrix: (Units=1/GPa)
#
#
# Indices 1 2 3 4 5 6 
#
# 1 0.018077 -0.002356 -0.007484 0.002302 0.001848 0.005188
# 2 -0.002356 0.015630 -0.003847 0.002463 -0.001094 -0.000587
# 3 -0.007484 -0.003847 0.013664 -0.002428 -0.001635 -0.008634
# 4 0.002302 0.002463 -0.002428 0.033492 0.001339 0.001735
# 5 0.001848 -0.001094 -0.001635 0.001339 0.024447 0.006509
# 6 0.005188 -0.000587 -0.008634 0.001735 0.006509 0.041679
#
#
# Mechanical properties :
#
#
# Convention : Reuss Voigt Hill
#
# Bulk Modulus (GPa) = 50.00561 56.99970 53.50265
# Shear Modulus (GPa) = 27.62010 31.76838 29.69424
#
# Velocity S-wave (km/s) = 3.66974 3.93568 3.80503
# Velocity P-wave (km/s) = 6.50674 6.96022 6.73729
#
# Compressibility (1/GPa) = 0.01999776
#
# Stress axis : x y z
#
# Youngs Moduli (GPa) = 55.31923 63.98009 73.18615
#
# Poissons Ratio (x) = 0.15073 0.54771
# Poissons Ratio (y) = 0.13032 0.28153
# Poissons Ratio (z) = 0.41400 0.24611
#
# Static dielectric constant tensor:
#      x y z
#    x 3.754420 -0.056670 0.027520 
#    y -0.056670 3.712580 -0.198570 
#    z 0.027520 -0.198570 3.686180 
# 
# 
# High freq. dielectric constant tensor:
#      x y z
#    x 1.812320 -0.004970 -0.000210 
#    y -0.004970 1.804770 -0.019400 
#    z -0.000210 -0.019400 1.798950 
# 
# From -- ./inp_files/261091.got.cif
#   From: 2010.06.25/outbox.cif.g09.slc.cpg/sg2_131_cif.got.tgz:261091.got - 2010.06.27 13:26:56.
