data_PCOD8007325
_publ_section_title
;
Structure prediction by ZEFSAII (Michael W. Deem and Ramdas Pophale) SiO2 
 PCOD8007325
Probable space group: P -1
;
_chemical_formula_sum "Si O2"
_cell_formula_units_Z 10
_cell_length_a 7.395963
_cell_length_b 17.412232
_cell_length_c 5.273213
_cell_angle_alpha 84.269740
_cell_angle_beta 67.554386
_cell_angle_gamma 39.097418
_cell_volume 372.652232
_symmetry_space_group_name_H-M "P -1"
_symmetry_group_IT_number 2
_symmetry_cell_setting 'triclinic'
loop_
_space_group_symop_operation_xyz
x,y,z
-x,-y,-z
loop_
_atom_site_type_symbol
_atom_site_label
_atom_site_fract_x
_atom_site_fract_y
_atom_site_fract_z
Si Si1 0.864764 0.353577 0.857769
Si Si2 0.272113 0.362651 0.531487
Si Si3 0.714128 0.027388 0.668610
Si Si4 0.886839 0.251302 0.379954
Si Si5 0.389880 0.876877 0.808887
O O1 0.949753 0.296571 0.544422
O O2 0.098198 0.352340 0.798324
O O3 0.500000 0.500000 0.000000
O O4 0.910532 0.274237 0.071779
O O5 0.515472 0.335890 0.585288
O O6 0.488519 0.249740 0.237713
O O7 0.000000 0.500000 0.500000
O O8 0.851805 0.899081 0.672082
O O9 0.499359 0.105785 0.501105
O O10 0.000000 0.000000 0.500000
O O11 0.478200 0.123198 0.005137
O O12 0.000000 0.000000 0.000000
#
# Coordination Sequence:
#
# PCOD8007325 Si02
#       5
#     2   2   2   2   2
#     4  12  29  48  70 116 151 189 256 298 366 456
#     4  12  27  48  82 107 148 205 239 304 384 426
#     4  10  20  40  76  98 142 193 235 297 368 423
#     4  12  26  50  76 106 153 193 243 317 359 431
#     4  10  21  42  71 107 137 189 248 288 359 446
#
# _framework density 26.834672000000001
#
# number of rings (size 3 to 8) (size 9 to 14) (size 15 to 20)
#    0.000    0.800    6.000    1.800    2.800    4.000 
#    0.000    6.000    0.000    0.000    0.000    0.000 
#    0.000    0.000    0.000    0.000    0.000    0.000 
#
# Total GULP energy -124011.293482 kJ/mol
# GULP energy per Si atom -12401.129348 kJ/mol
# Density = 2.677360 g / cm^3
# Si number density = 26.834672 Si / 1000 Ang^3
#
#
#
# Elastic Constant Matrix: (Units=GPa)
#
#
# Indices 1 2 3 4 5 6 
#
# 1 114.1633 18.8805 13.7142 -25.3829 -4.4067 -2.8397
# 2 18.8805 201.9848 50.7213 -4.2589 24.1936 10.5493
# 3 13.7142 50.7213 169.3061 -26.0018 38.3227 10.3203
# 4 -25.3829 -4.2589 -26.0018 50.9868 2.4837 -4.8846
# 5 -4.4067 24.1936 38.3227 2.4837 47.7526 -6.8946
# 6 -2.8397 10.5493 10.3203 -4.8846 -6.8946 39.0023
#
#
#
# Elastic Compliance Matrix: (Units=1/GPa)
#
#
# Indices 1 2 3 4 5 6 
#
# 1 0.010193 -0.001099 -0.000250 0.004965 0.001734 0.002034
# 2 -0.001099 0.005686 -0.001076 -0.000682 -0.002348 -0.001834
# 3 -0.000250 -0.001076 0.008671 0.004290 -0.007054 -0.002731
# 4 0.004965 -0.000682 0.004290 0.024570 -0.003650 0.001843
# 5 0.001734 -0.002348 -0.007054 -0.003650 0.029201 0.007333
# 6 0.002034 -0.001834 -0.002731 0.001843 0.007333 0.028533
#
#
# Mechanical properties :
#
#
# Convention : Reuss Voigt Hill
#
# Bulk Modulus (GPa) = 50.76245 72.45402 61.60824
# Shear Modulus (GPa) = 42.27569 54.35756 48.31663
#
# Velocity S-wave (km/s) = 3.97345 4.50560 4.24787
# Velocity P-wave (km/s) = 6.32526 7.35704 6.86057
#
# Compressibility (1/GPa) = 0.01969960
#
# Stress axis : x y z
#
# Youngs Moduli (GPa) = 98.10958 175.85588 115.32590
#
# Poissons Ratio (x) = 0.19329 0.02885
# Poissons Ratio (y) = 0.10783 0.12409
# Poissons Ratio (z) = 0.02455 0.18922
#
# Static dielectric constant tensor:
#      x y z
#    x 4.754070 0.236300 -0.633180 
#    y 0.236300 4.827310 0.277700 
#    z -0.633180 0.277700 5.884150 
# 
# 
# High freq. dielectric constant tensor:
#      x y z
#    x 2.094230 -0.016890 -0.015090 
#    y -0.016890 2.099180 0.008100 
#    z -0.015090 0.008100 2.087640 
# 
# From -- ./inp_files/29075.got.cif
#   From: 2010.06.25/outbox.cif.g09.slc.cpg/sg2_15_cif.got.tgz:29075.got - 2010.06.27 13:26:56.
