data_PCOD8007390
_publ_section_title
;
Structure prediction by ZEFSAII (Michael W. Deem and Ramdas Pophale) SiO2 
 PCOD8007390
Probable space group: P -1
;
_chemical_formula_sum "Si O2"
_cell_formula_units_Z 14
_cell_length_a 18.074076
_cell_length_b 8.099670
_cell_length_c 8.229362
_cell_angle_alpha 66.553784
_cell_angle_beta 108.372831
_cell_angle_gamma 57.920549
_cell_volume 688.974437
_symmetry_space_group_name_H-M "P -1"
_symmetry_group_IT_number 2
_symmetry_cell_setting 'triclinic'
loop_
_space_group_symop_operation_xyz
x,y,z
-x,-y,-z
loop_
_atom_site_type_symbol
_atom_site_label
_atom_site_fract_x
_atom_site_fract_y
_atom_site_fract_z
Si Si1 0.747931 0.815035 0.902847
Si Si2 0.868168 0.573192 0.757155
Si Si3 0.660339 0.521552 0.411534
Si Si4 0.517229 0.779245 0.517349
Si Si5 0.534201 0.402187 0.881935
Si Si6 0.728402 0.766466 0.254343
Si Si7 0.128952 0.085150 0.195320
O O1 0.794943 0.645031 0.171811
O O2 0.790926 0.637147 0.836014
O O3 0.799660 0.927832 0.889356
O O4 0.604583 0.068598 0.715855
O O5 0.813905 0.614898 0.529740
O O6 0.880586 0.769958 0.706566
O O7 0.998131 0.257235 0.978066
O O8 0.626497 0.618863 0.534994
O O9 0.577984 0.503769 0.304947
O O10 0.645231 0.733578 0.217874
O O11 0.797702 0.223856 0.600063
O O12 0.555777 0.556932 0.754341
O O13 0.500000 0.000000 0.500000
O O14 0.500000 0.500000 0.000000
O O15 0.652679 0.079621 0.082096
#
# Coordination Sequence:
#
# PCOD8007390 Si02
#       7
#     2   2   2   2   2   2   2
#     4  10  20  41  62  88 124 161 206 259 305 369
#     4   9  21  44  64  89 120 171 216 256 318 360
#     4  12  23  39  61  97 125 168 206 252 320 376
#     4  12  24  40  64  91 131 166 205 258 319 381
#     4  12  23  39  61  91 130 163 205 258 315 375
#     4  12  24  37  64  95 128 162 213 258 310 375
#     4   9  20  43  68  81 128 168 210 265 307 371
#
# _framework density 20.320056999999998
#
# number of rings (size 3 to 8) (size 9 to 14) (size 15 to 20)
#    0.857    0.286    2.857    5.143    2.000    1.143 
#    0.000    0.714    0.000    0.000    0.000    0.000 
#    0.000    0.000    0.000    0.000    0.000    0.000 
#
# Total GULP energy -173494.971972 kJ/mol
# GULP energy per Si atom -12392.497998 kJ/mol
# Density = 2.027381 g / cm^3
# Si number density = 20.320057 Si / 1000 Ang^3
#
#
#
# Elastic Constant Matrix: (Units=GPa)
#
#
# Indices 1 2 3 4 5 6 
#
# 1 65.2188 17.5440 34.7661 -4.7619 -19.9915 0.0666
# 2 17.5440 84.2680 43.6147 6.1521 -7.1020 -2.4879
# 3 34.7661 43.6147 80.9678 4.7523 -0.7297 -6.0682
# 4 -4.7619 6.1521 4.7523 42.3509 -8.4375 -7.4392
# 5 -19.9915 -7.1020 -0.7297 -8.4375 44.0234 -6.1100
# 6 0.0666 -2.4879 -6.0682 -7.4392 -6.1100 30.1372
#
#
#
# Elastic Compliance Matrix: (Units=1/GPa)
#
#
# Indices 1 2 3 4 5 6 
#
# 1 0.026080 0.001555 -0.012173 0.007148 0.013558 0.002133
# 2 0.001555 0.016867 -0.009696 -0.000572 0.003147 -0.000066
# 3 -0.012173 -0.009696 0.023066 -0.003725 -0.007217 0.001488
# 4 0.007148 -0.000572 -0.003725 0.028263 0.009635 0.008117
# 5 0.013558 0.003147 -0.007217 0.009635 0.032172 0.007678
# 6 0.002133 -0.000066 0.001488 0.008117 0.007678 0.037031
#
#
# Mechanical properties :
#
#
# Convention : Reuss Voigt Hill
#
# Bulk Modulus (GPa) = 39.39683 46.92269 43.15976
# Shear Modulus (GPa) = 23.52189 32.27094 27.89641
#
# Velocity S-wave (km/s) = 3.40600 3.98946 3.70922
# Velocity P-wave (km/s) = 5.90745 6.66056 6.29528
#
# Compressibility (1/GPa) = 0.02538275
#
# Stress axis : x y z
#
# Youngs Moduli (GPa) = 38.34421 59.28833 43.35471
#
# Poissons Ratio (x) = -0.09217 0.52776
# Poissons Ratio (y) = -0.05961 0.42037
# Poissons Ratio (z) = 0.46676 0.57487
#
# Static dielectric constant tensor:
#      x y z
#    x 3.664450 -0.134450 -0.070340 
#    y -0.134450 3.574850 0.028350 
#    z -0.070340 0.028350 3.590220 
# 
# 
# High freq. dielectric constant tensor:
#      x y z
#    x 1.786220 -0.003510 -0.002230 
#    y -0.003510 1.796000 0.001740 
#    z -0.002230 0.001740 1.781430 
# 
# From -- ./inp_files/187321.got.cif
#   From: 2010.06.25/outbox.cif.g09.slc.cpg/sg2_94_cif.got.tgz:187321.got - 2010.06.27 13:26:56.
