data_PCOD8007115
_publ_section_title
;
Structure prediction by ZEFSAII (Michael W. Deem and Ramdas Pophale) SiO2 
 PCOD8007115
Probable space group: P -1
;
_chemical_formula_sum "Si O2"
_cell_formula_units_Z 16
_cell_length_a 8.857275
_cell_length_b 9.130676
_cell_length_c 10.717754
_cell_angle_alpha 85.872556
_cell_angle_beta 115.622879
_cell_angle_gamma 77.536277
_cell_volume 749.546335
_symmetry_space_group_name_H-M "P -1"
_symmetry_group_IT_number 2
_symmetry_cell_setting 'triclinic'
loop_
_space_group_symop_operation_xyz
x,y,z
-x,-y,-z
loop_
_atom_site_type_symbol
_atom_site_label
_atom_site_fract_x
_atom_site_fract_y
_atom_site_fract_z
Si Si1 0.274311 0.487018 0.329337
Si Si2 0.659611 0.418336 0.143060
Si Si3 0.193925 0.102878 0.081435
Si Si4 0.994102 0.390035 0.120818
Si Si5 0.879954 0.167103 0.798651
Si Si6 0.490326 0.784677 0.738134
Si Si7 0.150242 0.882607 0.488580
Si Si8 0.183191 0.537550 0.562070
O O1 0.243684 0.659104 0.255137
O O2 0.410802 0.364699 0.300075
O O3 0.313709 0.475615 0.493461
O O4 0.088755 0.449372 0.264155
O O5 0.805419 0.385819 0.092198
O O6 0.621589 0.265575 0.190658
O O7 0.706733 0.518400 0.268402
O O8 0.500000 0.500000 0.000000
O O9 0.387071 0.128128 0.151489
O O10 0.090509 0.214017 0.143830
O O11 0.203396 0.927736 0.126837
O O12 0.081662 0.154586 0.910493
O O13 0.000000 0.500000 0.000000
O O14 0.881093 0.088749 0.670594
O O15 0.344874 0.897799 0.591425
O O16 0.132093 0.719064 0.530580
O O17 0.000000 0.000000 0.500000
O O18 0.000000 0.500000 0.500000
#
# Coordination Sequence:
#
# PCOD8007115 Si02
#       8
#     2   2   2   2   2   2   2   2
#     4  10  20  40  67  93 125 165 218 261 316 376
#     4  11  23  35  59  97 127 157 207 266 318 371
#     4  10  22  40  65  93 123 167 217 255 318 380
#     4  11  20  37  67  88 124 172 207 254 317 382
#     4  10  22  38  67  90 127 166 212 259 318 374
#     4  10  24  42  66  94 126 167 215 266 315 384
#     4  10  24  42  62  87 130 171 206 256 327 383
#     4  10  21  39  64  93 124 166 211 262 315 376
#
# _framework density 21.346245
#
# number of rings (size 3 to 8) (size 9 to 14) (size 15 to 20)
#    0.000    1.750    2.500    1.500    3.500    5.000 
#    0.000    3.125    0.000    0.000    0.000    0.000 
#    0.000    0.000    0.000    0.000    0.000    0.000 
#
# Total GULP energy -198215.493119 kJ/mol
# GULP energy per Si atom -12388.468320 kJ/mol
# Density = 2.129766 g / cm^3
# Si number density = 21.346245 Si / 1000 Ang^3
#
#
#
# Elastic Constant Matrix: (Units=GPa)
#
#
# Indices 1 2 3 4 5 6 
#
# 1 117.8371 25.7410 38.1649 -0.8946 10.9674 10.1577
# 2 25.7410 61.1212 22.1568 -0.7842 5.3611 -1.2841
# 3 38.1649 22.1568 158.2670 4.5851 17.5748 10.2000
# 4 -0.8946 -0.7842 4.5851 22.9955 4.4021 8.0191
# 5 10.9674 5.3611 17.5748 4.4021 38.8230 5.3358
# 6 10.1577 -1.2841 10.2000 8.0191 5.3358 31.2156
#
#
#
# Elastic Compliance Matrix: (Units=1/GPa)
#
#
# Indices 1 2 3 4 5 6 
#
# 1 0.010239 -0.003629 -0.001653 0.001997 -0.001428 -0.003210
# 2 -0.003629 0.018697 -0.001794 0.000130 -0.001130 0.002696
# 3 -0.001653 -0.001794 0.007336 -0.000665 -0.002343 -0.001361
# 4 0.001997 0.000130 -0.000665 0.048763 -0.004127 -0.012249
# 5 -0.001428 -0.001130 -0.002343 -0.004127 0.028200 -0.002576
# 6 -0.003210 0.002696 -0.001361 -0.012249 -0.002576 0.037222
#
#
# Mechanical properties :
#
#
# Convention : Reuss Voigt Hill
#
# Bulk Modulus (GPa) = 45.21269 56.59451 50.90360
# Shear Modulus (GPa) = 29.07230 35.35101 32.21166
#
# Velocity S-wave (km/s) = 3.69445 4.07391 3.88881
# Velocity P-wave (km/s) = 6.27895 6.97848 6.63794
#
# Compressibility (1/GPa) = 0.02211768
#
# Stress axis : x y z
#
# Youngs Moduli (GPa) = 97.66178 53.48354 136.32177
#
# Poissons Ratio (x) = 0.19412 0.22540
# Poissons Ratio (y) = 0.35446 0.24462
# Poissons Ratio (z) = 0.16148 0.09597
#
# Static dielectric constant tensor:
#      x y z
#    x 3.835870 0.136130 0.353190 
#    y 0.136130 3.728950 0.231010 
#    z 0.353190 0.231010 4.316530 
# 
# 
# High freq. dielectric constant tensor:
#      x y z
#    x 1.828030 0.011930 0.011140 
#    y 0.011930 1.817240 0.011010 
#    z 0.011140 0.011010 1.861970 
# 
# From -- ./inp_files/379286.got.cif
#   From: 2010.06.25/outbox.cif.g09.slc.cpg/sg2_190_cif.got.tgz:379286.got - 2010.06.27 13:26:56.
