data_PCOD8007907
_publ_section_title
;
Structure prediction by ZEFSAII (Michael W. Deem and Ramdas Pophale) SiO2 
 PCOD8007907
Probable space group: P -1
;
_chemical_formula_sum "Si O2"
_cell_formula_units_Z 14
_cell_length_a 14.481667
_cell_length_b 11.879293
_cell_length_c 11.652179
_cell_angle_alpha 50.034864
_cell_angle_beta 39.322450
_cell_angle_gamma 30.939083
_cell_volume 651.684826
_symmetry_space_group_name_H-M "P -1"
_symmetry_group_IT_number 2
_symmetry_cell_setting 'triclinic'
loop_
_space_group_symop_operation_xyz
x,y,z
-x,-y,-z
loop_
_atom_site_type_symbol
_atom_site_label
_atom_site_fract_x
_atom_site_fract_y
_atom_site_fract_z
Si Si1 0.252370 0.296891 0.126860
Si Si2 0.729496 0.467112 0.871093
Si Si3 0.891656 0.012848 0.206599
Si Si4 0.827154 0.445876 0.362040
Si Si5 0.255290 0.747120 0.581905
Si Si6 0.496784 0.171029 0.753838
Si Si7 0.480169 0.376079 0.258918
O O1 0.187282 0.463330 0.175916
O O2 0.041301 0.376874 0.226764
O O3 0.422669 0.056956 0.178365
O O4 0.364486 0.300033 0.912899
O O5 0.581037 0.639853 0.797065
O O6 0.589690 0.455556 0.087565
O O7 0.945131 0.239565 0.749428
O O8 0.854706 0.159988 0.247224
O O9 0.653667 0.136939 0.310853
O O10 0.000000 0.000000 0.000000
O O11 0.892812 0.251234 0.352336
O O12 0.656614 0.677722 0.306345
O O13 0.728398 0.458752 0.567014
O O14 0.500000 0.500000 0.500000
O O15 0.283585 0.893034 0.414357
#
# Coordination Sequence:
#
# PCOD8007907 Si02
#       7
#     2   2   2   2   2   2   2
#     4  11  25  43  61  95 132 171 202 268 320 383
#     4  10  24  42  65  92 134 164 212 256 324 383
#     4  10  21  40  66  99 123 164 214 265 316 367
#     4  11  23  40  70  95 122 164 221 262 319 364
#     4  10  20  41  71  92 125 162 219 266 304 372
#     4  10  23  44  63  91 130 166 219 253 319 378
#     4  10  21  43  65  95 121 169 215 263 308 377
#
# _framework density 21.482776999999999
#
# number of rings (size 3 to 8) (size 9 to 14) (size 15 to 20)
#    0.000    1.714    2.857    1.286    8.000    2.286 
#   15.429    1.429    0.000    0.000    0.000    0.000 
#    0.000    0.000    0.000    0.000    0.000    0.000 
#
# Total GULP energy -173488.952836 kJ/mol
# GULP energy per Si atom -12392.068060 kJ/mol
# Density = 2.143388 g / cm^3
# Si number density = 21.482777 Si / 1000 Ang^3
#
#
#
# Elastic Constant Matrix: (Units=GPa)
#
#
# Indices 1 2 3 4 5 6 
#
# 1 163.1277 43.6810 56.9561 8.6966 -3.4971 11.1753
# 2 43.6810 66.6317 24.8138 11.4705 8.6723 9.2239
# 3 56.9561 24.8138 110.6605 12.2984 16.6255 11.1764
# 4 8.6966 11.4705 12.2984 29.4350 2.6585 10.4632
# 5 -3.4971 8.6723 16.6255 2.6585 30.2642 6.2752
# 6 11.1753 9.2239 11.1764 10.4632 6.2752 35.1030
#
#
#
# Elastic Compliance Matrix: (Units=1/GPa)
#
#
# Indices 1 2 3 4 5 6 
#
# 1 0.009131 -0.005032 -0.004311 0.001123 0.005068 -0.001453
# 2 -0.005032 0.020242 -0.000429 -0.005372 -0.005466 -0.001002
# 3 -0.004311 -0.000429 0.012798 -0.003129 -0.007049 -0.000397
# 4 0.001123 -0.005372 -0.003129 0.040557 0.001980 -0.010393
# 5 0.005068 -0.005466 -0.007049 0.001980 0.040072 -0.005686
# 6 -0.001453 -0.001002 -0.000397 -0.010393 -0.005686 0.033454
#
#
# Mechanical properties :
#
#
# Convention : Reuss Voigt Hill
#
# Bulk Modulus (GPa) = 44.19626 65.70240 54.94933
# Shear Modulus (GPa) = 27.27151 33.29170 30.28160
#
# Velocity S-wave (km/s) = 3.56681 3.94088 3.75850
# Velocity P-wave (km/s) = 6.13029 7.16642 6.66851
#
# Compressibility (1/GPa) = 0.02262635
#
# Stress axis : x y z
#
# Youngs Moduli (GPa) = 109.51562 49.40293 78.13468
#
# Poissons Ratio (x) = 0.24862 0.33682
# Poissons Ratio (y) = 0.55113 0.03354
# Poissons Ratio (z) = 0.47209 0.02121
#
# Static dielectric constant tensor:
#      x y z
#    x 3.867240 -0.149490 0.015170 
#    y -0.149490 4.326420 0.102480 
#    z 0.015170 0.102480 4.072840 
# 
# 
# High freq. dielectric constant tensor:
#      x y z
#    x 1.836690 -0.011090 0.015590 
#    y -0.011090 1.834180 0.008320 
#    z 0.015590 0.008320 1.848150 
# 
# From -- ./inp_files/157516.got.cif
#   From: 2010.06.25/outbox.cif.g09.slc.cpg/sg2_79_cif.got.tgz:157516.got - 2010.06.27 13:26:56.
