data_PCOD8007594
_publ_section_title
;
Structure prediction by ZEFSAII (Michael W. Deem and Ramdas Pophale) SiO2 
 PCOD8007594
Probable space group: P -1
;
_chemical_formula_sum "Si O2"
_cell_formula_units_Z 14
_cell_length_a 13.339320
_cell_length_b 15.842965
_cell_length_c 7.795392
_cell_angle_alpha 34.234650
_cell_angle_beta 140.603413
_cell_angle_gamma 143.775273
_cell_volume 519.213963
_symmetry_space_group_name_H-M "P -1"
_symmetry_group_IT_number 2
_symmetry_cell_setting 'triclinic'
loop_
_space_group_symop_operation_xyz
x,y,z
-x,-y,-z
loop_
_atom_site_type_symbol
_atom_site_label
_atom_site_fract_x
_atom_site_fract_y
_atom_site_fract_z
Si Si1 0.358067 0.267290 0.951966
Si Si2 0.043719 0.228944 0.402651
Si Si3 0.905304 0.259247 0.713484
Si Si4 0.641929 0.925668 0.060502
Si Si5 0.193043 0.159909 0.270618
Si Si6 0.254907 0.771981 0.790278
Si Si7 0.252176 0.518430 0.968280
O O1 0.200105 0.310092 0.616523
O O2 0.370879 0.144484 0.031324
O O3 0.313634 0.181641 0.225418
O O4 0.554274 0.436329 0.932978
O O5 0.880784 0.267643 0.165319
O O6 0.125635 0.316887 0.179187
O O7 0.979814 0.027322 0.642970
O O8 0.824403 0.168874 0.574739
O O9 0.865292 0.420754 0.409175
O O10 0.116338 0.299414 0.928853
O O11 0.793192 0.122222 0.942963
O O12 0.686167 0.816393 0.441822
O O13 0.450594 0.917579 0.861973
O O14 0.275860 0.606881 0.039355
#
# Coordination Sequence:
#
# PCOD8007594 Si02
#       7
#     2   2   2   2   2   2   2
#     4  11  22  43  69  96 131 172 220 268 321 388
#     4  12  21  39  65 102 126 171 221 268 322 391
#     4  10  20  41  65  97 127 175 214 267 321 389
#     4  11  23  41  65 101 132 167 216 275 323 378
#     4  12  25  39  72 101 127 166 226 273 318 380
#     4   9  21  38  66  91 135 169 215 262 327 380
#     4   9  23  39  68  90 134 177 212 260 337 387
#
# _framework density 26.963836000000001
#
# number of rings (size 3 to 8) (size 9 to 14) (size 15 to 20)
#    0.857    0.571    2.857    3.000    2.000    0.571 
#    0.000    0.714    0.000    8.571    0.000    0.000 
#    0.000    0.000    0.000    0.000    0.000    0.000 
#
# Total GULP energy -173502.380787 kJ/mol
# GULP energy per Si atom -12393.027199 kJ/mol
# Density = 2.690246 g / cm^3
# Si number density = 26.963836 Si / 1000 Ang^3
#
#
#
# Elastic Constant Matrix: (Units=GPa)
#
#
# Indices 1 2 3 4 5 6 
#
# 1 96.1922 39.8302 65.1480 6.2316 -17.4122 25.5456
# 2 39.8302 117.3593 33.4673 14.2863 -18.4022 47.5431
# 3 65.1480 33.4673 136.4775 1.6480 -14.4290 24.1236
# 4 6.2316 14.2863 1.6480 52.2321 9.9571 0.6531
# 5 -17.4122 -18.4022 -14.4290 9.9571 33.6730 0.7416
# 6 25.5456 47.5431 24.1236 0.6531 0.7416 47.9153
#
#
#
# Elastic Compliance Matrix: (Units=1/GPa)
#
#
# Indices 1 2 3 4 5 6 
#
# 1 0.018274 -0.000143 -0.006734 -0.003299 0.007599 -0.006282
# 2 -0.000143 0.019328 0.000236 -0.007561 0.013251 -0.019323
# 3 -0.006734 0.000236 0.011018 0.000158 0.001371 -0.002215
# 4 -0.003299 -0.007561 0.000158 0.023979 -0.013060 0.009057
# 5 0.007599 0.013251 0.001371 -0.013060 0.045724 -0.018420
# 6 -0.006282 -0.019323 -0.002215 0.009057 -0.018420 0.044669
#
#
# Mechanical properties :
#
#
# Convention : Reuss Voigt Hill
#
# Bulk Modulus (GPa) = 28.29800 69.65777 48.97789
# Shear Modulus (GPa) = 26.58830 40.86963 33.72896
#
# Velocity S-wave (km/s) = 3.14359 3.89745 3.54064
# Velocity P-wave (km/s) = 4.86762 6.79289 5.90919
#
# Compressibility (1/GPa) = 0.03533819
#
# Stress axis : x y z
#
# Youngs Moduli (GPa) = 54.72352 51.73809 90.75778
#
# Poissons Ratio (x) = 0.00741 0.61118
# Poissons Ratio (y) = 0.00784 -0.02146
# Poissons Ratio (z) = 0.36852 -0.01223
#
# Static dielectric constant tensor:
#      x y z
#    x 4.629610 0.231320 -0.088910 
#    y 0.231320 4.931670 0.154410 
#    z -0.088910 0.154410 4.607080 
# 
# 
# High freq. dielectric constant tensor:
#      x y z
#    x 2.079070 0.007480 -0.002430 
#    y 0.007480 2.093490 0.018320 
#    z -0.002430 0.018320 2.079250 
# 
# From -- ./inp_files/318833.got.cif
#   From: 2010.06.25/outbox.cif.g09.slc.cpg/sg2_160_cif.got.tgz:318833.got - 2010.06.27 13:26:56.
