data_PCOD8007979
_publ_section_title
;
Structure prediction by ZEFSAII (Michael W. Deem and Ramdas Pophale) SiO2 
 PCOD8007979
Probable space group: P -1
;
_chemical_formula_sum "Si O2"
_cell_formula_units_Z 16
_cell_length_a 8.530450
_cell_length_b 25.696179
_cell_length_c 20.163743
_cell_angle_alpha 160.306763
_cell_angle_beta 137.657074
_cell_angle_gamma 32.214471
_cell_volume 752.310417
_symmetry_space_group_name_H-M "P -1"
_symmetry_group_IT_number 2
_symmetry_cell_setting 'triclinic'
loop_
_space_group_symop_operation_xyz
x,y,z
-x,-y,-z
loop_
_atom_site_type_symbol
_atom_site_label
_atom_site_fract_x
_atom_site_fract_y
_atom_site_fract_z
Si Si1 0.895006 0.813411 0.714664
Si Si2 0.269017 0.436794 0.459525
Si Si3 0.658533 0.323434 0.891523
Si Si4 0.177874 0.037727 0.552238
Si Si5 0.455737 0.641022 0.844468
Si Si6 0.224440 0.542910 0.137435
Si Si7 0.811087 0.033038 0.080877
Si Si8 0.333351 0.123137 0.830528
O O1 0.099567 0.570658 0.500114
O O2 0.116066 0.837950 0.777236
O O3 0.603928 0.902610 0.683912
O O4 0.760892 0.930245 0.883870
O O5 0.466453 0.489875 0.617536
O O6 0.502272 0.193869 0.222094
O O7 0.000000 0.500000 0.500000
O O8 0.019915 0.204739 0.864705
O O9 0.592522 0.172391 0.670337
O O10 0.500000 0.500000 0.000000
O O11 0.524364 0.408082 0.023201
O O12 0.346685 0.088422 0.713187
O O13 0.956523 0.219129 0.648043
O O14 0.000000 0.000000 0.500000
O O15 0.649454 0.511870 0.814713
O O16 0.619784 0.714684 0.947764
O O17 0.097620 0.849104 0.996215
O O18 0.000000 0.500000 0.000000
#
# Coordination Sequence:
#
# PCOD8007979 Si02
#       8
#     2   2   2   2   2   2   2   2
#     4   9  20  39  64  90 119 159 212 262 318 377
#     4  11  24  40  62  93 130 165 212 267 324 385
#     4  11  22  41  64  90 128 172 210 265 321 374
#     4  10  21  40  62  89 126 161 213 260 308 378
#     4  10  23  42  61  90 131 167 211 268 320 380
#     4  12  23  42  63  95 135 169 215 263 321 379
#     4   9  20  42  63  88 123 160 209 265 316 382
#     4  10  20  42  62  91 126 164 216 263 314 383
#
# _framework density 21.267817000000001
#
# number of rings (size 3 to 8) (size 9 to 14) (size 15 to 20)
#    0.000    1.750    3.750    1.125    0.000    7.500 
#   11.250    0.000    0.000    0.000    0.000    0.000 
#    0.000    0.000    0.000    0.000    0.000    0.000 
#
# Total GULP energy -198350.956924 kJ/mol
# GULP energy per Si atom -12396.934808 kJ/mol
# Density = 2.121941 g / cm^3
# Si number density = 21.267817 Si / 1000 Ang^3
#
#
#
# Elastic Constant Matrix: (Units=GPa)
#
#
# Indices 1 2 3 4 5 6 
#
# 1 54.5019 26.2026 8.8927 7.0024 -4.7642 2.2338
# 2 26.2026 140.2533 28.4423 17.0299 1.0047 20.6516
# 3 8.8927 28.4423 96.7707 14.2327 -4.6326 -0.2459
# 4 7.0024 17.0299 14.2327 36.9276 0.0807 9.1465
# 5 -4.7642 1.0047 -4.6326 0.0807 32.6028 8.2679
# 6 2.2338 20.6516 -0.2459 9.1465 8.2679 37.3250
#
#
#
# Elastic Compliance Matrix: (Units=1/GPa)
#
#
# Indices 1 2 3 4 5 6 
#
# 1 0.020673 -0.003635 -0.000354 -0.002283 0.002914 0.000686
# 2 -0.003635 0.009083 -0.002113 -0.001586 0.000018 -0.004437
# 3 -0.000354 -0.002113 0.011627 -0.003930 0.001176 0.001969
# 4 -0.002283 -0.001586 -0.003930 0.031468 0.000830 -0.006907
# 5 0.002914 0.000018 0.001176 0.000830 0.033225 -0.007740
# 6 0.000686 -0.004437 0.001969 -0.006907 -0.007740 0.032626
#
#
# Mechanical properties :
#
#
# Convention : Reuss Voigt Hill
#
# Bulk Modulus (GPa) = 34.27102 46.51123 40.39113
# Shear Modulus (GPa) = 31.12682 36.57031 33.84856
#
# Velocity S-wave (km/s) = 3.82981 4.15120 3.99374
# Velocity P-wave (km/s) = 5.97541 6.70025 6.34819
#
# Compressibility (1/GPa) = 0.02917917
#
# Stress axis : x y z
#
# Youngs Moduli (GPa) = 48.37130 110.09112 86.01012
#
# Poissons Ratio (x) = 0.40018 0.03047
# Poissons Ratio (y) = 0.17583 0.18172
# Poissons Ratio (z) = 0.01714 0.23260
#
# Static dielectric constant tensor:
#      x y z
#    x 3.666480 0.121770 0.018990 
#    y 0.121770 3.995640 -0.021810 
#    z 0.018990 -0.021810 4.348590 
# 
# 
# High freq. dielectric constant tensor:
#      x y z
#    x 1.819800 0.007220 0.012490 
#    y 0.007220 1.839020 0.009590 
#    z 0.012490 0.009590 1.833390 
# 
# From -- ./inp_files/592106.got.cif
#   From: 2010.06.25/outbox.cif.g09.slc.cpg/sg2_297_cif.got.tgz:592106.got - 2010.06.27 13:26:56.
