data_PCOD8007708
_publ_section_title
;
Structure prediction by ZEFSAII (Michael W. Deem and Ramdas Pophale) SiO2 
 PCOD8007708
Probable space group: P -1
;
_chemical_formula_sum "Si O2"
_cell_formula_units_Z 16
_cell_length_a 8.419996
_cell_length_b 12.316224
_cell_length_c 11.566348
_cell_angle_alpha 120.334454
_cell_angle_beta 54.439452
_cell_angle_gamma 129.143349
_cell_volume 738.466231
_symmetry_space_group_name_H-M "P -1"
_symmetry_group_IT_number 2
_symmetry_cell_setting 'triclinic'
loop_
_space_group_symop_operation_xyz
x,y,z
-x,-y,-z
loop_
_atom_site_type_symbol
_atom_site_label
_atom_site_fract_x
_atom_site_fract_y
_atom_site_fract_z
Si Si1 0.130921 0.572242 0.622643
Si Si2 0.629107 0.231368 0.897136
Si Si3 0.214626 0.124341 0.171530
Si Si4 0.754860 0.532341 0.926423
Si Si5 0.482077 0.826808 0.725851
Si Si6 0.881502 0.177688 0.963364
Si Si7 0.011071 0.716400 0.567413
Si Si8 0.373705 0.945581 0.403185
O O1 0.328247 0.658518 0.675015
O O2 0.154562 0.431820 0.506983
O O3 0.886250 0.538309 0.755774
O O4 0.176212 0.674533 0.546011
O O5 0.753575 0.402967 0.929259
O O6 0.789469 0.190509 0.883087
O O7 0.565755 0.154717 0.757414
O O8 0.393944 0.181377 0.027088
O O9 0.319563 0.160937 0.273903
O O10 0.088583 0.217722 0.260707
O O11 0.057524 0.951968 0.135804
O O12 0.500000 0.500000 0.000000
O O13 0.896887 0.678971 0.017351
O O14 0.590095 0.918355 0.613989
O O15 0.324045 0.876072 0.887778
O O16 0.120732 0.839432 0.489989
O O17 0.500000 0.000000 0.500000
#
# Coordination Sequence:
#
# PCOD8007708 Si02
#       8
#     2   2   2   2   2   2   2   2
#     4  10  22  43  60  86 131 175 209 251 328 385
#     4  11  21  43  67  92 131 169 214 258 320 384
#     4  11  22  41  66  98 126 162 215 267 315 377
#     4  11  23  39  65  98 127 166 217 269 308 376
#     4  10  20  41  67  91 125 169 213 259 319 383
#     4  10  21  41  67  95 129 169 210 262 325 377
#     4  11  24  39  62  90 131 171 208 262 318 378
#     4  12  22  39  65  95 122 172 213 256 319 378
#
# _framework density 21.666529000000001
#
# number of rings (size 3 to 8) (size 9 to 14) (size 15 to 20)
#    0.000    1.250    5.000    1.875    0.000    2.000 
#    0.000    3.750    0.000    0.000    0.000    0.000 
#    0.000    0.000    0.000    0.000    0.000    0.000 
#
# Total GULP energy -198254.527074 kJ/mol
# GULP energy per Si atom -12390.907942 kJ/mol
# Density = 2.161721 g / cm^3
# Si number density = 21.666529 Si / 1000 Ang^3
#
#
#
# Elastic Constant Matrix: (Units=GPa)
#
#
# Indices 1 2 3 4 5 6 
#
# 1 46.9636 35.7545 31.7380 4.6808 16.1261 3.3975
# 2 35.7545 147.8474 54.5156 20.3995 1.3428 2.4869
# 3 31.7380 54.5156 101.8889 18.3212 11.1203 7.1033
# 4 4.6808 20.3995 18.3212 49.0598 -0.9883 3.5063
# 5 16.1261 1.3428 11.1203 -0.9883 32.9916 7.2899
# 6 3.3975 2.4869 7.1033 3.5063 7.2899 24.3189
#
#
#
# Elastic Compliance Matrix: (Units=1/GPa)
#
#
# Indices 1 2 3 4 5 6 
#
# 1 0.035329 -0.006262 -0.006330 0.001149 -0.015281 0.001969
# 2 -0.006262 0.009754 -0.003286 -0.002159 0.003698 0.000040
# 3 -0.006330 -0.003286 0.014423 -0.003288 -0.001259 -0.002141
# 4 0.001149 -0.002159 -0.003288 0.022640 0.001937 -0.002824
# 5 -0.015281 0.003698 -0.001259 0.001937 0.040378 -0.010259
# 6 0.001969 0.000040 -0.002141 -0.002824 -0.010259 0.044949
#
#
# Mechanical properties :
#
#
# Convention : Reuss Voigt Hill
#
# Bulk Modulus (GPa) = 36.03913 60.07957 48.05935
# Shear Modulus (GPa) = 23.98325 32.92018 28.45171
#
# Velocity S-wave (km/s) = 3.33066 3.90218 3.62769
# Velocity P-wave (km/s) = 5.60899 6.93485 6.30685
#
# Compressibility (1/GPa) = 0.02774762
#
# Stress axis : x y z
#
# Youngs Moduli (GPa) = 28.30554 102.52706 69.33604
#
# Poissons Ratio (x) = 0.64207 0.43891
# Poissons Ratio (y) = 0.17726 0.22784
# Poissons Ratio (z) = 0.17918 0.33691
#
# Static dielectric constant tensor:
#      x y z
#    x 3.601610 -0.002320 0.259030 
#    y -0.002320 4.384830 0.077530 
#    z 0.259030 0.077530 4.021360 
# 
# 
# High freq. dielectric constant tensor:
#      x y z
#    x 1.817710 0.000880 0.024790 
#    y 0.000880 1.879600 0.005540 
#    z 0.024790 0.005540 1.848220 
# 
# From -- ./inp_files/187833.got.cif
#   From: 2010.06.25/outbox.cif.g09.slc.cpg/sg2_94_cif.got.tgz:187833.got - 2010.06.27 13:26:56.
