data_PCOD8007377
_publ_section_title
;
Structure prediction by ZEFSAII (Michael W. Deem and Ramdas Pophale) SiO2 
 PCOD8007377
Probable space group: P -1
;
_chemical_formula_sum "Si O2"
_cell_formula_units_Z 16
_cell_length_a 20.664377
_cell_length_b 10.638631
_cell_length_c 12.706883
_cell_angle_alpha 36.673944
_cell_angle_beta 30.930705
_cell_angle_gamma 57.018535
_cell_volume 757.945612
_symmetry_space_group_name_H-M "P -1"
_symmetry_group_IT_number 2
_symmetry_cell_setting 'triclinic'
loop_
_space_group_symop_operation_xyz
x,y,z
-x,-y,-z
loop_
_atom_site_type_symbol
_atom_site_label
_atom_site_fract_x
_atom_site_fract_y
_atom_site_fract_z
Si Si1 0.442345 0.878645 0.467229
Si Si2 0.885809 0.534607 0.202119
Si Si3 0.647303 0.603813 0.167140
Si Si4 0.611061 0.037705 0.908860
Si Si5 0.810433 0.031931 0.172132
Si Si6 0.734103 0.108910 0.997929
Si Si7 0.897258 0.634264 0.355686
Si Si8 0.862442 0.860242 0.855331
O O1 0.359982 0.587420 0.781185
O O2 0.325491 0.968568 0.582457
O O3 0.524635 0.977465 0.177878
O O4 0.561323 0.975066 0.328832
O O5 0.731538 0.308587 0.561835
O O6 0.937957 0.591522 0.210668
O O7 0.884672 0.766504 0.998884
O O8 0.000000 0.500000 0.000000
O O9 0.500000 0.500000 0.500000
O O10 0.762469 0.634900 0.074250
O O11 0.681688 0.864295 0.899490
O O12 0.500000 0.000000 0.000000
O O13 0.814604 0.791286 0.361091
O O14 0.793323 0.044103 0.062996
O O15 0.958161 0.251688 0.855235
O O16 0.789704 0.390513 0.726119
O O17 0.790555 0.029282 0.868586
O O18 0.000000 0.000000 0.500000
#
# Coordination Sequence:
#
# PCOD8007377 Si02
#       8
#     2   2   2   2   2   2   2   2
#     4  11  24  44  69  97 138 179 231 277 336 422
#     4  12  24  42  69 101 136 175 220 282 346 405
#     4  10  20  41  61  96 134 167 215 269 335 399
#     4  11  23  40  64 102 138 170 214 281 342 402
#     4  11  27  47  69  95 134 189 229 287 343 399
#     4  12  23  48  68  99 136 180 236 284 340 406
#     4  11  25  48  68  99 140 172 237 290 333 415
#     4  12  24  41  70 100 136 177 218 279 352 406
#
# _framework density 21.109694000000001
#
# number of rings (size 3 to 8) (size 9 to 14) (size 15 to 20)
#    0.000    0.750    5.000    3.750    5.250    0.500 
#    2.250    0.000    0.000    0.000    0.000    0.000 
#    0.000    0.000    0.000    0.000    0.000    0.000 
#
# Total GULP energy -198393.815067 kJ/mol
# GULP energy per Si atom -12399.613442 kJ/mol
# Density = 2.106165 g / cm^3
# Si number density = 21.109694 Si / 1000 Ang^3
#
#
#
# Elastic Constant Matrix: (Units=GPa)
#
#
# Indices 1 2 3 4 5 6 
#
# 1 125.6456 32.6158 47.6811 -0.3152 -24.5261 -6.7791
# 2 32.6158 136.3051 54.7744 5.1113 -9.2346 -4.6270
# 3 47.6811 54.7744 110.3538 -8.4033 -15.6323 2.7267
# 4 -0.3152 5.1113 -8.4033 35.2937 -3.6245 -0.5855
# 5 -24.5261 -9.2346 -15.6323 -3.6245 41.1357 -2.0267
# 6 -6.7791 -4.6270 2.7267 -0.5855 -2.0267 29.5511
#
#
#
# Elastic Compliance Matrix: (Units=1/GPa)
#
#
# Indices 1 2 3 4 5 6 
#
# 1 0.010643 -0.000630 -0.003670 -0.000129 0.004947 0.003018
# 2 -0.000630 0.009520 -0.004709 -0.002494 -0.000163 0.001720
# 3 -0.003670 -0.004709 0.013669 0.004084 0.002181 -0.002610
# 4 -0.000129 -0.002494 0.004084 0.030033 0.003563 0.000042
# 5 0.004947 -0.000163 0.002181 0.003563 0.028510 0.002934
# 6 0.003018 0.001720 -0.002610 0.000042 0.002934 0.035244
#
#
# Mechanical properties :
#
#
# Convention : Reuss Voigt Hill
#
# Bulk Modulus (GPa) = 63.22664 71.38301 67.30482
# Shear Modulus (GPa) = 33.13276 37.01165 35.07220
#
# Velocity S-wave (km/s) = 3.96605 4.19179 4.08048
# Velocity P-wave (km/s) = 7.14068 7.57078 7.35887
#
# Compressibility (1/GPa) = 0.01581612
#
# Stress axis : x y z
#
# Youngs Moduli (GPa) = 93.95686 105.03920 73.15801
#
# Poissons Ratio (x) = 0.06613 0.26848
# Poissons Ratio (y) = 0.05915 0.34449
# Poissons Ratio (z) = 0.34480 0.49461
#
# Static dielectric constant tensor:
#      x y z
#    x 3.643700 0.004670 -0.094700 
#    y 0.004670 4.265820 -0.625540 
#    z -0.094700 -0.625540 4.221380 
# 
# 
# High freq. dielectric constant tensor:
#      x y z
#    x 1.837440 -0.008210 -0.015470 
#    y -0.008210 1.830700 -0.009670 
#    z -0.015470 -0.009670 1.830010 
# 
# From -- ./inp_files/314668.got.cif
#   From: 2010.06.25/outbox.cif.g09.slc.cpg/sg2_158_cif.got.tgz:314668.got - 2010.06.27 13:26:56.
