data_PCOD8007074
_publ_section_title
;
Structure prediction by ZEFSAII (Michael W. Deem and Ramdas Pophale) SiO2 
 PCOD8007074
Probable space group: P -1
;
_chemical_formula_sum "Si O2"
_cell_formula_units_Z 16
_cell_length_a 8.554136
_cell_length_b 19.793941
_cell_length_c 10.806411
_cell_angle_alpha 42.745756
_cell_angle_beta 98.432959
_cell_angle_gamma 131.366709
_cell_volume 696.220878
_symmetry_space_group_name_H-M "P -1"
_symmetry_group_IT_number 2
_symmetry_cell_setting 'triclinic'
loop_
_space_group_symop_operation_xyz
x,y,z
-x,-y,-z
loop_
_atom_site_type_symbol
_atom_site_label
_atom_site_fract_x
_atom_site_fract_y
_atom_site_fract_z
Si Si1 0.250714 0.867069 0.551572
Si Si2 0.339121 0.536923 0.921287
Si Si3 0.732362 0.475409 0.666292
Si Si4 0.432993 0.123063 0.064978
Si Si5 0.330599 0.013682 0.941354
Si Si6 0.013985 0.713439 0.152411
Si Si7 0.558570 0.547358 0.153679
Si Si8 0.735195 0.294015 0.424265
O O1 0.334569 0.838333 0.487038
O O2 0.948400 0.677279 0.821695
O O3 0.500000 0.000000 0.500000
O O4 0.240356 0.972789 0.349751
O O5 0.518923 0.620984 0.956165
O O6 0.527408 0.592098 0.754823
O O7 0.264385 0.612303 0.793131
O O8 0.490425 0.266850 0.914997
O O9 0.830215 0.544466 0.444143
O O10 0.623811 0.522810 0.651237
O O11 0.971482 0.558472 0.671512
O O12 0.260381 0.029635 0.041651
O O13 0.720571 0.210848 0.964103
O O14 0.501453 0.181676 0.653680
O O15 0.500000 0.000000 0.000000
O O16 0.060343 0.837106 0.073454
O O17 0.866597 0.678355 0.059437
#
# Coordination Sequence:
#
# PCOD8007074 Si02
#       8
#     2   2   2   2   2   2   2   2
#     4  12  23  40  69 100 130 162 217 280 319 368
#     4  11  27  45  67  90 134 182 216 262 315 390
#     4  12  23  40  71  99 128 169 220 267 322 392
#     4  11  23  40  71 105 125 159 222 282 324 369
#     4  10  20  40  67 101 129 159 209 285 334 359
#     4  11  21  43  68  94 136 170 208 270 334 382
#     4  11  26  45  61  93 136 181 217 251 324 398
#     4  12  22  43  73  98 124 165 228 275 316 376
#
# _framework density 22.981211999999999
#
# number of rings (size 3 to 8) (size 9 to 14) (size 15 to 20)
#    0.000    0.750    6.250    3.375    3.500    0.000 
#    0.000    4.375    0.000    0.000    0.000    0.000 
#    0.000    0.000    0.000    0.000    0.000    0.000 
#
# Total GULP energy -198254.758391 kJ/mol
# GULP energy per Si atom -12390.922399 kJ/mol
# Density = 2.292891 g / cm^3
# Si number density = 22.981212 Si / 1000 Ang^3
#
#
#
# Elastic Constant Matrix: (Units=GPa)
#
#
# Indices 1 2 3 4 5 6 
#
# 1 49.8290 10.5232 16.8554 7.0949 6.5673 4.4135
# 2 10.5232 129.3559 11.4699 9.9801 14.0620 6.6844
# 3 16.8554 11.4699 99.4262 1.8548 18.7058 -3.9669
# 4 7.0949 9.9801 1.8548 27.9823 -7.5934 4.4535
# 5 6.5673 14.0620 18.7058 -7.5934 15.2263 5.1148
# 6 4.4135 6.6844 -3.9669 4.4535 5.1148 38.2448
#
#
#
# Elastic Compliance Matrix: (Units=1/GPa)
#
#
# Indices 1 2 3 4 5 6 
#
# 1 0.023649 0.000485 -0.001211 -0.009949 -0.014159 0.000113
# 2 0.000485 0.009925 0.002201 -0.008694 -0.016994 0.001723
# 3 -0.001211 0.002201 0.015712 -0.010114 -0.027975 0.006304
# 4 -0.009949 -0.008694 -0.010114 0.060231 0.059258 -0.013320
# 5 -0.014159 -0.016994 -0.027975 0.059258 0.160346 -0.026642
# 6 0.000113 0.001723 0.006304 -0.013320 -0.026642 0.031601
#
#
# Mechanical properties :
#
#
# Convention : Reuss Voigt Hill
#
# Bulk Modulus (GPa) = 19.14421 39.58978 29.36700
# Shear Modulus (GPa) = 15.82643 32.27486 24.05064
#
# Velocity S-wave (km/s) = 2.62710 3.75160 3.23853
# Velocity P-wave (km/s) = 4.18935 6.00254 5.17596
#
# Compressibility (1/GPa) = 0.05223512
#
# Stress axis : x y z
#
# Youngs Moduli (GPa) = 42.28572 100.75411 63.64391
#
# Poissons Ratio (x) = -0.04882 0.07707
# Poissons Ratio (y) = -0.02049 -0.14008
# Poissons Ratio (z) = 0.05121 -0.22176
#
# Static dielectric constant tensor:
#      x y z
#    x 3.951960 -0.258550 0.025080 
#    y -0.258550 5.131370 0.055930 
#    z 0.025080 0.055930 4.067650 
# 
# 
# High freq. dielectric constant tensor:
#      x y z
#    x 1.880190 -0.005800 0.004470 
#    y -0.005800 1.931370 0.016290 
#    z 0.004470 0.016290 1.893530 
# 
# From -- ./inp_files/405409.got.cif
#   From: 2010.06.25/outbox.cif.g09.slc.cpg/sg2_203_cif.got.tgz:405409.got - 2010.06.27 13:26:56.
