data_PCOD8007376
_publ_section_title
;
Structure prediction by ZEFSAII (Michael W. Deem and Ramdas Pophale) SiO2 
 PCOD8007376
Probable space group: P -1
;
_chemical_formula_sum "Si O2"
_cell_formula_units_Z 16
_cell_length_a 6.678438
_cell_length_b 12.144471
_cell_length_c 24.374707
_cell_angle_alpha 150.541128
_cell_angle_beta 127.460064
_cell_angle_gamma 64.625568
_cell_volume 745.455771
_symmetry_space_group_name_H-M "P -1"
_symmetry_group_IT_number 2
_symmetry_cell_setting 'triclinic'
loop_
_space_group_symop_operation_xyz
x,y,z
-x,-y,-z
loop_
_atom_site_type_symbol
_atom_site_label
_atom_site_fract_x
_atom_site_fract_y
_atom_site_fract_z
Si Si1 0.064996 0.252601 0.399739
Si Si2 0.905845 0.746389 0.822777
Si Si3 0.525112 0.701633 0.424833
Si Si4 0.760335 0.339066 0.970706
Si Si5 0.952388 0.043673 0.174526
Si Si6 0.354052 0.858420 0.018901
Si Si7 0.792349 0.805223 0.221021
Si Si8 0.869953 0.011237 0.540766
O O1 0.344457 0.270902 0.481525
O O2 0.000000 0.500000 0.500000
O O3 0.085097 0.175382 0.307438
O O4 0.846651 0.053076 0.307247
O O5 0.664415 0.549580 0.719736
O O6 0.945731 0.763574 0.771491
O O7 0.827111 0.973582 0.925792
O O8 0.174961 0.705022 0.874970
O O9 0.371526 0.893000 0.474532
O O10 0.752848 0.757621 0.439885
O O11 0.626827 0.281184 0.983404
O O12 0.522408 0.282963 0.862962
O O13 0.893052 0.617184 0.118275
O O14 0.968291 0.197448 0.927561
O O15 0.639482 0.981151 0.097353
O O16 0.929671 0.826347 0.312598
O O17 0.000000 0.000000 0.500000
#
# Coordination Sequence:
#
# PCOD8007376 Si02
#       8
#     2   2   2   2   2   2   2   2
#     4  11  24  42  67  94 140 176 217 277 329 399
#     4  10  22  38  65  91 133 173 215 271 329 399
#     4  10  23  42  62  94 130 171 217 272 332 387
#     4  10  22  41  67  95 129 173 218 284 341 388
#     4  11  23  39  66  99 128 176 230 265 337 401
#     4  10  20  41  61  96 131 166 218 279 329 386
#     4  10  22  44  65  96 138 169 219 283 337 390
#     4  10  23  43  67  94 129 173 225 271 332 397
#
# _framework density 21.463380999999998
#
# number of rings (size 3 to 8) (size 9 to 14) (size 15 to 20)
#    0.000    1.750    1.250    1.875    3.500    4.000 
#    0.000    8.750    0.000    0.000    0.000    0.000 
#    0.000    0.000    0.000    0.000    0.000    0.000 
#
# Total GULP energy -198255.120662 kJ/mol
# GULP energy per Si atom -12390.945041 kJ/mol
# Density = 2.141453 g / cm^3
# Si number density = 21.463381 Si / 1000 Ang^3
#
#
#
# Elastic Constant Matrix: (Units=GPa)
#
#
# Indices 1 2 3 4 5 6 
#
# 1 81.0691 49.8496 21.1493 -12.5745 -3.2941 23.3147
# 2 49.8496 128.7359 65.1302 -22.2215 1.5027 1.3189
# 3 21.1493 65.1302 104.1379 -9.7888 1.6410 20.3936
# 4 -12.5745 -22.2215 -9.7888 44.5239 -3.7969 3.9198
# 5 -3.2941 1.5027 1.6410 -3.7969 34.0355 1.0105
# 6 23.3147 1.3189 20.3936 3.9198 1.0105 25.5226
#
#
#
# Elastic Compliance Matrix: (Units=1/GPa)
#
#
# Indices 1 2 3 4 5 6 
#
# 1 0.032991 -0.017730 0.013024 0.007399 0.005390 -0.040977
# 2 -0.017730 0.022365 -0.015778 0.000006 -0.002766 0.027756
# 3 0.013024 -0.015778 0.023045 0.003708 0.002155 -0.030150
# 4 0.007399 0.000006 0.003708 0.026939 0.003959 -0.014016
# 5 0.005390 -0.002766 0.002155 0.003959 0.030610 -0.008322
# 6 -0.040977 0.027756 -0.030150 -0.014016 -0.008322 0.101752
#
#
# Mechanical properties :
#
#
# Convention : Reuss Voigt Hill
#
# Bulk Modulus (GPa) = 26.71519 65.13346 45.92433
# Shear Modulus (GPa) = 17.17350 32.67066 24.92208
#
# Velocity S-wave (km/s) = 2.83173 3.90572 3.41125
# Velocity P-wave (km/s) = 4.81305 7.12402 6.07936
#
# Compressibility (1/GPa) = 0.03743188
#
# Stress axis : x y z
#
# Youngs Moduli (GPa) = 30.31154 44.71351 43.39424
#
# Poissons Ratio (x) = 0.79275 -0.56515
# Poissons Ratio (y) = 0.53741 0.68467
# Poissons Ratio (z) = -0.39477 0.70549
#
# Static dielectric constant tensor:
#      x y z
#    x 1.775910 -0.075410 -0.850080 
#    y -0.075410 4.402450 -0.230880 
#    z -0.850080 -0.230880 3.469350 
# 
# 
# High freq. dielectric constant tensor:
#      x y z
#    x 1.820790 -0.000880 0.012930 
#    y -0.000880 1.868580 -0.008240 
#    z 0.012930 -0.008240 1.841770 
# 
# From -- ./inp_files/84217.got.cif
#   From: 2010.06.25/outbox.cif.g09.slc.cpg/sg2_43_cif.got.tgz:84217.got - 2010.06.27 13:26:56.
