data_PCOD8007766
_publ_section_title
;
Structure prediction by ZEFSAII (Michael W. Deem and Ramdas Pophale) SiO2 
 PCOD8007766
Probable space group: P -1
;
_chemical_formula_sum "Si O2"
_cell_formula_units_Z 14
_cell_length_a 10.674098
_cell_length_b 25.512760
_cell_length_c 4.998855
_cell_angle_alpha 74.590824
_cell_angle_beta 109.978588
_cell_angle_gamma 147.806285
_cell_volume 680.893019
_symmetry_space_group_name_H-M "P -1"
_symmetry_group_IT_number 2
_symmetry_cell_setting 'triclinic'
loop_
_space_group_symop_operation_xyz
x,y,z
-x,-y,-z
loop_
_atom_site_type_symbol
_atom_site_label
_atom_site_fract_x
_atom_site_fract_y
_atom_site_fract_z
Si Si1 0.191574 0.913355 0.150828
Si Si2 0.446668 0.518654 0.188057
Si Si3 0.615755 0.222651 0.498182
Si Si4 0.462617 0.696542 0.434479
Si Si5 0.108521 0.650459 0.010911
Si Si6 0.651147 0.703428 0.049755
Si Si7 0.404129 0.036032 0.636924
O O1 0.342226 0.908925 0.270391
O O2 0.206804 0.945191 0.411176
O O3 0.922086 0.806785 0.010958
O O4 0.297855 0.993448 0.913009
O O5 0.500000 0.500000 0.500000
O O6 0.174837 0.448028 0.104637
O O7 0.500000 0.500000 0.000000
O O8 0.622106 0.629861 0.183039
O O9 0.443605 0.213846 0.491678
O O10 0.448516 0.113624 0.488702
O O11 0.748596 0.284471 0.239209
O O12 0.821097 0.281984 0.796433
O O13 0.464957 0.655029 0.739349
O O14 0.619695 0.727354 0.264060
O O15 0.195264 0.619768 0.222446
#
# Coordination Sequence:
#
# PCOD8007766 Si02
#       7
#     2   2   2   2   2   2   2
#     4  10  23  38  62  93 125 165 211 255 321 366
#     4  12  28  44  64 102 124 165 210 255 324 380
#     4  10  20  41  68  90 125 164 216 262 291 379
#     4  10  22  42  64  94 124 173 213 243 322 365
#     4  10  22  41  67  90 129 162 214 252 303 386
#     4  12  24  43  64  91 137 159 205 275 305 367
#     4  10  21  41  63  91 122 169 214 252 313 380
#
# _framework density 20.561235
#
# number of rings (size 3 to 8) (size 9 to 14) (size 15 to 20)
#    0.857    0.571    1.429    3.429    4.000    1.143 
#    0.000    4.286    0.000    0.000    0.000    0.000 
#    0.000    0.000    0.000    0.000    0.000    0.000 
#
# Total GULP energy -173502.097915 kJ/mol
# GULP energy per Si atom -12393.006994 kJ/mol
# Density = 2.051444 g / cm^3
# Si number density = 20.561235 Si / 1000 Ang^3
#
#
#
# Elastic Constant Matrix: (Units=GPa)
#
#
# Indices 1 2 3 4 5 6 
#
# 1 98.0405 49.6180 48.6575 -6.4076 -5.1125 -5.8545
# 2 49.6180 91.6017 33.9560 -3.3005 6.2403 -3.0996
# 3 48.6575 33.9560 146.0330 -10.0403 -9.4619 2.5851
# 4 -6.4076 -3.3005 -10.0403 26.2001 2.8491 5.0493
# 5 -5.1125 6.2403 -9.4619 2.8491 34.7162 0.5506
# 6 -5.8545 -3.0996 2.5851 5.0493 0.5506 16.7036
#
#
#
# Elastic Compliance Matrix: (Units=1/GPa)
#
#
# Indices 1 2 3 4 5 6 
#
# 1 0.016171 -0.007458 -0.003530 0.000489 0.002647 0.004595
# 2 -0.007458 0.015830 -0.001496 -0.000068 -0.004357 0.000719
# 3 -0.003530 -0.001496 0.008760 0.002822 0.001965 -0.003788
# 4 0.000489 -0.000068 0.002822 0.042113 -0.002398 -0.012929
# 5 0.002647 -0.004357 0.001965 -0.002398 0.030718 -0.000473
# 6 0.004595 0.000719 -0.003788 -0.012929 -0.000473 0.066121
#
#
# Mechanical properties :
#
#
# Convention : Reuss Voigt Hill
#
# Bulk Modulus (GPa) = 63.31723 66.68206 64.99965
# Shear Modulus (GPa) = 23.81597 29.08691 26.45144
#
# Velocity S-wave (km/s) = 3.40707 3.76526 3.59063
# Velocity P-wave (km/s) = 6.80726 7.16968 6.99082
#
# Compressibility (1/GPa) = 0.01579349
#
# Stress axis : x y z
#
# Youngs Moduli (GPa) = 61.84068 63.17281 114.15397
#
# Poissons Ratio (x) = 0.47113 0.40297
# Poissons Ratio (y) = 0.46119 0.17072
# Poissons Ratio (z) = 0.21830 0.09448
#
# Static dielectric constant tensor:
#      x y z
#    x 3.739170 -0.080910 -0.012460 
#    y -0.080910 3.343890 -0.015830 
#    z -0.012460 -0.015830 3.951840 
# 
# 
# High freq. dielectric constant tensor:
#      x y z
#    x 1.803760 -0.005690 -0.008870 
#    y -0.005690 1.778310 -0.004480 
#    z -0.008870 -0.004480 1.827580 
# 
# From -- ./inp_files/50348.got.cif
#   From: 2010.06.25/outbox.cif.g09.slc.cpg/sg2_26_cif.got.tgz:50348.got - 2010.06.27 13:26:56.
