data_PCOD8007609
_publ_section_title
;
Structure prediction by ZEFSAII (Michael W. Deem and Ramdas Pophale) SiO2 
 PCOD8007609
Probable space group: P -1
;
_chemical_formula_sum "Si O2"
_cell_formula_units_Z 12
_cell_length_a 11.903962
_cell_length_b 7.260679
_cell_length_c 23.020013
_cell_angle_alpha 141.959440
_cell_angle_beta 152.522443
_cell_angle_gamma 46.951928
_cell_volume 564.792908
_symmetry_space_group_name_H-M "P -1"
_symmetry_group_IT_number 2
_symmetry_cell_setting 'triclinic'
loop_
_space_group_symop_operation_xyz
x,y,z
-x,-y,-z
loop_
_atom_site_type_symbol
_atom_site_label
_atom_site_fract_x
_atom_site_fract_y
_atom_site_fract_z
Si Si1 0.080399 0.767217 0.644695
Si Si2 0.699154 0.255175 0.139951
Si Si3 0.750410 0.240292 0.592276
Si Si4 0.542917 0.880349 0.176703
Si Si5 0.045620 0.813165 0.869056
Si Si6 0.475619 0.204550 0.341854
O O1 0.169702 0.633869 0.713111
O O2 0.000000 0.500000 0.500000
O O3 0.287318 0.984646 0.763202
O O4 0.838706 0.948969 0.593283
O O5 0.588372 0.535877 0.126234
O O6 0.881021 0.090803 0.139073
O O7 0.500000 0.000000 0.000000
O O8 0.655083 0.131864 0.458391
O O9 0.548899 0.430499 0.580920
O O10 0.995700 0.454575 0.751931
O O11 0.589109 0.087532 0.305988
O O12 0.261247 0.900462 0.034445
O O13 0.794152 0.959078 0.810165
#
# Coordination Sequence:
#
# PCOD8007609 Si02
#       6
#     2   2   2   2   2   2
#     4  12  26  39  65  98 122 163 213 257 307 368
#     4  12  24  41  66  94 125 164 208 256 312 369
#     4   9  20  42  63  90 121 167 205 243 318 365
#     4  12  22  42  65  94 127 159 209 263 306 362
#     4  10  20  41  66  87 125 163 204 249 316 362
#     4   9  21  38  70  87 122 175 197 251 322 360
#
# _framework density 21.246725999999999
#
# number of rings (size 3 to 8) (size 9 to 14) (size 15 to 20)
#    1.000    0.333    3.333    3.000    2.333    1.333 
#    0.000    5.833    0.000    0.000    0.000    0.000 
#    0.000    0.000    0.000    0.000    0.000    0.000 
#
# Total GULP energy -148677.704121 kJ/mol
# GULP energy per Si atom -12389.808677 kJ/mol
# Density = 2.119837 g / cm^3
# Si number density = 21.246726 Si / 1000 Ang^3
#
#
#
# Elastic Constant Matrix: (Units=GPa)
#
#
# Indices 1 2 3 4 5 6 
#
# 1 70.9025 6.7936 -10.3047 -1.5946 -13.6964 6.7687
# 2 6.7936 61.8263 16.7866 0.9444 4.8404 6.5709
# 3 -10.3047 16.7866 87.3887 -14.3404 -17.3116 6.7549
# 4 -1.5946 0.9444 -14.3404 24.3243 6.5893 -1.9440
# 5 -13.6964 4.8404 -17.3116 6.5893 29.0751 -5.3224
# 6 6.7687 6.5709 6.7549 -1.9440 -5.3224 25.4888
#
#
#
# Elastic Compliance Matrix: (Units=1/GPa)
#
#
# Indices 1 2 3 4 5 6 
#
# 1 0.017855 -0.004145 0.005628 0.001275 0.011682 -0.002628
# 2 -0.004145 0.019503 -0.006106 -0.002524 -0.009067 -0.004395
# 3 0.005628 -0.006106 0.016925 0.007265 0.011846 -0.001378
# 4 0.001275 -0.002524 0.007265 0.047043 -0.005151 0.000899
# 5 0.011682 -0.009067 0.011846 -0.005151 0.050782 0.006307
# 6 -0.002628 -0.004395 -0.001378 0.000899 0.006307 0.042815
#
#
# Mechanical properties :
#
#
# Convention : Reuss Voigt Hill
#
# Bulk Modulus (GPa) = 22.20321 27.40763 24.80542
# Shear Modulus (GPa) = 22.81227 29.56711 26.18969
#
# Velocity S-wave (km/s) = 3.28027 3.73447 3.51471
# Velocity P-wave (km/s) = 4.98194 5.61451 5.30766
#
# Compressibility (1/GPa) = 0.04503853
#
# Stress axis : x y z
#
# Youngs Moduli (GPa) = 56.00598 51.27379 59.08377
#
# Poissons Ratio (x) = 0.21252 -0.33254
# Poissons Ratio (y) = 0.23214 0.36075
# Poissons Ratio (z) = -0.31521 0.31307
#
# Static dielectric constant tensor:
#      x y z
#    x 3.784090 0.060420 -0.018090 
#    y 0.060420 3.682030 -0.181510 
#    z -0.018090 -0.181510 3.894990 
# 
# 
# High freq. dielectric constant tensor:
#      x y z
#    x 1.828840 -0.006000 -0.006210 
#    y -0.006000 1.808300 -0.013130 
#    z -0.006210 -0.013130 1.847080 
# 
# From -- ./inp_files/39401.got.cif
#   From: 2010.06.25/outbox.cif.g09.slc.cpg/sg2_20_cif.got.tgz:39401.got - 2010.06.27 13:26:56.
