data_PCOD8007256
_publ_section_title
;
Structure prediction by ZEFSAII (Michael W. Deem and Ramdas Pophale) SiO2 
 PCOD8007256
Probable space group: P -1
;
_chemical_formula_sum "Si O2"
_cell_formula_units_Z 16
_cell_length_a 13.175467
_cell_length_b 9.621782
_cell_length_c 8.826889
_cell_angle_alpha 140.182573
_cell_angle_beta 92.540866
_cell_angle_gamma 93.756978
_cell_volume 707.113111
_symmetry_space_group_name_H-M "P -1"
_symmetry_group_IT_number 2
_symmetry_cell_setting 'triclinic'
loop_
_space_group_symop_operation_xyz
x,y,z
-x,-y,-z
loop_
_atom_site_type_symbol
_atom_site_label
_atom_site_fract_x
_atom_site_fract_y
_atom_site_fract_z
Si Si1 0.755722 0.499828 0.846698
Si Si2 0.139131 0.689342 0.574746
Si Si3 0.770549 0.875554 0.937342
Si Si4 0.913299 0.746821 0.618888
Si Si5 0.759899 0.741813 0.343343
Si Si6 0.387181 0.931078 0.508451
Si Si7 0.446210 0.823060 0.729866
Si Si8 0.371465 0.398598 0.524176
O O1 0.836715 0.391259 0.659609
O O2 0.728064 0.701838 0.917246
O O3 0.653631 0.328469 0.736817
O O4 0.802431 0.605758 0.095780
O O5 0.129002 0.508160 0.554963
O O6 0.034044 0.789100 0.631677
O O7 0.230750 0.882014 0.793639
O O8 0.885617 0.876168 0.876439
O O9 0.695284 0.811975 0.737972
O O10 0.857329 0.819505 0.524730
O O11 0.672053 0.581041 0.293428
O O12 0.703149 0.941817 0.450506
O O13 0.397762 0.964874 0.719220
O O14 0.500000 0.000000 0.500000
O O15 0.363442 0.635148 0.646271
O O16 0.516499 0.668867 0.519109
O O17 0.500000 0.000000 0.000000
#
# Coordination Sequence:
#
# PCOD8007256 Si02
#       8
#     2   2   2   2   2   2   2   2
#     4  11  25  41  64  97 135 176 220 270 332 402
#     4  10  21  43  73  98 133 179 220 273 337 397
#     4  10  20  40  69  96 134 175 219 274 327 393
#     4   9  22  42  68 106 133 169 229 273 327 400
#     4  11  25  42  65  97 137 174 214 280 330 393
#     4  12  26  46  64  96 133 180 220 267 344 393
#     4  11  25  41  67  94 125 173 226 278 329 392
#     4  10  23  42  62  98 129 168 230 275 320 397
#
# _framework density 22.627216000000001
#
# number of rings (size 3 to 8) (size 9 to 14) (size 15 to 20)
#    0.000    1.500    2.500    1.125    5.250    3.000 
#    0.000    2.500    0.000    0.000    0.000    0.000 
#    0.000    0.000    0.000    0.000    0.000    0.000 
#
# Total GULP energy -198237.149897 kJ/mol
# GULP energy per Si atom -12389.821869 kJ/mol
# Density = 2.257572 g / cm^3
# Si number density = 22.627216 Si / 1000 Ang^3
#
#
#
# Elastic Constant Matrix: (Units=GPa)
#
#
# Indices 1 2 3 4 5 6 
#
# 1 68.9696 38.2604 23.1299 4.2440 -13.0412 -7.6053
# 2 38.2604 130.9244 47.8826 -8.8599 -1.0973 -11.7719
# 3 23.1299 47.8826 118.4191 -3.7572 -1.1558 -2.1403
# 4 4.2440 -8.8599 -3.7572 34.1989 1.5802 4.1702
# 5 -13.0412 -1.0973 -1.1558 1.5802 31.3440 -0.8280
# 6 -7.6053 -11.7719 -2.1403 4.1702 -0.8280 39.5008
#
#
#
# Elastic Compliance Matrix: (Units=1/GPa)
#
#
# Indices 1 2 3 4 5 6 
#
# 1 0.020249 -0.005230 -0.001857 -0.004821 0.008494 0.002926
# 2 -0.005230 0.010662 -0.003186 0.002954 -0.002026 0.001644
# 3 -0.001857 -0.003186 0.010095 0.000643 -0.000567 -0.000840
# 4 -0.004821 0.002954 0.000643 0.031252 -0.003544 -0.003387
# 5 0.008494 -0.002026 -0.000567 -0.003544 0.035581 0.002121
# 6 0.002926 0.001644 -0.000840 -0.003387 0.002121 0.026726
#
#
# Mechanical properties :
#
#
# Convention : Reuss Voigt Hill
#
# Bulk Modulus (GPa) = 48.87736 59.65100 54.26418
# Shear Modulus (GPa) = 30.87725 34.94475 32.91100
#
# Velocity S-wave (km/s) = 3.69807 3.93411 3.81791
# Velocity P-wave (km/s) = 6.31524 6.85974 6.59311
#
# Compressibility (1/GPa) = 0.02045937
#
# Stress axis : x y z
#
# Youngs Moduli (GPa) = 49.38578 93.78798 99.05533
#
# Poissons Ratio (x) = 0.49051 0.18399
# Poissons Ratio (y) = 0.25829 0.31560
# Poissons Ratio (z) = 0.09173 0.29882
#
# Static dielectric constant tensor:
#      x y z
#    x 4.240490 0.157110 -0.218600 
#    y 0.157110 4.265150 -0.065240 
#    z -0.218600 -0.065240 4.006730 
# 
# 
# High freq. dielectric constant tensor:
#      x y z
#    x 1.894430 0.008960 -0.012150 
#    y 0.008960 1.897420 -0.001720 
#    z -0.012150 -0.001720 1.885230 
# 
# From -- ./inp_files/288623.got.cif
#   From: 2010.06.25/outbox.cif.g09.slc.cpg/sg2_145_cif.got.tgz:288623.got - 2010.06.27 13:26:56.
