data_PCOD8007951
_publ_section_title
;
Structure prediction by ZEFSAII (Michael W. Deem and Ramdas Pophale) SiO2 
 PCOD8007951
Probable space group: P -1
;
_chemical_formula_sum "Si O2"
_cell_formula_units_Z 16
_cell_length_a 14.325649
_cell_length_b 23.599734
_cell_length_c 14.822532
_cell_angle_alpha 18.918090
_cell_angle_beta 29.105946
_cell_angle_gamma 27.817187
_cell_volume 735.086824
_symmetry_space_group_name_H-M "P -1"
_symmetry_group_IT_number 2
_symmetry_cell_setting 'triclinic'
loop_
_space_group_symop_operation_xyz
x,y,z
-x,-y,-z
loop_
_atom_site_type_symbol
_atom_site_label
_atom_site_fract_x
_atom_site_fract_y
_atom_site_fract_z
Si Si1 0.171732 0.025311 0.585653
Si Si2 0.209155 0.743997 0.132282
Si Si3 0.882072 0.776913 0.973152
Si Si4 0.162814 0.364283 0.355965
Si Si5 0.108409 0.860313 0.499554
Si Si6 0.501157 0.291144 0.321755
Si Si7 0.584051 0.803029 0.773978
Si Si8 0.457252 0.335483 0.495986
O O1 0.289390 0.864354 0.656856
O O2 0.287099 0.172542 0.285551
O O3 0.137419 0.926940 0.853867
O O4 0.951144 0.150600 0.538617
O O5 0.326995 0.555952 0.258237
O O6 0.006961 0.732810 0.367355
O O7 0.381176 0.754803 0.043574
O O8 0.921194 0.836262 0.750601
O O9 0.884966 0.934205 0.803377
O O10 0.661187 0.756344 0.198343
O O11 0.061336 0.581265 0.143011
O O12 0.317912 0.266987 0.453063
O O13 0.276321 0.348618 0.187886
O O14 0.323833 0.699735 0.588121
O O15 0.483237 0.241809 0.516140
O O16 0.500000 0.500000 0.000000
O O17 0.500000 0.000000 0.500000
#
# Coordination Sequence:
#
# PCOD8007951 Si02
#       8
#     2   2   2   2   2   2   2   2
#     4  11  23  38  63  90 119 159 202 248 301 356
#     4  10  22  40  63  90 118 157 203 249 301 356
#     4  10  23  39  60  88 124 161 199 241 302 362
#     4  11  22  38  65  90 118 159 202 251 298 355
#     4  11  22  41  59  86 127 162 195 246 299 362
#     4  12  20  36  62  92 123 156 191 246 301 356
#     4  10  20  42  58  87 124 153 201 253 302 345
#     4  11  23  39  63  88 125 159 198 246 299 361
#
# _framework density 21.766137000000001
#
# number of rings (size 3 to 8) (size 9 to 14) (size 15 to 20)
#    0.000    1.250    3.750    4.125    1.750    3.000 
#    0.000    2.500    0.000    3.000    0.000    0.000 
#    0.000    0.000    0.000    0.000    0.000    0.000 
#
# Total GULP energy -198319.714205 kJ/mol
# GULP energy per Si atom -12394.982138 kJ/mol
# Density = 2.171660 g / cm^3
# Si number density = 21.766137 Si / 1000 Ang^3
#
#
#
# Elastic Constant Matrix: (Units=GPa)
#
#
# Indices 1 2 3 4 5 6 
#
# 1 131.8236 21.2458 31.6389 7.4483 -11.5075 -23.6247
# 2 21.2458 61.0876 8.5950 9.3559 -1.2233 -11.0814
# 3 31.6389 8.5950 86.3553 20.2369 -16.2917 -12.5364
# 4 7.4483 9.3559 20.2369 24.8310 -8.1665 -5.9944
# 5 -11.5075 -1.2233 -16.2917 -8.1665 27.2173 1.3021
# 6 -23.6247 -11.0814 -12.5364 -5.9944 1.3021 24.6115
#
#
#
# Elastic Compliance Matrix: (Units=1/GPa)
#
#
# Indices 1 2 3 4 5 6 
#
# 1 0.010037 -0.002052 -0.002333 0.002634 0.003163 0.007996
# 2 -0.002052 0.018914 0.000857 -0.006439 -0.001700 0.005504
# 3 -0.002333 0.000857 0.016330 -0.010204 0.005589 0.003683
# 4 0.002634 -0.006439 -0.010204 0.055648 0.011059 0.007400
# 5 0.003163 -0.001700 0.005589 0.011059 0.044405 0.005462
# 6 0.007996 0.005504 0.003683 0.007400 0.005462 0.054175
#
#
# Mechanical properties :
#
#
# Convention : Reuss Voigt Hill
#
# Bulk Modulus (GPa) = 26.16156 44.69176 35.42666
# Shear Modulus (GPa) = 22.79912 29.85108 26.32510
#
# Velocity S-wave (km/s) = 3.23996 3.70732 3.48149
# Velocity P-wave (km/s) = 5.10313 6.23722 5.69846
#
# Compressibility (1/GPa) = 0.03822403
#
# Stress axis : x y z
#
# Youngs Moduli (GPa) = 99.63262 52.87168 61.23701
#
# Poissons Ratio (x) = 0.10850 0.14286
# Poissons Ratio (y) = 0.20445 -0.05246
# Poissons Ratio (z) = 0.23243 -0.04529
#
# Static dielectric constant tensor:
#      x y z
#    x 2.700950 -1.487460 -0.196050 
#    y -1.487460 2.590570 0.204320 
#    z -0.196050 0.204320 4.070240 
# 
# 
# High freq. dielectric constant tensor:
#      x y z
#    x 1.836640 -0.016360 -0.021190 
#    y -0.016360 1.850230 -0.003620 
#    z -0.021190 -0.003620 1.852360 
# 
# From -- ./inp_files/535373.got.cif
#   From: 2010.06.25/outbox.cif.g09.slc.cpg/sg2_268_cif.got.tgz:535373.got - 2010.06.27 13:26:56.
