data_PCOD8007372
_publ_section_title
;
Structure prediction by ZEFSAII (Michael W. Deem and Ramdas Pophale) SiO2 
 PCOD8007372
Probable space group: P -1
;
_chemical_formula_sum "Si O2"
_cell_formula_units_Z 16
_cell_length_a 6.878496
_cell_length_b 21.247421
_cell_length_c 5.384127
_cell_angle_alpha 70.358865
_cell_angle_beta 117.786221
_cell_angle_gamma 118.575977
_cell_volume 604.836446
_symmetry_space_group_name_H-M "P -1"
_symmetry_group_IT_number 2
_symmetry_cell_setting 'triclinic'
loop_
_space_group_symop_operation_xyz
x,y,z
-x,-y,-z
loop_
_atom_site_type_symbol
_atom_site_label
_atom_site_fract_x
_atom_site_fract_y
_atom_site_fract_z
Si Si1 0.551487 0.906655 0.538805
Si Si2 0.868562 0.680038 0.951023
Si Si3 0.395721 0.321785 0.700748
Si Si4 0.166360 0.829659 0.086327
Si Si5 0.750088 0.833119 0.159039
Si Si6 0.798292 0.529645 0.265165
Si Si7 0.276723 0.525994 0.205493
Si Si8 0.154162 0.936898 0.541367
O O1 0.436649 0.848349 0.325412
O O2 0.334010 0.930804 0.445936
O O3 0.785252 0.976870 0.505292
O O4 0.610437 0.864932 0.852330
O O5 0.696226 0.684444 0.062120
O O6 0.936706 0.612324 0.151862
O O7 0.095723 0.757212 0.973680
O O8 0.764253 0.665688 0.630395
O O9 0.429150 0.246763 0.750355
O O10 0.641599 0.391676 0.758645
O O11 0.968075 0.816185 0.195749
O O12 0.192073 0.902541 0.862788
O O13 0.873923 0.893265 0.365405
O O14 0.669790 0.522760 0.470864
O O15 0.000000 0.500000 0.500000
O O16 0.618216 0.482991 0.993256
O O17 0.000000 0.500000 0.000000
#
# Coordination Sequence:
#
# PCOD8007372 Si02
#       8
#     2   2   2   2   2   2   2   2
#     4  10  22  37  64  95 126 171 217 273 324 391
#     4  11  23  41  66  90 129 170 207 270 330 382
#     4  11  23  41  65  92 127 168 213 264 330 391
#     4  10  22  40  61  91 131 169 218 268 329 393
#     4  10  22  40  61  93 129 170 221 266 329 393
#     4  10  22  40  60  90 121 160 207 256 316 382
#     4  10  22  40  60  89 124 159 205 265 309 382
#     4  10  20  41  61  92 132 165 216 274 328 389
#
# _framework density 26.453433
#
# number of rings (size 3 to 8) (size 9 to 14) (size 15 to 20)
#    0.000    1.750    1.250    2.250    0.000    6.500 
#    4.500    0.000    0.000    0.000    0.000    0.000 
#    0.000    0.000    0.000    0.000    0.000    0.000 
#
# Total GULP energy -198274.185576 kJ/mol
# GULP energy per Si atom -12392.136599 kJ/mol
# Density = 2.639322 g / cm^3
# Si number density = 26.453433 Si / 1000 Ang^3
#
#
#
# Elastic Constant Matrix: (Units=GPa)
#
#
# Indices 1 2 3 4 5 6 
#
# 1 30.8025 12.0847 14.8861 10.9217 -5.6379 3.3622
# 2 12.0847 234.2445 82.8018 4.4722 16.1884 -4.0023
# 3 14.8861 82.8018 201.5791 7.9952 -0.3053 -0.8302
# 4 10.9217 4.4722 7.9952 63.3731 2.4903 0.1185
# 5 -5.6379 16.1884 -0.3053 2.4903 34.2093 1.3507
# 6 3.3622 -4.0023 -0.8302 0.1185 1.3507 24.6485
#
#
#
# Elastic Compliance Matrix: (Units=1/GPa)
#
#
# Indices 1 2 3 4 5 6 
#
# 1 0.038523 -0.001866 -0.001830 -0.006577 0.007932 -0.006022
# 2 -0.001866 0.005307 -0.002054 0.000318 -0.002908 0.001205
# 3 -0.001830 -0.002054 0.005954 -0.000320 0.000744 0.000077
# 4 -0.006577 0.000318 -0.000320 0.017028 -0.002516 0.000994
# 5 0.007932 -0.002908 0.000744 -0.002516 0.032235 -0.003283
# 6 -0.006022 0.001205 0.000077 0.000994 -0.003283 0.041765
#
#
# Mechanical properties :
#
#
# Convention : Reuss Voigt Hill
#
# Bulk Modulus (GPa) = 26.12145 76.24125 51.18135
# Shear Modulus (GPa) = 30.28965 48.23641 39.26303
#
# Velocity S-wave (km/s) = 3.38748 4.27482 3.85675
# Velocity P-wave (km/s) = 5.01956 7.29718 6.26278
#
# Compressibility (1/GPa) = 0.03828271
#
# Stress axis : x y z
#
# Youngs Moduli (GPa) = 25.95879 188.43422 167.95674
#
# Poissons Ratio (x) = 0.35160 0.30741
# Poissons Ratio (y) = 0.04844 0.34501
# Poissons Ratio (z) = 0.04751 0.38707
#
# Static dielectric constant tensor:
#      x y z
#    x 1.305190 0.470790 1.625060 
#    y 0.470790 5.670630 0.104770 
#    z 1.625060 0.104770 3.841400 
# 
# 
# High freq. dielectric constant tensor:
#      x y z
#    x 2.067900 0.004880 -0.006100 
#    y 0.004880 2.081950 0.011290 
#    z -0.006100 0.011290 2.074940 
# 
# From -- ./inp_files/55394.got.cif
#   From: 2010.06.25/outbox.cif.g09.slc.cpg/sg2_28_cif.got.tgz:55394.got - 2010.06.27 13:26:56.
