data_PCOD8007459
_publ_section_title
;
Structure prediction by ZEFSAII (Michael W. Deem and Ramdas Pophale) SiO2 
 PCOD8007459
Probable space group: P -1
;
_chemical_formula_sum "Si O2"
_cell_formula_units_Z 16
_cell_length_a 9.994155
_cell_length_b 12.409080
_cell_length_c 22.101085
_cell_angle_alpha 36.256828
_cell_angle_beta 152.383911
_cell_angle_gamma 134.711815
_cell_volume 750.807986
_symmetry_space_group_name_H-M "P -1"
_symmetry_group_IT_number 2
_symmetry_cell_setting 'triclinic'
loop_
_space_group_symop_operation_xyz
x,y,z
-x,-y,-z
loop_
_atom_site_type_symbol
_atom_site_label
_atom_site_fract_x
_atom_site_fract_y
_atom_site_fract_z
Si Si1 0.988260 0.289577 0.074361
Si Si2 0.900037 0.752147 0.222745
Si Si3 0.562572 0.763053 0.203267
Si Si4 0.632411 0.555301 0.444705
Si Si5 0.620278 0.297538 0.154552
Si Si6 0.657786 0.947260 0.757511
Si Si7 0.351266 0.848928 0.895497
Si Si8 0.237002 0.269473 0.464051
O O1 0.923094 0.180123 0.158701
O O2 0.289644 0.197809 0.211100
O O3 0.744585 0.268719 0.935270
O O4 0.000000 0.500000 0.000000
O O5 0.810256 0.777832 0.245268
O O6 0.088756 0.570467 0.372208
O O7 0.619774 0.719664 0.084365
O O8 0.065364 0.927098 0.185738
O O9 0.638229 0.608054 0.352880
O O10 0.545135 0.947183 0.151155
O O11 0.346039 0.443668 0.392047
O O12 0.654402 0.721629 0.426273
O O13 0.367663 0.178604 0.135873
O O14 0.736903 0.201853 0.183903
O O15 0.890682 0.284439 0.314790
O O16 0.500000 0.500000 0.000000
O O17 0.369542 0.079362 0.574689
#
# Coordination Sequence:
#
# PCOD8007459 Si02
#       8
#     2   2   2   2   2   2   2   2
#     4  11  23  41  66  95 132 169 215 270 328 374
#     4  10  20  41  63  96 129 166 216 258 327 382
#     4  11  21  40  67  97 125 167 223 263 314 393
#     4  10  22  39  68  91 129 171 213 267 318 387
#     4  12  26  40  66  97 131 169 222 269 322 382
#     4  11  22  43  65  88 132 175 208 269 325 383
#     4  11  22  41  66  95 129 170 212 270 315 387
#     4  10  24  44  60  94 133 171 214 266 329 384
#
# _framework density 21.310376000000002
#
# number of rings (size 3 to 8) (size 9 to 14) (size 15 to 20)
#    0.000    1.250    2.500    3.750    3.500    1.500 
#    0.000    1.875    0.000    0.000    0.000    0.000 
#    0.000    0.000    0.000    0.000    0.000    0.000 
#
# Total GULP energy -198374.640710 kJ/mol
# GULP energy per Si atom -12398.415044 kJ/mol
# Density = 2.126187 g / cm^3
# Si number density = 21.310376 Si / 1000 Ang^3
#
#
#
# Elastic Constant Matrix: (Units=GPa)
#
#
# Indices 1 2 3 4 5 6 
#
# 1 137.9565 44.1759 43.8342 -5.2928 -9.2432 8.7197
# 2 44.1759 103.8591 33.5675 -19.3661 -1.9145 -7.3313
# 3 43.8342 33.5675 62.5831 -14.5283 9.8398 4.2992
# 4 -5.2928 -19.3661 -14.5283 26.7204 -4.7536 3.1742
# 5 -9.2432 -1.9145 9.8398 -4.7536 38.3905 -11.0725
# 6 8.7197 -7.3313 4.2992 3.1742 -11.0725 36.3128
#
#
#
# Elastic Compliance Matrix: (Units=1/GPa)
#
#
# Indices 1 2 3 4 5 6 
#
# 1 0.010583 -0.002753 -0.007148 -0.003038 0.003612 -0.000884
# 2 -0.002753 0.014063 -0.004816 0.007107 0.003451 0.004502
# 3 -0.007148 -0.004816 0.027655 0.009146 -0.009733 -0.006297
# 4 -0.003038 0.007107 0.009146 0.047670 0.002512 -0.002319
# 5 0.003612 0.003451 -0.009733 0.002512 0.033019 0.010830
# 6 -0.000884 0.004502 -0.006297 -0.002319 0.010830 0.032910
#
#
# Mechanical properties :
#
#
# Convention : Reuss Voigt Hill
#
# Bulk Modulus (GPa) = 43.73454 60.83932 52.28693
# Shear Modulus (GPa) = 24.63579 32.47281 28.55430
#
# Velocity S-wave (km/s) = 3.40376 3.90783 3.66447
# Velocity P-wave (km/s) = 6.00122 6.99804 6.51871
#
# Compressibility (1/GPa) = 0.02286522
#
# Stress axis : x y z
#
# Youngs Moduli (GPa) = 94.49249 71.10906 36.16012
#
# Poissons Ratio (x) = 0.19580 0.25847
# Poissons Ratio (y) = 0.26018 0.17415
# Poissons Ratio (z) = 0.67543 0.34248
#
# Static dielectric constant tensor:
#      x y z
#    x 4.065350 0.001820 0.155000 
#    y 0.001820 3.937250 -0.193020 
#    z 0.155000 -0.193020 3.706280 
# 
# 
# High freq. dielectric constant tensor:
#      x y z
#    x 1.848410 0.004790 0.011690 
#    y 0.004790 1.836980 -0.017810 
#    z 0.011690 -0.017810 1.820770 
# 
# From -- ./inp_files/222772.got.cif
#   From: 2010.06.25/outbox.cif.g09.slc.cpg/sg2_112_cif.got.tgz:222772.got - 2010.06.27 13:26:56.
