data_PCOD8007512
_publ_section_title
;
Structure prediction by ZEFSAII (Michael W. Deem and Ramdas Pophale) SiO2 
 PCOD8007512
Probable space group: P -1
;
_chemical_formula_sum "Si O2"
_cell_formula_units_Z 16
_cell_length_a 7.737846
_cell_length_b 18.379175
_cell_length_c 13.587935
_cell_angle_alpha 157.560182
_cell_angle_beta 98.012784
_cell_angle_gamma 90.924217
_cell_volume 674.567791
_symmetry_space_group_name_H-M "P -1"
_symmetry_group_IT_number 2
_symmetry_cell_setting 'triclinic'
loop_
_space_group_symop_operation_xyz
x,y,z
-x,-y,-z
loop_
_atom_site_type_symbol
_atom_site_label
_atom_site_fract_x
_atom_site_fract_y
_atom_site_fract_z
Si Si1 0.801301 0.232482 0.959745
Si Si2 0.474185 0.360687 0.107608
Si Si3 0.747235 0.760453 0.693901
Si Si4 0.763843 0.518090 0.022561
Si Si5 0.157288 0.784064 0.709523
Si Si6 0.430098 0.205118 0.690427
Si Si7 0.819184 0.634821 0.753743
Si Si8 0.073134 0.565167 0.246988
O O1 0.683019 0.033684 0.636961
O O2 0.644424 0.295910 0.082186
O O3 0.954561 0.219046 0.035521
O O4 0.931779 0.399305 0.101557
O O5 0.572300 0.610472 0.427586
O O6 0.288245 0.303250 0.087915
O O7 0.417650 0.252936 0.863369
O O8 0.730418 0.687630 0.715161
O O9 0.938588 0.751256 0.657158
O O10 0.725054 0.980697 0.954720
O O11 0.661614 0.671893 0.231617
O O12 0.965773 0.625426 0.225075
O O13 0.648083 0.290866 0.777099
O O14 0.782882 0.512448 0.897646
O O15 0.205578 0.608269 0.552718
O O16 0.194248 0.762428 0.568903
#
# Coordination Sequence:
#
# PCOD8007512 Si02
#       8
#     2   2   2   2   2   2   2   2
#     4  11  24  44  69  95 134 180 213 277 339 398
#     4  12  24  44  68  95 138 173 218 282 326 398
#     4  11  23  44  70  97 132 178 226 275 333 398
#     4  10  22  37  64  96 132 171 220 269 327 406
#     4  10  22  42  70  96 131 179 219 278 339 389
#     4  11  23  42  63  98 133 175 217 268 341 396
#     4  11  25  44  71 101 132 175 227 276 333 402
#     4  10  20  41  64  93 135 168 216 280 328 394
#
# _framework density 23.718892
#
# number of rings (size 3 to 8) (size 9 to 14) (size 15 to 20)
#    0.000    1.250    3.750    2.625    1.750    3.500 
#    2.250    0.000    0.000    0.000    0.000    0.000 
#    0.000    0.000    0.000    0.000    0.000    0.000 
#
# Total GULP energy -198210.877512 kJ/mol
# GULP energy per Si atom -12388.179844 kJ/mol
# Density = 2.366491 g / cm^3
# Si number density = 23.718892 Si / 1000 Ang^3
#
#
#
# Elastic Constant Matrix: (Units=GPa)
#
#
# Indices 1 2 3 4 5 6 
#
# 1 96.4297 -3.4275 27.5183 10.6059 -15.1979 10.0701
# 2 -3.4275 44.9401 16.2207 4.0572 -17.3047 3.3864
# 3 27.5183 16.2207 137.0451 -6.9858 2.5932 -1.8740
# 4 10.6059 4.0572 -6.9858 18.0378 -1.4314 -3.6147
# 5 -15.1979 -17.3047 2.5932 -1.4314 26.4092 -6.8151
# 6 10.0701 3.3864 -1.8740 -3.6147 -6.8151 23.0799
#
#
#
# Elastic Compliance Matrix: (Units=1/GPa)
#
#
# Indices 1 2 3 4 5 6 
#
# 1 0.017375 0.011309 -0.006005 -0.015415 0.015187 -0.007657
# 2 0.011309 0.040323 -0.008603 -0.017548 0.031538 -0.004985
# 3 -0.006005 -0.008603 0.010217 0.009467 -0.008643 0.003642
# 4 -0.015415 -0.017548 0.009467 0.074736 -0.012588 0.018057
# 5 0.015187 0.031538 -0.008643 -0.012588 0.069110 0.006480
# 6 -0.007657 -0.004985 0.003642 0.018057 0.006480 0.052437
#
#
# Mechanical properties :
#
#
# Convention : Reuss Voigt Hill
#
# Bulk Modulus (GPa) = 16.30859 39.89308 28.10084
# Shear Modulus (GPa) = 17.16831 29.37893 23.27362
#
# Velocity S-wave (km/s) = 2.69332 3.52324 3.13585
# Velocity P-wave (km/s) = 4.06972 5.77984 4.99846
#
# Compressibility (1/GPa) = 0.06131737
#
# Stress axis : x y z
#
# Youngs Moduli (GPa) = 57.55511 24.79945 97.87707
#
# Poissons Ratio (x) = -0.28047 0.58777
# Poissons Ratio (y) = -0.65092 0.84204
# Poissons Ratio (z) = 0.34563 0.21335
#
# Static dielectric constant tensor:
#      x y z
#    x 4.719530 0.002470 -0.041140 
#    y 0.002470 4.144590 -0.173490 
#    z -0.041140 -0.173490 4.565090 
# 
# 
# High freq. dielectric constant tensor:
#      x y z
#    x 1.953410 0.000820 -0.005930 
#    y 0.000820 1.923160 -0.019210 
#    z -0.005930 -0.019210 1.934160 
# 
# From -- ./inp_files/470051.got.cif
#   From: 2010.06.25/outbox.cif.g09.slc.cpg/sg2_236_cif.got.tgz:470051.got - 2010.06.27 13:26:56.
