data_PCOD8007442
_publ_section_title
;
Structure prediction by ZEFSAII (Michael W. Deem and Ramdas Pophale) SiO2 
 PCOD8007442
Probable space group: P -1
;
_chemical_formula_sum "Si O2"
_cell_formula_units_Z 16
_cell_length_a 8.746490
_cell_length_b 12.773747
_cell_length_c 13.517855
_cell_angle_alpha 54.577948
_cell_angle_beta 45.273840
_cell_angle_gamma 47.218517
_cell_volume 772.446599
_symmetry_space_group_name_H-M "P -1"
_symmetry_group_IT_number 2
_symmetry_cell_setting 'triclinic'
loop_
_space_group_symop_operation_xyz
x,y,z
-x,-y,-z
loop_
_atom_site_type_symbol
_atom_site_label
_atom_site_fract_x
_atom_site_fract_y
_atom_site_fract_z
Si Si1 0.922744 0.843157 0.850030
Si Si2 0.576708 0.743931 0.994474
Si Si3 0.964318 0.053238 0.875837
Si Si4 0.319933 0.538492 0.796985
Si Si5 0.570296 0.919261 0.409088
Si Si6 0.243812 0.416818 0.493707
Si Si7 0.183278 0.148373 0.318802
Si Si8 0.219154 0.555055 0.618951
O O1 0.908825 0.903331 0.709745
O O2 0.168350 0.693357 0.831863
O O3 0.946311 0.941375 0.869247
O O4 0.683657 0.817520 0.986280
O O5 0.289609 0.803660 0.098869
O O6 0.682815 0.574638 0.060996
O O7 0.656595 0.772000 0.833695
O O8 0.177880 0.090975 0.734505
O O9 0.000000 0.000000 0.000000
O O10 0.585615 0.515044 0.658663
O O11 0.182030 0.527535 0.765901
O O12 0.610079 0.756456 0.491614
O O13 0.500000 0.000000 0.500000
O O14 0.349158 0.007713 0.385467
O O15 0.154822 0.458656 0.625377
O O16 0.000000 0.500000 0.500000
O O17 0.951626 0.270344 0.418561
O O18 0.500000 0.500000 0.500000
#
# Coordination Sequence:
#
# PCOD8007442 Si02
#       8
#     2   2   2   2   2   2   2   2
#     4   9  21  38  64  92 126 162 212 265 315 379
#     4  10  21  39  66  92 126 159 210 265 318 376
#     4  12  23  42  61  95 131 167 213 259 317 379
#     4  10  20  41  63  92 120 165 211 260 322 373
#     4  12  25  43  67  91 135 175 209 265 317 382
#     4  11  23  40  61  92 128 169 213 257 317 383
#     4   9  21  41  63  95 126 164 214 264 326 373
#     4   9  20  38  63  89 124 163 212 266 311 382
#
# _framework density 20.713405999999999
#
# number of rings (size 3 to 8) (size 9 to 14) (size 15 to 20)
#    0.750    1.000    1.250    3.000    0.000    3.000 
#    0.000   10.625    0.000    0.000    0.000    0.000 
#    0.000    0.000    0.000    0.000    0.000    0.000 
#
# Total GULP energy -198234.827208 kJ/mol
# GULP energy per Si atom -12389.676701 kJ/mol
# Density = 2.066626 g / cm^3
# Si number density = 20.713406 Si / 1000 Ang^3
#
#
#
# Elastic Constant Matrix: (Units=GPa)
#
#
# Indices 1 2 3 4 5 6 
#
# 1 109.9229 61.7438 13.5643 3.3590 13.5106 -2.3240
# 2 61.7438 114.7517 19.4247 -1.1795 19.7477 -18.3487
# 3 13.5643 19.4247 52.9467 -0.7819 4.6377 1.0706
# 4 3.3590 -1.1795 -0.7819 34.7909 -5.5621 -0.6145
# 5 13.5106 19.7477 4.6377 -5.5621 34.8864 4.7714
# 6 -2.3240 -18.3487 1.0706 -0.6145 4.7714 38.9321
#
#
#
# Elastic Compliance Matrix: (Units=1/GPa)
#
#
# Indices 1 2 3 4 5 6 
#
# 1 0.013441 -0.007414 -0.000622 -0.001745 -0.000849 -0.002598
# 2 -0.007414 0.015674 -0.003430 0.000257 -0.006578 0.007849
# 3 -0.000622 -0.003430 0.020369 0.000335 -0.000173 -0.002187
# 4 -0.001745 0.000257 0.000335 0.029765 0.005254 -0.000166
# 5 -0.000849 -0.006578 -0.000173 0.005254 0.034575 -0.007300
# 6 -0.002598 0.007849 -0.002187 -0.000166 -0.007300 0.030182
#
#
# Mechanical properties :
#
#
# Convention : Reuss Voigt Hill
#
# Bulk Modulus (GPa) = 37.66235 51.89853 44.78044
# Shear Modulus (GPa) = 28.44298 33.91444 31.17871
#
# Velocity S-wave (km/s) = 3.70965 4.05077 3.88396
# Velocity P-wave (km/s) = 6.04737 6.85480 6.46370
#
# Compressibility (1/GPa) = 0.02655171
#
# Stress axis : x y z
#
# Youngs Moduli (GPa) = 74.39688 63.79946 49.09437
#
# Poissons Ratio (x) = 0.47303 0.03055
# Poissons Ratio (y) = 0.55161 0.16838
# Poissons Ratio (z) = 0.04630 0.21881
#
# Static dielectric constant tensor:
#      x y z
#    x 3.635570 -0.485580 -0.072280 
#    y -0.485580 3.431690 0.269590 
#    z -0.072280 0.269590 3.844810 
# 
# 
# High freq. dielectric constant tensor:
#      x y z
#    x 1.816930 -0.018030 -0.003230 
#    y -0.018030 1.811770 0.016360 
#    z -0.003230 0.016360 1.798020 
# 
# From -- ./inp_files/498925.got.cif
#   From: 2010.06.25/outbox.cif.g09.slc.cpg/sg2_250_cif.got.tgz:498925.got - 2010.06.27 13:26:56.
