data_PCOD8007156
_publ_section_title
;
Structure prediction by ZEFSAII (Michael W. Deem and Ramdas Pophale) SiO2 
 PCOD8007156
Probable space group: P -1
;
_chemical_formula_sum "Si O2"
_cell_formula_units_Z 14
_cell_length_a 16.667423
_cell_length_b 23.359686
_cell_length_c 11.974098
_cell_angle_alpha 28.589899
_cell_angle_beta 142.394940
_cell_angle_gamma 162.470943
_cell_volume 638.265835
_symmetry_space_group_name_H-M "P -1"
_symmetry_group_IT_number 2
_symmetry_cell_setting 'triclinic'
loop_
_space_group_symop_operation_xyz
x,y,z
-x,-y,-z
loop_
_atom_site_type_symbol
_atom_site_label
_atom_site_fract_x
_atom_site_fract_y
_atom_site_fract_z
Si Si1 0.524258 0.829830 0.608146
Si Si2 0.571738 0.694368 0.259964
Si Si3 0.343597 0.552012 0.492477
Si Si4 0.202765 0.774933 0.617393
Si Si5 0.849847 0.851833 0.971590
Si Si6 0.417115 0.059853 0.752639
Si Si7 0.831867 0.502144 0.009717
O O1 0.410389 0.773672 0.455911
O O2 0.260337 0.617068 0.764712
O O3 0.752239 0.114981 0.407148
O O4 0.672097 0.819758 0.785592
O O5 0.500000 0.500000 0.500000
O O6 0.449979 0.649708 0.315910
O O7 0.433552 0.647423 0.081596
O O8 0.906591 0.982785 0.132584
O O9 0.361397 0.430530 0.765364
O O10 0.538398 0.795940 0.360806
O O11 0.018387 0.329731 0.522623
O O12 0.081657 0.542856 0.895087
O O13 0.500000 0.000000 0.500000
O O14 0.000000 0.000000 0.000000
O O15 0.500000 0.000000 0.000000
O O16 0.091803 0.799690 0.802615
#
# Coordination Sequence:
#
# PCOD8007156 Si02
#       7
#     2   2   2   2   2   2   2
#     4  11  24  44  71  98 135 174 229 283 334 400
#     4  12  23  41  75 103 131 173 229 288 334 392
#     4  12  25  43  66 102 139 177 223 274 342 405
#     4  10  20  40  68 100 124 170 230 280 329 384
#     4  12  21  44  73 102 131 170 225 288 339 387
#     4  12  28  45  62  96 146 185 218 270 339 413
#     4  11  23  42  68  99 134 176 227 279 338 394
#
# _framework density 21.934435000000001
#
# number of rings (size 3 to 8) (size 9 to 14) (size 15 to 20)
#    0.000    0.571    5.714    2.571    2.000    3.429 
#    0.000    5.000    0.000    0.000    0.000    0.000 
#    0.000    0.000    0.000    0.000    0.000    0.000 
#
# Total GULP energy -173618.034496 kJ/mol
# GULP energy per Si atom -12401.288178 kJ/mol
# Density = 2.188451 g / cm^3
# Si number density = 21.934435 Si / 1000 Ang^3
#
#
#
# Elastic Constant Matrix: (Units=GPa)
#
#
# Indices 1 2 3 4 5 6 
#
# 1 114.9916 43.8645 58.2842 -1.2327 6.9031 -14.0035
# 2 43.8645 62.6291 25.0500 -1.5322 9.7370 -3.9591
# 3 58.2842 25.0500 122.4904 5.6430 13.7163 -15.9808
# 4 -1.2327 -1.5322 5.6430 46.3448 -4.2716 4.0086
# 5 6.9031 9.7370 13.7163 -4.2716 45.6246 -3.3139
# 6 -14.0035 -3.9591 -15.9808 4.0086 -3.3139 37.6303
#
#
#
# Elastic Compliance Matrix: (Units=1/GPa)
#
#
# Indices 1 2 3 4 5 6 
#
# 1 0.014688 -0.008259 -0.005159 0.000656 0.001331 0.002453
# 2 -0.008259 0.022396 -0.000443 0.000364 -0.003453 -0.001248
# 3 -0.005159 -0.000443 0.011466 -0.002034 -0.002552 0.002895
# 4 0.000656 0.000364 -0.002034 0.022307 0.002323 -0.002753
# 5 0.001331 -0.003453 -0.002552 0.002323 0.023502 0.000870
# 6 0.002453 -0.001248 0.002895 -0.002753 0.000870 0.028955
#
#
# Mechanical properties :
#
#
# Convention : Reuss Voigt Hill
#
# Bulk Modulus (GPa) = 48.01380 61.61207 54.81293
# Shear Modulus (GPa) = 31.64992 37.44742 34.54867
#
# Velocity S-wave (km/s) = 3.80272 4.13636 3.97304
# Velocity P-wave (km/s) = 6.42013 7.13883 6.78900
#
# Compressibility (1/GPa) = 0.02082735
#
# Stress axis : x y z
#
# Youngs Moduli (GPa) = 68.08485 44.65124 87.21120
#
# Poissons Ratio (x) = 0.36879 0.44991
# Poissons Ratio (y) = 0.56233 0.03864
# Poissons Ratio (z) = 0.35124 0.01978
#
# Static dielectric constant tensor:
#      x y z
#    x 4.221140 0.085510 0.230420 
#    y 0.085510 3.843210 0.075300 
#    z 0.230420 0.075300 4.645920 
# 
# 
# High freq. dielectric constant tensor:
#      x y z
#    x 1.866760 0.008960 0.005610 
#    y 0.008960 1.841390 -0.000660 
#    z 0.005610 -0.000660 1.879090 
# 
# From -- ./inp_files/187729.got.cif
#   From: 2010.06.25/outbox.cif.g09.slc.cpg/sg2_94_cif.got.tgz:187729.got - 2010.06.27 13:26:56.
