data_PCOD8007664
_publ_section_title
;
Structure prediction by ZEFSAII (Michael W. Deem and Ramdas Pophale) SiO2 
 PCOD8007664
Probable space group: P -1
;
_chemical_formula_sum "Si O2"
_cell_formula_units_Z 16
_cell_length_a 8.150061
_cell_length_b 24.119200
_cell_length_c 8.566149
_cell_angle_alpha 27.569328
_cell_angle_beta 121.143972
_cell_angle_gamma 121.551552
_cell_volume 658.021997
_symmetry_space_group_name_H-M "P -1"
_symmetry_group_IT_number 2
_symmetry_cell_setting 'triclinic'
loop_
_space_group_symop_operation_xyz
x,y,z
-x,-y,-z
loop_
_atom_site_type_symbol
_atom_site_label
_atom_site_fract_x
_atom_site_fract_y
_atom_site_fract_z
Si Si1 0.388651 0.367502 0.750521
Si Si2 0.004496 0.330318 0.052207
Si Si3 0.330531 0.202852 0.432453
Si Si4 0.756582 0.194269 0.743605
Si Si5 0.706617 0.018839 0.411325
Si Si6 0.021247 0.592892 0.509734
Si Si7 0.602705 0.186838 0.189671
Si Si8 0.039427 0.970155 0.914144
O O1 0.500000 0.500000 0.500000
O O2 0.170380 0.376616 0.576304
O O3 0.400410 0.285454 0.112893
O O4 0.498059 0.305695 0.821668
O O5 0.964203 0.361515 0.774497
O O6 0.024714 0.449057 0.875592
O O7 0.818706 0.229594 0.261366
O O8 0.204955 0.277337 0.299394
O O9 0.524203 0.170323 0.685844
O O10 0.189973 0.077675 0.637691
O O11 0.813350 0.333104 0.483735
O O12 0.828354 0.095990 0.142930
O O13 0.868874 0.156494 0.737691
O O14 0.604411 0.122173 0.186158
O O15 0.838384 0.958799 0.748188
O O16 0.537756 0.913209 0.522481
O O17 0.000000 0.000000 0.000000
#
# Coordination Sequence:
#
# PCOD8007664 Si02
#       8
#     2   2   2   2   2   2   2   2
#     4  11  22  41  70  98 132 185 232 280 344 409
#     4  10  20  41  66  95 135 180 230 270 339 407
#     4  11  26  41  66 102 141 184 227 287 345 411
#     4  12  25  45  69 103 143 177 230 288 349 405
#     4  11  24  41  72 103 136 180 225 290 345 408
#     4  10  21  41  67  96 131 181 225 283 334 405
#     4  11  21  38  70 100 133 175 239 275 337 415
#     4  12  27  45  72 104 140 184 227 283 352 418
#
# _framework density 24.315294000000002
#
# number of rings (size 3 to 8) (size 9 to 14) (size 15 to 20)
#    0.000    1.000    3.750    3.000    5.250    0.500 
#    0.000    0.625    0.000    0.000    0.000    0.000 
#    0.000    0.000    0.000    0.000    0.000    0.000 
#
# Total GULP energy -198289.661447 kJ/mol
# GULP energy per Si atom -12393.103840 kJ/mol
# Density = 2.425995 g / cm^3
# Si number density = 24.315294 Si / 1000 Ang^3
#
#
#
# Elastic Constant Matrix: (Units=GPa)
#
#
# Indices 1 2 3 4 5 6 
#
# 1 123.6722 60.7377 34.6910 -13.7569 36.4621 11.7360
# 2 60.7377 125.7709 57.7939 -41.2853 12.9786 11.8486
# 3 34.6910 57.7939 78.7003 -24.2414 18.8960 0.4546
# 4 -13.7569 -41.2853 -24.2414 50.6202 -1.2787 6.7262
# 5 36.4621 12.9786 18.8960 -1.2787 57.1263 -14.1665
# 6 11.7360 11.8486 0.4546 6.7262 -14.1665 38.2765
#
#
#
# Elastic Compliance Matrix: (Units=1/GPa)
#
#
# Indices 1 2 3 4 5 6 
#
# 1 0.013939 -0.005105 -0.000096 0.000161 -0.009223 -0.006134
# 2 -0.005105 0.017743 -0.007820 0.010066 0.000715 -0.005338
# 3 -0.000096 -0.007820 0.020758 0.003445 -0.005015 -0.000258
# 4 0.000161 0.010066 0.003445 0.030938 -0.005483 -0.010672
# 5 -0.009223 0.000715 -0.005015 -0.005483 0.028259 0.014089
# 6 -0.006134 -0.005338 -0.000258 -0.010672 0.014089 0.036752
#
#
# Mechanical properties :
#
#
# Convention : Reuss Voigt Hill
#
# Bulk Modulus (GPa) = 37.88093 70.50983 54.19538
# Shear Modulus (GPa) = 27.28813 40.86598 34.07705
#
# Velocity S-wave (km/s) = 3.35365 4.10404 3.74768
# Velocity P-wave (km/s) = 5.53253 7.17765 6.40810
#
# Compressibility (1/GPa) = 0.02639850
#
# Stress axis : x y z
#
# Youngs Moduli (GPa) = 71.74000 56.36015 48.17470
#
# Poissons Ratio (x) = 0.28772 0.00463
# Poissons Ratio (y) = 0.36623 0.37671
# Poissons Ratio (z) = 0.00689 0.44072
#
# Static dielectric constant tensor:
#      x y z
#    x 2.735030 -0.062040 0.118660 
#    y -0.062040 4.176950 -0.462570 
#    z 0.118660 -0.462570 4.262020 
# 
# 
# High freq. dielectric constant tensor:
#      x y z
#    x 1.989830 0.000780 0.015020 
#    y 0.000780 1.953340 -0.034000 
#    z 0.015020 -0.034000 1.949500 
# 
# From -- ./inp_files/225887.got.cif
#   From: 2010.06.25/outbox.cif.g09.slc.cpg/sg2_113_cif.got.tgz:225887.got - 2010.06.27 13:26:56.
