data_PCOD8007344
_publ_section_title
;
Structure prediction by ZEFSAII (Michael W. Deem and Ramdas Pophale) SiO2 
 PCOD8007344
Probable space group: P -1
;
_chemical_formula_sum "Si O2"
_cell_formula_units_Z 16
_cell_length_a 21.171797
_cell_length_b 8.110695
_cell_length_c 23.363364
_cell_angle_alpha 146.273314
_cell_angle_beta 161.433984
_cell_angle_gamma 39.854940
_cell_volume 704.343315
_symmetry_space_group_name_H-M "P -1"
_symmetry_group_IT_number 2
_symmetry_cell_setting 'triclinic'
loop_
_space_group_symop_operation_xyz
x,y,z
-x,-y,-z
loop_
_atom_site_type_symbol
_atom_site_label
_atom_site_fract_x
_atom_site_fract_y
_atom_site_fract_z
Si Si1 0.732401 0.973131 0.137947
Si Si2 0.776140 0.861926 0.773895
Si Si3 0.828253 0.655785 0.641070
Si Si4 0.159408 0.990192 0.523246
Si Si5 0.866647 0.756475 0.941498
Si Si6 0.641256 0.730429 0.112761
Si Si7 0.546612 0.087991 0.809466
Si Si8 0.536387 0.343540 0.750389
O O1 0.962065 0.109992 0.360832
O O2 0.593406 0.220562 0.068731
O O3 0.721673 0.924105 0.183050
O O4 0.663436 0.667189 0.956442
O O5 0.714058 0.669968 0.608428
O O6 0.760611 0.666626 0.763133
O O7 0.644597 0.134153 0.741011
O O8 0.000000 0.000000 0.000000
O O9 0.930216 0.351948 0.638010
O O10 0.677651 0.629126 0.451594
O O11 0.997458 0.930017 0.857863
O O12 0.339266 0.975578 0.629270
O O13 0.231874 0.164385 0.692645
O O14 0.692320 0.820757 0.855499
O O15 0.000000 0.500000 0.000000
O O16 0.656958 0.377446 0.020230
O O17 0.497329 0.188205 0.732735
#
# Coordination Sequence:
#
# PCOD8007344 Si02
#       8
#     2   2   2   2   2   2   2   2
#     4  10  21  39  68  94 132 171 223 268 318 393
#     4   9  19  36  62  88 123 161 219 267 314 382
#     4  11  22  39  65  95 121 173 222 263 326 386
#     4  12  23  40  67 102 131 175 218 269 329 387
#     4  10  23  45  66  94 132 174 216 272 334 389
#     4  10  21  43  65  96 134 173 217 270 327 386
#     4  10  24  43  62  94 138 167 216 274 330 393
#     4  10  20  41  60  92 129 171 215 270 325 390
#
# _framework density 22.716194000000002
#
# number of rings (size 3 to 8) (size 9 to 14) (size 15 to 20)
#    0.000    1.750    1.250    4.125    0.000    4.500 
#    4.500    2.500    0.000    0.000    0.000    2.625 
#    0.000    0.000    0.000    0.000    0.000    0.000 
#
# Total GULP energy -198334.952181 kJ/mol
# GULP energy per Si atom -12395.934511 kJ/mol
# Density = 2.266449 g / cm^3
# Si number density = 22.716194 Si / 1000 Ang^3
#
#
#
# Elastic Constant Matrix: (Units=GPa)
#
#
# Indices 1 2 3 4 5 6 
#
# 1 61.3605 19.2804 39.3979 -0.6852 -13.7307 -15.8917
# 2 19.2804 97.2573 16.8319 -7.1759 -7.3022 -13.2275
# 3 39.3979 16.8319 94.1262 -15.7950 -8.8792 -7.1270
# 4 -0.6852 -7.1759 -15.7950 33.3790 -2.4151 3.9024
# 5 -13.7307 -7.3022 -8.8792 -2.4151 36.1310 -0.0702
# 6 -15.8917 -13.2275 -7.1270 3.9024 -0.0702 25.0186
#
#
#
# Elastic Compliance Matrix: (Units=1/GPa)
#
#
# Indices 1 2 3 4 5 6 
#
# 1 0.029918 -0.001688 -0.011353 -0.006413 0.007841 0.015899
# 2 -0.001688 0.011601 -0.000560 0.001776 0.001693 0.004630
# 3 -0.011353 -0.000560 0.016518 0.007947 0.000155 -0.004041
# 4 -0.006413 0.001776 0.007947 0.034865 0.002193 -0.006303
# 5 0.007841 0.001693 0.000155 0.002193 0.031195 0.005665
# 6 0.015899 0.004630 -0.004041 -0.006303 0.005665 0.052365
#
#
# Mechanical properties :
#
#
# Convention : Reuss Voigt Hill
#
# Bulk Modulus (GPa) = 32.43038 44.86271 38.64654
# Shear Modulus (GPa) = 23.37074 30.72131 27.04603
#
# Velocity S-wave (km/s) = 3.21099 3.68148 3.45426
# Velocity P-wave (km/s) = 5.29666 6.15331 5.74098
#
# Compressibility (1/GPa) = 0.03083529
#
# Stress axis : x y z
#
# Youngs Moduli (GPa) = 33.42493 86.19681 60.53866
#
# Poissons Ratio (x) = 0.14551 0.68731
# Poissons Ratio (y) = 0.05643 0.03388
# Poissons Ratio (z) = 0.37948 0.04825
#
# Static dielectric constant tensor:
#      x y z
#    x 4.388300 -0.188500 -0.303800 
#    y -0.188500 4.212090 -0.098400 
#    z -0.303800 -0.098400 4.036810 
# 
# 
# High freq. dielectric constant tensor:
#      x y z
#    x 1.893220 -0.018900 -0.012980 
#    y -0.018900 1.900870 -0.007350 
#    z -0.012980 -0.007350 1.892960 
# 
# From -- ./inp_files/613644.got.cif
#   From: 2010.06.25/outbox.cif.g09.slc.cpg/sg2_307_cif.got.tgz:613644.got - 2010.06.27 13:26:56.
