data_PCOD8007162
_publ_section_title
;
Structure prediction by ZEFSAII (Michael W. Deem and Ramdas Pophale) SiO2 
 PCOD8007162
Probable space group: P -1
;
_chemical_formula_sum "Si O2"
_cell_formula_units_Z 16
_cell_length_a 14.088147
_cell_length_b 15.786302
_cell_length_c 5.583218
_cell_angle_alpha 96.478558
_cell_angle_beta 105.830438
_cell_angle_gamma 33.961783
_cell_volume 652.327187
_symmetry_space_group_name_H-M "P -1"
_symmetry_group_IT_number 2
_symmetry_cell_setting 'triclinic'
loop_
_space_group_symop_operation_xyz
x,y,z
-x,-y,-z
loop_
_atom_site_type_symbol
_atom_site_label
_atom_site_fract_x
_atom_site_fract_y
_atom_site_fract_z
Si Si1 0.937834 0.116570 0.807873
Si Si2 0.728721 0.409267 0.043279
Si Si3 0.069305 0.489913 0.293645
Si Si4 0.020472 0.297889 0.411966
Si Si5 0.453968 0.165769 0.362623
Si Si6 0.378384 0.638133 0.642180
Si Si7 0.687398 0.904328 0.814953
Si Si8 0.214246 0.027744 0.726287
O O1 0.783769 0.190241 0.542425
O O2 0.124150 0.008878 0.771337
O O3 0.844831 0.269200 0.891628
O O4 0.000000 0.000000 0.000000
O O5 0.718258 0.359545 0.255510
O O6 0.831931 0.422300 0.181099
O O7 0.528325 0.583868 0.876053
O O8 0.002752 0.635172 0.330650
O O9 0.000000 0.500000 0.500000
O O10 0.283275 0.342830 0.380689
O O11 0.000000 0.500000 0.000000
O O12 0.162208 0.241854 0.314395
O O13 0.091436 0.150429 0.462475
O O14 0.402846 0.118002 0.152776
O O15 0.544050 0.066988 0.635118
O O16 0.585173 0.133422 0.289893
O O17 0.500000 0.500000 0.500000
O O18 0.780319 0.894746 0.072340
#
# Coordination Sequence:
#
# PCOD8007162 Si02
#       8
#     2   2   2   2   2   2   2   2
#     4  11  23  41  71 103 143 190 248 320 380 445
#     4  10  20  41  71  99 137 188 245 299 370 462
#     4  12  27  46  72 109 155 198 249 312 383 449
#     4  11  22  40  73 103 136 199 248 302 363 464
#     4  10  23  40  67 101 143 186 234 305 369 445
#     4   9  20  41  67  98 135 178 239 300 372 442
#     4  10  20  40  68 101 139 185 237 294 365 443
#     4  11  22  40  70 102 137 188 251 297 372 458
#
# _framework density 24.527566
#
# number of rings (size 3 to 8) (size 9 to 14) (size 15 to 20)
#    0.000    1.500    3.750    1.125    1.750    0.500 
#    0.000    5.000    2.750    0.000    0.000    0.000 
#    0.000    0.000    0.000    0.000    0.000    0.000 
#
# Total GULP energy -198224.206608 kJ/mol
# GULP energy per Si atom -12389.012913 kJ/mol
# Density = 2.447174 g / cm^3
# Si number density = 24.527566 Si / 1000 Ang^3
#
#
#
# Elastic Constant Matrix: (Units=GPa)
#
#
# Indices 1 2 3 4 5 6 
#
# 1 107.2935 44.7510 29.2209 -24.5969 -6.6670 -33.4340
# 2 44.7510 132.3612 40.0198 -15.7538 -2.2040 -34.2801
# 3 29.2209 40.0198 108.0822 -23.1761 5.5944 -11.5577
# 4 -24.5969 -15.7538 -23.1761 46.9710 -3.1513 1.5362
# 5 -6.6670 -2.2040 5.5944 -3.1513 38.1846 0.2310
# 6 -33.4340 -34.2801 -11.5577 1.5362 0.2310 39.3077
#
#
#
# Elastic Compliance Matrix: (Units=1/GPa)
#
#
# Indices 1 2 3 4 5 6 
#
# 1 0.015531 -0.000939 -0.001262 0.007037 0.003352 0.011725
# 2 -0.000939 0.010928 -0.002638 0.001677 0.000944 0.007884
# 3 -0.001262 -0.002638 0.011507 0.004021 -0.001726 -0.000138
# 4 0.007037 0.001677 0.004021 0.027473 0.002958 0.007539
# 5 0.003352 0.000944 -0.001726 0.002958 0.027308 0.002891
# 6 0.011725 0.007884 -0.000138 0.007539 0.002891 0.041937
#
#
# Mechanical properties :
#
#
# Convention : Reuss Voigt Hill
#
# Bulk Modulus (GPa) = 35.35312 63.96891 49.66102
# Shear Modulus (GPa) = 32.51165 40.47566 36.49366
#
# Velocity S-wave (km/s) = 3.64471 4.06669 3.86147
# Velocity P-wave (km/s) = 5.67070 6.94173 6.33816
#
# Compressibility (1/GPa) = 0.02828604
#
# Stress axis : x y z
#
# Youngs Moduli (GPa) = 64.38808 91.51139 86.90309
#
# Poissons Ratio (x) = 0.08597 0.10966
# Poissons Ratio (y) = 0.06049 0.22929
# Poissons Ratio (z) = 0.08125 0.24145
#
# Static dielectric constant tensor:
#      x y z
#    x 4.181930 -0.366060 0.152390 
#    y -0.366060 4.592860 -0.236540 
#    z 0.152390 -0.236540 4.788930 
# 
# 
# High freq. dielectric constant tensor:
#      x y z
#    x 1.957020 -0.030330 0.001910 
#    y -0.030330 1.976730 -0.009960 
#    z 0.001910 -0.009960 1.982940 
# 
# From -- ./inp_files/99846.got.cif
#   From: 2010.06.25/outbox.cif.g09.slc.cpg/sg2_50_cif.got.tgz:99846.got - 2010.06.27 13:26:56.
