data_PCOD8007391
_publ_section_title
;
Structure prediction by ZEFSAII (Michael W. Deem and Ramdas Pophale) SiO2 
 PCOD8007391
Probable space group: P -1
;
_chemical_formula_sum "Si O2"
_cell_formula_units_Z 16
_cell_length_a 11.919294
_cell_length_b 8.890845
_cell_length_c 16.243487
_cell_angle_alpha 130.968522
_cell_angle_beta 134.622998
_cell_angle_gamma 35.882151
_cell_volume 702.486471
_symmetry_space_group_name_H-M "P -1"
_symmetry_group_IT_number 2
_symmetry_cell_setting 'triclinic'
loop_
_space_group_symop_operation_xyz
x,y,z
-x,-y,-z
loop_
_atom_site_type_symbol
_atom_site_label
_atom_site_fract_x
_atom_site_fract_y
_atom_site_fract_z
Si Si1 0.185845 0.890348 0.940577
Si Si2 0.075225 0.161265 0.585585
Si Si3 0.699047 0.415107 0.264683
Si Si4 0.766192 0.750900 0.989526
Si Si5 0.751378 0.165142 0.865041
Si Si6 0.657847 0.053620 0.199701
Si Si7 0.726019 0.840495 0.471868
Si Si8 0.755436 0.767446 0.642558
O O1 0.213131 0.683414 0.817834
O O2 0.293472 0.749261 0.031917
O O3 0.942479 0.139274 0.920758
O O4 0.293840 0.993303 0.994193
O O5 0.147297 0.134103 0.519188
O O6 0.885682 0.462723 0.617999
O O7 0.267052 0.051498 0.706539
O O8 0.000000 0.000000 0.500000
O O9 0.450078 0.617119 0.212028
O O10 0.760843 0.181533 0.272351
O O11 0.779137 0.561509 0.390094
O O12 0.594837 0.734502 0.861440
O O13 0.000000 0.500000 0.000000
O O14 0.741790 0.807699 0.095271
O O15 0.810115 0.883492 0.782625
O O16 0.801135 0.831342 0.599572
O O17 0.486016 0.092904 0.427140
#
# Coordination Sequence:
#
# PCOD8007391 Si02
#       8
#     2   2   2   2   2   2   2   2
#     4  10  21  35  58  94 119 163 210 253 320 369
#     4  12  26  42  66  98 134 170 215 272 330 394
#     4  10  20  41  62  88 124 165 206 264 311 375
#     4  10  22  40  62  87 133 176 207 261 321 383
#     4  10  21  36  61  92 122 156 214 264 306 377
#     4  10  24  40  61  96 128 168 219 256 322 392
#     4  10  23  43  70  93 125 169 221 271 325 382
#     4  10  23  43  66  95 125 171 219 269 324 381
#
# _framework density 22.776239
#
# number of rings (size 3 to 8) (size 9 to 14) (size 15 to 20)
#    0.000    1.750    0.000    3.000    5.250    2.500 
#    6.750    1.250    0.000    0.000    0.000    0.000 
#    0.000    0.000    0.000    0.000    0.000    0.000 
#
# Total GULP energy -198424.822575 kJ/mol
# GULP energy per Si atom -12401.551411 kJ/mol
# Density = 2.272440 g / cm^3
# Si number density = 22.776239 Si / 1000 Ang^3
#
#
#
# Elastic Constant Matrix: (Units=GPa)
#
#
# Indices 1 2 3 4 5 6 
#
# 1 95.3928 23.4768 28.4613 3.7154 -2.1628 -0.3687
# 2 23.4768 83.5852 22.3612 5.9402 -7.0203 -7.0798
# 3 28.4613 22.3612 88.8961 -2.5962 -7.6262 0.4321
# 4 3.7154 5.9402 -2.5962 24.7725 -6.2309 0.2428
# 5 -2.1628 -7.0203 -7.6262 -6.2309 26.9873 4.8453
# 6 -0.3687 -7.0798 0.4321 0.2428 4.8453 31.3353
#
#
#
# Elastic Compliance Matrix: (Units=1/GPa)
#
#
# Indices 1 2 3 4 5 6 
#
# 1 0.012157 -0.002474 -0.003411 -0.001843 -0.001023 -0.000196
# 2 -0.002474 0.013960 -0.002693 -0.002919 0.001467 0.002958
# 3 -0.003411 -0.002693 0.013466 0.003569 0.003919 -0.001468
# 4 -0.001843 -0.002919 0.003569 0.044478 0.010865 -0.002755
# 5 -0.001023 0.001467 0.003919 0.010865 0.042107 -0.006330
# 6 -0.000196 0.002958 -0.001468 -0.002755 -0.006330 0.033599
#
#
# Mechanical properties :
#
#
# Convention : Reuss Voigt Hill
#
# Bulk Modulus (GPa) = 44.58704 46.27475 45.43090
# Shear Modulus (GPa) = 27.11513 29.52400 28.31957
#
# Velocity S-wave (km/s) = 3.45411 3.60427 3.52999
# Velocity P-wave (km/s) = 5.96040 6.13859 6.05015
#
# Compressibility (1/GPa) = 0.02242804
#
# Stress axis : x y z
#
# Youngs Moduli (GPa) = 82.25558 71.63118 74.26040
#
# Poissons Ratio (x) = 0.17720 0.25328
# Poissons Ratio (y) = 0.20348 0.20001
# Poissons Ratio (z) = 0.28055 0.19293
#
# Static dielectric constant tensor:
#      x y z
#    x 4.058210 -0.143180 -0.094250 
#    y -0.143180 3.982100 0.060190 
#    z -0.094250 0.060190 4.171290 
# 
# 
# High freq. dielectric constant tensor:
#      x y z
#    x 1.899080 -0.013740 -0.000980 
#    y -0.013740 1.893340 -0.002440 
#    z -0.000980 -0.002440 1.901830 
# 
# From -- ./inp_files/516280.got.cif
#   From: 2010.06.25/outbox.cif.g09.slc.cpg/sg2_259_cif.got.tgz:516280.got - 2010.06.27 13:26:56.
