data_PCOD8007868
_publ_section_title
;
Structure prediction by ZEFSAII (Michael W. Deem and Ramdas Pophale) SiO2 
 PCOD8007868
Probable space group: P -1
;
_chemical_formula_sum "Si O2"
_cell_formula_units_Z 14
_cell_length_a 12.060665
_cell_length_b 9.069562
_cell_length_c 8.927918
_cell_angle_alpha 124.032932
_cell_angle_beta 54.936719
_cell_angle_gamma 133.473391
_cell_volume 557.417262
_symmetry_space_group_name_H-M "P -1"
_symmetry_group_IT_number 2
_symmetry_cell_setting 'triclinic'
loop_
_space_group_symop_operation_xyz
x,y,z
-x,-y,-z
loop_
_atom_site_type_symbol
_atom_site_label
_atom_site_fract_x
_atom_site_fract_y
_atom_site_fract_z
Si Si1 0.526675 0.956622 0.619450
Si Si2 0.909907 0.262725 0.823612
Si Si3 0.796085 0.909940 0.476841
Si Si4 0.744094 0.497928 0.411463
Si Si5 0.934823 0.007431 0.890656
Si Si6 0.605439 0.617680 0.843738
Si Si7 0.397772 0.772904 0.018629
O O1 0.665867 0.909280 0.473207
O O2 0.368965 0.746035 0.696024
O O3 0.500000 0.000000 0.500000
O O4 0.588710 0.174225 0.784243
O O5 0.950812 0.226318 0.942552
O O6 0.788498 0.347409 0.963002
O O7 0.069545 0.433221 0.704082
O O8 0.820429 0.031037 0.683386
O O9 0.731406 0.665642 0.416148
O O10 0.965442 0.037600 0.332123
O O11 0.680071 0.502657 0.631101
O O12 0.747918 0.833196 0.927786
O O13 0.000000 0.000000 0.000000
O O14 0.500000 0.500000 0.000000
O O15 0.485362 0.647555 0.844987
O O16 0.500000 0.000000 0.000000
#
# Coordination Sequence:
#
# PCOD8007868 Si02
#       7
#     2   2   2   2   2   2   2
#     4  11  25  41  64  98 136 173 219 274 331 391
#     4  10  20  45  71  95 128 184 222 270 328 404
#     4  10  20  41  70  91 126 180 225 267 318 404
#     4  11  21  44  72  96 125 178 238 260 317 415
#     4  11  22  38  64 100 133 164 218 280 337 377
#     4  12  24  42  68 101 135 172 220 280 336 387
#     4  11  23  45  69  92 138 177 213 272 341 392
#
# _framework density 25.115834
#
# number of rings (size 3 to 8) (size 9 to 14) (size 15 to 20)
#    0.000    1.143    4.286    3.000    4.000    0.000 
#    5.143    2.857    0.000    0.000    0.000    0.000 
#    0.000    0.000    0.000    0.000    0.000    0.000 
#
# Total GULP energy -173469.563374 kJ/mol
# GULP energy per Si atom -12390.683098 kJ/mol
# Density = 2.505867 g / cm^3
# Si number density = 25.115834 Si / 1000 Ang^3
#
#
#
# Elastic Constant Matrix: (Units=GPa)
#
#
# Indices 1 2 3 4 5 6 
#
# 1 179.4203 38.0101 37.3572 -21.0462 -15.7039 10.9980
# 2 38.0101 99.0635 23.6420 -22.4420 -11.5139 19.2231
# 3 37.3572 23.6420 60.3376 -21.9575 -1.7393 5.2676
# 4 -21.0462 -22.4420 -21.9575 46.0905 5.8017 0.0286
# 5 -15.7039 -11.5139 -1.7393 5.8017 42.7741 -19.6915
# 6 10.9980 19.2231 5.2676 0.0286 -19.6915 30.8529
#
#
#
# Elastic Compliance Matrix: (Units=1/GPa)
#
#
# Indices 1 2 3 4 5 6 
#
# 1 0.006824 -0.001537 -0.003431 0.000470 0.002094 0.000447
# 2 -0.001537 0.013863 -0.001779 0.005425 -0.001738 -0.008900
# 3 -0.003431 -0.001779 0.022903 0.008972 -0.003901 -0.004077
# 4 0.000470 0.005425 0.008972 0.029611 -0.006188 -0.009056
# 5 0.002094 -0.001738 -0.003901 -0.006188 0.035153 0.023444
# 6 0.000447 -0.008900 -0.004077 -0.009056 0.023444 0.053465
#
#
# Mechanical properties :
#
#
# Convention : Reuss Voigt Hill
#
# Bulk Modulus (GPa) = 33.22637 59.64890 46.43763
# Shear Modulus (GPa) = 26.97666 39.93098 33.45382
#
# Velocity S-wave (km/s) = 3.28089 3.99165 3.65359
# Velocity P-wave (km/s) = 5.25455 6.71159 6.02726
#
# Compressibility (1/GPa) = 0.03009658
#
# Stress axis : x y z
#
# Youngs Moduli (GPa) = 146.53348 72.13569 43.66220
#
# Poissons Ratio (x) = 0.11084 0.14980
# Poissons Ratio (y) = 0.22516 0.07769
# Poissons Ratio (z) = 0.50273 0.12836
#
# Static dielectric constant tensor:
#      x y z
#    x 5.160600 0.451780 0.419530 
#    y 0.451780 4.766430 0.447830 
#    z 0.419530 0.447830 5.812350 
# 
# 
# High freq. dielectric constant tensor:
#      x y z
#    x 2.009750 0.011730 -0.012620 
#    y 0.011730 1.992180 -0.016840 
#    z -0.012620 -0.016840 2.003450 
# 
# From -- ./inp_files/245379.got.cif
#   From: 2010.06.25/outbox.cif.g09.slc.cpg/sg2_123_cif.got.tgz:245379.got - 2010.06.27 13:26:56.
