data_PCOD8007415
_publ_section_title
;
Structure prediction by ZEFSAII (Michael W. Deem and Ramdas Pophale) SiO2 
 PCOD8007415
Probable space group: P -1
;
_chemical_formula_sum "Si O2"
_cell_formula_units_Z 16
_cell_length_a 11.769846
_cell_length_b 15.210910
_cell_length_c 6.606052
_cell_angle_alpha 100.957999
_cell_angle_beta 98.656987
_cell_angle_gamma 133.950501
_cell_volume 766.290028
_symmetry_space_group_name_H-M "P -1"
_symmetry_group_IT_number 2
_symmetry_cell_setting 'triclinic'
loop_
_space_group_symop_operation_xyz
x,y,z
-x,-y,-z
loop_
_atom_site_type_symbol
_atom_site_label
_atom_site_fract_x
_atom_site_fract_y
_atom_site_fract_z
Si Si1 0.023664 0.717467 0.411036
Si Si2 0.723314 0.451263 0.455890
Si Si3 0.444016 0.720798 0.061130
Si Si4 0.994715 0.021185 0.776118
Si Si5 0.238752 0.310937 0.852926
Si Si6 0.832721 0.372808 0.782396
Si Si7 0.809633 0.004930 0.396336
Si Si8 0.468830 0.563214 0.269337
O O1 0.893871 0.603216 0.495554
O O2 0.906994 0.697868 0.202990
O O3 0.139303 0.707981 0.340299
O O4 0.162368 0.873235 0.586749
O O5 0.791449 0.418475 0.616091
O O6 0.585979 0.440385 0.519518
O O7 0.621158 0.336935 0.207559
O O8 0.322050 0.722863 0.139000
O O9 0.424660 0.617008 0.127097
O O10 0.634562 0.873059 0.184435
O O11 0.168205 0.176992 0.854208
O O12 0.826374 0.979675 0.627329
O O13 0.019115 0.941670 0.629440
O O14 0.000000 0.000000 0.000000
O O15 0.330600 0.346589 0.672885
O O16 0.367858 0.416357 0.109122
O O17 0.000000 0.500000 0.000000
#
# Coordination Sequence:
#
# PCOD8007415 Si02
#       8
#     2   2   2   2   2   2   2   2
#     4  11  22  41  65  97 126 169 221 265 318 388
#     4  11  23  40  71  94 124 175 220 261 334 387
#     4  11  22  44  64  94 133 172 212 270 325 385
#     4  10  22  41  66  89 131 183 209 254 326 394
#     4  10  20  41  62  96 133 163 213 276 321 372
#     4  11  23  43  71  93 128 165 219 283 321 370
#     4  10  24  43  60  95 139 164 216 267 316 387
#     4  10  21  38  63  96 131 163 216 273 319 379
#
# _framework density 20.879823999999999
#
# number of rings (size 3 to 8) (size 9 to 14) (size 15 to 20)
#    0.000    1.500    3.750    1.125    1.750    3.000 
#    0.000    0.625    0.000    0.000    0.000    0.000 
#    0.000    0.000    0.000    0.000    0.000    0.000 
#
# Total GULP energy -198250.438699 kJ/mol
# GULP energy per Si atom -12390.652419 kJ/mol
# Density = 2.083230 g / cm^3
# Si number density = 20.879824 Si / 1000 Ang^3
#
#
#
# Elastic Constant Matrix: (Units=GPa)
#
#
# Indices 1 2 3 4 5 6 
#
# 1 100.9170 39.8035 34.4631 8.7746 -23.4483 2.9800
# 2 39.8035 100.3632 63.1756 16.1018 -10.0574 2.1390
# 3 34.4631 63.1756 123.1278 -0.5592 -3.9873 6.3776
# 4 8.7746 16.1018 -0.5592 29.9412 4.0957 -1.6466
# 5 -23.4483 -10.0574 -3.9873 4.0957 35.7228 5.2260
# 6 2.9800 2.1390 6.3776 -1.6466 5.2260 29.8723
#
#
#
# Elastic Compliance Matrix: (Units=1/GPa)
#
#
# Indices 1 2 3 4 5 6 
#
# 1 0.014304 -0.002578 -0.002264 -0.004261 0.009282 -0.002618
# 2 -0.002578 0.018350 -0.008597 -0.009801 0.003698 -0.000408
# 3 -0.002264 -0.008597 0.013156 0.005874 -0.002946 -0.001128
# 4 -0.004261 -0.009801 0.005874 0.041649 -0.010256 0.003963
# 5 0.009282 0.003698 -0.002946 -0.010256 0.037088 -0.007615
# 6 -0.002618 -0.000408 -0.001128 0.003963 -0.007615 0.035558
#
#
# Mechanical properties :
#
#
# Convention : Reuss Voigt Hill
#
# Bulk Modulus (GPa) = 52.82291 66.58804 59.70547
# Shear Modulus (GPa) = 25.86753 31.57164 28.71958
#
# Velocity S-wave (km/s) = 3.52359 3.89275 3.71276
# Velocity P-wave (km/s) = 6.47361 7.22253 6.85830
#
# Compressibility (1/GPa) = 0.01893118
#
# Stress axis : x y z
#
# Youngs Moduli (GPa) = 69.91275 54.49721 76.01067
#
# Poissons Ratio (x) = 0.14050 0.17208
# Poissons Ratio (y) = 0.18024 0.65346
# Poissons Ratio (z) = 0.15828 0.46851
#
# Static dielectric constant tensor:
#      x y z
#    x 3.133300 0.902310 1.490510 
#    y 0.902310 3.071370 -1.373540 
#    z 1.490510 -1.373540 1.163080 
# 
# 
# High freq. dielectric constant tensor:
#      x y z
#    x 1.821580 -0.003950 -0.004250 
#    y -0.003950 1.815730 0.009680 
#    z -0.004250 0.009680 1.811050 
# 
# From -- ./inp_files/78181.got.cif
#   From: 2010.06.25/outbox.cif.g09.slc.cpg/sg2_40_cif.got.tgz:78181.got - 2010.06.27 13:26:56.
