data_PCOD8007983
_publ_section_title
;
Structure prediction by ZEFSAII (Michael W. Deem and Ramdas Pophale) SiO2 
 PCOD8007983
Probable space group: P -1
;
_chemical_formula_sum "Si O2"
_cell_formula_units_Z 16
_cell_length_a 11.261953
_cell_length_b 14.661259
_cell_length_c 8.916529
_cell_angle_alpha 119.228425
_cell_angle_beta 79.348076
_cell_angle_gamma 141.374597
_cell_volume 747.935458
_symmetry_space_group_name_H-M "P -1"
_symmetry_group_IT_number 2
_symmetry_cell_setting 'triclinic'
loop_
_space_group_symop_operation_xyz
x,y,z
-x,-y,-z
loop_
_atom_site_type_symbol
_atom_site_label
_atom_site_fract_x
_atom_site_fract_y
_atom_site_fract_z
Si Si1 0.012639 0.070568 0.326911
Si Si2 0.592296 0.219308 0.053936
Si Si3 0.189365 0.001642 0.398780
Si Si4 0.274485 0.903507 0.070466
Si Si5 0.613823 0.372920 0.694980
Si Si6 0.425997 0.292444 0.969293
Si Si7 0.346559 0.401301 0.321518
Si Si8 0.975167 0.435005 0.289949
O O1 0.153048 0.077161 0.364710
O O2 0.126497 0.210186 0.278392
O O3 0.958202 0.107777 0.510005
O O4 0.811254 0.881593 0.151443
O O5 0.822455 0.407028 0.211808
O O6 0.426902 0.099672 0.131611
O O7 0.597361 0.104121 0.893172
O O8 0.517715 0.248497 0.973785
O O9 0.423009 0.167772 0.531429
O O10 0.143830 0.866372 0.203139
O O11 0.130307 0.754849 0.851834
O O12 0.557879 0.404782 0.878894
O O13 0.675607 0.495495 0.646376
O O14 0.800922 0.423081 0.721453
O O15 0.447349 0.400914 0.167934
O O16 0.500000 0.500000 0.500000
O O17 0.000000 0.500000 0.500000
#
# Coordination Sequence:
#
# PCOD8007983 Si02
#       8
#     2   2   2   2   2   2   2   2
#     4  10  23  39  65  91 127 168 210 253 314 381
#     4   9  21  39  61  92 121 167 216 250 312 366
#     4  10  20  42  62  93 130 163 208 260 312 375
#     4   9  20  37  68  89 124 169 209 257 310 374
#     4  11  25  41  63  93 130 165 210 262 322 361
#     4  11  25  43  63  90 132 168 210 259 313 384
#     4  12  25  40  64  96 126 166 210 265 318 370
#     4  10  22  38  64  91 125 166 209 262 311 369
#
# _framework density 21.392219999999998
#
# number of rings (size 3 to 8) (size 9 to 14) (size 15 to 20)
#    0.750    1.000    1.250    2.250    5.250    1.500 
#    0.000    3.750    0.000    0.000    0.000    0.000 
#    0.000    0.000    0.000    0.000    0.000    0.000 
#
# Total GULP energy -198275.098031 kJ/mol
# GULP energy per Si atom -12392.193627 kJ/mol
# Density = 2.134353 g / cm^3
# Si number density = 21.392220 Si / 1000 Ang^3
#
#
#
# Elastic Constant Matrix: (Units=GPa)
#
#
# Indices 1 2 3 4 5 6 
#
# 1 63.6013 27.4581 29.4670 0.8368 7.9629 21.0777
# 2 27.4581 73.7411 19.8659 -9.9613 -1.5639 14.3842
# 3 29.4670 19.8659 128.3717 -11.7234 -18.4133 20.8575
# 4 0.8368 -9.9613 -11.7234 24.7258 9.5895 3.1100
# 5 7.9629 -1.5639 -18.4133 9.5895 42.1276 -1.2972
# 6 21.0777 14.3842 20.8575 3.1100 -1.2972 39.0949
#
#
#
# Elastic Compliance Matrix: (Units=1/GPa)
#
#
# Indices 1 2 3 4 5 6 
#
# 1 0.024176 -0.006615 -0.004273 -0.001933 -0.006501 -0.008383
# 2 -0.006615 0.017775 0.000084 0.007866 0.000044 -0.003643
# 3 -0.004273 0.000084 0.010272 0.003792 0.004334 -0.003366
# 4 -0.001933 0.007866 0.003792 0.050129 -0.009348 -0.008172
# 5 -0.006501 0.000044 0.004334 -0.009348 0.029079 0.002885
# 6 -0.008383 -0.003643 -0.003366 -0.008172 0.002885 0.033980
#
#
# Mechanical properties :
#
#
# Convention : Reuss Voigt Hill
#
# Bulk Modulus (GPa) = 32.66174 46.58843 39.62508
# Shear Modulus (GPa) = 25.35192 33.78454 29.56823
#
# Velocity S-wave (km/s) = 3.44626 3.97834 3.72182
# Velocity P-wave (km/s) = 5.58004 6.55198 6.08544
#
# Compressibility (1/GPa) = 0.03061687
#
# Stress axis : x y z
#
# Youngs Moduli (GPa) = 41.36381 56.25727 97.34844
#
# Poissons Ratio (x) = 0.37213 0.41595
# Poissons Ratio (y) = 0.27361 -0.00820
# Poissons Ratio (z) = 0.17674 -0.00474
#
# Static dielectric constant tensor:
#      x y z
#    x 3.853530 0.306500 0.025330 
#    y 0.306500 3.870230 -0.173090 
#    z 0.025330 -0.173090 3.897290 
# 
# 
# High freq. dielectric constant tensor:
#      x y z
#    x 1.841060 0.026630 0.000890 
#    y 0.026630 1.821820 -0.005390 
#    z 0.000890 -0.005390 1.839330 
# 
# From -- ./inp_files/270901.got.cif
#   From: 2010.06.25/outbox.cif.g09.slc.cpg/sg2_136_cif.got.tgz:270901.got - 2010.06.27 13:26:56.
