data_PCOD8007703
_publ_section_title
;
Structure prediction by ZEFSAII (Michael W. Deem and Ramdas Pophale) SiO2 
 PCOD8007703
Probable space group: P -1
;
_chemical_formula_sum "Si O2"
_cell_formula_units_Z 12
_cell_length_a 12.816525
_cell_length_b 9.262547
_cell_length_c 12.388860
_cell_angle_alpha 51.463218
_cell_angle_beta 35.420195
_cell_angle_gamma 79.158480
_cell_volume 472.843679
_symmetry_space_group_name_H-M "P -1"
_symmetry_group_IT_number 2
_symmetry_cell_setting 'triclinic'
loop_
_space_group_symop_operation_xyz
x,y,z
-x,-y,-z
loop_
_atom_site_type_symbol
_atom_site_label
_atom_site_fract_x
_atom_site_fract_y
_atom_site_fract_z
Si Si1 0.997006 0.056862 0.350563
Si Si2 0.488801 0.448042 0.264884
Si Si3 0.783044 0.531202 0.765119
Si Si4 0.325386 0.984240 0.734119
Si Si5 0.571656 0.027610 0.720530
Si Si6 0.827312 0.450079 0.475632
O O1 0.866684 0.788721 0.521924
O O2 0.844747 0.133258 0.415191
O O3 0.000000 0.000000 0.500000
O O4 0.287286 0.310987 0.957758
O O5 0.321675 0.190706 0.599026
O O6 0.302631 0.482908 0.374105
O O7 0.611923 0.440154 0.059528
O O8 0.043221 0.610846 0.530721
O O9 0.611176 0.277730 0.950144
O O10 0.500000 0.000000 0.500000
O O11 0.447770 0.054802 0.716419
O O12 0.041900 0.697312 0.103348
O O13 0.606061 0.192491 0.713309
#
# Coordination Sequence:
#
# PCOD8007703 Si02
#       6
#     2   2   2   2   2   2
#     4  10  20  41  67  90 125 170 208 252 311 369
#     4  11  22  42  64  93 128 167 202 261 312 363
#     4  10  22  45  63  92 128 166 210 255 308 368
#     4  11  22  43  65  92 126 165 208 257 312 371
#     4  11  21  41  69  89 126 167 207 257 314 367
#     4  11  23  40  64  96 127 160 209 261 308 371
#
# _framework density 25.378368999999999
#
# number of rings (size 3 to 8) (size 9 to 14) (size 15 to 20)
#    0.000    1.333    6.667    1.000    0.000    4.000 
#    6.000    0.833    0.000    0.000    0.000    0.000 
#    0.000    0.000    0.000    0.000    0.000    0.000 
#
# Total GULP energy -148731.427497 kJ/mol
# GULP energy per Si atom -12394.285625 kJ/mol
# Density = 2.532061 g / cm^3
# Si number density = 25.378369 Si / 1000 Ang^3
#
#
#
# Elastic Constant Matrix: (Units=GPa)
#
#
# Indices 1 2 3 4 5 6 
#
# 1 63.0973 38.0965 1.8707 -3.3452 -8.4456 -9.2145
# 2 38.0965 134.3951 38.5982 -6.8340 -12.9185 -11.7225
# 3 1.8707 38.5982 78.0946 -25.6371 -5.5987 10.5100
# 4 -3.3452 -6.8340 -25.6371 52.6915 -10.5419 -14.4707
# 5 -8.4456 -12.9185 -5.5987 -10.5419 41.1322 -8.1334
# 6 -9.2145 -11.7225 10.5100 -14.4707 -8.1334 48.9773
#
#
#
# Elastic Compliance Matrix: (Units=1/GPa)
#
#
# Indices 1 2 3 4 5 6 
#
# 1 0.020735 -0.005934 0.003690 0.004323 0.004746 0.003754
# 2 -0.005934 0.011223 -0.005848 -0.000555 0.001959 0.002986
# 3 0.003690 -0.005848 0.019025 0.009013 0.003516 -0.001541
# 4 0.004323 -0.000555 0.009013 0.028193 0.010924 0.008890
# 5 0.004746 0.001959 0.003516 0.010924 0.030955 0.008975
# 6 0.003754 0.002986 -0.001541 0.008890 0.008975 0.026287
#
#
# Mechanical properties :
#
#
# Convention : Reuss Voigt Hill
#
# Bulk Modulus (GPa) = 28.73644 48.07974 38.40809
# Shear Modulus (GPa) = 30.45050 41.69495 36.07273
#
# Velocity S-wave (km/s) = 3.46766 4.05771 3.77423
# Velocity P-wave (km/s) = 5.23265 6.39841 5.84467
#
# Compressibility (1/GPa) = 0.03479902
#
# Stress axis : x y z
#
# Youngs Moduli (GPa) = 48.22849 89.10279 52.56153
#
# Poissons Ratio (x) = 0.52873 -0.19397
# Poissons Ratio (y) = 0.28618 0.30740
# Poissons Ratio (z) = -0.17798 0.52111
#
# Static dielectric constant tensor:
#      x y z
#    x 4.766120 -0.329000 0.024460 
#    y -0.329000 5.070100 -0.684350 
#    z 0.024460 -0.684350 5.209960 
# 
# 
# High freq. dielectric constant tensor:
#      x y z
#    x 1.996810 -0.015320 -0.022670 
#    y -0.015320 2.024440 -0.015870 
#    z -0.022670 -0.015870 2.018170 
# 
# From -- ./inp_files/529356.got.cif
#   From: 2010.06.25/outbox.cif.g09.slc.cpg/sg2_265_cif.got.tgz:529356.got - 2010.06.27 13:26:56.
