data_PCOD8007588
_publ_section_title
;
Structure prediction by ZEFSAII (Michael W. Deem and Ramdas Pophale) SiO2 
 PCOD8007588
Probable space group: P -1
;
_chemical_formula_sum "Si O2"
_cell_formula_units_Z 16
_cell_length_a 12.286109
_cell_length_b 15.639245
_cell_length_c 8.706639
_cell_angle_alpha 87.334909
_cell_angle_beta 79.189968
_cell_angle_gamma 27.215631
_cell_volume 724.081749
_symmetry_space_group_name_H-M "P -1"
_symmetry_group_IT_number 2
_symmetry_cell_setting 'triclinic'
loop_
_space_group_symop_operation_xyz
x,y,z
-x,-y,-z
loop_
_atom_site_type_symbol
_atom_site_label
_atom_site_fract_x
_atom_site_fract_y
_atom_site_fract_z
Si Si1 0.599342 0.848632 0.718278
Si Si2 0.093658 0.825480 0.658173
Si Si3 0.611187 0.740170 0.425774
Si Si4 0.862280 0.832585 0.562264
Si Si5 0.310469 0.598590 0.912746
Si Si6 0.619257 0.262058 0.650418
Si Si7 0.917651 0.529833 0.854767
Si Si8 0.960576 0.740225 0.198619
O O1 0.591947 0.775047 0.607075
O O2 0.821216 0.762542 0.626728
O O3 0.659954 0.759918 0.870281
O O4 0.328990 0.081114 0.779350
O O5 0.222470 0.732478 0.801285
O O6 0.281712 0.733266 0.489906
O O7 0.041312 0.762057 0.634436
O O8 0.842195 0.057959 0.699644
O O9 0.546776 0.685949 0.415702
O O10 0.886692 0.573820 0.314335
O O11 0.412009 0.936203 0.372715
O O12 0.983550 0.754998 0.367123
O O13 0.441049 0.427979 0.809612
O O14 0.500000 0.500000 0.000000
O O15 0.060112 0.743714 0.057425
O O16 0.875062 0.458314 0.857387
O O17 0.000000 0.500000 0.000000
#
# Coordination Sequence:
#
# PCOD8007588 Si02
#       8
#     2   2   2   2   2   2   2   2
#     4  11  23  41  68  92 128 179 215 263 322 380
#     4  10  24  44  72  98 127 174 223 269 326 384
#     4  10  20  41  65  95 129 165 219 267 317 383
#     4  10  20  42  70  92 129 172 223 267 313 386
#     4  12  27  44  66  98 136 173 217 269 333 391
#     4  10  23  45  70  98 129 170 223 275 319 385
#     4  12  25  37  58  96 132 169 212 263 325 382
#     4  11  24  43  62  96 133 168 214 268 325 385
#
# _framework density 22.096952000000002
#
# number of rings (size 3 to 8) (size 9 to 14) (size 15 to 20)
#    0.000    1.250    2.500    3.000    3.500    6.000 
#    0.000    0.000    0.000    0.000    0.000    0.000 
#    0.000    0.000    0.000    0.000    0.000    0.000 
#
# Total GULP energy -198384.509459 kJ/mol
# GULP energy per Si atom -12399.031841 kJ/mol
# Density = 2.204666 g / cm^3
# Si number density = 22.096952 Si / 1000 Ang^3
#
#
#
# Elastic Constant Matrix: (Units=GPa)
#
#
# Indices 1 2 3 4 5 6 
#
# 1 121.3499 27.3965 36.0832 -13.0919 5.4719 1.8761
# 2 27.3965 59.8343 42.5819 -29.0609 3.9567 11.0118
# 3 36.0832 42.5819 103.4112 -15.3195 -5.2257 -0.3080
# 4 -13.0919 -29.0609 -15.3195 40.9103 -5.3606 5.3142
# 5 5.4719 3.9567 -5.2257 -5.3606 32.1587 1.0543
# 6 1.8761 11.0118 -0.3080 5.3142 1.0543 29.9178
#
#
#
# Elastic Compliance Matrix: (Units=1/GPa)
#
#
# Indices 1 2 3 4 5 6 
#
# 1 0.009614 -0.002722 -0.002319 -0.000003 -0.001693 0.000435
# 2 -0.002722 0.046483 -0.013972 0.029564 -0.001868 -0.022267
# 3 -0.002319 -0.013972 0.015672 -0.005136 0.003600 0.006235
# 4 -0.000003 0.029564 -0.005136 0.046546 0.003921 -0.019340
# 5 -0.001693 -0.001868 0.003600 0.003921 0.032886 -0.001025
# 6 0.000435 -0.022267 0.006235 -0.019340 -0.001025 0.045129
#
#
# Mechanical properties :
#
#
# Convention : Reuss Voigt Hill
#
# Bulk Modulus (GPa) = 29.63449 55.19096 42.41272
# Shear Modulus (GPa) = 20.35822 32.49962 26.42892
#
# Velocity S-wave (km/s) = 3.03861 3.83923 3.46214
# Velocity P-wave (km/s) = 5.07455 6.68460 5.93443
#
# Compressibility (1/GPa) = 0.03374446
#
# Stress axis : x y z
#
# Youngs Moduli (GPa) = 104.01795 21.51346 63.80879
#
# Poissons Ratio (x) = 0.05855 0.14794
# Poissons Ratio (y) = 0.28310 0.89151
# Poissons Ratio (z) = 0.24117 0.30058
#
# Static dielectric constant tensor:
#      x y z
#    x 4.085920 -0.018600 0.027710 
#    y -0.018600 4.214310 0.041620 
#    z 0.027710 0.041620 3.850330 
# 
# 
# High freq. dielectric constant tensor:
#      x y z
#    x 1.870460 0.000610 0.001950 
#    y 0.000610 1.878920 -0.001870 
#    z 0.001950 -0.001870 1.860430 
# 
# From -- ./inp_files/272861.got.cif
#   From: 2010.06.25/outbox.cif.g09.slc.cpg/sg2_137_cif.got.tgz:272861.got - 2010.06.27 13:26:56.
