data_PCOD8007232
_publ_section_title
;
Structure prediction by ZEFSAII (Michael W. Deem and Ramdas Pophale) SiO2 
 PCOD8007232
Probable space group: P -1
;
_chemical_formula_sum "Si O2"
_cell_formula_units_Z 14
_cell_length_a 5.465011
_cell_length_b 7.741695
_cell_length_c 19.908434
_cell_angle_alpha 45.466149
_cell_angle_beta 79.570027
_cell_angle_gamma 67.626318
_cell_volume 550.482181
_symmetry_space_group_name_H-M "P -1"
_symmetry_group_IT_number 2
_symmetry_cell_setting 'triclinic'
loop_
_space_group_symop_operation_xyz
x,y,z
-x,-y,-z
loop_
_atom_site_type_symbol
_atom_site_label
_atom_site_fract_x
_atom_site_fract_y
_atom_site_fract_z
Si Si1 0.816293 0.597524 0.842193
Si Si2 0.494554 0.207257 0.318588
Si Si3 0.779816 0.144156 0.524459
Si Si4 0.478258 0.417595 0.677018
Si Si5 0.586630 0.072695 0.131101
Si Si6 0.024207 0.926404 0.315162
Si Si7 0.921805 0.770483 0.968713
O O1 0.739531 0.590256 0.769930
O O2 0.558550 0.673966 0.883963
O O3 0.935588 0.820800 0.785243
O O4 0.032306 0.316027 0.930653
O O5 0.610905 0.379185 0.312384
O O6 0.410566 0.022354 0.422270
O O7 0.705143 0.010099 0.309411
O O8 0.639973 0.440430 0.425869
O O9 0.882918 0.147966 0.593063
O O10 0.000000 0.000000 0.500000
O O11 0.802785 0.304512 0.680368
O O12 0.361237 0.192375 0.757188
O O13 0.389028 0.067535 0.079113
O O14 0.878175 0.074538 0.097663
O O15 0.000000 0.500000 0.000000
#
# Coordination Sequence:
#
# PCOD8007232 Si02
#       7
#     2   2   2   2   2   2   2
#     4   9  21  38  65  95 136 175 227 284 344 415
#     4  11  24  43  66 100 131 185 229 282 354 409
#     4  11  23  45  65  97 137 181 232 283 349 415
#     4  11  24  44  67  99 140 178 230 295 337 412
#     4  10  23  39  67 106 135 183 236 280 352 414
#     4  10  23  42  67  98 131 178 235 276 353 415
#     4  10  20  40  69 103 137 183 232 286 345 420
#
# _framework density 25.432248999999999
#
# number of rings (size 3 to 8) (size 9 to 14) (size 15 to 20)
#    0.000    1.714    1.429    2.571    8.000    1.714 
#    5.143    1.429    0.000    0.000    0.000    0.000 
#    0.000    0.000    0.000    0.000    0.000    0.000 
#
# Total GULP energy -173455.097242 kJ/mol
# GULP energy per Si atom -12389.649803 kJ/mol
# Density = 2.537436 g / cm^3
# Si number density = 25.432249 Si / 1000 Ang^3
#
#
#
# Elastic Constant Matrix: (Units=GPa)
#
#
# Indices 1 2 3 4 5 6 
#
# 1 117.4362 12.9442 50.9696 -4.2472 -3.9238 -11.2242
# 2 12.9442 46.6167 20.2359 -9.7250 3.2918 -13.7133
# 3 50.9696 20.2359 171.2723 -3.2424 8.4115 1.9777
# 4 -4.2472 -9.7250 -3.2424 15.7479 2.0643 -3.1265
# 5 -3.9238 3.2918 8.4115 2.0643 30.8063 7.2676
# 6 -11.2242 -13.7133 1.9777 -3.1265 7.2676 30.1064
#
#
#
# Elastic Compliance Matrix: (Units=1/GPa)
#
#
# Indices 1 2 3 4 5 6 
#
# 1 0.010415 0.000354 -0.003178 0.003117 0.000920 0.004354
# 2 0.000354 0.035599 -0.003575 0.026929 -0.009712 0.021723
# 3 -0.003178 -0.003575 0.007259 -0.002069 -0.001102 -0.003239
# 4 0.003117 0.026929 -0.002069 0.087535 -0.013918 0.026014
# 5 0.000920 -0.009712 -0.001102 -0.013918 0.038318 -0.014703
# 6 0.004354 0.021723 -0.003239 0.026014 -0.014703 0.051197
#
#
# Mechanical properties :
#
#
# Convention : Reuss Voigt Hill
#
# Bulk Modulus (GPa) = 24.70692 55.95827 40.33260
# Shear Modulus (GPa) = 19.48452 32.07715 25.78083
#
# Velocity S-wave (km/s) = 2.77092 3.55530 3.18733
# Velocity P-wave (km/s) = 4.46914 6.23732 5.42574
#
# Compressibility (1/GPa) = 0.04047449
#
# Stress axis : x y z
#
# Youngs Moduli (GPa) = 96.01414 28.09044 137.75786
#
# Poissons Ratio (x) = -0.00993 0.43776
# Poissons Ratio (y) = -0.03395 0.49253
# Poissons Ratio (z) = 0.30511 0.10043
#
# Static dielectric constant tensor:
#      x y z
#    x 4.646870 -0.270180 0.435100 
#    y -0.270180 4.332470 0.092730 
#    z 0.435100 0.092730 5.700190 
# 
# 
# High freq. dielectric constant tensor:
#      x y z
#    x 2.004270 -0.007450 0.012110 
#    y -0.007450 1.979030 0.007020 
#    z 0.012110 0.007020 2.045130 
# 
# From -- ./inp_files/56519.got.cif
#   From: 2010.06.25/outbox.cif.g09.slc.cpg/sg2_29_cif.got.tgz:56519.got - 2010.06.27 13:26:56.
