data_PCOD8007304
_publ_section_title
;
Structure prediction by ZEFSAII (Michael W. Deem and Ramdas Pophale) SiO2 
 PCOD8007304
Probable space group: P -1
;
_chemical_formula_sum "Si O2"
_cell_formula_units_Z 14
_cell_length_a 8.621253
_cell_length_b 25.564159
_cell_length_c 25.092041
_cell_angle_alpha 11.361541
_cell_angle_beta 40.714692
_cell_angle_gamma 42.020213
_cell_volume 710.631738
_symmetry_space_group_name_H-M "P -1"
_symmetry_group_IT_number 2
_symmetry_cell_setting 'triclinic'
loop_
_space_group_symop_operation_xyz
x,y,z
-x,-y,-z
loop_
_atom_site_type_symbol
_atom_site_label
_atom_site_fract_x
_atom_site_fract_y
_atom_site_fract_z
Si Si1 0.732886 0.404968 0.564102
Si Si2 0.138853 0.327278 0.959377
Si Si3 0.232669 0.094645 0.875374
Si Si4 0.373725 0.750327 0.807066
Si Si5 0.796100 0.268959 0.017630
Si Si6 0.448262 0.830001 0.381390
Si Si7 0.810790 0.752241 0.459272
O O1 0.500000 0.500000 0.500000
O O2 0.837994 0.652333 0.323120
O O3 0.923625 0.316954 0.558594
O O4 0.668297 0.151796 0.870184
O O5 0.232051 0.623910 0.648491
O O6 0.907884 0.269861 0.114142
O O7 0.057210 0.302305 0.943571
O O8 0.346587 0.123734 0.123384
O O9 0.435793 0.191179 0.685771
O O10 0.000000 0.000000 0.000000
O O11 0.398626 0.768301 0.847165
O O12 0.500000 0.000000 0.500000
O O13 0.500000 0.500000 0.000000
O O14 0.805974 0.027960 0.215490
O O15 0.716092 0.528536 0.747231
O O16 0.646472 0.769010 0.433949
#
# Coordination Sequence:
#
# PCOD8007304 Si02
#       7
#     2   2   2   2   2   2   2
#     4  12  28  42  63  91 125 169 224 278 316 370
#     4  10  24  40  67 101 117 170 212 261 307 377
#     4  12  26  46  62  90 126 176 226 259 331 366
#     4  10  20  40  71  99 126 157 209 259 310 378
#     4  10  24  40  67  95 124 162 213 251 320 379
#     4  12  24  41  66  89 134 170 215 269 307 388
#     4  12  24  42  62  92 134 168 208 264 333 366
#
# _framework density 19.700780999999999
#
# number of rings (size 3 to 8) (size 9 to 14) (size 15 to 20)
#    0.857    0.000    1.429    6.000    8.000    0.000 
#    0.000    0.000    0.000   17.143    0.000    0.000 
#    0.000    0.000    0.000    0.000    0.000    0.000 
#
# Total GULP energy -173611.579716 kJ/mol
# GULP energy per Si atom -12400.827123 kJ/mol
# Density = 1.965594 g / cm^3
# Si number density = 19.700781 Si / 1000 Ang^3
#
#
#
# Elastic Constant Matrix: (Units=GPa)
#
#
# Indices 1 2 3 4 5 6 
#
# 1 84.7714 72.4068 65.0149 -16.5785 13.2237 27.8802
# 2 72.4068 245.8062 126.2485 -88.2405 10.4713 69.1181
# 3 65.0149 126.2485 185.4302 -67.3748 13.2305 54.0823
# 4 -16.5785 -88.2405 -67.3748 96.1659 -1.3183 -44.1546
# 5 13.2237 10.4713 13.2305 -1.3183 46.5245 2.8591
# 6 27.8802 69.1181 54.0823 -44.1546 2.8591 56.5805
#
#
#
# Elastic Compliance Matrix: (Units=1/GPa)
#
#
# Indices 1 2 3 4 5 6 
#
# 1 0.019740 -0.004030 -0.004678 -0.005757 -0.003250 -0.004661
# 2 -0.004030 0.008837 -0.001990 0.004438 0.000060 -0.003447
# 3 -0.004678 -0.001990 0.010461 0.003567 -0.000947 -0.002431
# 4 -0.005757 0.004438 0.003567 0.020616 -0.000414 0.010115
# 5 -0.003250 0.000060 -0.000947 -0.000414 0.022602 0.000968
# 6 -0.004661 -0.003447 -0.002431 0.010115 0.000968 0.034351
#
#
# Mechanical properties :
#
#
# Convention : Reuss Voigt Hill
#
# Bulk Modulus (GPa) = 56.68099 115.92760 86.30429
# Shear Modulus (GPa) = 34.75001 56.67667 45.71334
#
# Velocity S-wave (km/s) = 4.20443 5.36947 4.82226
# Velocity P-wave (km/s) = 7.23899 9.86983 8.65495
#
# Compressibility (1/GPa) = 0.01764260
#
# Stress axis : x y z
#
# Youngs Moduli (GPa) = 50.65792 113.15420 95.59528
#
# Poissons Ratio (x) = 0.45596 0.44719
# Poissons Ratio (y) = 0.20413 0.19027
# Poissons Ratio (z) = 0.23698 0.22522
#
# Static dielectric constant tensor:
#      x y z
#    x 3.561030 0.138810 0.065050 
#    y 0.138810 3.806400 0.134570 
#    z 0.065050 0.134570 3.714870 
# 
# 
# High freq. dielectric constant tensor:
#      x y z
#    x 1.762720 0.003480 0.004530 
#    y 0.003480 1.764680 -0.004260 
#    z 0.004530 -0.004260 1.791240 
# 
# From -- ./inp_files/613985.got.cif
#   From: 2010.06.25/outbox.cif.g09.slc.cpg/sg2_307_cif.got.tgz:613985.got - 2010.06.27 13:26:56.
