data_PCOD8007434
_publ_section_title
;
Structure prediction by ZEFSAII (Michael W. Deem and Ramdas Pophale) SiO2 
 PCOD8007434
Probable space group: P -1
;
_chemical_formula_sum "Si O2"
_cell_formula_units_Z 16
_cell_length_a 24.704479
_cell_length_b 18.356094
_cell_length_c 5.266678
_cell_angle_alpha 69.018166
_cell_angle_beta 122.425356
_cell_angle_gamma 159.220850
_cell_volume 628.053917
_symmetry_space_group_name_H-M "P -1"
_symmetry_group_IT_number 2
_symmetry_cell_setting 'triclinic'
loop_
_space_group_symop_operation_xyz
x,y,z
-x,-y,-z
loop_
_atom_site_type_symbol
_atom_site_label
_atom_site_fract_x
_atom_site_fract_y
_atom_site_fract_z
Si Si1 0.882520 0.681999 0.594638
Si Si2 0.300688 0.753948 0.675528
Si Si3 0.992247 0.664957 0.185644
Si Si4 0.462608 0.787413 0.888195
Si Si5 0.445386 0.483970 0.130033
Si Si6 0.940001 0.992908 0.065183
Si Si7 0.293998 0.917183 0.356789
Si Si8 0.203116 0.024127 0.579938
O O1 0.700249 0.467634 0.212872
O O2 0.087754 0.902850 0.701846
O O3 0.860261 0.586074 0.862647
O O4 0.885191 0.771309 0.618999
O O5 0.340669 0.728642 0.612435
O O6 0.138981 0.546842 0.732034
O O7 0.236575 0.760474 0.369427
O O8 0.500000 0.000000 0.000000
O O9 0.097751 0.740852 0.125153
O O10 0.157797 0.888683 0.509901
O O11 0.611210 0.944306 0.837280
O O12 0.564346 0.905488 0.269581
O O13 0.500000 0.500000 0.500000
O O14 0.565254 0.703253 0.138912
O O15 0.214312 0.229497 0.867755
O O16 0.500000 0.500000 0.000000
O O17 0.849757 0.965839 0.749524
O O18 0.000000 0.000000 0.000000
#
# Coordination Sequence:
#
# PCOD8007434 Si02
#       8
#     2   2   2   2   2   2   2   2
#     4  11  22  42  70  93 137 182 221 274 343 408
#     4  10  21  44  69  96 135 183 223 278 340 399
#     4  11  24  43  67  99 133 177 231 277 334 401
#     4  11  24  44  68  99 139 180 226 276 345 401
#     4  10  20  41  63  90 125 165 207 262 325 393
#     4  10  23  41  66 100 129 170 226 279 333 401
#     4  11  26  43  66 103 137 176 233 287 330 393
#     4  10  22  41  66  90 133 176 218 272 343 399
#
# _framework density 25.475521000000001
#
# number of rings (size 3 to 8) (size 9 to 14) (size 15 to 20)
#    0.000    1.500    2.500    2.250    3.500    2.500 
#    0.000    3.750    0.000    0.000    0.000    0.000 
#    0.000    0.000    0.000    0.000    0.000    0.000 
#
# Total GULP energy -198324.600773 kJ/mol
# GULP energy per Si atom -12395.287548 kJ/mol
# Density = 2.541754 g / cm^3
# Si number density = 25.475521 Si / 1000 Ang^3
#
#
#
# Elastic Constant Matrix: (Units=GPa)
#
#
# Indices 1 2 3 4 5 6 
#
# 1 134.8840 34.2559 10.6714 12.3560 -19.2856 19.4071
# 2 34.2559 153.8217 19.9846 25.3132 -16.1758 8.0612
# 3 10.6714 19.9846 46.6716 -4.2855 -18.1650 -9.9362
# 4 12.3560 25.3132 -4.2855 38.4728 -2.7741 -11.0580
# 5 -19.2856 -16.1758 -18.1650 -2.7741 40.8033 -1.5356
# 6 19.4071 8.0612 -9.9362 -11.0580 -1.5356 44.9189
#
#
#
# Elastic Compliance Matrix: (Units=1/GPa)
#
#
# Indices 1 2 3 4 5 6 
#
# 1 0.009280 -0.000478 -0.002458 -0.004316 0.002604 -0.005441
# 2 -0.000478 0.008743 -0.005111 -0.007383 0.000301 -0.004300
# 3 -0.002458 -0.005111 0.033042 0.012435 0.012849 0.012789
# 4 -0.004316 -0.007383 0.012435 0.038350 0.003760 0.015510
# 5 0.002604 0.000301 0.012849 0.003760 0.031972 0.003682
# 6 -0.005441 -0.004300 0.012789 0.015510 0.003682 0.032158
#
#
# Mechanical properties :
#
#
# Convention : Reuss Voigt Hill
#
# Bulk Modulus (GPa) = 28.59477 51.68904 40.14190
# Shear Modulus (GPa) = 27.57905 42.87002 35.22453
#
# Velocity S-wave (km/s) = 3.29381 4.10664 3.72248
# Velocity P-wave (km/s) = 5.07094 6.54367 5.85380
#
# Compressibility (1/GPa) = 0.03497143
#
# Stress axis : x y z
#
# Youngs Moduli (GPa) = 107.75615 114.37119 30.26451
#
# Poissons Ratio (x) = 0.05468 0.07440
# Poissons Ratio (y) = 0.05152 0.15467
# Poissons Ratio (z) = 0.26489 0.58452
#
# Static dielectric constant tensor:
#      x y z
#    x 4.915350 -0.355470 -0.276560 
#    y -0.355470 5.072130 0.483410 
#    z -0.276560 0.483410 4.053870 
# 
# 
# High freq. dielectric constant tensor:
#      x y z
#    x 2.018310 -0.008080 -0.014730 
#    y -0.008080 2.033260 0.012010 
#    z -0.014730 0.012010 2.004410 
# 
# From -- ./inp_files/124736.got.cif
#   From: 2010.06.25/outbox.cif.g09.slc.cpg/sg2_63_cif.got.tgz:124736.got - 2010.06.27 13:26:56.
