data_PCOD8007310
_publ_section_title
;
Structure prediction by ZEFSAII (Michael W. Deem and Ramdas Pophale) SiO2 
 PCOD8007310
Probable space group: P -1
;
_chemical_formula_sum "Si O2"
_cell_formula_units_Z 14
_cell_length_a 15.062921
_cell_length_b 9.776307
_cell_length_c 14.165007
_cell_angle_alpha 36.800880
_cell_angle_beta 149.667504
_cell_angle_gamma 143.975389
_cell_volume 581.366429
_symmetry_space_group_name_H-M "P -1"
_symmetry_group_IT_number 2
_symmetry_cell_setting 'triclinic'
loop_
_space_group_symop_operation_xyz
x,y,z
-x,-y,-z
loop_
_atom_site_type_symbol
_atom_site_label
_atom_site_fract_x
_atom_site_fract_y
_atom_site_fract_z
Si Si1 0.373889 0.817583 0.312479
Si Si2 0.633620 0.465288 0.373772
Si Si3 0.706307 0.004230 0.207989
Si Si4 0.751473 0.992500 0.466960
Si Si5 0.108463 0.785374 0.328450
Si Si6 0.263601 0.207371 0.083520
Si Si7 0.048478 0.354123 0.205684
O O1 0.472810 0.774664 0.522808
O O2 0.521110 0.857817 0.340196
O O3 0.191012 0.559654 0.290830
O O4 0.308140 0.045514 0.131785
O O5 0.810389 0.421862 0.511400
O O6 0.461894 0.441867 0.157041
O O7 0.708484 0.731475 0.347034
O O8 0.856209 0.187865 0.173041
O O9 0.779243 0.104918 0.324613
O O10 0.500000 0.000000 0.000000
O O11 0.847813 0.796929 0.668768
O O12 0.844489 0.179943 0.535186
O O13 0.187096 0.040459 0.199446
O O14 0.881035 0.679624 0.156714
O O15 0.000000 0.500000 0.000000
#
# Coordination Sequence:
#
# PCOD8007310 Si02
#       7
#     2   2   2   2   2   2   2
#     4  11  21  40  77 109 147 199 243 307 360 452
#     4  11  22  45  71 106 159 189 249 302 381 434
#     4  12  30  49  73 108 153 198 245 324 380 437
#     4  12  23  46  76 114 146 191 257 309 379 436
#     4  10  21  39  75 108 151 201 248 306 364 453
#     4  10  20  40  72 114 152 196 254 292 375 447
#     4  12  27  46  75 107 146 196 258 303 380 458
#
# _framework density 24.081198000000001
#
# number of rings (size 3 to 8) (size 9 to 14) (size 15 to 20)
#    0.000    0.857    4.286    3.429    2.000    3.429 
#    0.000    1.429    0.000    0.000    0.000    0.000 
#    0.000    0.000    0.000    0.000    0.000    0.000 
#
# Total GULP energy -173516.427554 kJ/mol
# GULP energy per Si atom -12394.030540 kJ/mol
# Density = 2.402639 g / cm^3
# Si number density = 24.081198 Si / 1000 Ang^3
#
#
#
# Elastic Constant Matrix: (Units=GPa)
#
#
# Indices 1 2 3 4 5 6 
#
# 1 138.7721 44.3934 62.0027 -0.2947 14.7331 -17.8635
# 2 44.3934 70.1237 31.9773 14.5619 9.1726 -6.8565
# 3 62.0027 31.9773 150.4786 22.1302 11.2568 -9.3274
# 4 -0.2947 14.5619 22.1302 31.8303 6.3643 5.4098
# 5 14.7331 9.1726 11.2568 6.3643 41.1536 5.4909
# 6 -17.8635 -6.8565 -9.3274 5.4098 5.4909 34.5472
#
#
#
# Elastic Compliance Matrix: (Units=1/GPa)
#
#
# Indices 1 2 3 4 5 6 
#
# 1 0.011656 -0.006031 -0.003908 0.005625 -0.003081 0.003384
# 2 -0.006031 0.020573 -0.000238 -0.009494 -0.001238 0.002584
# 3 -0.003908 -0.000238 0.009407 -0.006674 -0.000298 0.001564
# 4 0.005625 -0.009494 -0.006674 0.042354 -0.003712 -0.006820
# 5 -0.003081 -0.001238 -0.000298 -0.003712 0.027087 -0.005643
# 6 0.003384 0.002584 0.001564 -0.006820 -0.005643 0.033595
#
#
# Mechanical properties :
#
#
# Convention : Reuss Voigt Hill
#
# Bulk Modulus (GPa) = 46.98800 70.68014 58.83407
# Shear Modulus (GPa) = 29.04933 36.23962 32.64447
#
# Velocity S-wave (km/s) = 3.47696 3.88350 3.68584
# Velocity P-wave (km/s) = 5.97275 7.03728 6.52675
#
# Compressibility (1/GPa) = 0.02128203
#
# Stress axis : x y z
#
# Youngs Moduli (GPa) = 85.79043 48.60661 106.30320
#
# Poissons Ratio (x) = 0.29317 0.41545
# Poissons Ratio (y) = 0.51743 0.02527
# Poissons Ratio (z) = 0.33529 0.01156
#
# Static dielectric constant tensor:
#      x y z
#    x 4.082350 -0.197860 0.204450 
#    y -0.197860 4.087730 0.211050 
#    z 0.204450 0.211050 4.461420 
# 
# 
# High freq. dielectric constant tensor:
#      x y z
#    x 1.953760 -0.012120 0.010970 
#    y -0.012120 1.944480 0.016460 
#    z 0.010970 0.016460 1.975700 
# 
# From -- ./inp_files/529330.got.cif
#   From: 2010.06.25/outbox.cif.g09.slc.cpg/sg2_265_cif.got.tgz:529330.got - 2010.06.27 13:26:56.
