data_PCOD8007455
_publ_section_title
;
Structure prediction by ZEFSAII (Michael W. Deem and Ramdas Pophale) SiO2 
 PCOD8007455
Probable space group: P -1
;
_chemical_formula_sum "Si O2"
_cell_formula_units_Z 16
_cell_length_a 13.783479
_cell_length_b 14.350368
_cell_length_c 14.658323
_cell_angle_alpha 28.789128
_cell_angle_beta 29.957827
_cell_angle_gamma 40.026047
_cell_volume 697.013237
_symmetry_space_group_name_H-M "P -1"
_symmetry_group_IT_number 2
_symmetry_cell_setting 'triclinic'
loop_
_space_group_symop_operation_xyz
x,y,z
-x,-y,-z
loop_
_atom_site_type_symbol
_atom_site_label
_atom_site_fract_x
_atom_site_fract_y
_atom_site_fract_z
Si Si1 0.431512 0.649130 0.502548
Si Si2 0.068005 0.069576 0.528828
Si Si3 0.819454 0.121843 0.008107
Si Si4 0.669098 0.431073 0.987091
Si Si5 0.492566 0.986056 0.780153
Si Si6 0.936505 0.345727 0.547821
Si Si7 0.010617 0.717691 0.766155
Si Si8 0.524326 0.446769 0.777155
O O1 0.500000 0.500000 0.500000
O O2 0.237082 0.749810 0.535913
O O3 0.403100 0.515782 0.729111
O O4 0.565331 0.830672 0.264313
O O5 0.283282 0.001716 0.446296
O O6 0.942224 0.155817 0.640942
O O7 0.094357 0.235002 0.285571
O O8 0.950090 0.883700 0.747206
O O9 0.727101 0.214614 0.095365
O O10 0.899597 0.284707 0.734754
O O11 0.652270 0.998543 0.201614
O O12 0.000000 0.000000 0.000000
O O13 0.857682 0.559373 0.714053
O O14 0.500000 0.500000 0.000000
O O15 0.584155 0.441740 0.148257
O O16 0.469822 0.784796 0.022798
O O17 0.755806 0.493151 0.541519
O O18 0.000000 0.500000 0.000000
#
# Coordination Sequence:
#
# PCOD8007455 Si02
#       8
#     2   2   2   2   2   2   2   2
#     4  11  25  42  65 103 139 179 235 290 347 419
#     4  10  20  41  63  94 134 180 224 283 342 415
#     4  11  26  43  68 107 135 180 238 295 354 418
#     4  12  23  45  70  98 137 183 236 286 353 422
#     4  10  22  44  66  96 142 179 235 282 354 421
#     4  11  23  41  70  94 134 184 229 279 353 420
#     4  10  22  37  64  95 132 177 228 279 348 406
#     4  11  24  43  71 100 137 190 226 285 357 414
#
# _framework density 22.955086999999999
#
# number of rings (size 3 to 8) (size 9 to 14) (size 15 to 20)
#    0.000    1.250    3.750    1.875    1.750    4.500 
#    0.000    1.875    0.000    0.000    0.000    0.000 
#    0.000    0.000    0.000    0.000    0.000    0.000 
#
# Total GULP energy -198275.283945 kJ/mol
# GULP energy per Si atom -12392.205247 kJ/mol
# Density = 2.290284 g / cm^3
# Si number density = 22.955087 Si / 1000 Ang^3
#
#
#
# Elastic Constant Matrix: (Units=GPa)
#
#
# Indices 1 2 3 4 5 6 
#
# 1 117.0705 75.8518 24.8681 3.8717 3.0464 10.9909
# 2 75.8518 179.4730 39.1403 1.7202 -5.1862 25.4809
# 3 24.8681 39.1403 56.0545 -1.7008 -4.7221 13.5315
# 4 3.8717 1.7202 -1.7008 48.0731 -2.2705 -1.8919
# 5 3.0464 -5.1862 -4.7221 -2.2705 33.2299 -1.5442
# 6 10.9909 25.4809 13.5315 -1.8919 -1.5442 50.0455
#
#
#
# Elastic Compliance Matrix: (Units=1/GPa)
#
#
# Indices 1 2 3 4 5 6 
#
# 1 0.012172 -0.004716 -0.002391 -0.000992 -0.002247 0.000268
# 2 -0.004716 0.008661 -0.003264 -0.000086 0.001200 -0.002458
# 3 -0.002391 -0.003264 0.022347 0.001085 0.002786 -0.003729
# 4 -0.000992 -0.000086 0.001085 0.021036 0.001707 0.000816
# 5 -0.002247 0.001200 0.002786 0.001707 0.031006 0.000150
# 6 0.000268 -0.002458 -0.003729 0.000816 0.000150 0.022218
#
#
# Mechanical properties :
#
#
# Convention : Reuss Voigt Hill
#
# Bulk Modulus (GPa) = 44.56579 70.25759 57.41169
# Shear Modulus (GPa) = 34.32638 40.45221 37.38930
#
# Velocity S-wave (km/s) = 3.87120 4.20245 4.04022
# Velocity P-wave (km/s) = 6.27997 7.36345 6.84319
#
# Compressibility (1/GPa) = 0.02243874
#
# Stress axis : x y z
#
# Youngs Moduli (GPa) = 82.15914 115.45569 44.74878
#
# Poissons Ratio (x) = 0.54451 0.10698
# Poissons Ratio (y) = 0.38748 0.14604
# Poissons Ratio (z) = 0.19642 0.37681
#
# Static dielectric constant tensor:
#      x y z
#    x 4.464370 -0.047770 -0.323400 
#    y -0.047770 4.717470 0.048080 
#    z -0.323400 0.048080 3.790090 
# 
# 
# High freq. dielectric constant tensor:
#      x y z
#    x 1.920550 -0.002190 -0.018780 
#    y -0.002190 1.925940 -0.000350 
#    z -0.018780 -0.000350 1.875890 
# 
# From -- ./inp_files/534074.got.cif
#   From: 2010.06.25/outbox.cif.g09.slc.cpg/sg2_268_cif.got.tgz:534074.got - 2010.06.27 13:26:56.
