data_PCOD8007885
_publ_section_title
;
Structure prediction by ZEFSAII (Michael W. Deem and Ramdas Pophale) SiO2 
 PCOD8007885
Probable space group: P -1
;
_chemical_formula_sum "Si O2"
_cell_formula_units_Z 16
_cell_length_a 8.837128
_cell_length_b 11.080353
_cell_length_c 27.713035
_cell_angle_alpha 147.248459
_cell_angle_beta 148.606133
_cell_angle_gamma 51.206210
_cell_volume 723.415784
_symmetry_space_group_name_H-M "P -1"
_symmetry_group_IT_number 2
_symmetry_cell_setting 'triclinic'
loop_
_space_group_symop_operation_xyz
x,y,z
-x,-y,-z
loop_
_atom_site_type_symbol
_atom_site_label
_atom_site_fract_x
_atom_site_fract_y
_atom_site_fract_z
Si Si1 0.592219 0.897978 0.767346
Si Si2 0.717734 0.903837 0.993927
Si Si3 0.066717 0.740929 0.491851
Si Si4 0.351952 0.548423 0.121186
Si Si5 0.727831 0.184087 0.658265
Si Si6 0.492534 0.366209 0.245259
Si Si7 0.586339 0.665172 0.124116
Si Si8 0.622143 0.976223 0.405573
O O1 0.326624 0.813084 0.627195
O O2 0.505064 0.719058 0.728075
O O3 0.610776 0.159467 0.876096
O O4 0.929667 0.926537 0.846543
O O5 0.627834 0.635117 0.895385
O O6 0.655608 0.866666 0.906747
O O7 0.500000 0.000000 0.000000
O O8 0.838062 0.485524 0.358507
O O9 0.868295 0.920051 0.490049
O O10 0.236561 0.761413 0.491935
O O11 0.506828 0.516617 0.102017
O O12 0.529626 0.806400 0.276698
O O13 0.000000 0.500000 0.000000
O O14 0.687248 0.441975 0.737986
O O15 0.680593 0.059872 0.656781
O O16 0.055545 0.195222 0.731936
O O17 0.500000 0.000000 0.500000
O O18 0.500000 0.500000 0.000000
#
# Coordination Sequence:
#
# PCOD8007885 Si02
#       8
#     2   2   2   2   2   2   2   2
#     4  12  25  46  67  99 141 181 225 284 344 406
#     4  12  27  46  69  99 136 187 230 277 345 406
#     4  10  20  41  72  93 126 181 222 272 341 392
#     4  12  22  44  73  97 134 177 233 289 332 397
#     4  11  24  41  69 103 132 176 225 278 343 405
#     4  11  25  47  68  97 144 182 220 282 348 409
#     4  12  25  39  69 103 134 174 231 284 337 399
#     4  10  20  41  70  97 137 172 224 281 344 390
#
# _framework density 22.117294999999999
#
# number of rings (size 3 to 8) (size 9 to 14) (size 15 to 20)
#    0.000    0.750    5.000    3.750    5.250    0.000 
#    0.000    0.625    0.000    0.000    0.000    0.000 
#    0.000    0.000    0.000    0.000    0.000    0.000 
#
# Total GULP energy -198246.622629 kJ/mol
# GULP energy per Si atom -12390.413914 kJ/mol
# Density = 2.206695 g / cm^3
# Si number density = 22.117295 Si / 1000 Ang^3
#
#
#
# Elastic Constant Matrix: (Units=GPa)
#
#
# Indices 1 2 3 4 5 6 
#
# 1 149.3024 38.6710 50.1681 -17.6512 19.3837 20.1179
# 2 38.6710 65.0659 23.6184 -8.5371 10.8626 8.0112
# 3 50.1681 23.6184 114.4421 -25.9937 12.3751 -6.3238
# 4 -17.6512 -8.5371 -25.9937 31.5599 1.2000 8.2993
# 5 19.3837 10.8626 12.3751 1.2000 50.6964 11.0792
# 6 20.1179 8.0112 -6.3238 8.2993 11.0792 43.0377
#
#
#
# Elastic Compliance Matrix: (Units=1/GPa)
#
#
# Indices 1 2 3 4 5 6 
#
# 1 0.009790 -0.003520 -0.002903 0.003408 -0.001343 -0.004659
# 2 -0.003520 0.018981 -0.001753 0.002349 -0.001887 -0.002113
# 3 -0.002903 -0.001753 0.012493 0.007581 -0.002323 0.002655
# 4 0.003408 0.002349 0.007581 0.042799 -0.002825 -0.008443
# 5 -0.001343 -0.001887 -0.002323 -0.002825 0.022272 -0.004551
# 6 -0.004659 -0.002113 0.002655 -0.008443 -0.004551 0.028997
#
#
# Mechanical properties :
#
#
# Convention : Reuss Voigt Hill
#
# Bulk Modulus (GPa) = 40.14379 61.52503 50.83441
# Shear Modulus (GPa) = 31.25245 39.48234 35.36739
#
# Velocity S-wave (km/s) = 3.76311 4.22967 4.00319
# Velocity P-wave (km/s) = 6.08861 7.19246 6.66343
#
# Compressibility (1/GPa) = 0.02491045
#
# Stress axis : x y z
#
# Youngs Moduli (GPa) = 102.14306 52.68495 80.04732
#
# Poissons Ratio (x) = 0.18543 0.23241
# Poissons Ratio (y) = 0.35951 0.14036
# Poissons Ratio (z) = 0.29657 0.09238
#
# Static dielectric constant tensor:
#      x y z
#    x 5.086690 -0.287040 0.828300 
#    y -0.287040 4.150380 -0.532880 
#    z 0.828300 -0.532880 4.408550 
# 
# 
# High freq. dielectric constant tensor:
#      x y z
#    x 1.893100 0.024910 0.019660 
#    y 0.024910 1.837010 -0.014310 
#    z 0.019660 -0.014310 1.884270 
# 
# From -- ./inp_files/622503.got.cif
#   From: 2010.06.25/outbox.cif.g09.slc.cpg/sg2_312_cif.got.tgz:622503.got - 2010.06.27 13:26:56.
