data_PCOD8007496
_publ_section_title
;
Structure prediction by ZEFSAII (Michael W. Deem and Ramdas Pophale) SiO2 
 PCOD8007496
Probable space group: P -1
;
_chemical_formula_sum "Si O2"
_cell_formula_units_Z 16
_cell_length_a 9.293177
_cell_length_b 9.271051
_cell_length_c 13.975663
_cell_angle_alpha 94.929397
_cell_angle_beta 131.698097
_cell_angle_gamma 61.715392
_cell_volume 742.021132
_symmetry_space_group_name_H-M "P -1"
_symmetry_group_IT_number 2
_symmetry_cell_setting 'triclinic'
loop_
_space_group_symop_operation_xyz
x,y,z
-x,-y,-z
loop_
_atom_site_type_symbol
_atom_site_label
_atom_site_fract_x
_atom_site_fract_y
_atom_site_fract_z
Si Si1 0.241379 0.576922 0.927037
Si Si2 0.713330 0.303390 0.560768
Si Si3 0.922695 0.743032 0.431664
Si Si4 0.421957 0.449618 0.183434
Si Si5 0.124252 0.796856 0.167994
Si Si6 0.150255 0.094184 0.131362
Si Si7 0.812090 0.499662 0.296753
Si Si8 0.432653 0.868724 0.649690
O O1 0.104842 0.554789 0.779803
O O2 0.092197 0.778616 0.909957
O O3 0.500000 0.500000 0.000000
O O4 0.261383 0.465091 0.023604
O O5 0.500000 0.500000 0.500000
O O6 0.892343 0.197257 0.722757
O O7 0.611403 0.189713 0.475514
O O8 0.849800 0.316168 0.532962
O O9 0.768018 0.689312 0.304194
O O10 0.983600 0.646112 0.554566
O O11 0.783073 0.945882 0.402108
O O12 0.275472 0.588749 0.208798
O O13 0.580956 0.508524 0.214071
O O14 0.560414 0.256455 0.273057
O O15 0.245950 0.896006 0.193360
O O16 0.892841 0.881283 0.002567
O O17 0.330731 0.139871 0.247438
#
# Coordination Sequence:
#
# PCOD8007496 Si02
#       8
#     2   2   2   2   2   2   2   2
#     4   9  21  38  66  92 123 169 215 263 316 384
#     4  12  25  42  67  96 133 173 213 266 330 385
#     4  11  25  41  65  92 132 173 214 266 320 387
#     4  10  20  41  64  91 131 167 209 269 327 375
#     4  10  22  44  66  91 130 171 215 264 328 383
#     4  10  24  42  67  97 129 168 221 270 320 381
#     4  10  21  41  64  89 127 170 220 257 322 378
#     4  12  25  41  66  98 135 167 217 269 326 379
#
# _framework density 21.562726999999999
#
# number of rings (size 3 to 8) (size 9 to 14) (size 15 to 20)
#    0.000    1.500    2.500    1.125    3.500    6.500 
#    0.000    1.250    0.000    0.000    0.000    0.000 
#    0.000    0.000    0.000    0.000    0.000    0.000 
#
# Total GULP energy -198219.643771 kJ/mol
# GULP energy per Si atom -12388.727736 kJ/mol
# Density = 2.151365 g / cm^3
# Si number density = 21.562727 Si / 1000 Ang^3
#
#
#
# Elastic Constant Matrix: (Units=GPa)
#
#
# Indices 1 2 3 4 5 6 
#
# 1 65.9489 45.3137 37.7368 8.9211 1.5407 -7.7297
# 2 45.3137 145.8858 59.2831 3.3409 -10.6907 -6.5977
# 3 37.7368 59.2831 113.9459 19.3696 -29.9421 -10.1830
# 4 8.9211 3.3409 19.3696 45.7887 -5.4802 3.0619
# 5 1.5407 -10.6907 -29.9421 -5.4802 40.7428 5.0768
# 6 -7.7297 -6.5977 -10.1830 3.0619 5.0768 30.6476
#
#
#
# Elastic Compliance Matrix: (Units=1/GPa)
#
#
# Indices 1 2 3 4 5 6 
#
# 1 0.023217 -0.004966 -0.006288 -0.002706 -0.007695 0.004242
# 2 -0.004966 0.009893 -0.003802 0.001936 0.000329 -0.000634
# 3 -0.006288 -0.003802 0.016508 -0.004334 0.010570 0.001763
# 4 -0.002706 0.001936 -0.004334 0.024502 0.001265 -0.004363
# 5 -0.007695 0.000329 0.010570 0.001265 0.033359 -0.004010
# 6 0.004242 -0.000634 0.001763 -0.004363 -0.004010 0.035248
#
#
# Mechanical properties :
#
#
# Convention : Reuss Voigt Hill
#
# Bulk Modulus (GPa) = 51.26594 67.82754 59.54674
# Shear Modulus (GPa) = 27.87987 35.66563 31.77275
#
# Velocity S-wave (km/s) = 3.59968 4.07140 3.84279
# Velocity P-wave (km/s) = 6.41123 7.32297 6.88222
#
# Compressibility (1/GPa) = 0.01950613
#
# Stress axis : x y z
#
# Youngs Moduli (GPa) = 43.07260 101.07946 60.57613
#
# Poissons Ratio (x) = 0.50197 0.38091
# Poissons Ratio (y) = 0.21390 0.23029
# Poissons Ratio (z) = 0.27085 0.38427
#
# Static dielectric constant tensor:
#      x y z
#    x 3.613590 -0.131490 -0.325980 
#    y -0.131490 4.116410 0.398680 
#    z -0.325980 0.398680 4.376510 
# 
# 
# High freq. dielectric constant tensor:
#      x y z
#    x 1.816310 -0.006450 -0.017350 
#    y -0.006450 1.854900 0.012460 
#    z -0.017350 0.012460 1.864400 
# 
# From -- ./inp_files/494967.got.cif
#   From: 2010.06.25/outbox.cif.g09.slc.cpg/sg2_248_cif.got.tgz:494967.got - 2010.06.27 13:26:56.
