data_PCOD8007340
_publ_section_title
;
Structure prediction by ZEFSAII (Michael W. Deem and Ramdas Pophale) SiO2 
 PCOD8007340
Probable space group: P -1
;
_chemical_formula_sum "Si O2"
_cell_formula_units_Z 16
_cell_length_a 9.585845
_cell_length_b 21.257135
_cell_length_c 9.500490
_cell_angle_alpha 38.799958
_cell_angle_beta 42.766588
_cell_angle_gamma 57.322357
_cell_volume 821.302529
_symmetry_space_group_name_H-M "P -1"
_symmetry_group_IT_number 2
_symmetry_cell_setting 'triclinic'
loop_
_space_group_symop_operation_xyz
x,y,z
-x,-y,-z
loop_
_atom_site_type_symbol
_atom_site_label
_atom_site_fract_x
_atom_site_fract_y
_atom_site_fract_z
Si Si1 0.726883 0.396119 0.345713
Si Si2 0.428317 0.131649 0.680459
Si Si3 0.373566 0.836235 0.220414
Si Si4 0.983768 0.462509 0.294466
Si Si5 0.050986 0.983979 0.153537
Si Si6 0.636863 0.641404 0.700825
Si Si7 0.361721 0.485668 0.340433
Si Si8 0.609846 0.985752 0.590950
O O1 0.653115 0.283092 0.558394
O O2 0.816907 0.403166 0.422591
O O3 0.531600 0.464410 0.369438
O O4 0.903028 0.437681 0.032845
O O5 0.529670 0.127907 0.765067
O O6 0.398471 0.243045 0.455248
O O7 0.575236 0.080296 0.551372
O O8 0.204393 0.073038 0.946146
O O9 0.151125 0.878450 0.286644
O O10 0.523515 0.880829 0.908109
O O11 0.861830 0.497470 0.460355
O O12 0.149706 0.383399 0.342787
O O13 0.850600 0.980814 0.402372
O O14 0.000000 0.000000 0.000000
O O15 0.653502 0.613192 0.573994
O O16 0.437914 0.581746 0.022428
O O17 0.500000 0.000000 0.500000
#
# Coordination Sequence:
#
# PCOD8007340 Si02
#       8
#     2   2   2   2   2   2   2   2
#     4  10  22  40  61  90 128 159 206 253 307 362
#     4  11  24  42  63  94 130 163 209 260 310 371
#     4  11  24  42  65  92 130 164 206 261 312 373
#     4  10  22  38  63  91 125 164 207 252 301 367
#     4  11  23  43  66  90 125 160 205 263 311 371
#     4  10  22  38  62  89 125 162 205 251 303 365
#     4  10  20  41  60  88 126 165 199 255 307 357
#     4  11  23  42  67  92 122 163 205 258 318 371
#
# _framework density 19.481248000000001
#
# number of rings (size 3 to 8) (size 9 to 14) (size 15 to 20)
#    0.000    1.500    3.750    2.250    1.750    5.000 
#    2.250    0.000    0.000    0.000    0.000    0.000 
#    0.000    0.000    0.000    0.000    0.000    0.000 
#
# Total GULP energy -198423.524169 kJ/mol
# GULP energy per Si atom -12401.470261 kJ/mol
# Density = 1.943691 g / cm^3
# Si number density = 19.481248 Si / 1000 Ang^3
#
#
#
# Elastic Constant Matrix: (Units=GPa)
#
#
# Indices 1 2 3 4 5 6 
#
# 1 110.4880 25.7745 33.8496 3.6707 10.0086 4.6118
# 2 25.7745 89.2861 65.5242 10.6855 -5.9104 -6.0153
# 3 33.8496 65.5242 92.5144 12.4153 -0.2457 -2.1795
# 4 3.6707 10.6855 12.4153 37.9983 -4.1001 -4.7650
# 5 10.0086 -5.9104 -0.2457 -4.1001 29.9346 3.1929
# 6 4.6118 -6.0153 -2.1795 -4.7650 3.1929 33.8152
#
#
#
# Elastic Compliance Matrix: (Units=1/GPa)
#
#
# Indices 1 2 3 4 5 6 
#
# 1 0.010675 -0.001090 -0.003142 -0.000290 -0.003685 -0.001545
# 2 -0.001090 0.024312 -0.016684 -0.000414 0.004662 0.002900
# 3 -0.003142 -0.016684 0.024185 -0.003316 -0.002369 -0.001224
# 4 -0.000290 -0.000414 -0.003316 0.028351 0.003507 0.003416
# 5 -0.003685 0.004662 -0.002369 0.003507 0.036206 -0.001745
# 6 -0.001545 0.002900 -0.001224 0.003416 -0.001745 0.030866
#
#
# Mechanical properties :
#
#
# Convention : Reuss Voigt Hill
#
# Bulk Modulus (GPa) = 57.66447 60.28722 58.97585
# Shear Modulus (GPa) = 24.72705 31.49231 28.10968
#
# Velocity S-wave (km/s) = 3.56655 4.02499 3.80269
# Velocity P-wave (km/s) = 6.82822 7.25356 7.04410
#
# Compressibility (1/GPa) = 0.01734170
#
# Stress axis : x y z
#
# Youngs Moduli (GPa) = 93.67404 41.13185 41.34740
#
# Poissons Ratio (x) = 0.04482 0.12990
# Poissons Ratio (y) = 0.10206 0.68986
# Poissons Ratio (z) = 0.29428 0.68626
#
# Static dielectric constant tensor:
#      x y z
#    x 3.871740 -0.399900 -0.375560 
#    y -0.399900 4.952220 1.858160 
#    z -0.375560 1.858160 5.720790 
# 
# 
# High freq. dielectric constant tensor:
#      x y z
#    x 1.781030 -0.004470 0.003350 
#    y -0.004470 1.754370 0.001960 
#    z 0.003350 0.001960 1.756790 
# 
# From -- ./inp_files/214719.got.cif
#   From: 2010.06.25/outbox.cif.g09.slc.cpg/sg2_108_cif.got.tgz:214719.got - 2010.06.27 13:26:56.
