data_PCOD8007430
_publ_section_title
;
Structure prediction by ZEFSAII (Michael W. Deem and Ramdas Pophale) SiO2 
 PCOD8007430
Probable space group: P -1
;
_chemical_formula_sum "Si O2"
_cell_formula_units_Z 16
_cell_length_a 6.424594
_cell_length_b 22.387715
_cell_length_c 8.459225
_cell_angle_alpha 130.209231
_cell_angle_beta 123.654093
_cell_angle_gamma 54.064311
_cell_volume 721.475365
_symmetry_space_group_name_H-M "P -1"
_symmetry_group_IT_number 2
_symmetry_cell_setting 'triclinic'
loop_
_space_group_symop_operation_xyz
x,y,z
-x,-y,-z
loop_
_atom_site_type_symbol
_atom_site_label
_atom_site_fract_x
_atom_site_fract_y
_atom_site_fract_z
Si Si1 0.206630 0.542637 0.869752
Si Si2 0.508524 0.955379 0.675899
Si Si3 0.196323 0.541957 0.491121
Si Si4 0.022704 0.272054 0.779773
Si Si5 0.068797 0.275424 0.436855
Si Si6 0.652908 0.166988 0.407228
Si Si7 0.915751 0.123700 0.116492
Si Si8 0.438676 0.113048 0.755343
O O1 0.211702 0.531549 0.666635
O O2 0.992011 0.499438 0.753545
O O3 0.500000 0.500000 0.000000
O O4 0.098195 0.639511 0.035112
O O5 0.317688 0.911855 0.599376
O O6 0.635624 0.908606 0.486791
O O7 0.777120 0.940574 0.867182
O O8 0.355458 0.054511 0.747402
O O9 0.500000 0.500000 0.500000
O O10 0.090978 0.638128 0.564740
O O11 0.098852 0.285666 0.655340
O O12 0.826680 0.220544 0.627423
O O13 0.282925 0.212611 0.885679
O O14 0.894870 0.217931 0.235021
O O15 0.351196 0.233203 0.396511
O O16 0.745244 0.125241 0.205509
O O17 0.757820 0.093389 0.863861
#
# Coordination Sequence:
#
# PCOD8007430 Si02
#       8
#     2   2   2   2   2   2   2   2
#     4  11  26  46  68  98 134 168 214 268 320 388
#     4  10  22  44  59  90 130 168 210 261 318 370
#     4  11  26  44  69  98 128 172 212 263 329 388
#     4  11  23  41  65  95 126 166 213 264 313 373
#     4  10  22  42  63  92 130 162 207 264 314 377
#     4  10  20  41  63  88 130 165 208 262 316 367
#     4  10  22  40  62  89 127 165 208 265 309 373
#     4  11  22  40  64  91 127 166 212 264 313 373
#
# _framework density 22.176780999999998
#
# number of rings (size 3 to 8) (size 9 to 14) (size 15 to 20)
#    0.000    1.500    3.750    1.875    3.500    7.000 
#    2.250    0.000    0.000    0.000    0.000    0.000 
#    0.000    0.000    0.000    0.000    0.000    0.000 
#
# Total GULP energy -198303.366089 kJ/mol
# GULP energy per Si atom -12393.960381 kJ/mol
# Density = 2.212631 g / cm^3
# Si number density = 22.176781 Si / 1000 Ang^3
#
#
#
# Elastic Constant Matrix: (Units=GPa)
#
#
# Indices 1 2 3 4 5 6 
#
# 1 79.5051 18.5092 6.3366 -5.4061 18.8371 8.1777
# 2 18.5092 124.8312 24.6621 -0.3077 15.6875 2.9389
# 3 6.3366 24.6621 74.9947 -6.3652 20.7871 -4.8892
# 4 -5.4061 -0.3077 -6.3652 27.3786 -8.0036 1.5586
# 5 18.8371 15.6875 20.7871 -8.0036 25.4733 4.7162
# 6 8.1777 2.9389 -4.8892 1.5586 4.7162 26.7908
#
#
#
# Elastic Compliance Matrix: (Units=1/GPa)
#
#
# Indices 1 2 3 4 5 6 
#
# 1 0.015855 -0.001203 0.002402 0.000134 -0.012517 -0.002074
# 2 -0.001203 0.009033 -0.002075 -0.001603 -0.003427 -0.000306
# 3 0.002402 -0.002075 0.018937 -0.000526 -0.017230 0.006014
# 4 0.000134 -0.001603 -0.000526 0.041132 0.015170 -0.005025
# 5 -0.012517 -0.003427 -0.017230 0.015170 0.071758 -0.012462
# 6 -0.002074 -0.000306 0.006014 -0.005025 -0.012462 0.041576
#
#
# Mechanical properties :
#
#
# Convention : Reuss Voigt Hill
#
# Bulk Modulus (GPa) = 23.76879 42.03852 32.90366
# Shear Modulus (GPa) = 23.35711 31.25009 27.30360
#
# Velocity S-wave (km/s) = 3.24886 3.75792 3.51262
# Velocity P-wave (km/s) = 4.98143 6.15033 5.59648
#
# Compressibility (1/GPa) = 0.04207198
#
# Stress axis : x y z
#
# Youngs Moduli (GPa) = 63.07332 110.70443 52.80652
#
# Poissons Ratio (x) = 0.13319 -0.12683
# Poissons Ratio (y) = 0.07589 0.10957
# Poissons Ratio (z) = -0.15149 0.22971
#
# Static dielectric constant tensor:
#      x y z
#    x 4.111550 0.069950 0.201690 
#    y 0.069950 4.108780 -0.003850 
#    z 0.201690 -0.003850 4.016930 
# 
# 
# High freq. dielectric constant tensor:
#      x y z
#    x 1.872180 0.003850 0.013560 
#    y 0.003850 1.886280 0.005520 
#    z 0.013560 0.005520 1.872360 
# 
# From -- ./inp_files/52020.got.cif
#   From: 2010.06.25/outbox.cif.g09.slc.cpg/sg2_27_cif.got.tgz:52020.got - 2010.06.27 13:26:56.
