data_PCOD8007140
_publ_section_title
;
Structure prediction by ZEFSAII (Michael W. Deem and Ramdas Pophale) SiO2 
 PCOD8007140
Probable space group: P -1
;
_chemical_formula_sum "Si O2"
_cell_formula_units_Z 16
_cell_length_a 8.359334
_cell_length_b 14.714534
_cell_length_c 11.706277
_cell_angle_alpha 117.604830
_cell_angle_beta 82.858604
_cell_angle_gamma 138.776761
_cell_volume 776.436336
_symmetry_space_group_name_H-M "P -1"
_symmetry_group_IT_number 2
_symmetry_cell_setting 'triclinic'
loop_
_space_group_symop_operation_xyz
x,y,z
-x,-y,-z
loop_
_atom_site_type_symbol
_atom_site_label
_atom_site_fract_x
_atom_site_fract_y
_atom_site_fract_z
Si Si1 0.126329 0.061352 0.900545
Si Si2 0.352304 0.788078 0.120485
Si Si3 0.849265 0.405183 0.574593
Si Si4 0.879820 0.772400 0.621130
Si Si5 0.403520 0.931049 0.595173
Si Si6 0.950864 0.506627 0.154867
Si Si7 0.507264 0.574666 0.933326
Si Si8 0.396412 0.506194 0.343437
O O1 0.372009 0.108095 0.896373
O O2 0.225227 0.225059 0.958162
O O3 0.914852 0.907804 0.740801
O O4 0.000000 0.000000 0.000000
O O5 0.244143 0.671688 0.174484
O O6 0.390000 0.923825 0.241677
O O7 0.138762 0.656541 0.962369
O O8 0.635340 0.208792 0.459655
O O9 0.716506 0.441139 0.653135
O O10 0.000000 0.500000 0.500000
O O11 0.052050 0.474140 0.697732
O O12 0.641868 0.652696 0.486322
O O13 0.823213 0.669771 0.673683
O O14 0.134269 0.858831 0.584552
O O15 0.500000 0.000000 0.500000
O O16 0.745152 0.478534 0.091977
O O17 0.513878 0.506698 0.783594
O O18 0.500000 0.500000 0.000000
#
# Coordination Sequence:
#
# PCOD8007140 Si02
#       8
#     2   2   2   2   2   2   2   2
#     4  10  20  40  67  97 127 167 208 266 323 375
#     4   9  21  37  70  89 122 170 214 254 320 375
#     4  12  25  41  65  95 131 170 218 259 312 386
#     4  10  22  43  65  92 129 172 209 267 319 375
#     4  11  21  41  66  93 128 171 210 264 323 372
#     4  10  22  44  67  93 130 170 212 263 319 376
#     4  11  25  42  70  95 128 169 215 261 322 384
#     4  11  24  39  65  96 128 167 220 258 317 381
#
# _framework density 20.606968999999999
#
# number of rings (size 3 to 8) (size 9 to 14) (size 15 to 20)
#    0.000    1.500    3.750    0.750    7.000    0.000 
#    2.250    1.875    0.000    0.000    0.000    0.000 
#    0.000    0.000    0.000    0.000    0.000    0.000 
#
# Total GULP energy -198264.532195 kJ/mol
# GULP energy per Si atom -12391.533262 kJ/mol
# Density = 2.056007 g / cm^3
# Si number density = 20.606969 Si / 1000 Ang^3
#
#
#
# Elastic Constant Matrix: (Units=GPa)
#
#
# Indices 1 2 3 4 5 6 
#
# 1 60.8300 34.3747 30.8542 -2.7185 -6.3367 -5.1852
# 2 34.3747 151.0422 77.1335 -2.6461 -7.8928 -2.8966
# 3 30.8542 77.1335 166.0473 11.3902 -18.4851 -11.4440
# 4 -2.7185 -2.6461 11.3902 48.5869 -3.9485 -10.3563
# 5 -6.3367 -7.8928 -18.4851 -3.9485 30.1981 -1.5602
# 6 -5.1852 -2.8966 -11.4440 -10.3563 -1.5602 34.7246
#
#
#
# Elastic Compliance Matrix: (Units=1/GPa)
#
#
# Indices 1 2 3 4 5 6 
#
# 1 0.019868 -0.003383 -0.001779 0.002168 0.002627 0.002863
# 2 -0.003383 0.009358 -0.003901 0.001035 -0.000554 -0.000726
# 3 -0.001779 -0.003901 0.008852 -0.001640 0.003915 0.002013
# 4 0.002168 0.001035 -0.001640 0.022847 0.003061 0.006821
# 5 0.002627 -0.000554 0.003915 0.003061 0.036535 0.004191
# 6 0.002863 -0.000726 0.002013 0.006821 0.004191 0.032051
#
#
# Mechanical properties :
#
#
# Convention : Reuss Voigt Hill
#
# Bulk Modulus (GPa) = 50.12128 73.62715 61.87422
# Shear Modulus (GPa) = 32.40697 38.40571 35.40634
#
# Velocity S-wave (km/s) = 3.96993 4.32177 4.14958
# Velocity P-wave (km/s) = 6.73714 7.79169 7.28353
#
# Compressibility (1/GPa) = 0.01995160
#
# Stress axis : x y z
#
# Youngs Moduli (GPa) = 50.33232 106.85990 112.96414
#
# Poissons Ratio (x) = 0.36148 0.20100
# Poissons Ratio (y) = 0.17026 0.44070
# Poissons Ratio (z) = 0.08956 0.41689
#
# Static dielectric constant tensor:
#      x y z
#    x 0.000000 0.000000 0.000000 
#    y 0.000000 0.000000 0.000000 
#    z 0.000000 0.000000 0.000000 
# 
# 
# High freq. dielectric constant tensor:
#      x y z
#    x 1.767450 0.015660 -0.028030 
#    y 0.015660 1.817070 0.008700 
#    z -0.028030 0.008700 1.837200 
# 
# From -- ./inp_files/357763.got.cif
#   From: 2010.06.25/outbox.cif.g09.slc.cpg/sg2_179_cif.got.tgz:357763.got - 2010.06.27 13:26:56.
