data_PCOD8007598
_publ_section_title
;
Structure prediction by ZEFSAII (Michael W. Deem and Ramdas Pophale) SiO2 
 PCOD8007598
Probable space group: P -1
;
_chemical_formula_sum "Si O2"
_cell_formula_units_Z 16
_cell_length_a 15.578488
_cell_length_b 19.428117
_cell_length_c 9.352374
_cell_angle_alpha 143.927752
_cell_angle_beta 140.638892
_cell_angle_gamma 27.419187
_cell_volume 751.133453
_symmetry_space_group_name_H-M "P -1"
_symmetry_group_IT_number 2
_symmetry_cell_setting 'triclinic'
loop_
_space_group_symop_operation_xyz
x,y,z
-x,-y,-z
loop_
_atom_site_type_symbol
_atom_site_label
_atom_site_fract_x
_atom_site_fract_y
_atom_site_fract_z
Si Si1 0.766416 0.220498 0.703820
Si Si2 0.324847 0.181486 0.139484
Si Si3 0.411469 0.536755 0.608350
Si Si4 0.842113 0.937049 0.179004
Si Si5 0.210775 0.842742 0.054827
Si Si6 0.454728 0.906735 0.464061
Si Si7 0.514695 0.854384 0.131406
Si Si8 0.204081 0.433866 0.177540
O O1 0.576361 0.390646 0.679427
O O2 0.776340 0.076910 0.439443
O O3 0.776480 0.237981 0.916562
O O4 0.945251 0.176022 0.789838
O O5 0.366174 0.211456 0.398005
O O6 0.283019 0.320166 0.226363
O O7 0.500000 0.000000 0.000000
O O8 0.155019 0.189985 0.949034
O O9 0.500000 0.500000 0.500000
O O10 0.226811 0.560981 0.428930
O O11 0.328804 0.708711 0.853330
O O12 0.696985 0.023409 0.002548
O O13 0.291496 0.920595 0.329870
O O14 0.000000 0.000000 0.000000
O O15 0.516057 0.829743 0.258066
O O16 0.382992 0.084296 0.669250
O O17 0.652294 0.672018 0.945446
O O18 0.000000 0.500000 0.000000
#
# Coordination Sequence:
#
# PCOD8007598 Si02
#       8
#     2   2   2   2   2   2   2   2
#     4  11  24  42  71  97 142 179 232 283 347 407
#     4  11  20  41  68  96 131 175 228 274 342 407
#     4  12  28  48  69  99 148 184 227 286 352 406
#     4  10  21  39  73 101 132 178 232 279 347 416
#     4  12  27  42  70 102 136 181 236 276 343 417
#     4  10  21  38  69  92 129 169 219 278 332 390
#     4  10  20  41  65  98 132 167 220 281 334 405
#     4  12  26  42  68  99 136 177 227 280 340 402
#
# _framework density 21.301141000000001
#
# number of rings (size 3 to 8) (size 9 to 14) (size 15 to 20)
#    0.000    1.000    3.750    3.375    7.000    0.000 
#    0.000    0.625    0.000    0.000    0.000    0.000 
#    0.000    0.000    0.000    0.000    0.000    0.000 
#
# Total GULP energy -198286.446288 kJ/mol
# GULP energy per Si atom -12392.902893 kJ/mol
# Density = 2.125266 g / cm^3
# Si number density = 21.301141 Si / 1000 Ang^3
#
#
#
# Elastic Constant Matrix: (Units=GPa)
#
#
# Indices 1 2 3 4 5 6 
#
# 1 96.2470 36.5831 47.9019 -10.3054 1.4021 12.6142
# 2 36.5831 76.5549 23.5857 -12.9506 1.4519 -5.0467
# 3 47.9019 23.5857 99.3214 -8.6371 11.8253 -2.5845
# 4 -10.3054 -12.9506 -8.6371 28.3038 0.4659 1.2003
# 5 1.4021 1.4519 11.8253 0.4659 55.8315 -6.9216
# 6 12.6142 -5.0467 -2.5845 1.2003 -6.9216 32.1743
#
#
#
# Elastic Compliance Matrix: (Units=1/GPa)
#
#
# Indices 1 2 3 4 5 6 
#
# 1 0.017707 -0.006571 -0.007077 0.001642 0.000149 -0.008571
# 2 -0.006571 0.017571 -0.000457 0.005281 0.000404 0.005186
# 3 -0.007077 -0.000457 0.014084 0.001413 -0.002400 0.003265
# 4 0.001642 0.005281 0.001413 0.038850 -0.000971 -0.001360
# 5 0.000149 0.000404 -0.002400 -0.000971 0.018899 0.003914
# 6 -0.008571 0.005186 0.003265 -0.001360 0.003914 0.036409
#
#
# Mechanical properties :
#
#
# Convention : Reuss Voigt Hill
#
# Bulk Modulus (GPa) = 47.28085 54.25163 50.76624
# Shear Modulus (GPa) = 27.96712 34.19877 31.08294
#
# Velocity S-wave (km/s) = 3.62738 4.01120 3.82411
# Velocity P-wave (km/s) = 6.30781 6.85399 6.58656
#
# Compressibility (1/GPa) = 0.02115021
#
# Stress axis : x y z
#
# Youngs Moduli (GPa) = 56.47509 56.91151 71.00296
#
# Poissons Ratio (x) = 0.37398 0.50252
# Poissons Ratio (y) = 0.37111 0.03247
# Poissons Ratio (z) = 0.39970 0.02602
#
# Static dielectric constant tensor:
#      x y z
#    x 4.062200 0.115960 0.080100 
#    y 0.115960 3.452620 -0.340610 
#    z 0.080100 -0.340610 3.791190 
# 
# 
# High freq. dielectric constant tensor:
#      x y z
#    x 1.853060 0.012430 0.008030 
#    y 0.012430 1.809220 -0.011140 
#    z 0.008030 -0.011140 1.852530 
# 
# From -- ./inp_files/318169.got.cif
#   From: 2010.06.25/outbox.cif.g09.slc.cpg/sg2_160_cif.got.tgz:318169.got - 2010.06.27 13:26:56.
