data_PCOD8007271
_publ_section_title
;
Structure prediction by ZEFSAII (Michael W. Deem and Ramdas Pophale) SiO2 
 PCOD8007271
Probable space group: P -1
;
_chemical_formula_sum "Si O2"
_cell_formula_units_Z 14
_cell_length_a 9.194265
_cell_length_b 9.315091
_cell_length_c 19.958057
_cell_angle_alpha 151.445413
_cell_angle_beta 130.703834
_cell_angle_gamma 57.071755
_cell_volume 617.375827
_symmetry_space_group_name_H-M "P -1"
_symmetry_group_IT_number 2
_symmetry_cell_setting 'triclinic'
loop_
_space_group_symop_operation_xyz
x,y,z
-x,-y,-z
loop_
_atom_site_type_symbol
_atom_site_label
_atom_site_fract_x
_atom_site_fract_y
_atom_site_fract_z
Si Si1 0.803807 0.615882 0.464123
Si Si2 0.692548 0.631350 0.199984
Si Si3 0.961035 0.843414 0.996056
Si Si4 0.375919 0.890130 0.137191
Si Si5 0.537748 0.452390 0.570164
Si Si6 0.126755 0.767628 0.342377
Si Si7 0.317167 0.771581 0.850286
O O1 0.659596 0.674911 0.505830
O O2 0.715200 0.336997 0.279243
O O3 0.000000 0.500000 0.500000
O O4 0.840326 0.923785 0.560848
O O5 0.549573 0.884530 0.241220
O O6 0.662128 0.536202 0.228522
O O7 0.913876 0.745994 0.301386
O O8 0.612937 0.338629 0.014278
O O9 0.854457 0.509894 0.817623
O O10 0.170515 0.817315 0.082451
O O11 0.856375 0.055000 0.101092
O O12 0.000000 0.000000 0.000000
O O13 0.392138 0.220450 0.244435
O O14 0.500000 0.500000 0.500000
O O15 0.711833 0.241283 0.553665
O O16 0.500000 0.000000 0.000000
#
# Coordination Sequence:
#
# PCOD8007271 Si02
#       7
#     2   2   2   2   2   2   2
#     4  12  30  47  68 110 151 187 238 308 361 421
#     4  10  21  40  73 102 137 189 229 299 353 427
#     4  11  20  44  74 101 136 190 237 289 350 437
#     4  10  20  40  70 102 134 177 248 281 346 430
#     4  12  26  44  72  98 144 187 238 288 363 432
#     4  11  23  47  76 101 144 185 244 290 366 423
#     4  12  25  44  72 102 147 189 245 294 361 421
#
# _framework density 22.676627
#
# number of rings (size 3 to 8) (size 9 to 14) (size 15 to 20)
#    0.000    0.857    4.286    3.000    6.000    2.857 
#    0.000    1.429    0.000    0.000    0.000    0.000 
#    0.000    0.000    0.000    0.000    0.000    0.000 
#
# Total GULP energy -173581.196695 kJ/mol
# GULP energy per Si atom -12398.656907 kJ/mol
# Density = 2.262501 g / cm^3
# Si number density = 22.676627 Si / 1000 Ang^3
#
#
#
# Elastic Constant Matrix: (Units=GPa)
#
#
# Indices 1 2 3 4 5 6 
#
# 1 121.8628 68.9515 30.2057 -12.5316 21.1942 -1.4670
# 2 68.9515 172.1522 53.4720 -10.1739 18.3996 -17.1372
# 3 30.2057 53.4720 100.7484 2.8321 20.9954 8.8764
# 4 -12.5316 -10.1739 2.8321 41.3300 -3.2434 6.8198
# 5 21.1942 18.3996 20.9954 -3.2434 33.9425 -1.4162
# 6 -1.4670 -17.1372 8.8764 6.8198 -1.4162 40.3130
#
#
#
# Elastic Compliance Matrix: (Units=1/GPa)
#
#
# Indices 1 2 3 4 5 6 
#
# 1 0.011655 -0.004134 -0.000216 0.002467 -0.004745 -0.001870
# 2 -0.004134 0.009201 -0.004149 0.000570 0.000406 0.004592
# 3 -0.000216 -0.004149 0.014058 -0.001782 -0.006683 -0.004800
# 4 0.002467 0.000570 -0.001782 0.025925 0.001580 -0.003606
# 5 -0.004745 0.000406 -0.006683 0.001580 0.036593 0.002490
# 6 -0.001870 0.004592 -0.004800 -0.003606 0.002490 0.028444
#
#
# Mechanical properties :
#
#
# Convention : Reuss Voigt Hill
#
# Bulk Modulus (GPa) = 55.81696 77.78020 66.79858
# Shear Modulus (GPa) = 33.59161 39.25940 36.42551
#
# Velocity S-wave (km/s) = 3.85298 4.16537 4.01222
# Velocity P-wave (km/s) = 6.66796 7.58340 7.14037
#
# Compressibility (1/GPa) = 0.01791570
#
# Stress axis : x y z
#
# Youngs Moduli (GPa) = 85.79861 108.68540 71.13297
#
# Poissons Ratio (x) = 0.44934 0.01535
# Poissons Ratio (y) = 0.35472 0.29514
# Poissons Ratio (z) = 0.01851 0.45095
#
# Static dielectric constant tensor:
#      x y z
#    x 4.813280 0.207980 -0.394350 
#    y 0.207980 4.847270 -0.411320 
#    z -0.394350 -0.411320 4.672950 
# 
# 
# High freq. dielectric constant tensor:
#      x y z
#    x 1.882360 -0.020470 0.006090 
#    y -0.020470 1.903290 0.000530 
#    z 0.006090 0.000530 1.912390 
# 
# From -- ./inp_files/343482.got.cif
#   From: 2010.06.25/outbox.cif.g09.slc.cpg/sg2_172_cif.got.tgz:343482.got - 2010.06.27 13:26:56.
