data_PCOD8007653
_publ_section_title
;
Structure prediction by ZEFSAII (Michael W. Deem and Ramdas Pophale) SiO2 
 PCOD8007653
Probable space group: P -1
;
_chemical_formula_sum "Si O2"
_cell_formula_units_Z 16
_cell_length_a 9.311834
_cell_length_b 9.558352
_cell_length_c 12.298282
_cell_angle_alpha 104.303648
_cell_angle_beta 90.783262
_cell_angle_gamma 46.886606
_cell_volume 755.440688
_symmetry_space_group_name_H-M "P -1"
_symmetry_group_IT_number 2
_symmetry_cell_setting 'triclinic'
loop_
_space_group_symop_operation_xyz
x,y,z
-x,-y,-z
loop_
_atom_site_type_symbol
_atom_site_label
_atom_site_fract_x
_atom_site_fract_y
_atom_site_fract_z
Si Si1 0.879273 0.444906 0.014229
Si Si2 0.326662 0.286570 0.749130
Si Si3 0.305711 0.381613 0.327799
Si Si4 0.810718 0.442660 0.412483
Si Si5 0.991305 0.878840 0.892493
Si Si6 0.739742 0.198314 0.298823
Si Si7 0.002905 0.261283 0.757179
Si Si8 0.244491 0.105234 0.276267
O O1 0.677113 0.628704 0.116004
O O2 0.010319 0.265623 0.067397
O O3 0.862035 0.370116 0.886055
O O4 0.000000 0.500000 0.000000
O O5 0.251386 0.439021 0.679141
O O6 0.185773 0.245335 0.750894
O O7 0.557405 0.078776 0.689020
O O8 0.266853 0.402718 0.460942
O O9 0.531509 0.269434 0.282690
O O10 0.148637 0.605608 0.318132
O O11 0.278068 0.241073 0.250548
O O12 0.715328 0.348884 0.412118
O O13 0.052999 0.253075 0.382940
O O14 0.797491 0.989362 0.833490
O O15 0.187825 0.766264 0.800164
O O16 0.000000 0.000000 0.000000
O O17 0.905446 0.964077 0.293838
#
# Coordination Sequence:
#
# PCOD8007653 Si02
#       8
#     2   2   2   2   2   2   2   2
#     4  10  20  41  66  94 134 170 213 276 324 392
#     4  11  22  42  69 101 132 176 231 273 331 400
#     4  12  25  44  69  98 133 186 228 270 343 391
#     4  11  25  45  68  97 139 171 230 294 320 391
#     4  11  22  44  69  99 141 171 216 282 333 398
#     4  11  24  43  65 100 137 175 219 281 338 391
#     4  11  23  41  66  98 138 173 224 279 327 405
#     4  11  23  41  71  98 128 180 226 270 339 395
#
# _framework density 21.179690000000001
#
# number of rings (size 3 to 8) (size 9 to 14) (size 15 to 20)
#    0.000    1.000    6.250    1.500    0.000    5.000 
#    0.000    3.750    0.000    0.000    0.000    0.000 
#    0.000    0.000    0.000    0.000    0.000    0.000 
#
# Total GULP energy -198219.832482 kJ/mol
# GULP energy per Si atom -12388.739530 kJ/mol
# Density = 2.113148 g / cm^3
# Si number density = 21.179690 Si / 1000 Ang^3
#
#
#
# Elastic Constant Matrix: (Units=GPa)
#
#
# Indices 1 2 3 4 5 6 
#
# 1 115.6065 46.8098 39.3872 1.6071 0.5879 0.0770
# 2 46.8098 116.7339 36.6243 0.1501 -6.2533 2.2590
# 3 39.3872 36.6243 101.1380 -4.5584 1.5080 -0.0565
# 4 1.6071 0.1501 -4.5584 21.8918 6.7543 -2.8308
# 5 0.5879 -6.2533 1.5080 6.7543 26.0168 5.3574
# 6 0.0770 2.2590 -0.0565 -2.8308 5.3574 38.4890
#
#
#
# Elastic Compliance Matrix: (Units=1/GPa)
#
#
# Indices 1 2 3 4 5 6 
#
# 1 0.011162 -0.003536 -0.003112 -0.001222 -0.000642 0.000180
# 2 -0.003536 0.011070 -0.002761 -0.001664 0.003594 -0.001269
# 3 -0.003112 -0.002761 0.012301 0.003657 -0.002419 0.000792
# 4 -0.001222 -0.001664 0.003657 0.052063 -0.015351 0.006071
# 5 -0.000642 0.003594 -0.002419 -0.015351 0.045007 -0.007607
# 6 0.000180 -0.001269 0.000792 0.006071 -0.007607 0.027562
#
#
# Mechanical properties :
#
#
# Convention : Reuss Voigt Hill
#
# Bulk Modulus (GPa) = 63.63371 64.34678 63.99024
# Shear Modulus (GPa) = 27.28951 31.32331 29.30641
#
# Velocity S-wave (km/s) = 3.59343 3.84986 3.72385
# Velocity P-wave (km/s) = 6.87945 7.08585 6.98341
#
# Compressibility (1/GPa) = 0.01571494
#
# Stress axis : x y z
#
# Youngs Moduli (GPa) = 89.58878 90.33573 81.29722
#
# Poissons Ratio (x) = 0.31942 0.25299
# Poissons Ratio (y) = 0.31678 0.22445
# Poissons Ratio (z) = 0.27880 0.24941
#
# Static dielectric constant tensor:
#      x y z
#    x 4.049860 0.474920 0.197610 
#    y 0.474920 4.031310 0.419290 
#    z 0.197610 0.419290 4.236780 
# 
# 
# High freq. dielectric constant tensor:
#      x y z
#    x 1.831250 0.020220 -0.003160 
#    y 0.020220 1.829300 0.006840 
#    z -0.003160 0.006840 1.826270 
# 
# From -- ./inp_files/187969.got.cif
#   From: 2010.06.25/outbox.cif.g09.slc.cpg/sg2_94_cif.got.tgz:187969.got - 2010.06.27 13:26:56.
