data_PCOD8007545
_publ_section_title
;
Structure prediction by ZEFSAII (Michael W. Deem and Ramdas Pophale) SiO2 
 PCOD8007545
Probable space group: P -1
;
_chemical_formula_sum "Si O2"
_cell_formula_units_Z 14
_cell_length_a 7.112554
_cell_length_b 20.142775
_cell_length_c 9.771219
_cell_angle_alpha 127.476346
_cell_angle_beta 52.490965
_cell_angle_gamma 140.454561
_cell_volume 679.759346
_symmetry_space_group_name_H-M "P -1"
_symmetry_group_IT_number 2
_symmetry_cell_setting 'triclinic'
loop_
_space_group_symop_operation_xyz
x,y,z
-x,-y,-z
loop_
_atom_site_type_symbol
_atom_site_label
_atom_site_fract_x
_atom_site_fract_y
_atom_site_fract_z
Si Si1 0.830961 0.542648 0.680402
Si Si2 0.128827 0.603642 0.893617
Si Si3 0.302780 0.026500 0.751481
Si Si4 0.078362 0.733114 0.618786
Si Si5 0.657378 0.949188 0.546977
Si Si6 0.839404 0.578102 0.271947
Si Si7 0.742425 0.822587 0.857517
O O1 0.482743 0.459142 0.682545
O O2 0.000000 0.500000 0.500000
O O3 0.840307 0.548882 0.850149
O O4 0.018139 0.661185 0.683240
O O5 0.215202 0.525368 0.768849
O O6 0.399155 0.716276 0.838530
O O7 0.065482 0.625734 0.100523
O O8 0.409346 0.073562 0.612540
O O9 0.551090 0.021988 0.715669
O O10 0.275054 0.108107 0.938865
O O11 0.965477 0.905107 0.739730
O O12 0.440546 0.834241 0.576055
O O13 0.969326 0.669402 0.442902
O O14 0.901120 0.777123 0.794356
O O15 0.000000 0.000000 0.500000
#
# Coordination Sequence:
#
# PCOD8007545 Si02
#       7
#     2   2   2   2   2   2   2
#     4  12  23  40  62  94 125 163 210 252 300 371
#     4  11  23  39  64  89 126 162 208 255 308 361
#     4   9  21  42  63  90 122 158 208 250 307 363
#     4  11  22  41  66  88 127 166 203 252 315 359
#     4  10  22  42  64  92 124 158 200 256 307 365
#     4  11  23  43  60  90 126 165 206 255 303 370
#     4  10  20  41  65  87 122 165 202 256 302 364
#
# _framework density 20.595524000000001
#
# number of rings (size 3 to 8) (size 9 to 14) (size 15 to 20)
#    0.000    1.429    2.857    2.571    2.000    0.000 
#    7.714    2.143    0.000    0.000    0.000    0.000 
#    0.000    0.000    0.000    0.000    0.000    0.000 
#
# Total GULP energy -173502.526048 kJ/mol
# GULP energy per Si atom -12393.037575 kJ/mol
# Density = 2.054865 g / cm^3
# Si number density = 20.595524 Si / 1000 Ang^3
#
#
#
# Elastic Constant Matrix: (Units=GPa)
#
#
# Indices 1 2 3 4 5 6 
#
# 1 108.4500 28.4704 37.0705 13.5898 -13.6451 13.0921
# 2 28.4704 82.5460 18.0335 8.6820 -21.1594 9.1690
# 3 37.0705 18.0335 92.3292 17.4851 -21.4328 -6.2436
# 4 13.5898 8.6820 17.4851 25.8448 -3.1871 -5.9832
# 5 -13.6451 -21.1594 -21.4328 -3.1871 34.6150 -2.5360
# 6 13.0921 9.1690 -6.2436 -5.9832 -2.5360 34.5651
#
#
#
# Elastic Compliance Matrix: (Units=1/GPa)
#
#
# Indices 1 2 3 4 5 6 
#
# 1 0.012446 -0.002286 -0.004073 -0.004289 0.000184 -0.005572
# 2 -0.002286 0.015764 0.000308 -0.004054 0.008307 -0.003352
# 3 -0.004073 0.000308 0.015808 -0.006805 0.008017 0.003726
# 4 -0.004289 -0.004054 -0.006805 0.048761 -0.003184 0.009678
# 5 0.000184 0.008307 0.008017 -0.003184 0.038818 0.001472
# 6 -0.005572 -0.003352 0.003726 0.009678 0.001472 0.034387
#
#
# Mechanical properties :
#
#
# Convention : Reuss Voigt Hill
#
# Bulk Modulus (GPa) = 31.33137 50.05269 40.69203
# Shear Modulus (GPa) = 26.49376 32.32170 29.40773
#
# Velocity S-wave (km/s) = 3.59051 3.96581 3.78282
# Velocity P-wave (km/s) = 5.69515 6.73243 6.23540
#
# Compressibility (1/GPa) = 0.03191689
#
# Stress axis : x y z
#
# Youngs Moduli (GPa) = 80.34498 63.43739 63.26068
#
# Poissons Ratio (x) = 0.14500 0.25764
# Poissons Ratio (y) = 0.18365 -0.01949
# Poissons Ratio (z) = 0.32722 -0.01955
#
# Static dielectric constant tensor:
#      x y z
#    x 3.563570 0.043490 -0.209120 
#    y 0.043490 3.949880 -0.084250 
#    z -0.209120 -0.084250 3.831310 
# 
# 
# High freq. dielectric constant tensor:
#      x y z
#    x 1.795370 -0.006540 -0.018700 
#    y -0.006540 1.819310 -0.006980 
#    z -0.018700 -0.006980 1.809230 
# 
# From -- ./inp_files/34574.got.cif
#   From: 2010.06.25/outbox.cif.g09.slc.cpg/sg2_18_cif.got.tgz:34574.got - 2010.06.27 13:26:56.
