data_PCOD8007878
_publ_section_title
;
Structure prediction by ZEFSAII (Michael W. Deem and Ramdas Pophale) SiO2 
 PCOD8007878
Probable space group: P -1
;
_chemical_formula_sum "Si O2"
_cell_formula_units_Z 16
_cell_length_a 14.379840
_cell_length_b 17.518359
_cell_length_c 8.392350
_cell_angle_alpha 137.314158
_cell_angle_beta 146.828079
_cell_angle_gamma 43.454918
_cell_volume 748.565468
_symmetry_space_group_name_H-M "P -1"
_symmetry_group_IT_number 2
_symmetry_cell_setting 'triclinic'
loop_
_space_group_symop_operation_xyz
x,y,z
-x,-y,-z
loop_
_atom_site_type_symbol
_atom_site_label
_atom_site_fract_x
_atom_site_fract_y
_atom_site_fract_z
Si Si1 0.496357 0.263508 0.253578
Si Si2 0.427712 0.640736 0.807686
Si Si3 0.115105 0.045625 0.858951
Si Si4 0.799022 0.531967 0.707786
Si Si5 0.685347 0.492407 0.168185
Si Si6 0.174505 0.772662 0.110438
Si Si7 0.513432 0.010791 0.846595
Si Si8 0.268889 0.882796 0.120165
O O1 0.569377 0.337397 0.342519
O O2 0.312337 0.344751 0.185816
O O3 0.643753 0.219668 0.534831
O O4 0.463174 0.149978 0.947786
O O5 0.279039 0.575111 0.523483
O O6 0.627342 0.562590 0.027481
O O7 0.392114 0.759743 0.039976
O O8 0.998403 0.175206 0.947630
O O9 0.000000 0.000000 0.500000
O O10 0.289717 0.056806 0.038347
O O11 0.153189 0.955969 0.924042
O O12 0.793798 0.549206 0.534312
O O13 0.000000 0.500000 0.000000
O O14 0.500000 0.500000 0.000000
O O15 0.809131 0.361701 0.108913
O O16 0.143617 0.851589 0.026891
O O17 0.382240 0.958879 0.480139
O O18 0.500000 0.000000 0.000000
#
# Coordination Sequence:
#
# PCOD8007878 Si02
#       8
#     2   2   2   2   2   2   2   2
#     4  12  23  45  69  98 140 185 231 281 351 412
#     4  11  22  43  75  93 135 190 227 274 350 417
#     4  12  25  44  66 105 138 180 240 284 340 415
#     4  11  24  44  68 104 133 171 237 290 343 408
#     4  10  20  41  70  95 131 184 225 270 348 417
#     4  12  22  43  72  99 138 185 232 284 344 417
#     4  12  26  45  69 100 141 186 229 287 347 408
#     4  12  23  45  70 100 141 186 227 285 349 412
#
# _framework density 21.374215
#
# number of rings (size 3 to 8) (size 9 to 14) (size 15 to 20)
#    0.000    0.500    8.750    1.125    0.000    1.000 
#    6.750    0.625    0.000    0.000    0.000    0.000 
#    0.000    0.000    0.000    0.000    0.000    0.000 
#
# Total GULP energy -198397.676550 kJ/mol
# GULP energy per Si atom -12399.854784 kJ/mol
# Density = 2.132557 g / cm^3
# Si number density = 21.374215 Si / 1000 Ang^3
#
#
#
# Elastic Constant Matrix: (Units=GPa)
#
#
# Indices 1 2 3 4 5 6 
#
# 1 112.8138 59.3974 33.3183 -12.8208 -13.2984 -12.5679
# 2 59.3974 131.6171 53.2345 -2.3270 -0.7295 -24.5193
# 3 33.3183 53.2345 121.1179 -9.5474 -17.1674 -6.3458
# 4 -12.8208 -2.3270 -9.5474 37.3261 2.1780 -11.2526
# 5 -13.2984 -0.7295 -17.1674 2.1780 24.2323 -5.1765
# 6 -12.5679 -24.5193 -6.3458 -11.2526 -5.1765 53.7421
#
#
#
# Elastic Compliance Matrix: (Units=1/GPa)
#
#
# Indices 1 2 3 4 5 6 
#
# 1 0.013387 -0.005629 0.000334 0.004584 0.007490 0.002283
# 2 -0.005629 0.012544 -0.004627 -0.001086 -0.005223 0.003130
# 3 0.000334 -0.004627 0.011587 0.002509 0.008166 0.000647
# 4 0.004584 -0.001086 0.002509 0.031073 0.003108 0.007678
# 5 0.007490 -0.005223 0.008166 0.003108 0.052006 0.005993
# 6 0.002283 0.003130 0.000647 0.007678 0.005993 0.022831
#
#
# Mechanical properties :
#
#
# Convention : Reuss Voigt Hill
#
# Bulk Modulus (GPa) = 56.57686 73.04989 64.81337
# Shear Modulus (GPa) = 29.55705 37.70001 33.62853
#
# Velocity S-wave (km/s) = 3.72269 4.20433 3.97082
# Velocity P-wave (km/s) = 6.70858 7.60390 7.17023
#
# Compressibility (1/GPa) = 0.01767507
#
# Stress axis : x y z
#
# Youngs Moduli (GPa) = 74.69764 79.71680 86.30037
#
# Poissons Ratio (x) = 0.44870 -0.02881
# Poissons Ratio (y) = 0.42044 0.39933
# Poissons Ratio (z) = -0.02493 0.36887
#
# Static dielectric constant tensor:
#      x y z
#    x 4.610350 -0.713920 0.387720 
#    y -0.713920 5.953940 -1.954980 
#    z 0.387720 -1.954980 6.301810 
# 
# 
# High freq. dielectric constant tensor:
#      x y z
#    x 1.840960 -0.004330 -0.031460 
#    y -0.004330 1.852430 0.002750 
#    z -0.031460 0.002750 1.827920 
# 
# From -- ./inp_files/274350.got.cif
#   From: 2010.06.25/outbox.cif.g09.slc.cpg/sg2_138_cif.got.tgz:274350.got - 2010.06.27 13:26:56.
