data_PCOD8007903
_publ_section_title
;
Structure prediction by ZEFSAII (Michael W. Deem and Ramdas Pophale) SiO2 
 PCOD8007903
Probable space group: P -1
;
_chemical_formula_sum "Si O2"
_cell_formula_units_Z 14
_cell_length_a 11.128440
_cell_length_b 8.591556
_cell_length_c 16.792338
_cell_angle_alpha 57.970264
_cell_angle_beta 146.195579
_cell_angle_gamma 137.621081
_cell_volume 586.977361
_symmetry_space_group_name_H-M "P -1"
_symmetry_group_IT_number 2
_symmetry_cell_setting 'triclinic'
loop_
_space_group_symop_operation_xyz
x,y,z
-x,-y,-z
loop_
_atom_site_type_symbol
_atom_site_label
_atom_site_fract_x
_atom_site_fract_y
_atom_site_fract_z
Si Si1 0.498027 0.959524 0.917977
Si Si2 0.803776 0.650686 0.588107
Si Si3 0.879643 0.516569 0.235939
Si Si4 0.317020 0.033755 0.335198
Si Si5 0.274051 0.537427 0.659016
Si Si6 0.365694 0.245347 0.677887
Si Si7 0.088628 0.274776 0.201205
O O1 0.364377 0.688135 0.900849
O O2 0.335689 0.021895 0.755541
O O3 0.500000 0.000000 0.000000
O O4 0.830567 0.140963 0.033492
O O5 0.500000 0.500000 0.500000
O O6 0.823083 0.830105 0.486528
O O7 0.009737 0.757778 0.750150
O O8 0.874054 0.506179 0.614133
O O9 0.722648 0.488806 0.237706
O O10 0.038994 0.781275 0.218725
O O11 0.500000 0.000000 0.500000
O O12 0.471275 0.194575 0.298849
O O13 0.238722 0.159578 0.314795
O O14 0.280160 0.342545 0.673167
O O15 0.000000 0.500000 0.500000
O O16 0.689832 0.450981 0.776870
#
# Coordination Sequence:
#
# PCOD8007903 Si02
#       7
#     2   2   2   2   2   2   2
#     4  12  27  45  64 100 143 188 231 279 345 423
#     4  10  20  41  71 103 131 175 236 285 348 398
#     4  12  25  43  68 103 139 182 232 284 352 412
#     4  11  23  43  73 101 141 178 224 298 346 405
#     4  11  22  43  70 105 136 173 232 283 356 406
#     4  10  23  45  71 101 138 181 231 295 341 410
#     4  10  23  46  70  99 140 184 231 284 351 409
#
# _framework density 23.851006999999999
#
# number of rings (size 3 to 8) (size 9 to 14) (size 15 to 20)
#    0.000    1.143    4.286    2.143    2.000    4.571 
#    5.143    1.429    0.000    0.000    0.000    0.000 
#    0.000    0.000    0.000    0.000    0.000    0.000 
#
# Total GULP energy -173520.613267 kJ/mol
# GULP energy per Si atom -12394.329519 kJ/mol
# Density = 2.379672 g / cm^3
# Si number density = 23.851007 Si / 1000 Ang^3
#
#
#
# Elastic Constant Matrix: (Units=GPa)
#
#
# Indices 1 2 3 4 5 6 
#
# 1 137.2735 38.2753 17.8764 -1.9702 -11.5176 6.5001
# 2 38.2753 116.0431 -5.5933 -3.6917 -13.9945 7.0246
# 3 17.8764 -5.5933 85.7102 3.1069 -11.4873 -0.9645
# 4 -1.9702 -3.6917 3.1069 33.4730 -7.3077 -5.2882
# 5 -11.5176 -13.9945 -11.4873 -7.3077 25.4615 4.4859
# 6 6.5001 7.0246 -0.9645 -5.2882 4.4859 27.7146
#
#
#
# Elastic Compliance Matrix: (Units=1/GPa)
#
#
# Indices 1 2 3 4 5 6 
#
# 1 0.008467 -0.002494 -0.001679 0.000590 0.002162 -0.001649
# 2 -0.002494 0.010554 0.001994 0.001837 0.006581 -0.002735
# 3 -0.001679 0.001994 0.012986 0.000203 0.006368 -0.000652
# 4 0.000590 0.001837 0.000203 0.032940 0.010109 0.004052
# 5 0.002162 0.006581 0.006368 0.010109 0.051106 -0.008297
# 6 -0.001649 -0.002735 -0.000652 0.004052 -0.008297 0.039256
#
#
# Mechanical properties :
#
#
# Convention : Reuss Voigt Hill
#
# Bulk Modulus (GPa) = 36.16910 48.90484 42.53697
# Shear Modulus (GPa) = 29.60607 36.56105 33.08356
#
# Velocity S-wave (km/s) = 3.52702 3.91947 3.72841
# Velocity P-wave (km/s) = 5.63773 6.40560 6.03390
#
# Compressibility (1/GPa) = 0.02764791
#
# Stress axis : x y z
#
# Youngs Moduli (GPa) = 118.10894 94.75112 77.00412
#
# Poissons Ratio (x) = 0.23634 0.12928
# Poissons Ratio (y) = 0.29460 -0.15352
# Poissons Ratio (z) = 0.19830 -0.18890
#
# Static dielectric constant tensor:
#      x y z
#    x 5.047590 0.097800 -0.094240 
#    y 0.097800 4.518840 0.548820 
#    z -0.094240 0.548820 5.061970 
# 
# 
# High freq. dielectric constant tensor:
#      x y z
#    x 1.957260 0.016950 0.016510 
#    y 0.016950 1.954510 0.021300 
#    z 0.016510 0.021300 1.937820 
# 
# From -- ./inp_files/345028.got.cif
#   From: 2010.06.25/outbox.cif.g09.slc.cpg/sg2_173_cif.got.tgz:345028.got - 2010.06.27 13:26:56.
