data_PCOD8007626
_publ_section_title
;
Structure prediction by ZEFSAII (Michael W. Deem and Ramdas Pophale) SiO2 
 PCOD8007626
Probable space group: P -1
;
_chemical_formula_sum "Si O2"
_cell_formula_units_Z 16
_cell_length_a 9.246215
_cell_length_b 15.710655
_cell_length_c 12.262892
_cell_angle_alpha 144.510066
_cell_angle_beta 109.699657
_cell_angle_gamma 52.631483
_cell_volume 772.812620
_symmetry_space_group_name_H-M "P -1"
_symmetry_group_IT_number 2
_symmetry_cell_setting 'triclinic'
loop_
_space_group_symop_operation_xyz
x,y,z
-x,-y,-z
loop_
_atom_site_type_symbol
_atom_site_label
_atom_site_fract_x
_atom_site_fract_y
_atom_site_fract_z
Si Si1 0.013684 0.661171 0.147403
Si Si2 0.206042 0.955538 0.003629
Si Si3 0.815569 0.697036 0.695074
Si Si4 0.191596 0.954478 0.444359
Si Si5 0.404101 0.799317 0.665489
Si Si6 0.616891 0.383740 0.726381
Si Si7 0.906639 0.796491 0.026127
Si Si8 0.249628 0.785244 0.053592
O O1 0.205536 0.611040 0.200416
O O2 0.022193 0.674772 0.033570
O O3 0.823983 0.859971 0.350800
O O4 0.000000 0.500000 0.000000
O O5 0.311821 0.845800 0.028263
O O6 0.193250 0.138514 0.191403
O O7 0.328903 0.823045 0.794422
O O8 0.000000 0.000000 0.000000
O O9 0.626568 0.716872 0.635978
O O10 0.000000 0.500000 0.500000
O O11 0.828063 0.707705 0.840724
O O12 0.372085 0.771535 0.359540
O O13 0.197703 0.920627 0.282373
O O14 0.000000 0.000000 0.500000
O O15 0.386264 0.658109 0.446281
O O16 0.276075 0.995031 0.773051
O O17 0.422145 0.577395 0.913811
O O18 0.057210 0.801881 0.995365
#
# Coordination Sequence:
#
# PCOD8007626 Si02
#       8
#     2   2   2   2   2   2   2   2
#     4  11  24  41  66 100 128 174 232 282 340 402
#     4  11  24  41  68 100 138 178 232 281 336 405
#     4  11  25  45  68 100 137 182 228 282 347 411
#     4  10  20  41  66  90 127 178 221 267 340 406
#     4  11  23  44  72  97 135 189 225 273 350 412
#     4  11  23  41  71  95 130 181 228 274 346 414
#     4  11  20  42  66  91 138 181 216 281 343 406
#     4  12  22  40  69 101 136 173 234 285 333 408
#
# _framework density 20.703596000000001
#
# number of rings (size 3 to 8) (size 9 to 14) (size 15 to 20)
#    0.000    1.000    6.250    3.375    0.000    3.500 
#    0.000    0.625    0.000    0.000    0.000    0.000 
#    0.000    0.000    0.000    0.000    0.000    0.000 
#
# Total GULP energy -198375.755928 kJ/mol
# GULP energy per Si atom -12398.484746 kJ/mol
# Density = 2.065647 g / cm^3
# Si number density = 20.703596 Si / 1000 Ang^3
#
#
#
# Elastic Constant Matrix: (Units=GPa)
#
#
# Indices 1 2 3 4 5 6 
#
# 1 97.3248 60.2562 48.9528 -0.9127 2.8420 -8.5253
# 2 60.2562 121.3135 65.0440 -5.9092 1.9097 -0.0715
# 3 48.9528 65.0440 135.4503 2.6789 9.1511 1.1934
# 4 -0.9127 -5.9092 2.6789 39.7977 -4.5109 -7.8093
# 5 2.8420 1.9097 9.1511 -4.5109 31.4551 -1.4593
# 6 -8.5253 -0.0715 1.1934 -7.8093 -1.4593 40.3916
#
#
#
# Elastic Compliance Matrix: (Units=1/GPa)
#
#
# Indices 1 2 3 4 5 6 
#
# 1 0.015934 -0.006457 -0.002690 0.000263 -0.000066 0.003480
# 2 -0.006457 0.013945 -0.004491 0.002233 0.001330 -0.000726
# 3 -0.002690 -0.004491 0.010766 -0.002065 -0.002978 -0.001401
# 4 0.000263 0.002233 -0.002065 0.027214 0.004602 0.005548
# 5 -0.000066 0.001330 -0.002978 0.004602 0.033343 0.002171
# 6 0.003480 -0.000726 -0.001401 0.005548 0.002171 0.026683
#
#
# Mechanical properties :
#
#
# Convention : Reuss Voigt Hill
#
# Bulk Modulus (GPa) = 74.78716 78.06605 76.42661
# Shear Modulus (GPa) = 31.32494 34.31794 32.82144
#
# Velocity S-wave (km/s) = 3.89397 4.07576 3.98590
# Velocity P-wave (km/s) = 7.51123 7.74193 7.62745
#
# Compressibility (1/GPa) = 0.01337128
#
# Stress axis : x y z
#
# Youngs Moduli (GPa) = 62.75744 71.70897 92.88736
#
# Poissons Ratio (x) = 0.46299 0.24984
# Poissons Ratio (y) = 0.40519 0.41714
# Poissons Ratio (z) = 0.16880 0.32203
#
# Static dielectric constant tensor:
#      x y z
#    x 3.519450 0.052770 0.025960 
#    y 0.052770 4.157430 0.033760 
#    z 0.025960 0.033760 4.073630 
# 
# 
# High freq. dielectric constant tensor:
#      x y z
#    x 1.776050 -0.009440 -0.005120 
#    y -0.009440 1.825850 -0.005060 
#    z -0.005120 -0.005060 1.824010 
# 
# From -- ./inp_files/399826.got.cif
#   From: 2010.06.25/outbox.cif.g09.slc.cpg/sg2_200_cif.got.tgz:399826.got - 2010.06.27 13:26:56.
