data_PCOD8007584
_publ_section_title
;
Structure prediction by ZEFSAII (Michael W. Deem and Ramdas Pophale) SiO2 
 PCOD8007584
Probable space group: P -1
;
_chemical_formula_sum "Si O2"
_cell_formula_units_Z 16
_cell_length_a 5.300739
_cell_length_b 7.181850
_cell_length_c 19.874089
_cell_angle_alpha 98.739159
_cell_angle_beta 56.603535
_cell_angle_gamma 103.234273
_cell_volume 614.573818
_symmetry_space_group_name_H-M "P -1"
_symmetry_group_IT_number 2
_symmetry_cell_setting 'triclinic'
loop_
_space_group_symop_operation_xyz
x,y,z
-x,-y,-z
loop_
_atom_site_type_symbol
_atom_site_label
_atom_site_fract_x
_atom_site_fract_y
_atom_site_fract_z
Si Si1 0.459808 0.663172 0.360087
Si Si2 0.089412 0.179711 0.323699
Si Si3 0.890792 0.857719 0.425720
Si Si4 0.916273 0.884297 0.214916
Si Si5 0.165136 0.393211 0.025226
Si Si6 0.491610 0.647745 0.570142
Si Si7 0.308099 0.800778 0.824850
Si Si8 0.475919 0.066993 0.932556
O O1 0.640278 0.781512 0.401249
O O2 0.670101 0.698925 0.264106
O O3 0.381861 0.438888 0.384420
O O4 0.138503 0.721037 0.391617
O O5 0.435297 0.287852 0.260445
O O6 0.852713 0.325220 0.359704
O O7 0.056083 0.075371 0.396377
O O8 0.028361 0.005315 0.271037
O O9 0.700658 0.847715 0.524372
O O10 0.196544 0.808044 0.132611
O O11 0.766164 0.018480 0.194637
O O12 0.204469 0.190844 0.974029
O O13 0.500000 0.500000 0.000000
O O14 0.000000 0.500000 0.000000
O O15 0.981501 0.362055 0.122043
O O16 0.500000 0.500000 0.500000
O O17 0.425439 0.875666 0.885269
O O18 0.500000 0.000000 0.000000
#
# Coordination Sequence:
#
# PCOD8007584 Si02
#       8
#     2   2   2   2   2   2   2   2
#     4  10  21  41  62  96 132 173 224 282 344 409
#     4  10  22  42  67  99 133 185 238 287 346 421
#     4  10  20  41  65  94 129 177 228 281 333 409
#     4  10  22  41  68  97 132 182 243 287 338 420
#     4  12  28  45  68 108 144 175 228 295 359 413
#     4  10  22  42  65  98 141 179 226 291 358 413
#     4  11  23  45  74  96 140 189 242 288 347 429
#     4  11  23  44  76  99 135 190 242 287 346 425
#
# _framework density 26.034303000000001
#
# number of rings (size 3 to 8) (size 9 to 14) (size 15 to 20)
#    0.000    1.500    2.500    1.875    3.500    1.000 
#    9.000    3.750    0.000    0.000    0.000    0.000 
#    0.000    0.000    0.000    0.000    0.000    0.000 
#
# Total GULP energy -198314.980189 kJ/mol
# GULP energy per Si atom -12394.686262 kJ/mol
# Density = 2.597505 g / cm^3
# Si number density = 26.034303 Si / 1000 Ang^3
#
#
#
# Elastic Constant Matrix: (Units=GPa)
#
#
# Indices 1 2 3 4 5 6 
#
# 1 93.3026 17.9047 32.5408 -12.3155 -12.2673 -24.5643
# 2 17.9047 88.0475 44.8788 -35.7527 -12.4177 -27.8635
# 3 32.5408 44.8788 160.1686 -35.2730 -34.4287 -6.6488
# 4 -12.3155 -35.7527 -35.2730 57.1248 -4.8769 -5.4955
# 5 -12.2673 -12.4177 -34.4287 -4.8769 58.3828 2.0801
# 6 -24.5643 -27.8635 -6.6488 -5.4955 2.0801 46.1152
#
#
#
# Elastic Compliance Matrix: (Units=1/GPa)
#
#
# Indices 1 2 3 4 5 6 
#
# 1 0.014458 0.004040 -0.001697 0.005862 0.003014 0.010461
# 2 0.004040 0.025997 -0.001958 0.018325 0.006060 0.019488
# 3 -0.001697 -0.001958 0.009182 0.004464 0.005031 -0.000458
# 4 0.005862 0.018325 0.004464 0.035647 0.010076 0.018632
# 5 0.003014 0.006060 0.005031 0.010076 0.022639 0.006172
# 6 0.010461 0.019488 -0.000458 0.018632 0.006172 0.040908
#
#
# Mechanical properties :
#
#
# Convention : Reuss Voigt Hill
#
# Bulk Modulus (GPa) = 19.83772 59.12971 39.48371
# Shear Modulus (GPa) = 30.32831 48.73752 39.53292
#
# Velocity S-wave (km/s) = 3.41682 4.33141 3.90101
# Velocity P-wave (km/s) = 4.81691 6.91205 5.95731
#
# Compressibility (1/GPa) = 0.05040902
#
# Stress axis : x y z
#
# Youngs Moduli (GPa) = 69.16478 38.46658 108.90567
#
# Poissons Ratio (x) = -0.15542 0.18476
# Poissons Ratio (y) = -0.27945 0.21322
# Poissons Ratio (z) = 0.11734 0.07531
#
# Static dielectric constant tensor:
#      x y z
#    x 4.616240 0.207240 -0.362390 
#    y 0.207240 5.620830 -0.419360 
#    z -0.362390 -0.419360 6.288950 
# 
# 
# High freq. dielectric constant tensor:
#      x y z
#    x 2.045910 -0.004690 -0.007200 
#    y -0.004690 2.028460 -0.022630 
#    z -0.007200 -0.022630 2.070460 
# 
# From -- ./inp_files/582420.got.cif
#   From: 2010.06.25/outbox.cif.g09.slc.cpg/sg2_292_cif.got.tgz:582420.got - 2010.06.27 13:26:56.
