data_PCOD8007484
_publ_section_title
;
Structure prediction by ZEFSAII (Michael W. Deem and Ramdas Pophale) SiO2 
 PCOD8007484
Probable space group: P -1
;
_chemical_formula_sum "Si O2"
_cell_formula_units_Z 16
_cell_length_a 12.119127
_cell_length_b 8.668613
_cell_length_c 11.586870
_cell_angle_alpha 127.378883
_cell_angle_beta 128.466998
_cell_angle_gamma 61.069086
_cell_volume 746.260014
_symmetry_space_group_name_H-M "P -1"
_symmetry_group_IT_number 2
_symmetry_cell_setting 'triclinic'
loop_
_space_group_symop_operation_xyz
x,y,z
-x,-y,-z
loop_
_atom_site_type_symbol
_atom_site_label
_atom_site_fract_x
_atom_site_fract_y
_atom_site_fract_z
Si Si1 0.149765 0.164697 0.224975
Si Si2 0.589291 0.638843 0.458839
Si Si3 0.145254 0.846057 0.889858
Si Si4 0.675375 0.285188 0.530394
Si Si5 0.873891 0.534615 0.844952
Si Si6 0.369173 0.460215 0.821356
Si Si7 0.389429 0.075005 0.789076
Si Si8 0.316087 0.113950 0.017427
O O1 0.296972 0.208981 0.396887
O O2 0.080409 0.349712 0.183426
O O3 0.024601 0.157057 0.234268
O O4 0.179056 0.956415 0.080988
O O5 0.625940 0.467629 0.497235
O O6 0.432046 0.745671 0.447317
O O7 0.588251 0.545598 0.288445
O O8 0.232280 0.625341 0.835158
O O9 0.191880 0.979653 0.877499
O O10 0.828495 0.322367 0.695076
O O11 0.701073 0.091398 0.380836
O O12 0.732785 0.668956 0.866415
O O13 0.000000 0.500000 0.000000
O O14 0.339455 0.248036 0.744629
O O15 0.500000 0.500000 0.000000
O O16 0.358684 0.149324 0.931916
O O17 0.558713 0.987810 0.860626
#
# Coordination Sequence:
#
# PCOD8007484 Si02
#       8
#     2   2   2   2   2   2   2   2
#     4   9  21  41  67  89 124 169 213 256 320 378
#     4  10  22  42  65  94 124 165 215 262 315 374
#     4  10  20  41  64  90 123 171 207 258 318 378
#     4  10  21  41  68  90 126 168 209 259 317 377
#     4  10  22  39  65  98 122 164 211 264 311 375
#     4  12  26  38  61  99 131 164 212 266 312 372
#     4  11  23  40  62  97 125 167 213 262 315 369
#     4  10  21  40  66  88 128 168 213 254 320 383
#
# _framework density 21.440249999999999
#
# number of rings (size 3 to 8) (size 9 to 14) (size 15 to 20)
#    0.000    1.750    1.250    3.750    5.250    1.000 
#    6.750    0.625    0.000    0.000    0.000    0.000 
#    0.000    0.000    0.000    0.000    0.000    0.000 
#
# Total GULP energy -198311.650129 kJ/mol
# GULP energy per Si atom -12394.478133 kJ/mol
# Density = 2.139145 g / cm^3
# Si number density = 21.440250 Si / 1000 Ang^3
#
#
#
# Elastic Constant Matrix: (Units=GPa)
#
#
# Indices 1 2 3 4 5 6 
#
# 1 80.8995 18.2965 35.7479 -4.3439 2.0227 3.7903
# 2 18.2965 46.8325 16.8482 10.2823 -0.4284 0.8062
# 3 35.7479 16.8482 116.3551 5.5065 9.7571 10.3343
# 4 -4.3439 10.2823 5.5065 34.3817 3.7721 -0.8303
# 5 2.0227 -0.4284 9.7571 3.7721 33.7753 10.0904
# 6 3.7903 0.8062 10.3343 -0.8303 10.0904 16.0816
#
#
#
# Elastic Compliance Matrix: (Units=1/GPa)
#
#
# Indices 1 2 3 4 5 6 
#
# 1 0.015727 -0.005588 -0.004177 0.004335 -0.000167 -0.000414
# 2 -0.005588 0.026079 -0.001788 -0.008496 0.002358 -0.000759
# 3 -0.004177 -0.001788 0.010777 -0.001721 -0.001131 -0.005231
# 4 0.004335 -0.008496 -0.001721 0.033154 -0.005214 0.005494
# 5 -0.000167 0.002358 -0.001131 -0.005214 0.037466 -0.023130
# 6 -0.000414 -0.000759 -0.005231 0.005494 -0.023130 0.080476
#
#
# Mechanical properties :
#
#
# Convention : Reuss Voigt Hill
#
# Bulk Modulus (GPa) = 33.92340 42.87470 38.39905
# Shear Modulus (GPa) = 21.13174 28.39402 24.76288
#
# Velocity S-wave (km/s) = 3.14285 3.64309 3.40217
# Velocity P-wave (km/s) = 5.38764 6.14303 5.77769
#
# Compressibility (1/GPa) = 0.02947818
#
# Stress axis : x y z
#
# Youngs Moduli (GPa) = 63.58542 38.34534 92.78611
#
# Poissons Ratio (x) = 0.21426 0.38758
# Poissons Ratio (y) = 0.35529 0.16587
# Poissons Ratio (z) = 0.26560 0.06855
#
# Static dielectric constant tensor:
#      x y z
#    x -4.598420 -4.358950 -2.700130 
#    y -4.358950 1.608640 -1.217680 
#    z -2.700130 -1.217680 2.998100 
# 
# 
# High freq. dielectric constant tensor:
#      x y z
#    x 1.845950 0.008430 0.004180 
#    y 0.008430 1.821630 0.020700 
#    z 0.004180 0.020700 1.839870 
# 
# From -- ./inp_files/420126.got.cif
#   From: 2010.06.25/outbox.cif.g09.slc.cpg/sg2_211_cif.got.tgz:420126.got - 2010.06.27 13:26:56.
