data_PCOD8007636
_publ_section_title
;
Structure prediction by ZEFSAII (Michael W. Deem and Ramdas Pophale) SiO2 
 PCOD8007636
Probable space group: P -1
;
_chemical_formula_sum "Si O2"
_cell_formula_units_Z 16
_cell_length_a 8.551289
_cell_length_b 9.079256
_cell_length_c 11.444269
_cell_angle_alpha 97.423869
_cell_angle_beta 63.129665
_cell_angle_gamma 105.592869
_cell_volume 763.391519
_symmetry_space_group_name_H-M "P -1"
_symmetry_group_IT_number 2
_symmetry_cell_setting 'triclinic'
loop_
_space_group_symop_operation_xyz
x,y,z
-x,-y,-z
loop_
_atom_site_type_symbol
_atom_site_label
_atom_site_fract_x
_atom_site_fract_y
_atom_site_fract_z
Si Si1 0.680696 0.099736 0.889389
Si Si2 0.611278 0.312623 0.491161
Si Si3 0.770781 0.627958 0.383274
Si Si4 0.509673 0.247019 0.769229
Si Si5 0.236356 0.431058 0.882425
Si Si6 0.995154 0.062772 0.636583
Si Si7 0.142383 0.729606 0.934417
Si Si8 0.263515 0.946334 0.705519
O O1 0.628978 0.226804 0.837644
O O2 0.794343 0.011497 0.757084
O O3 0.819699 0.172368 0.950741
O O4 0.500000 0.000000 0.000000
O O5 0.768634 0.455842 0.408156
O O6 0.417502 0.331658 0.513950
O O7 0.631565 0.319306 0.625402
O O8 0.625897 0.149638 0.419119
O O9 0.801851 0.645276 0.237805
O O10 0.940155 0.753968 0.388781
O O11 0.401714 0.367586 0.869464
O O12 0.388946 0.085852 0.747255
O O13 0.279965 0.616028 0.875687
O O14 0.061119 0.371618 0.015219
O O15 0.131544 0.005691 0.669974
O O16 0.000000 0.000000 0.500000
O O17 0.156408 0.835305 0.828383
#
# Coordination Sequence:
#
# PCOD8007636 Si02
#       8
#     2   2   2   2   2   2   2   2
#     4  12  26  43  64 100 140 173 217 280 330 383
#     4  10  21  38  67 100 119 171 226 269 325 393
#     4  10  20  41  66  91 134 166 217 273 328 389
#     4  11  23  40  65  94 134 171 220 272 326 394
#     4  10  21  43  65  94 125 174 218 270 327 396
#     4  12  27  45  67 100 138 174 220 279 332 392
#     4  11  23  40  70  93 128 169 223 270 328 397
#     4  12  22  39  70  96 128 175 224 265 332 400
#
# _framework density 20.959101
#
# number of rings (size 3 to 8) (size 9 to 14) (size 15 to 20)
#    0.000    1.000    6.250    1.125    3.500    1.500 
#    0.000    5.000    0.000    0.000    0.000    0.000 
#    0.000    0.000    0.000    0.000    0.000    0.000 
#
# Total GULP energy -198322.650834 kJ/mol
# GULP energy per Si atom -12395.165677 kJ/mol
# Density = 2.091140 g / cm^3
# Si number density = 20.959101 Si / 1000 Ang^3
#
#
#
# Elastic Constant Matrix: (Units=GPa)
#
#
# Indices 1 2 3 4 5 6 
#
# 1 47.3092 11.5824 25.5960 -7.7915 3.9829 -8.6775
# 2 11.5824 95.1322 23.1404 -6.0414 -8.3295 -8.1651
# 3 25.5960 23.1404 89.2472 4.2356 -10.4403 -3.9692
# 4 -7.7915 -6.0414 4.2356 38.8421 -5.0532 -3.1429
# 5 3.9829 -8.3295 -10.4403 -5.0532 33.2162 -0.2385
# 6 -8.6775 -8.1651 -3.9692 -3.1429 -0.2385 30.0903
#
#
#
# Elastic Compliance Matrix: (Units=1/GPa)
#
#
# Indices 1 2 3 4 5 6 
#
# 1 0.028972 -0.000810 -0.008698 0.006554 -0.005359 0.007630
# 2 -0.000810 0.011874 -0.002522 0.002548 0.002691 0.002943
# 3 -0.008698 -0.002522 0.014981 -0.003294 0.004607 -0.001524
# 4 0.006554 0.002548 -0.003294 0.028651 0.003213 0.005165
# 5 -0.005359 0.002691 0.004607 0.003213 0.033363 0.000393
# 6 0.007630 0.002943 -0.001524 0.005165 0.000393 0.036574
#
#
# Mechanical properties :
#
#
# Convention : Reuss Voigt Hill
#
# Bulk Modulus (GPa) = 31.47845 39.14733 35.31289
# Shear Modulus (GPa) = 26.44642 31.85437 29.15040
#
# Velocity S-wave (km/s) = 3.55605 3.90274 3.73342
# Velocity P-wave (km/s) = 5.64909 6.24716 5.95564
#
# Compressibility (1/GPa) = 0.03176777
#
# Stress axis : x y z
#
# Youngs Moduli (GPa) = 34.51650 84.22015 66.75275
#
# Poissons Ratio (x) = 0.06820 0.58059
# Poissons Ratio (y) = 0.02795 0.16833
# Poissons Ratio (z) = 0.30021 0.21237
#
# Static dielectric constant tensor:
#      x y z
#    x 3.748400 -0.260670 -0.153960 
#    y -0.260670 4.022000 -0.048680 
#    z -0.153960 -0.048680 4.064990 
# 
# 
# High freq. dielectric constant tensor:
#      x y z
#    x 1.793670 -0.015090 -0.004910 
#    y -0.015090 1.827800 -0.005070 
#    z -0.004910 -0.005070 1.836960 
# 
# From -- ./inp_files/239783.got.cif
#   From: 2010.06.25/outbox.cif.g09.slc.cpg/sg2_120_cif.got.tgz:239783.got - 2010.06.27 13:26:56.
