data_PCOD8007094
_publ_section_title
;
Structure prediction by ZEFSAII (Michael W. Deem and Ramdas Pophale) SiO2 
 PCOD8007094
Probable space group: P -1
;
_chemical_formula_sum "Si O2"
_cell_formula_units_Z 16
_cell_length_a 13.467816
_cell_length_b 8.655694
_cell_length_c 11.742829
_cell_angle_alpha 114.619966
_cell_angle_beta 85.730037
_cell_angle_gamma 139.197001
_cell_volume 743.341945
_symmetry_space_group_name_H-M "P -1"
_symmetry_group_IT_number 2
_symmetry_cell_setting 'triclinic'
loop_
_space_group_symop_operation_xyz
x,y,z
-x,-y,-z
loop_
_atom_site_type_symbol
_atom_site_label
_atom_site_fract_x
_atom_site_fract_y
_atom_site_fract_z
Si Si1 0.360818 0.705683 0.786620
Si Si2 0.335809 0.629475 0.027727
Si Si3 0.008242 0.371716 0.055372
Si Si4 0.839906 0.265749 0.642745
Si Si5 0.745528 0.475525 0.608603
Si Si6 0.813881 0.793327 0.918624
Si Si7 0.486874 0.287243 0.409233
Si Si8 0.955293 0.752165 0.467632
O O1 0.441523 0.650661 0.703529
O O2 0.194571 0.530595 0.681033
O O3 0.487685 0.037385 0.865715
O O4 0.311543 0.582043 0.880068
O O5 0.182706 0.515452 0.065539
O O6 0.320032 0.425931 0.034030
O O7 0.010398 0.452493 0.207760
O O8 0.000000 0.500000 0.000000
O O9 0.837707 0.025983 0.957919
O O10 0.744841 0.275674 0.578325
O O11 0.898094 0.186544 0.535536
O O12 0.707107 0.018076 0.669366
O O13 0.754951 0.610402 0.757236
O O14 0.582237 0.300526 0.497353
O O15 0.910146 0.719986 0.592967
O O16 0.000000 0.000000 0.000000
O O17 0.500000 0.500000 0.500000
O O18 0.000000 0.000000 0.500000
#
# Coordination Sequence:
#
# PCOD8007094 Si02
#       8
#     2   2   2   2   2   2   2   2
#     4  10  21  40  66  95 132 177 217 270 331 394
#     4  10  20  40  67  89 131 175 219 265 336 393
#     4  11  23  36  67  97 131 167 221 283 326 398
#     4  12  22  43  64  97 130 171 226 272 332 391
#     4  11  23  42  67  93 131 174 216 276 334 388
#     4  10  21  40  64  98 125 169 217 271 333 384
#     4  11  24  42  64  96 129 176 223 268 327 398
#     4  11  26  40  64  97 134 175 223 272 333 389
#
# _framework density 21.524415000000001
#
# number of rings (size 3 to 8) (size 9 to 14) (size 15 to 20)
#    0.000    1.250    3.750    3.000    7.000    1.000 
#    0.000    0.000    0.000   12.000    0.000    0.000 
#    0.000    0.000    0.000    0.000    0.000    0.000 
#
# Total GULP energy -198278.129171 kJ/mol
# GULP energy per Si atom -12392.383073 kJ/mol
# Density = 2.147542 g / cm^3
# Si number density = 21.524415 Si / 1000 Ang^3
#
#
#
# Elastic Constant Matrix: (Units=GPa)
#
#
# Indices 1 2 3 4 5 6 
#
# 1 76.7034 27.5354 12.7671 8.7388 -10.9473 -14.7079
# 2 27.5354 154.7048 42.5201 -3.0307 -10.3933 -18.9887
# 3 12.7671 42.5201 79.0947 -5.6743 -0.9282 -5.0455
# 4 8.7388 -3.0307 -5.6743 37.5545 -1.3304 -3.6143
# 5 -10.9473 -10.3933 -0.9282 -1.3304 27.5804 1.2668
# 6 -14.7079 -18.9887 -5.0455 -3.6143 1.2668 39.3137
#
#
#
# Elastic Compliance Matrix: (Units=1/GPa)
#
#
# Indices 1 2 3 4 5 6 
#
# 1 0.015871 -0.001535 -0.001634 -0.003443 0.005293 0.004499
# 2 -0.001535 0.008363 -0.003975 0.000798 0.002311 0.002954
# 3 -0.001634 -0.003975 0.015168 0.002266 -0.001512 -0.000328
# 4 -0.003443 0.000798 0.002266 0.028034 0.000272 0.001956
# 5 0.005293 0.002311 -0.001512 0.000272 0.039115 0.001667
# 6 0.004499 0.002954 -0.000328 0.001956 0.001667 0.028630
#
#
# Mechanical properties :
#
#
# Convention : Reuss Voigt Hill
#
# Bulk Modulus (GPa) = 39.82155 52.90537 46.36346
# Shear Modulus (GPa) = 31.67718 36.06841 33.87279
#
# Velocity S-wave (km/s) = 3.84042 4.09797 3.97128
# Velocity P-wave (km/s) = 6.18109 6.85739 6.52800
#
# Compressibility (1/GPa) = 0.02511203
#
# Stress axis : x y z
#
# Youngs Moduli (GPa) = 63.00846 119.57086 65.92863
#
# Poissons Ratio (x) = 0.18357 0.10775
# Poissons Ratio (y) = 0.09673 0.26209
# Poissons Ratio (z) = 0.10298 0.47534
#
# Static dielectric constant tensor:
#      x y z
#    x 4.563630 -1.948400 -0.205040 
#    y -1.948400 8.794390 0.646090 
#    z -0.205040 0.646090 4.147700 
# 
# 
# High freq. dielectric constant tensor:
#      x y z
#    x 1.823820 -0.005780 -0.003680 
#    y -0.005780 1.860960 -0.000820 
#    z -0.003680 -0.000820 1.849250 
# 
# From -- ./inp_files/448053.got.cif
#   From: 2010.06.25/outbox.cif.g09.slc.cpg/sg2_225_cif.got.tgz:448053.got - 2010.06.27 13:26:56.
