data_PCOD8007241
_publ_section_title
;
Structure prediction by ZEFSAII (Michael W. Deem and Ramdas Pophale) SiO2 
 PCOD8007241
Probable space group: P -1
;
_chemical_formula_sum "Si O2"
_cell_formula_units_Z 14
_cell_length_a 8.677465
_cell_length_b 9.198904
_cell_length_c 15.627531
_cell_angle_alpha 44.574658
_cell_angle_beta 50.346521
_cell_angle_gamma 60.656271
_cell_volume 672.609076
_symmetry_space_group_name_H-M "P -1"
_symmetry_group_IT_number 2
_symmetry_cell_setting 'triclinic'
loop_
_space_group_symop_operation_xyz
x,y,z
-x,-y,-z
loop_
_atom_site_type_symbol
_atom_site_label
_atom_site_fract_x
_atom_site_fract_y
_atom_site_fract_z
Si Si1 0.284438 0.124098 0.394854
Si Si2 0.902859 0.008232 0.648071
Si Si3 0.309200 0.140009 0.044822
Si Si4 0.377000 0.632264 0.377026
Si Si5 0.369691 0.199492 0.643508
Si Si6 0.050805 0.930118 0.106231
Si Si7 0.371937 0.592410 0.197242
O O1 0.340679 0.351787 0.304748
O O2 0.144866 0.022991 0.559967
O O3 0.153187 0.139810 0.348080
O O4 0.487171 0.984417 0.369147
O O5 0.815860 0.245767 0.562041
O O6 0.794846 0.926664 0.803570
O O7 0.137980 0.130233 0.037397
O O8 0.400421 0.364866 0.932931
O O9 0.500000 0.000000 0.000000
O O10 0.379031 0.390154 0.495679
O O11 0.570406 0.732050 0.310072
O O12 0.362911 0.672850 0.264327
O O13 0.148565 0.124388 0.751759
O O14 0.207571 0.727880 0.142202
O O15 0.000000 0.000000 0.000000
#
# Coordination Sequence:
#
# PCOD8007241 Si02
#       7
#     2   2   2   2   2   2   2
#     4  10  24  39  65  97 131 168 201 265 323 377
#     4  10  20  42  66  91 128 169 216 249 313 387
#     4  10  21  40  66  92 119 172 215 261 302 379
#     4  10  20  40  69  90 126 162 226 250 310 371
#     4  10  23  40  63  98 128 166 204 275 312 367
#     4  11  23  39  66  93 125 164 223 263 309 367
#     4  11  23  41  68  95 121 173 212 259 316 380
#
# _framework density 20.814468000000002
#
# number of rings (size 3 to 8) (size 9 to 14) (size 15 to 20)
#    0.000    1.714    2.857    1.714    8.000    3.429 
#    0.000    0.714    0.000    0.000    0.000    0.000 
#    0.000    0.000    0.000    0.000    0.000    0.000 
#
# Total GULP energy -173477.282456 kJ/mol
# GULP energy per Si atom -12391.234461 kJ/mol
# Density = 2.076709 g / cm^3
# Si number density = 20.814468 Si / 1000 Ang^3
#
#
#
# Elastic Constant Matrix: (Units=GPa)
#
#
# Indices 1 2 3 4 5 6 
#
# 1 113.4021 34.9254 62.6793 1.6768 -16.1383 5.6372
# 2 34.9254 78.8625 59.1947 0.7044 -15.9092 8.4642
# 3 62.6793 59.1947 142.2201 7.7927 -27.8800 13.8213
# 4 1.6768 0.7044 7.7927 22.2328 6.9449 0.8543
# 5 -16.1383 -15.9092 -27.8800 6.9449 51.4769 -0.7803
# 6 5.6372 8.4642 13.8213 0.8543 -0.7803 21.6446
#
#
#
# Elastic Compliance Matrix: (Units=1/GPa)
#
#
# Indices 1 2 3 4 5 6 
#
# 1 0.011896 -0.001883 -0.004387 0.000459 0.000716 0.000447
# 2 -0.001883 0.019072 -0.006639 0.001513 0.001463 -0.002736
# 3 -0.004387 -0.006639 0.013319 -0.005345 0.004441 -0.004395
# 4 0.000459 0.001513 -0.005345 0.049553 -0.008962 0.000423
# 5 0.000716 0.001463 0.004441 -0.008962 0.023681 -0.002387
# 6 0.000447 -0.002736 -0.004395 0.000423 -0.002387 0.049858
#
#
# Mechanical properties :
#
#
# Convention : Reuss Voigt Hill
#
# Bulk Modulus (GPa) = 54.14399 72.00929 63.07664
# Shear Modulus (GPa) = 25.08112 30.91653 27.99883
#
# Velocity S-wave (km/s) = 3.47506 3.85819 3.67162
# Velocity P-wave (km/s) = 6.49388 7.38366 6.95302
#
# Compressibility (1/GPa) = 0.01846927
#
# Stress axis : x y z
#
# Youngs Moduli (GPa) = 84.06263 52.43161 75.08239
#
# Poissons Ratio (x) = 0.09871 0.32942
# Poissons Ratio (y) = 0.15826 0.49846
# Poissons Ratio (z) = 0.36882 0.34808
#
# Static dielectric constant tensor:
#      x y z
#    x 3.963890 0.152890 -0.338600 
#    y 0.152890 3.686580 -0.102600 
#    z -0.338600 -0.102600 4.127850 
# 
# 
# High freq. dielectric constant tensor:
#      x y z
#    x 1.817760 0.014990 -0.014750 
#    y 0.014990 1.798820 0.000450 
#    z -0.014750 0.000450 1.824080 
# 
# From -- ./inp_files/188305.got.cif
#   From: 2010.06.25/outbox.cif.g09.slc.cpg/sg2_95_cif.got.tgz:188305.got - 2010.06.27 13:26:56.
