data_PCOD8007341
_publ_section_title
;
Structure prediction by ZEFSAII (Michael W. Deem and Ramdas Pophale) SiO2 
 PCOD8007341
Probable space group: P -1
;
_chemical_formula_sum "Si O2"
_cell_formula_units_Z 12
_cell_length_a 11.498106
_cell_length_b 13.826400
_cell_length_c 9.862661
_cell_angle_alpha 88.867382
_cell_angle_beta 114.347489
_cell_angle_gamma 34.845427
_cell_volume 592.350243
_symmetry_space_group_name_H-M "P -1"
_symmetry_group_IT_number 2
_symmetry_cell_setting 'triclinic'
loop_
_space_group_symop_operation_xyz
x,y,z
-x,-y,-z
loop_
_atom_site_type_symbol
_atom_site_label
_atom_site_fract_x
_atom_site_fract_y
_atom_site_fract_z
Si Si1 0.516909 0.206665 0.590709
Si Si2 0.255856 0.550570 0.640465
Si Si3 0.349503 0.267569 0.208537
Si Si4 0.894772 0.986564 0.354521
Si Si5 0.347577 0.123013 0.567981
Si Si6 0.120471 0.882631 0.918430
O O1 0.388321 0.394519 0.585675
O O2 0.372931 0.287490 0.373193
O O3 0.417332 0.185937 0.641500
O O4 0.890922 0.953955 0.759936
O O5 0.110164 0.746037 0.496953
O O6 0.014456 0.652875 0.608054
O O7 0.525732 0.395075 0.881240
O O8 0.535568 0.213078 0.204686
O O9 0.487222 0.066367 0.247828
O O10 0.000000 0.500000 0.000000
O O11 0.912081 0.006321 0.205929
O O12 0.000000 0.000000 0.500000
O O13 0.500000 0.000000 0.500000
O O14 0.000000 0.000000 0.000000
#
# Coordination Sequence:
#
# PCOD8007341 Si02
#       6
#     2   2   2   2   2   2
#     4  10  20  41  60  90 124 161 209 251 310 375
#     4  10  23  41  65  89 127 166 204 259 317 362
#     4  10  22  40  60  91 123 163 205 260 309 361
#     4  11  23  43  63  93 128 161 214 257 303 379
#     4   9  20  38  60  86 120 157 209 253 299 369
#     4  10  23  41  64  95 126 162 208 254 317 369
#
# _framework density 20.258286999999999
#
# number of rings (size 3 to 8) (size 9 to 14) (size 15 to 20)
#    0.000    2.000    1.667    0.500    4.667    4.667 
#    6.000    1.667    0.000    0.000    0.000    0.000 
#    0.000    0.000    0.000    0.000    0.000    0.000 
#
# Total GULP energy -148700.590533 kJ/mol
# GULP energy per Si atom -12391.715878 kJ/mol
# Density = 2.021218 g / cm^3
# Si number density = 20.258287 Si / 1000 Ang^3
#
#
#
# Elastic Constant Matrix: (Units=GPa)
#
#
# Indices 1 2 3 4 5 6 
#
# 1 166.9799 51.4743 80.2166 -12.7703 12.6022 -14.8408
# 2 51.4743 80.8308 49.9027 -9.5328 6.9532 -2.6004
# 3 80.2166 49.9027 160.7226 -21.5842 23.2835 -13.0798
# 4 -12.7703 -9.5328 -21.5842 36.9198 -12.9914 5.5508
# 5 12.6022 6.9532 23.2835 -12.9914 40.2730 -2.8491
# 6 -14.8408 -2.6004 -13.0798 5.5508 -2.8491 41.9602
#
#
#
# Elastic Compliance Matrix: (Units=1/GPa)
#
#
# Indices 1 2 3 4 5 6 
#
# 1 0.008758 -0.003608 -0.003071 -0.000065 -0.000228 0.001910
# 2 -0.003608 0.016874 -0.003438 0.001527 0.000593 -0.001464
# 3 -0.003071 -0.003438 0.009707 0.002423 -0.003192 0.001189
# 4 -0.000065 0.001527 0.002423 0.032324 0.008580 -0.002867
# 5 -0.000228 0.000593 -0.003192 0.008580 0.029400 -0.000178
# 6 0.001910 -0.001464 0.001189 -0.002867 -0.000178 0.025155
#
#
# Mechanical properties :
#
#
# Convention : Reuss Voigt Hill
#
# Bulk Modulus (GPa) = 66.20792 85.74673 75.97732
# Shear Modulus (GPa) = 33.90104 38.95993 36.43049
#
# Velocity S-wave (km/s) = 4.09521 4.39014 4.24524
# Velocity P-wave (km/s) = 7.42387 8.25327 7.84953
#
# Compressibility (1/GPa) = 0.01510393
#
# Stress axis : x y z
#
# Youngs Moduli (GPa) = 114.17614 59.26316 103.01950
#
# Poissons Ratio (x) = 0.21382 0.31641
# Poissons Ratio (y) = 0.41194 0.35421
# Poissons Ratio (z) = 0.35068 0.20377
#
# Static dielectric constant tensor:
#      x y z
#    x 6.129400 0.503690 1.186180 
#    y 0.503690 3.880240 0.054950 
#    z 1.186180 0.054950 4.746710 
# 
# 
# High freq. dielectric constant tensor:
#      x y z
#    x 1.813060 -0.012160 0.013800 
#    y -0.012160 1.784590 -0.010980 
#    z 0.013800 -0.010980 1.783150 
# 
# From -- ./inp_files/183389.got.cif
#   From: 2010.06.25/outbox.cif.g09.slc.cpg/sg2_92_cif.got.tgz:183389.got - 2010.06.27 13:26:56.
