data_PCOD8007667
_publ_section_title
;
Structure prediction by ZEFSAII (Michael W. Deem and Ramdas Pophale) SiO2 
 PCOD8007667
Probable space group: P -1
;
_chemical_formula_sum "Si O2"
_cell_formula_units_Z 16
_cell_length_a 12.709571
_cell_length_b 16.542083
_cell_length_c 7.898708
_cell_angle_alpha 80.638593
_cell_angle_beta 114.884482
_cell_angle_gamma 44.854794
_cell_volume 736.885332
_symmetry_space_group_name_H-M "P -1"
_symmetry_group_IT_number 2
_symmetry_cell_setting 'triclinic'
loop_
_space_group_symop_operation_xyz
x,y,z
-x,-y,-z
loop_
_atom_site_type_symbol
_atom_site_label
_atom_site_fract_x
_atom_site_fract_y
_atom_site_fract_z
Si Si1 0.952517 0.308097 0.654791
Si Si2 0.662135 0.822521 0.156448
Si Si3 0.035691 0.100736 0.271735
Si Si4 0.774384 0.005624 0.214791
Si Si5 0.180506 0.167213 0.183092
Si Si6 0.546011 0.396314 0.690276
Si Si7 0.675301 0.146799 0.741726
Si Si8 0.638353 0.807292 0.511045
O O1 0.675668 0.486426 0.375875
O O2 0.099906 0.303394 0.742344
O O3 0.063209 0.172554 0.653527
O O4 0.968677 0.275571 0.876307
O O5 0.756152 0.736149 0.432226
O O6 0.492346 0.854924 0.958989
O O7 0.500000 0.000000 0.000000
O O8 0.155724 0.117548 0.336632
O O9 0.108984 0.020698 0.534395
O O10 0.120134 0.990050 0.212501
O O11 0.757040 0.280588 0.004369
O O12 0.765858 0.067003 0.019430
O O13 0.178289 0.264038 0.208940
O O14 0.417025 0.005770 0.290976
O O15 0.500000 0.500000 0.500000
O O16 0.593125 0.290293 0.635826
O O17 0.455336 0.226249 0.501173
#
# Coordination Sequence:
#
# PCOD8007667 Si02
#       8
#     2   2   2   2   2   2   2   2
#     4  11  20  35  59  93 132 163 197 252 310 374
#     4   9  15  30  54  88 122 154 194 252 296 361
#     4  11  22  39  69  91 122 169 210 257 294 369
#     4  10  20  39  65  98 121 155 213 258 310 356
#     4  10  16  30  58  95 123 156 202 246 306 364
#     4  12  25  44  62  86 128 173 208 252 316 368
#     4  10  22  43  65  92 122 162 212 263 304 362
#     4   9  17  30  58  92 121 151 203 257 302 356
#
# _framework density 21.713014000000001
#
# number of rings (size 3 to 8) (size 9 to 14) (size 15 to 20)
#    0.000    1.750    6.250    1.875    3.500    1.000 
#    0.000    4.375    0.000    0.000    0.000    0.000 
#    0.000    0.000    0.000    0.000    0.000    0.000 
#
# Total GULP energy -198230.100686 kJ/mol
# GULP energy per Si atom -12389.381293 kJ/mol
# Density = 2.166359 g / cm^3
# Si number density = 21.713014 Si / 1000 Ang^3
#
#
#
# Elastic Constant Matrix: (Units=GPa)
#
#
# Indices 1 2 3 4 5 6 
#
# 1 77.4189 46.8399 49.7564 -7.0509 11.8902 -1.3713
# 2 46.8399 82.1969 58.3703 6.6792 2.3655 -0.3053
# 3 49.7564 58.3703 92.8545 12.1762 11.0111 -7.8530
# 4 -7.0509 6.6792 12.1762 33.2924 -10.7241 4.4226
# 5 11.8902 2.3655 11.0111 -10.7241 25.6903 -4.5866
# 6 -1.3713 -0.3053 -7.8530 4.4226 -4.5866 35.5450
#
#
#
# Elastic Compliance Matrix: (Units=1/GPa)
#
#
# Indices 1 2 3 4 5 6 
#
# 1 0.025522 -0.008567 -0.009423 0.009860 -0.003375 -0.002833
# 2 -0.008567 0.025776 -0.012573 0.000017 0.006624 -0.002034
# 3 -0.009423 -0.012573 0.027311 -0.013745 -0.010877 0.005869
# 4 0.009860 0.000017 -0.013745 0.043911 0.018636 -0.005715
# 5 -0.003375 0.006624 -0.010877 0.018636 0.052676 0.002002
# 6 -0.002833 -0.002034 0.005869 -0.005715 0.002002 0.030273
#
#
# Mechanical properties :
#
#
# Convention : Reuss Voigt Hill
#
# Bulk Modulus (GPa) = 57.19456 62.48929 59.84192
# Shear Modulus (GPa) = 18.35382 25.40577 21.87979
#
# Velocity S-wave (km/s) = 2.91054 3.42434 3.17784
# Velocity P-wave (km/s) = 6.13949 6.66910 6.40977
#
# Compressibility (1/GPa) = 0.01748418
#
# Stress axis : x y z
#
# Youngs Moduli (GPa) = 39.18202 38.79516 36.61493
#
# Poissons Ratio (x) = 0.33234 0.34503
# Poissons Ratio (y) = 0.33565 0.46036
# Poissons Ratio (z) = 0.36922 0.48777
#
# Static dielectric constant tensor:
#      x y z
#    x 4.064280 -0.123200 0.304530 
#    y -0.123200 3.649060 0.196570 
#    z 0.304530 0.196570 3.806770 
# 
# 
# High freq. dielectric constant tensor:
#      x y z
#    x 1.858200 -0.009440 0.022460 
#    y -0.009440 1.816740 0.022330 
#    z 0.022460 0.022330 1.831790 
# 
# From -- ./inp_files/317165.got.cif
#   From: 2010.06.25/outbox.cif.g09.slc.cpg/sg2_159_cif.got.tgz:317165.got - 2010.06.27 13:26:56.
