data_PCOD8007083
_publ_section_title
;
Structure prediction by ZEFSAII (Michael W. Deem and Ramdas Pophale) SiO2 
 PCOD8007083
Probable space group: P -1
;
_chemical_formula_sum "Si O2"
_cell_formula_units_Z 16
_cell_length_a 22.593417
_cell_length_b 5.281149
_cell_length_c 5.111863
_cell_angle_alpha 90.962161
_cell_angle_beta 73.426103
_cell_angle_gamma 98.017643
_cell_volume 578.717556
_symmetry_space_group_name_H-M "P -1"
_symmetry_group_IT_number 2
_symmetry_cell_setting 'triclinic'
loop_
_space_group_symop_operation_xyz
x,y,z
-x,-y,-z
loop_
_atom_site_type_symbol
_atom_site_label
_atom_site_fract_x
_atom_site_fract_y
_atom_site_fract_z
Si Si1 0.814231 0.845097 0.216773
Si Si2 0.402432 0.866193 0.627893
Si Si3 0.961753 0.150009 0.243338
Si Si4 0.375243 0.464154 0.256206
Si Si5 0.490969 0.226620 0.206909
Si Si6 0.088405 0.253107 0.299055
Si Si7 0.848128 0.364211 0.415640
Si Si8 0.315000 0.210824 0.838602
O O1 0.806625 0.564897 0.351685
O O2 0.759773 0.843686 0.069898
O O3 0.809258 0.079761 0.431241
O O4 0.881435 0.881441 0.986177
O O5 0.377284 0.745558 0.380187
O O6 0.438933 0.675305 0.759799
O O7 0.450328 0.121046 0.509290
O O8 0.345033 0.953950 0.868053
O O9 0.917211 0.351177 0.190067
O O10 0.016893 0.301728 0.352854
O O11 0.912002 0.946104 0.462268
O O12 0.000000 0.000000 0.000000
O O13 0.449826 0.429497 0.128939
O O14 0.338291 0.277550 0.514475
O O15 0.337540 0.429978 0.028947
O O16 0.500000 0.000000 0.000000
O O17 0.131877 0.524924 0.316540
#
# Coordination Sequence:
#
# PCOD8007083 Si02
#       8
#     2   2   2   2   2   2   2   2
#     4  12  30  48  74 104 147 195 252 306 365 447
#     4  10  23  42  69 102 144 188 234 305 368 443
#     4  11  23  47  75 111 150 183 241 304 377 455
#     4  11  25  45  72 104 140 191 242 301 378 431
#     4  10  20  40  67 106 144 179 239 300 368 449
#     4  11  25  45  77 110 144 195 234 308 378 446
#     4  12  26  50  71 109 143 189 244 303 370 441
#     4  11  28  47  68 104 139 191 253 300 361 443
#
# _framework density 27.647335999999999
#
# number of rings (size 3 to 8) (size 9 to 14) (size 15 to 20)
#    0.000    1.000    3.750    0.750    7.000    2.500 
#    0.000    0.000    0.000    0.000    0.000    0.000 
#    0.000    0.000    0.000    0.000    0.000    0.000 
#
# Total GULP energy -198211.876077 kJ/mol
# GULP energy per Si atom -12388.242255 kJ/mol
# Density = 2.758441 g / cm^3
# Si number density = 27.647336 Si / 1000 Ang^3
#
#
#
# Elastic Constant Matrix: (Units=GPa)
#
#
# Indices 1 2 3 4 5 6 
#
# 1 160.5959 43.4378 4.5182 14.4440 28.6247 -5.7934
# 2 43.4378 107.8008 13.2545 38.5516 15.0242 -6.4356
# 3 4.5182 13.2545 60.0372 28.8581 13.5068 -1.4432
# 4 14.4440 38.5516 28.8581 43.3061 10.4240 3.9370
# 5 28.6247 15.0242 13.5068 10.4240 43.8227 5.9013
# 6 -5.7934 -6.4356 -1.4432 3.9370 5.9013 43.1403
#
#
#
# Elastic Compliance Matrix: (Units=1/GPa)
#
#
# Indices 1 2 3 4 5 6 
#
# 1 0.007769 -0.002492 0.001108 -0.000098 -0.004722 0.001364
# 2 -0.002492 0.016282 0.005398 -0.017130 -0.002099 0.004125
# 3 0.001108 0.005398 0.027802 -0.022595 -0.006418 0.004824
# 4 -0.000098 -0.017130 -0.022595 0.053903 0.001212 -0.008410
# 5 -0.004722 -0.002099 -0.006418 0.001212 0.029019 -0.005242
# 6 0.001364 0.004125 0.004824 -0.008410 -0.005242 0.025625
#
#
# Mechanical properties :
#
#
# Convention : Reuss Voigt Hill
#
# Bulk Modulus (GPa) = 16.69971 50.09500 33.39736
# Shear Modulus (GPa) = 29.01367 43.86872 36.44119
#
# Velocity S-wave (km/s) = 3.24299 3.98769 3.63447
# Velocity P-wave (km/s) = 4.48063 6.27383 5.45146
#
# Compressibility (1/GPa) = 0.05988128
#
# Stress axis : x y z
#
# Youngs Moduli (GPa) = 128.70917 61.41899 35.96861
#
# Poissons Ratio (x) = 0.15306 -0.03985
# Poissons Ratio (y) = 0.32076 -0.19417
# Poissons Ratio (z) = -0.14261 -0.33155
#
# Static dielectric constant tensor:
#      x y z
#    x 5.630490 -0.137950 0.179430 
#    y -0.137950 4.871540 0.122690 
#    z 0.179430 0.122690 4.821560 
# 
# 
# High freq. dielectric constant tensor:
#      x y z
#    x 2.131390 -0.005290 0.011640 
#    y -0.005290 2.105540 0.020280 
#    z 0.011640 0.020280 2.102280 
# 
# From -- ./inp_files/14395.got.cif
#   From: 2010.06.25/outbox.cif.g09.slc.cpg/sg2_8_cif.got.tgz:14395.got - 2010.06.27 13:26:56.
