data_PCOD8007418
_publ_section_title
;
Structure prediction by ZEFSAII (Michael W. Deem and Ramdas Pophale) SiO2 
 PCOD8007418
Probable space group: P -1
;
_chemical_formula_sum "Si O2"
_cell_formula_units_Z 14
_cell_length_a 11.006987
_cell_length_b 11.509878
_cell_length_c 5.471412
_cell_angle_alpha 108.653385
_cell_angle_beta 84.342528
_cell_angle_gamma 69.794960
_cell_volume 599.065260
_symmetry_space_group_name_H-M "P -1"
_symmetry_group_IT_number 2
_symmetry_cell_setting 'triclinic'
loop_
_space_group_symop_operation_xyz
x,y,z
-x,-y,-z
loop_
_atom_site_type_symbol
_atom_site_label
_atom_site_fract_x
_atom_site_fract_y
_atom_site_fract_z
Si Si1 0.817539 0.785185 0.196949
Si Si2 0.414606 0.205797 0.065231
Si Si3 0.099978 0.623706 0.430338
Si Si4 0.061981 0.105912 0.129486
Si Si5 0.630372 0.523717 0.525911
Si Si6 0.335272 0.018740 0.267022
Si Si7 0.857011 0.516425 0.187537
O O1 0.939354 0.804059 0.046810
O O2 0.727840 0.929660 0.423055
O O3 0.725330 0.741470 0.010344
O O4 0.866970 0.663197 0.301352
O O5 0.430895 0.333805 0.242534
O O6 0.407541 0.112930 0.225585
O O7 0.548451 0.128400 0.826926
O O8 0.259128 0.588333 0.399454
O O9 0.078959 0.559050 0.130755
O O10 0.060318 0.559104 0.637078
O O11 0.018450 0.787193 0.567393
O O12 0.215591 0.021796 0.116160
O O13 0.000000 0.000000 0.000000
O O14 0.500000 0.500000 0.500000
O O15 0.703827 0.531882 0.260709
#
# Coordination Sequence:
#
# PCOD8007418 Si02
#       7
#     2   2   2   2   2   2   2
#     4  11  21  44  68 100 133 180 231 295 339 416
#     4  10  20  41  63 102 134 171 234 274 350 407
#     4  10  24  46  68 101 139 178 234 284 345 412
#     4  11  28  46  64  96 139 182 238 279 353 414
#     4  10  22  40  68 101 141 177 224 285 346 406
#     4  10  22  39  70  90 134 184 222 284 337 413
#     4  10  22  44  71 102 135 177 233 285 347 406
#
# _framework density 23.36974
#
# number of rings (size 3 to 8) (size 9 to 14) (size 15 to 20)
#    0.857    0.857    2.857    0.429    6.000    2.286 
#    2.571    0.000    0.000    0.000    0.000    0.000 
#    0.000    0.000    0.000    0.000    0.000    0.000 
#
# Total GULP energy -173443.191139 kJ/mol
# GULP energy per Si atom -12388.799367 kJ/mol
# Density = 2.331655 g / cm^3
# Si number density = 23.369740 Si / 1000 Ang^3
#
#
#
# Elastic Constant Matrix: (Units=GPa)
#
#
# Indices 1 2 3 4 5 6 
#
# 1 113.6327 43.6369 34.3572 23.5064 -12.8034 14.1067
# 2 43.6369 81.2485 40.7943 19.3071 -2.4021 9.8407
# 3 34.3572 40.7943 148.7372 24.8121 -9.1077 15.6507
# 4 23.5064 19.3071 24.8121 45.9386 -5.1411 -1.9938
# 5 -12.8034 -2.4021 -9.1077 -5.1411 41.2513 9.5797
# 6 14.1067 9.8407 15.6507 -1.9938 9.5797 38.4183
#
#
#
# Elastic Compliance Matrix: (Units=1/GPa)
#
#
# Indices 1 2 3 4 5 6 
#
# 1 0.012659 -0.005117 -0.000123 -0.003992 0.004159 -0.004532
# 2 -0.005117 0.017457 -0.003014 -0.003296 -0.001371 -0.001194
# 3 -0.000123 -0.003014 0.008598 -0.003229 0.002064 -0.003367
# 4 -0.003992 -0.003296 -0.003229 0.027166 0.000077 0.005016
# 5 0.004159 -0.001371 0.002064 0.000077 0.028007 -0.008997
# 6 -0.004532 -0.001194 -0.003367 0.005016 -0.008997 0.031874
#
#
# Mechanical properties :
#
#
# Convention : Reuss Voigt Hill
#
# Bulk Modulus (GPa) = 45.03531 64.57723 54.80627
# Shear Modulus (GPa) = 33.40617 40.11031 36.75824
#
# Velocity S-wave (km/s) = 3.78492 4.14736 3.97028
# Velocity P-wave (km/s) = 6.19786 7.11526 6.67235
#
# Compressibility (1/GPa) = 0.02220480
#
# Stress axis : x y z
#
# Youngs Moduli (GPa) = 78.99236 57.28429 116.30708
#
# Poissons Ratio (x) = 0.29311 0.01436
# Poissons Ratio (y) = 0.40418 0.35061
# Poissons Ratio (z) = 0.00975 0.17268
#
# Static dielectric constant tensor:
#      x y z
#    x 4.214620 -0.320970 -0.303590 
#    y -0.320970 4.103500 0.113420 
#    z -0.303590 0.113420 4.298530 
# 
# 
# High freq. dielectric constant tensor:
#      x y z
#    x 1.929310 -0.022330 -0.015610 
#    y -0.022330 1.899110 0.012410 
#    z -0.015610 0.012410 1.932690 
# 
# From -- ./inp_files/67790.got.cif
#   From: 2010.06.25/outbox.cif.g09.slc.cpg/sg2_34_cif.got.tgz:67790.got - 2010.06.27 13:26:56.
