data_PCOD8007706
_publ_section_title
;
Structure prediction by ZEFSAII (Michael W. Deem and Ramdas Pophale) SiO2 
 PCOD8007706
Probable space group: P -1
;
_chemical_formula_sum "Si O2"
_cell_formula_units_Z 14
_cell_length_a 16.071422
_cell_length_b 11.481727
_cell_length_c 7.941740
_cell_angle_alpha 142.074541
_cell_angle_beta 123.710635
_cell_angle_gamma 48.911899
_cell_volume 676.761199
_symmetry_space_group_name_H-M "P -1"
_symmetry_group_IT_number 2
_symmetry_cell_setting 'triclinic'
loop_
_space_group_symop_operation_xyz
x,y,z
-x,-y,-z
loop_
_atom_site_type_symbol
_atom_site_label
_atom_site_fract_x
_atom_site_fract_y
_atom_site_fract_z
Si Si1 0.216714 0.000712 0.889162
Si Si2 0.317369 0.201924 0.483448
Si Si3 0.089945 0.286879 0.783357
Si Si4 0.002462 0.018302 0.822323
Si Si5 0.526544 0.039278 0.328569
Si Si6 0.439822 0.747066 0.706638
Si Si7 0.102876 0.506403 0.727434
O O1 0.123649 0.937741 0.785425
O O2 0.316062 0.800440 0.690818
O O3 0.178157 0.183041 0.912009
O O4 0.260437 0.074126 0.182740
O O5 0.417170 0.210414 0.495574
O O6 0.216757 0.433694 0.664952
O O7 0.368784 0.074968 0.565526
O O8 0.139525 0.344047 0.738422
O O9 0.046009 0.119286 0.486244
O O10 0.000000 0.500000 0.000000
O O11 0.000000 0.000000 0.000000
O O12 0.931505 0.261907 0.975180
O O13 0.563154 0.171091 0.391730
O O14 0.499818 0.856011 0.011445
O O15 0.500000 0.500000 0.500000
O O16 0.000000 0.500000 0.500000
#
# Coordination Sequence:
#
# PCOD8007706 Si02
#       7
#     2   2   2   2   2   2   2
#     4  11  23  41  63  93 130 169 214 269 318 384
#     4  10  20  41  67  90 129 171 210 264 324 379
#     4  12  24  42  65  91 134 172 213 264 318 385
#     4  12  25  41  62  95 131 168 220 259 317 396
#     4   9  21  42  66  92 123 167 213 266 320 377
#     4  10  22  42  64  93 125 159 219 269 321 375
#     4  12  22  41  64  95 131 170 210 262 326 384
#
# _framework density 20.686765000000001
#
# number of rings (size 3 to 8) (size 9 to 14) (size 15 to 20)
#    0.000    1.143    4.286    1.286    0.000    2.286 
#    5.143    6.429    0.000    0.000    0.000    0.000 
#    0.000    0.000    0.000    0.000    0.000    0.000 
#
# Total GULP energy -173557.311132 kJ/mol
# GULP energy per Si atom -12396.950795 kJ/mol
# Density = 2.063968 g / cm^3
# Si number density = 20.686765 Si / 1000 Ang^3
#
#
#
# Elastic Constant Matrix: (Units=GPa)
#
#
# Indices 1 2 3 4 5 6 
#
# 1 141.2106 57.0068 53.2950 17.0265 -17.3215 -7.1276
# 2 57.0068 126.0539 57.4915 -2.6053 -8.3036 0.3170
# 3 53.2950 57.4915 115.6056 22.0108 -8.6311 -7.1923
# 4 17.0265 -2.6053 22.0108 37.8138 -0.2030 -12.3078
# 5 -17.3215 -8.3036 -8.6311 -0.2030 29.3088 8.7915
# 6 -7.1276 0.3170 -7.1923 -12.3078 8.7915 45.0945
#
#
#
# Elastic Compliance Matrix: (Units=1/GPa)
#
#
# Indices 1 2 3 4 5 6 
#
# 1 0.010240 -0.003534 -0.001908 -0.003927 0.004654 -0.000640
# 2 -0.003534 0.012139 -0.005497 0.005649 -0.000250 0.000070
# 3 -0.001908 -0.005497 0.013810 -0.007696 0.001462 -0.000446
# 4 -0.003927 0.005649 -0.007696 0.035980 -0.005435 0.008992
# 5 0.004654 -0.000250 0.001462 -0.005435 0.039665 -0.008246
# 6 -0.000640 0.000070 -0.000446 0.008992 -0.008246 0.026065
#
#
# Mechanical properties :
#
#
# Convention : Reuss Voigt Hill
#
# Bulk Modulus (GPa) = 69.87821 79.82853 74.85337
# Shear Modulus (GPa) = 30.38624 36.78186 33.58405
#
# Velocity S-wave (km/s) = 3.83675 4.22125 4.03358
# Velocity P-wave (km/s) = 7.31300 7.90137 7.61287
#
# Compressibility (1/GPa) = 0.01431061
#
# Stress axis : x y z
#
# Youngs Moduli (GPa) = 97.65171 82.38163 72.40971
#
# Poissons Ratio (x) = 0.29113 0.13817
# Poissons Ratio (y) = 0.34509 0.39806
# Poissons Ratio (z) = 0.18634 0.45288
#
# Static dielectric constant tensor:
#      x y z
#    x 4.117770 0.046680 -0.360690 
#    y 0.046680 4.127050 -0.125610 
#    z -0.360690 -0.125610 3.398410 
# 
# 
# High freq. dielectric constant tensor:
#      x y z
#    x 1.823190 -0.000590 -0.022340 
#    y -0.000590 1.817150 -0.007620 
#    z -0.022340 -0.007620 1.802350 
# 
# From -- ./inp_files/315549.got.cif
#   From: 2010.06.25/outbox.cif.g09.slc.cpg/sg2_158_cif.got.tgz:315549.got - 2010.06.27 13:26:56.
