data_PCOD8007057
_publ_section_title
;
Structure prediction by ZEFSAII (Michael W. Deem and Ramdas Pophale) SiO2 
 PCOD8007057
Probable space group: P -1
;
_chemical_formula_sum "Si O2"
_cell_formula_units_Z 16
_cell_length_a 19.592111
_cell_length_b 11.669700
_cell_length_c 9.085217
_cell_angle_alpha 39.827712
_cell_angle_beta 37.570544
_cell_angle_gamma 43.490032
_cell_volume 774.067655
_symmetry_space_group_name_H-M "P -1"
_symmetry_group_IT_number 2
_symmetry_cell_setting 'triclinic'
loop_
_space_group_symop_operation_xyz
x,y,z
-x,-y,-z
loop_
_atom_site_type_symbol
_atom_site_label
_atom_site_fract_x
_atom_site_fract_y
_atom_site_fract_z
Si Si1 0.995964 0.164993 0.543212
Si Si2 0.775991 0.394068 0.868430
Si Si3 0.631779 0.765607 0.244553
Si Si4 0.976476 0.764946 0.901327
Si Si5 0.641244 0.099413 0.414709
Si Si6 0.748236 0.011600 0.628578
Si Si7 0.274356 0.252374 0.577890
Si Si8 0.786332 0.399777 0.187391
O O1 0.900387 0.307455 0.664219
O O2 0.007222 0.264257 0.272381
O O3 0.117692 0.117889 0.469264
O O4 0.957981 0.979435 0.764826
O O5 0.708221 0.593241 0.717016
O O6 0.693595 0.263225 0.114683
O O7 0.801834 0.420130 0.968050
O O8 0.494642 0.810586 0.408225
O O9 0.662305 0.725276 0.401978
O O10 0.692140 0.583978 0.224596
O O11 0.672290 0.941604 0.947233
O O12 0.088665 0.624300 0.926849
O O13 0.863181 0.711943 0.198262
O O14 0.703766 0.995153 0.556863
O O15 0.661251 0.952082 0.393929
O O16 0.739399 0.223896 0.478701
#
# Coordination Sequence:
#
# PCOD8007057 Si02
#       8
#     2   2   2   2   2   2   2   2
#     4  10  20  40  66  97 130 162 206 264 324 375
#     4  11  25  41  66  98 131 165 208 265 322 376
#     4  12  25  44  66  92 130 170 220 255 310 382
#     4  10  21  39  66  95 132 163 208 261 318 382
#     4  11  26  45  64  93 130 171 213 263 313 372
#     4  10  23  42  69  93 124 171 211 263 315 374
#     4  12  25  41  66  97 127 169 215 259 317 378
#     4  10  25  41  64 101 125 169 208 262 322 374
#
# _framework density 20.670029
#
# number of rings (size 3 to 8) (size 9 to 14) (size 15 to 20)
#    0.000    1.250    2.500    2.250    3.500    7.500 
#    0.000    0.000    0.000    0.000    0.000    0.000 
#    0.000    0.000    0.000    0.000    0.000    0.000 
#
# Total GULP energy -198533.706333 kJ/mol
# GULP energy per Si atom -12408.356646 kJ/mol
# Density = 2.062298 g / cm^3
# Si number density = 20.670029 Si / 1000 Ang^3
#
#
#
# Elastic Constant Matrix: (Units=GPa)
#
#
# Indices 1 2 3 4 5 6 
#
# 1 113.9146 10.3414 16.0873 -4.3346 3.0919 14.7448
# 2 10.3414 227.9808 71.5125 29.9554 25.6891 -19.8390
# 3 16.0873 71.5125 93.1270 -14.0189 16.5846 -17.4571
# 4 -4.3346 29.9554 -14.0189 29.6389 -2.5302 -0.8652
# 5 3.0919 25.6891 16.5846 -2.5302 33.4409 -0.4990
# 6 14.7448 -19.8390 -17.4571 -0.8652 -0.4990 34.4390
#
#
#
# Elastic Compliance Matrix: (Units=1/GPa)
#
#
# Indices 1 2 3 4 5 6 
#
# 1 0.009909 -0.000193 -0.002683 0.000251 0.000496 -0.005700
# 2 -0.000193 0.009341 -0.008327 -0.013729 -0.004054 0.000839
# 3 -0.002683 -0.008327 0.022457 0.018631 -0.002961 0.008160
# 4 0.000251 -0.013729 0.018631 0.057032 0.005642 0.002942
# 5 0.000496 -0.004054 -0.002961 0.005642 0.034817 -0.003403
# 6 -0.005700 0.000839 0.008160 0.002942 -0.003403 0.036122
#
#
# Mechanical properties :
#
#
# Convention : Reuss Voigt Hill
#
# Bulk Modulus (GPa) = 51.80776 70.10054 60.95415
# Shear Modulus (GPa) = 25.18688 41.97583 33.58135
#
# Velocity S-wave (km/s) = 3.49452 4.51128 4.03505
# Velocity P-wave (km/s) = 6.43435 7.81814 7.15975
#
# Compressibility (1/GPa) = 0.01930213
#
# Stress axis : x y z
#
# Youngs Moduli (GPa) = 100.92132 107.05693 44.52870
#
# Poissons Ratio (x) = 0.02066 0.11945
# Poissons Ratio (y) = 0.01948 0.37079
# Poissons Ratio (z) = 0.27072 0.89145
#
# Static dielectric constant tensor:
#      x y z
#    x 3.814160 -0.010230 0.030270 
#    y -0.010230 3.696030 -0.101680 
#    z 0.030270 -0.101680 3.877640 
# 
# 
# High freq. dielectric constant tensor:
#      x y z
#    x 1.819170 -0.000090 0.002880 
#    y -0.000090 1.811910 -0.006440 
#    z 0.002880 -0.006440 1.817480 
# 
# From -- ./inp_files/258019.got.cif
#   From: 2010.06.25/outbox.cif.g09.slc.cpg/sg2_130_cif.got.tgz:258019.got - 2010.06.27 13:26:56.
