data_PCOD8007154
_publ_section_title
;
Structure prediction by ZEFSAII (Michael W. Deem and Ramdas Pophale) SiO2 
 PCOD8007154
Probable space group: P -1
;
_chemical_formula_sum "Si O2"
_cell_formula_units_Z 16
_cell_length_a 8.463950
_cell_length_b 12.365182
_cell_length_c 14.631661
_cell_angle_alpha 67.725456
_cell_angle_beta 118.660268
_cell_angle_gamma 61.407587
_cell_volume 723.546486
_symmetry_space_group_name_H-M "P -1"
_symmetry_group_IT_number 2
_symmetry_cell_setting 'triclinic'
loop_
_space_group_symop_operation_xyz
x,y,z
-x,-y,-z
loop_
_atom_site_type_symbol
_atom_site_label
_atom_site_fract_x
_atom_site_fract_y
_atom_site_fract_z
Si Si1 0.935026 0.332531 0.040157
Si Si2 0.187172 0.094022 0.367020
Si Si3 0.999369 0.817043 0.512279
Si Si4 0.175346 0.629300 0.326619
Si Si5 0.579488 0.735577 0.799446
Si Si6 0.909056 0.914486 0.996831
Si Si7 0.183940 0.282713 0.636085
Si Si8 0.510038 0.290166 0.406584
O O1 0.995955 0.242974 0.182206
O O2 0.197906 0.283273 0.090570
O O3 0.899033 0.254529 0.975534
O O4 0.634714 0.572777 0.899048
O O5 0.978054 0.209044 0.363811
O O6 0.500000 0.000000 0.500000
O O7 0.259455 0.921749 0.411897
O O8 0.323564 0.682532 0.599621
O O9 0.868213 0.764596 0.454720
O O10 0.773923 0.044169 0.350293
O O11 0.500000 0.500000 0.500000
O O12 0.243335 0.473503 0.341558
O O13 0.943588 0.724438 0.312944
O O14 0.002247 0.811677 0.153774
O O15 0.646882 0.702773 0.719556
O O16 0.545990 0.106443 0.811540
O O17 0.000000 0.000000 0.000000
O O18 0.000000 0.500000 0.500000
#
# Coordination Sequence:
#
# PCOD8007154 Si02
#       8
#     2   2   2   2   2   2   2   2
#     4  11  22  39  69 100 137 175 229 285 354 413
#     4  11  21  38  66 101 130 177 225 280 346 416
#     4  11  23  44  67  99 146 176 237 283 354 427
#     4  12  26  47  74 100 139 194 246 290 364 419
#     4  10  20  40  67  99 134 180 216 292 350 411
#     4  12  27  48  70 104 148 189 243 299 353 432
#     4  12  27  46  73 106 142 191 242 300 356 427
#     4  11  23  42  69  98 138 186 229 290 353 423
#
# _framework density 22.113299000000001
#
# number of rings (size 3 to 8) (size 9 to 14) (size 15 to 20)
#    0.000    0.750    6.250    2.625    5.250    0.000 
#    0.000    2.500    0.000    0.000    0.000    0.000 
#    0.000    0.000    0.000    0.000    0.000    0.000 
#
# Total GULP energy -198319.762059 kJ/mol
# GULP energy per Si atom -12394.985129 kJ/mol
# Density = 2.206297 g / cm^3
# Si number density = 22.113299 Si / 1000 Ang^3
#
#
#
# Elastic Constant Matrix: (Units=GPa)
#
#
# Indices 1 2 3 4 5 6 
#
# 1 91.9187 34.7270 35.1323 1.9856 -18.7592 7.8838
# 2 34.7270 119.4793 35.3485 -5.7526 -17.1758 16.6935
# 3 35.1323 35.3485 119.5239 -4.5873 -37.1484 7.0412
# 4 1.9856 -5.7526 -4.5873 27.8424 8.2583 0.9413
# 5 -18.7592 -17.1758 -37.1484 8.2583 48.7750 -1.0076
# 6 7.8838 16.6935 7.0412 0.9413 -1.0076 35.0174
#
#
#
# Elastic Compliance Matrix: (Units=1/GPa)
#
#
# Indices 1 2 3 4 5 6 
#
# 1 0.013572 -0.002829 -0.002284 -0.002761 0.002929 -0.001089
# 2 -0.002829 0.010477 -0.001669 0.001957 0.000915 -0.004048
# 3 -0.002284 -0.001669 0.011958 -0.000467 0.007703 -0.000860
# 4 -0.002761 0.001957 -0.000467 0.038657 -0.007304 -0.001467
# 5 0.002929 0.000915 0.007703 -0.007304 0.029021 -0.001613
# 6 -0.001089 -0.004048 -0.000860 -0.001467 -0.001613 0.030898
#
#
# Mechanical properties :
#
#
# Convention : Reuss Voigt Hill
#
# Bulk Modulus (GPa) = 44.55590 60.14861 52.35225
# Shear Modulus (GPa) = 32.12791 37.37457 34.75124
#
# Velocity S-wave (km/s) = 3.81580 4.11559 3.96853
# Velocity P-wave (km/s) = 6.29336 7.05998 6.68767
#
# Compressibility (1/GPa) = 0.02244372
#
# Stress axis : x y z
#
# Youngs Moduli (GPa) = 73.68319 95.44717 83.62344
#
# Poissons Ratio (x) = 0.26997 0.19101
# Poissons Ratio (y) = 0.20841 0.13957
# Poissons Ratio (z) = 0.16830 0.15930
#
# Static dielectric constant tensor:
#      x y z
#    x 3.993530 0.169090 -0.175580 
#    y 0.169090 4.305400 -0.084610 
#    z -0.175580 -0.084610 4.361640 
# 
# 
# High freq. dielectric constant tensor:
#      x y z
#    x 1.857100 0.012950 -0.009270 
#    y 0.012950 1.880550 -0.003180 
#    z -0.009270 -0.003180 1.880600 
# 
# From -- ./inp_files/500305.got.cif
#   From: 2010.06.25/outbox.cif.g09.slc.cpg/sg2_251_cif.got.tgz:500305.got - 2010.06.27 13:26:56.
