data_PCOD8007248
_publ_section_title
;
Structure prediction by ZEFSAII (Michael W. Deem and Ramdas Pophale) SiO2 
 PCOD8007248
Probable space group: P -1
;
_chemical_formula_sum "Si O2"
_cell_formula_units_Z 14
_cell_length_a 8.754092
_cell_length_b 8.721746
_cell_length_c 11.262835
_cell_angle_alpha 93.141575
_cell_angle_beta 63.726837
_cell_angle_gamma 61.950914
_cell_volume 641.859162
_symmetry_space_group_name_H-M "P -1"
_symmetry_group_IT_number 2
_symmetry_cell_setting 'triclinic'
loop_
_space_group_symop_operation_xyz
x,y,z
-x,-y,-z
loop_
_atom_site_type_symbol
_atom_site_label
_atom_site_fract_x
_atom_site_fract_y
_atom_site_fract_z
Si Si1 0.053803 0.567293 0.869373
Si Si2 0.123001 0.869695 0.344571
Si Si3 0.766158 0.970362 0.883589
Si Si4 0.555986 0.818572 0.811996
Si Si5 0.613104 0.662311 0.554305
Si Si6 0.970443 0.430769 0.667237
Si Si7 0.499651 0.383565 0.655114
O O1 0.279952 0.527042 0.795339
O O2 0.899411 0.783169 0.904289
O O3 0.050423 0.437268 0.768072
O O4 0.000000 0.500000 0.000000
O O5 0.029329 0.751059 0.348239
O O6 0.360901 0.756814 0.295408
O O7 0.095380 0.980607 0.236942
O O8 0.000000 0.000000 0.500000
O O9 0.628561 0.951604 0.831145
O O10 0.626979 0.134621 0.032466
O O11 0.487022 0.836362 0.697354
O O12 0.739865 0.605080 0.741654
O O13 0.605918 0.487400 0.582964
O O14 0.519080 0.723471 0.456515
O O15 0.855500 0.584686 0.480701
#
# Coordination Sequence:
#
# PCOD8007248 Si02
#       7
#     2   2   2   2   2   2   2
#     4  10  24  48  69  92 135 179 219 269 340 399
#     4  12  26  42  67 104 135 168 226 278 321 393
#     4  10  25  41  67 101 131 172 223 279 324 387
#     4  10  20  40  69  93 131 177 222 270 326 390
#     4  10  20  41  67  96 128 180 220 264 325 394
#     4  10  22  41  69  95 131 182 220 261 335 402
#     4  10  24  39  70  95 130 175 222 270 331 387
#
# _framework density 21.811639
#
# number of rings (size 3 to 8) (size 9 to 14) (size 15 to 20)
#    0.000    1.714    1.429    1.286   14.000    1.714 
#    2.571    3.571    0.000    0.000    0.000    0.000 
#    0.000    0.000    0.000    0.000    0.000    0.000 
#
# Total GULP energy -173512.993133 kJ/mol
# GULP energy per Si atom -12393.785224 kJ/mol
# Density = 2.176200 g / cm^3
# Si number density = 21.811639 Si / 1000 Ang^3
#
#
#
# Elastic Constant Matrix: (Units=GPa)
#
#
# Indices 1 2 3 4 5 6 
#
# 1 90.5815 44.5333 45.8629 0.9267 -9.8298 6.7757
# 2 44.5333 109.9533 66.3832 -9.4458 -12.0889 11.4522
# 3 45.8629 66.3832 179.7647 2.6309 -10.2079 15.7828
# 4 0.9267 -9.4458 2.6309 35.5761 10.9815 3.7672
# 5 -9.8298 -12.0889 -10.2079 10.9815 32.4590 -0.8452
# 6 6.7757 11.4522 15.7828 3.7672 -0.8452 31.2598
#
#
#
# Elastic Compliance Matrix: (Units=1/GPa)
#
#
# Indices 1 2 3 4 5 6 
#
# 1 0.014607 -0.004713 -0.001770 -0.002381 0.002912 -0.000180
# 2 -0.004713 0.014011 -0.003728 0.004038 0.001183 -0.002684
# 3 -0.001770 -0.003728 0.007635 -0.001609 0.000972 -0.001885
# 4 -0.002381 0.004038 -0.001609 0.033257 -0.011091 -0.004459
# 5 0.002912 0.001183 0.000972 -0.011091 0.036208 0.000760
# 6 -0.000180 -0.002684 -0.001885 -0.004459 0.000760 0.034522
#
#
# Mechanical properties :
#
#
# Convention : Reuss Voigt Hill
#
# Bulk Modulus (GPa) = 63.16676 77.09538 70.13107
# Shear Modulus (GPa) = 30.13148 34.76030 32.44589
#
# Velocity S-wave (km/s) = 3.72081 3.99640 3.86106
# Velocity P-wave (km/s) = 6.89073 7.53111 7.21803
#
# Compressibility (1/GPa) = 0.01583111
#
# Stress axis : x y z
#
# Youngs Moduli (GPa) = 68.46024 71.37458 130.97066
#
# Poissons Ratio (x) = 0.33639 0.23185
# Poissons Ratio (y) = 0.32265 0.48822
# Poissons Ratio (z) = 0.12119 0.26606
#
# Static dielectric constant tensor:
#      x y z
#    x 4.377610 -0.016130 0.128070 
#    y -0.016130 3.593220 0.122740 
#    z 0.128070 0.122740 4.603350 
# 
# 
# High freq. dielectric constant tensor:
#      x y z
#    x 1.865280 0.005990 0.004520 
#    y 0.005990 1.828120 -0.000850 
#    z 0.004520 -0.000850 1.875160 
# 
# From -- ./inp_files/342635.got.cif
#   From: 2010.06.25/outbox.cif.g09.slc.cpg/sg2_172_cif.got.tgz:342635.got - 2010.06.27 13:26:56.
