data_PCOD8007519
_publ_section_title
;
Structure prediction by ZEFSAII (Michael W. Deem and Ramdas Pophale) SiO2 
 PCOD8007519
Probable space group: P -1
;
_chemical_formula_sum "Si O2"
_cell_formula_units_Z 16
_cell_length_a 11.491208
_cell_length_b 12.253616
_cell_length_c 16.065335
_cell_angle_alpha 152.899729
_cell_angle_beta 47.235636
_cell_angle_gamma 125.566890
_cell_volume 754.798026
_symmetry_space_group_name_H-M "P -1"
_symmetry_group_IT_number 2
_symmetry_cell_setting 'triclinic'
loop_
_space_group_symop_operation_xyz
x,y,z
-x,-y,-z
loop_
_atom_site_type_symbol
_atom_site_label
_atom_site_fract_x
_atom_site_fract_y
_atom_site_fract_z
Si Si1 0.149735 0.784178 0.637132
Si Si2 0.291467 0.130276 0.352945
Si Si3 0.749236 0.497948 0.243833
Si Si4 0.115587 0.423039 0.267606
Si Si5 0.756990 0.391798 0.984831
Si Si6 0.389208 0.415403 0.348926
Si Si7 0.941500 0.674356 0.953817
Si Si8 0.562904 0.781533 0.980727
O O1 0.135740 0.674980 0.476429
O O2 0.307325 0.669659 0.529231
O O3 0.995063 0.737069 0.733351
O O4 0.158047 0.069831 0.822246
O O5 0.223200 0.252929 0.553481
O O6 0.280523 0.316796 0.408010
O O7 0.194771 0.895023 0.220902
O O8 0.479223 0.045641 0.218557
O O9 0.569619 0.431970 0.303337
O O10 0.877361 0.298516 0.085176
O O11 0.787533 0.530429 0.150042
O O12 0.050111 0.455915 0.228627
O O13 0.285453 0.273790 0.072719
O O14 0.857246 0.495635 0.933862
O O15 0.567307 0.417965 0.074928
O O16 0.386063 0.226891 0.146862
#
# Coordination Sequence:
#
# PCOD8007519 Si02
#       8
#     2   2   2   2   2   2   2   2
#     4  10  24  41  65  92 128 156 195 262 305 361
#     4  10  21  38  65  91 120 161 199 258 299 353
#     4  11  24  38  63  94 120 160 211 249 303 359
#     4  10  22  41  62  92 125 156 207 240 318 364
#     4   9  24  42  59  91 124 161 211 245 301 358
#     4  10  20  41  64  95 120 157 208 249 311 357
#     4  12  25  40  63  92 126 165 198 252 305 364
#     4   8  20  39  63  91 118 163 197 257 296 358
#
# _framework density 21.197724000000001
#
# number of rings (size 3 to 8) (size 9 to 14) (size 15 to 20)
#    0.750    1.250    0.000    2.250    3.500    5.000 
#    0.000    5.625    0.000    0.000    0.000    0.000 
#    0.000    0.000    0.000    0.000    0.000    0.000 
#
# Total GULP energy -198310.586808 kJ/mol
# GULP energy per Si atom -12394.411675 kJ/mol
# Density = 2.114948 g / cm^3
# Si number density = 21.197724 Si / 1000 Ang^3
#
#
#
# Elastic Constant Matrix: (Units=GPa)
#
#
# Indices 1 2 3 4 5 6 
#
# 1 106.9869 41.2367 23.1230 -6.1135 -10.4863 -7.4471
# 2 41.2367 106.6597 48.5136 2.5893 9.2640 -12.1759
# 3 23.1230 48.5136 104.4774 -1.4218 1.9574 -14.0966
# 4 -6.1135 2.5893 -1.4218 23.7185 -6.9629 2.2437
# 5 -10.4863 9.2640 1.9574 -6.9629 35.8284 -3.0503
# 6 -7.4471 -12.1759 -14.0966 2.2437 -3.0503 16.7855
#
#
#
# Elastic Compliance Matrix: (Units=1/GPa)
#
#
# Indices 1 2 3 4 5 6 
#
# 1 0.012432 -0.005194 -0.000104 0.005393 0.006211 0.002069
# 2 -0.005194 0.014798 -0.005182 -0.005315 -0.005778 0.003739
# 3 -0.000104 -0.005182 0.012959 0.001051 0.001418 0.007196
# 4 0.005393 -0.005315 0.001051 0.048129 0.011834 -0.004862
# 5 0.006211 -0.005778 0.001418 0.011834 0.033813 0.004318
# 6 0.002069 0.003739 0.007196 -0.004862 0.004318 0.070683
#
#
# Mechanical properties :
#
#
# Convention : Reuss Voigt Hill
#
# Bulk Modulus (GPa) = 51.99765 60.43005 56.21385
# Shear Modulus (GPa) = 22.70852 28.94986 25.82919
#
# Velocity S-wave (km/s) = 3.27658 3.69956 3.49447
# Velocity P-wave (km/s) = 6.23680 6.84241 6.54662
#
# Compressibility (1/GPa) = 0.01923164
#
# Stress axis : x y z
#
# Youngs Moduli (GPa) = 80.43682 67.57670 77.16618
#
# Poissons Ratio (x) = 0.35096 0.00800
# Poissons Ratio (y) = 0.41775 0.39984
# Poissons Ratio (z) = 0.00834 0.35015
#
# Static dielectric constant tensor:
#      x y z
#    x 3.941380 -0.008890 -0.074330 
#    y -0.008890 3.333440 -0.174660 
#    z -0.074330 -0.174660 3.877650 
# 
# 
# High freq. dielectric constant tensor:
#      x y z
#    x 1.833160 -0.001390 -0.002810 
#    y -0.001390 1.795150 -0.017160 
#    z -0.002810 -0.017160 1.839770 
# 
# From -- ./inp_files/519336.got.cif
#   From: 2010.06.25/outbox.cif.g09.slc.cpg/sg2_260_cif.got.tgz:519336.got - 2010.06.27 13:26:56.
