data_PCOD8007510
_publ_section_title
;
Structure prediction by ZEFSAII (Michael W. Deem and Ramdas Pophale) SiO2 
 PCOD8007510
Probable space group: P -1
;
_chemical_formula_sum "Si O2"
_cell_formula_units_Z 16
_cell_length_a 8.984129
_cell_length_b 11.903203
_cell_length_c 14.902416
_cell_angle_alpha 39.740434
_cell_angle_beta 67.780528
_cell_angle_gamma 48.492641
_cell_volume 733.666372
_symmetry_space_group_name_H-M "P -1"
_symmetry_group_IT_number 2
_symmetry_cell_setting 'triclinic'
loop_
_space_group_symop_operation_xyz
x,y,z
-x,-y,-z
loop_
_atom_site_type_symbol
_atom_site_label
_atom_site_fract_x
_atom_site_fract_y
_atom_site_fract_z
Si Si1 0.566814 0.058980 0.239330
Si Si2 0.774506 0.607505 0.186235
Si Si3 0.753633 0.214298 0.685805
Si Si4 0.451671 0.996257 0.132376
Si Si5 0.206906 0.473209 0.179247
Si Si6 0.641199 0.324400 0.449493
Si Si7 0.581447 0.796124 0.540053
Si Si8 0.907771 0.058435 0.085520
O O1 0.410851 0.284298 0.193508
O O2 0.703225 0.080514 0.126396
O O3 0.434836 0.023395 0.226188
O O4 0.691223 0.836503 0.411611
O O5 0.688532 0.786196 0.178609
O O6 0.742227 0.421541 0.317470
O O7 0.018437 0.471399 0.202073
O O8 0.639367 0.762604 0.036660
O O9 0.683306 0.075147 0.826304
O O10 0.788571 0.178314 0.591687
O O11 0.586953 0.479787 0.580446
O O12 0.952573 0.122734 0.756383
O O13 0.257942 0.434348 0.298981
O O14 0.146534 0.707577 0.017910
O O15 0.608358 0.189419 0.467594
O O16 0.500000 0.000000 0.500000
O O17 0.000000 0.000000 0.000000
#
# Coordination Sequence:
#
# PCOD8007510 Si02
#       8
#     2   2   2   2   2   2   2   2
#     4  11  25  42  65  90 132 179 215 266 327 386
#     4  10  22  38  68  96 128 167 216 270 326 382
#     4  10  21  40  65  95 133 161 218 273 322 383
#     4  10  20  41  64  93 131 168 213 275 322 378
#     4  11  24  44  62  95 133 172 219 265 326 393
#     4  10  21  40  66  99 126 170 216 269 323 384
#     4  10  23  44  63  88 136 179 215 264 322 390
#     4  12  25  43  67  99 129 171 219 273 328 388
#
# _framework density 21.808274999999998
#
# number of rings (size 3 to 8) (size 9 to 14) (size 15 to 20)
#    0.000    1.500    2.500    1.875    7.000    0.500 
#    0.000    4.375    0.000    0.000    0.000    0.000 
#    0.000    0.000    0.000    0.000    0.000    0.000 
#
# Total GULP energy -198268.356624 kJ/mol
# GULP energy per Si atom -12391.772289 kJ/mol
# Density = 2.175864 g / cm^3
# Si number density = 21.808275 Si / 1000 Ang^3
#
#
#
# Elastic Constant Matrix: (Units=GPa)
#
#
# Indices 1 2 3 4 5 6 
#
# 1 99.6938 41.8744 39.9695 8.1207 -0.6286 6.9159
# 2 41.8744 69.8591 40.3404 15.3967 2.1018 4.7168
# 3 39.9695 40.3404 119.4065 15.7692 4.3702 4.0609
# 4 8.1207 15.3967 15.7692 26.4707 -1.6929 1.1783
# 5 -0.6286 2.1018 4.3702 -1.6929 39.5820 7.7511
# 6 6.9159 4.7168 4.0609 1.1783 7.7511 38.5889
#
#
#
# Elastic Compliance Matrix: (Units=1/GPa)
#
#
# Indices 1 2 3 4 5 6 
#
# 1 0.014069 -0.007287 -0.002439 0.001532 0.001274 -0.001677
# 2 -0.007287 0.023079 -0.004138 -0.008771 -0.001146 -0.000582
# 3 -0.002439 -0.004138 0.011097 -0.003539 -0.001221 0.000128
# 4 0.001532 -0.008771 -0.003539 0.044741 0.002949 -0.000789
# 5 0.001274 -0.001146 -0.001221 0.002949 0.026665 -0.005406
# 6 -0.001677 -0.000582 0.000128 -0.000789 -0.005406 0.027382
#
#
# Mechanical properties :
#
#
# Convention : Reuss Voigt Hill
#
# Bulk Modulus (GPa) = 48.74216 59.25868 54.00042
# Shear Modulus (GPa) = 27.53302 32.04667 29.78984
#
# Velocity S-wave (km/s) = 3.55703 3.83753 3.69994
# Velocity P-wave (km/s) = 6.26648 6.84595 6.56261
#
# Compressibility (1/GPa) = 0.02051612
#
# Stress axis : x y z
#
# Youngs Moduli (GPa) = 71.07740 43.33006 90.11531
#
# Poissons Ratio (x) = 0.31576 0.21983
# Poissons Ratio (y) = 0.51796 0.37286
# Poissons Ratio (z) = 0.17338 0.17928
#
# Static dielectric constant tensor:
#      x y z
#    x 3.797820 0.144990 0.107850 
#    y 0.144990 3.686280 0.134650 
#    z 0.107850 0.134650 4.349390 
# 
# 
# High freq. dielectric constant tensor:
#      x y z
#    x 1.851610 0.017150 -0.003570 
#    y 0.017150 1.828900 0.010240 
#    z -0.003570 0.010240 1.879610 
# 
# From -- ./inp_files/243352.got.cif
#   From: 2010.06.25/outbox.cif.g09.slc.cpg/sg2_122_cif.got.tgz:243352.got - 2010.06.27 13:26:56.
