data_PCOD8007042
_publ_section_title
;
Structure prediction by ZEFSAII (Michael W. Deem and Ramdas Pophale) SiO2 
 PCOD8007042
Probable space group: P -1
;
_chemical_formula_sum "Si O2"
_cell_formula_units_Z 16
_cell_length_a 15.308910
_cell_length_b 10.210963
_cell_length_c 9.788240
_cell_angle_alpha 72.516171
_cell_angle_beta 59.697099
_cell_angle_gamma 121.138182
_cell_volume 735.351841
_symmetry_space_group_name_H-M "P -1"
_symmetry_group_IT_number 2
_symmetry_cell_setting 'triclinic'
loop_
_space_group_symop_operation_xyz
x,y,z
-x,-y,-z
loop_
_atom_site_type_symbol
_atom_site_label
_atom_site_fract_x
_atom_site_fract_y
_atom_site_fract_z
Si Si1 0.162827 0.070147 0.692065
Si Si2 0.868320 0.771455 0.578042
Si Si3 0.610004 0.291715 0.070023
Si Si4 0.269457 0.872458 0.982328
Si Si5 0.653955 0.074034 0.812293
Si Si6 0.195697 0.335455 0.792341
Si Si7 0.088541 0.407915 0.621065
Si Si8 0.470113 0.216823 0.478090
O O1 0.208513 0.206028 0.477918
O O2 0.171617 0.160511 0.799646
O O3 0.304932 0.108266 0.575823
O O4 0.960105 0.798761 0.935262
O O5 0.945806 0.728677 0.441127
O O6 0.716178 0.545126 0.865374
O O7 0.000000 0.000000 0.500000
O O8 0.562726 0.228970 0.285720
O O9 0.423174 0.095119 0.201252
O O10 0.731611 0.293759 0.941690
O O11 0.307261 0.979711 0.069663
O O12 0.090128 0.743502 0.117731
O O13 0.415286 0.062261 0.696356
O O14 0.822233 0.349817 0.560484
O O15 0.500000 0.000000 0.000000
O O16 0.204078 0.458720 0.627438
O O17 0.377532 0.517827 0.669543
#
# Coordination Sequence:
#
# PCOD8007042 Si02
#       8
#     2   2   2   2   2   2   2   2
#     4  10  23  42  65  96 131 184 231 264 333 406
#     4  11  24  43  69  97 140 178 221 285 338 393
#     4  11  25  44  65 101 140 173 223 283 340 399
#     4  11  23  41  70 103 128 179 228 273 341 403
#     4  10  20  40  66  95 130 175 223 275 329 396
#     4  10  21  42  65  95 135 175 229 279 323 402
#     4  11  21  42  72  99 130 178 234 275 330 410
#     4  12  24  43  67 100 140 173 222 283 345 397
#
# _framework density 21.758292999999998
#
# number of rings (size 3 to 8) (size 9 to 14) (size 15 to 20)
#    0.000    1.250    3.750    3.375    1.750    1.500 
#    4.500    1.250    0.000    0.000    0.000    0.000 
#    0.000    0.000    0.000    0.000    0.000    0.000 
#
# Total GULP energy -198247.821493 kJ/mol
# GULP energy per Si atom -12390.488843 kJ/mol
# Density = 2.170877 g / cm^3
# Si number density = 21.758293 Si / 1000 Ang^3
#
#
#
# Elastic Constant Matrix: (Units=GPa)
#
#
# Indices 1 2 3 4 5 6 
#
# 1 67.1680 12.7394 22.1178 -3.2916 3.0927 1.6698
# 2 12.7394 102.2740 39.5934 -11.1605 6.6731 1.4526
# 3 22.1178 39.5934 120.8467 -6.2900 9.7412 -0.4582
# 4 -3.2916 -11.1605 -6.2900 32.8689 3.0310 1.3399
# 5 3.0927 6.6731 9.7412 3.0310 39.8021 0.7460
# 6 1.6698 1.4526 -0.4582 1.3399 0.7460 15.9561
#
#
#
# Elastic Compliance Matrix: (Units=1/GPa)
#
#
# Indices 1 2 3 4 5 6 
#
# 1 0.016006 -0.000837 -0.002571 0.000944 -0.000514 -0.001728
# 2 -0.000837 0.011670 -0.003394 0.003402 -0.001296 -0.001297
# 3 -0.002571 -0.003394 0.010035 0.000636 -0.001752 0.000895
# 4 0.000944 0.003402 0.000636 0.032210 -0.003197 -0.002945
# 5 -0.000514 -0.001296 -0.001752 -0.003197 0.026069 -0.000829
# 6 -0.001728 -0.001297 0.000895 -0.002945 -0.000829 0.063283
#
#
# Mechanical properties :
#
#
# Convention : Reuss Voigt Hill
#
# Bulk Modulus (GPa) = 41.48144 48.79889 45.14017
# Shear Modulus (GPa) = 27.63753 32.11462 29.87607
#
# Velocity S-wave (km/s) = 3.56786 3.84601 3.70954
# Velocity P-wave (km/s) = 6.00657 6.49606 6.25610
#
# Compressibility (1/GPa) = 0.02410717
#
# Stress axis : x y z
#
# Youngs Moduli (GPa) = 62.47496 85.69073 99.64966
#
# Poissons Ratio (x) = 0.07175 0.25622
# Poissons Ratio (y) = 0.05231 0.33817
# Poissons Ratio (z) = 0.16064 0.29080
#
# Static dielectric constant tensor:
#      x y z
#    x 3.941920 0.617970 0.024540 
#    y 0.617970 4.482700 0.078520 
#    z 0.024540 0.078520 3.896200 
# 
# 
# High freq. dielectric constant tensor:
#      x y z
#    x 1.845520 0.020080 0.009730 
#    y 0.020080 1.841800 0.002960 
#    z 0.009730 0.002960 1.866270 
# 
# From -- ./inp_files/306985.got.cif
#   From: 2010.06.25/outbox.cif.g09.slc.cpg/sg2_154_cif.got.tgz:306985.got - 2010.06.27 13:26:56.
