data_PCOD8007720
_publ_section_title
;
Structure prediction by ZEFSAII (Michael W. Deem and Ramdas Pophale) SiO2 
 PCOD8007720
Probable space group: P -1
;
_chemical_formula_sum "Si O2"
_cell_formula_units_Z 16
_cell_length_a 14.196244
_cell_length_b 8.959030
_cell_length_c 9.972733
_cell_angle_alpha 109.272353
_cell_angle_beta 96.743244
_cell_angle_gamma 40.537889
_cell_volume 759.562692
_symmetry_space_group_name_H-M "P -1"
_symmetry_group_IT_number 2
_symmetry_cell_setting 'triclinic'
loop_
_space_group_symop_operation_xyz
x,y,z
-x,-y,-z
loop_
_atom_site_type_symbol
_atom_site_label
_atom_site_fract_x
_atom_site_fract_y
_atom_site_fract_z
Si Si1 0.763079 0.556676 0.677510
Si Si2 0.566546 0.117619 0.215678
Si Si3 0.956322 0.401230 0.884535
Si Si4 0.573525 0.543157 0.943638
Si Si5 0.171857 0.859476 0.335786
Si Si6 0.766436 0.114789 0.360148
Si Si7 0.246844 0.431501 0.882056
Si Si8 0.846481 0.354327 0.360078
O O1 0.587538 0.757991 0.720618
O O2 0.833201 0.596116 0.803530
O O3 0.854697 0.282073 0.653962
O O4 0.802299 0.538051 0.523179
O O5 0.546378 0.202491 0.085163
O O6 0.615116 0.209986 0.336469
O O7 0.689274 0.824739 0.156223
O O8 0.103106 0.139498 0.771058
O O9 0.885682 0.372281 0.974420
O O10 0.000000 0.500000 0.000000
O O11 0.694686 0.308617 0.797221
O O12 0.500000 0.500000 0.000000
O O13 0.636318 0.580908 0.076366
O O14 0.209096 0.923435 0.487355
O O15 0.022460 0.104574 0.311038
O O16 0.755743 0.308013 0.359236
O O17 0.194997 0.510129 0.744836
#
# Coordination Sequence:
#
# PCOD8007720 Si02
#       8
#     2   2   2   2   2   2   2   2
#     4  10  21  43  67  90 130 179 217 265 333 383
#     4  11  24  41  65  91 138 177 210 267 330 398
#     4  12  22  41  68  95 125 176 225 260 327 395
#     4  11  24  42  65  97 132 170 224 272 325 383
#     4  10  20  41  67  93 129 171 220 278 319 380
#     4  11  21  40  70  97 124 174 229 260 330 389
#     4  12  25  40  63 100 134 171 217 269 332 387
#     4  11  22  40  69  96 132 166 222 281 317 381
#
# _framework density 21.064754000000001
#
# number of rings (size 3 to 8) (size 9 to 14) (size 15 to 20)
#    0.000    1.000    6.250    1.875    0.000    9.000 
#    0.000    2.500    0.000    0.000    0.000    0.000 
#    0.000    0.000    0.000    0.000    0.000    0.000 
#
# Total GULP energy -198382.007184 kJ/mol
# GULP energy per Si atom -12398.875449 kJ/mol
# Density = 2.101681 g / cm^3
# Si number density = 21.064754 Si / 1000 Ang^3
#
#
#
# Elastic Constant Matrix: (Units=GPa)
#
#
# Indices 1 2 3 4 5 6 
#
# 1 94.5901 32.4846 48.2558 -12.3833 16.2964 -8.8916
# 2 32.4846 103.6240 57.1585 -20.6278 -7.7011 -6.3683
# 3 48.2558 57.1585 159.9968 -25.5321 5.6223 -1.3611
# 4 -12.3833 -20.6278 -25.5321 33.4084 1.3181 4.8836
# 5 16.2964 -7.7011 5.6223 1.3181 34.3130 -11.8601
# 6 -8.8916 -6.3683 -1.3611 4.8836 -11.8601 24.1110
#
#
#
# Elastic Compliance Matrix: (Units=1/GPa)
#
#
# Indices 1 2 3 4 5 6 
#
# 1 0.014545 -0.003239 -0.002740 0.001489 -0.007039 0.000589
# 2 -0.003239 0.014300 -0.003732 0.003767 0.006953 0.005029
# 3 -0.002740 -0.003732 0.009149 0.004285 -0.002423 -0.003540
# 4 0.001489 0.003767 0.004285 0.037472 -0.004831 -0.008180
# 5 -0.007039 0.006953 -0.002423 -0.004831 0.041758 0.020623
# 6 0.000589 0.005029 -0.003540 -0.008180 0.020623 0.054622
#
#
# Mechanical properties :
#
#
# Convention : Reuss Voigt Hill
#
# Bulk Modulus (GPa) = 53.84442 70.44539 62.14490
# Shear Modulus (GPa) = 25.32194 33.05394 29.18794
#
# Velocity S-wave (km/s) = 3.47089 3.96556 3.72644
# Velocity P-wave (km/s) = 6.45598 7.38122 6.93405
#
# Compressibility (1/GPa) = 0.01857203
#
# Stress axis : x y z
#
# Youngs Moduli (GPa) = 68.75158 69.93048 109.30684
#
# Poissons Ratio (x) = 0.22650 0.29947
# Poissons Ratio (y) = 0.22268 0.40795
# Poissons Ratio (z) = 0.18836 0.26099
#
# Static dielectric constant tensor:
#      x y z
#    x 3.924050 -0.270290 0.238630 
#    y -0.270290 3.632090 -0.040680 
#    z 0.238630 -0.040680 4.285330 
# 
# 
# High freq. dielectric constant tensor:
#      x y z
#    x 1.822370 -0.025050 0.010080 
#    y -0.025050 1.803850 -0.000280 
#    z 0.010080 -0.000280 1.846380 
# 
# From -- ./inp_files/242948.got.cif
#   From: 2010.06.25/outbox.cif.g09.slc.cpg/sg2_122_cif.got.tgz:242948.got - 2010.06.27 13:26:56.
