data_PCOD8007096
_publ_section_title
;
Structure prediction by ZEFSAII (Michael W. Deem and Ramdas Pophale) SiO2 
 PCOD8007096
Probable space group: P -1
;
_chemical_formula_sum "Si O2"
_cell_formula_units_Z 14
_cell_length_a 8.010789
_cell_length_b 17.774657
_cell_length_c 15.696779
_cell_angle_alpha 23.740245
_cell_angle_beta 138.517071
_cell_angle_gamma 141.364664
_cell_volume 556.607895
_symmetry_space_group_name_H-M "P -1"
_symmetry_group_IT_number 2
_symmetry_cell_setting 'triclinic'
loop_
_space_group_symop_operation_xyz
x,y,z
-x,-y,-z
loop_
_atom_site_type_symbol
_atom_site_label
_atom_site_fract_x
_atom_site_fract_y
_atom_site_fract_z
Si Si1 0.999647 0.617017 0.541316
Si Si2 0.128788 0.827207 0.023853
Si Si3 0.449736 0.267368 0.817766
Si Si4 0.897803 0.801771 0.783551
Si Si5 0.727121 0.099707 0.329053
Si Si6 0.994515 0.428583 0.221159
Si Si7 0.806077 0.974838 0.868255
O O1 0.016325 0.398923 0.759166
O O2 0.690977 0.599388 0.423340
O O3 0.079753 0.683947 0.600535
O O4 0.188034 0.794564 0.367998
O O5 0.434202 0.853277 0.082625
O O6 0.975211 0.868021 0.841140
O O7 0.082685 0.971413 0.930245
O O8 0.698227 0.411604 0.819733
O O9 0.227374 0.117227 0.954149
O O10 0.158450 0.910046 0.711025
O O11 0.668645 0.886545 0.576454
O O12 0.806533 0.560595 0.992169
O O13 0.451943 0.144689 0.165530
O O14 0.950309 0.273040 0.289084
#
# Coordination Sequence:
#
# PCOD8007096 Si02
#       7
#     2   2   2   2   2   2   2
#     4  10  23  43  64  94 129 164 211 264 309 366
#     4  10  22  43  64  94 125 167 213 252 318 371
#     4  10  22  46  66  88 131 167 212 261 303 376
#     4   9  20  38  61  90 125 163 204 250 311 373
#     4  11  21  38  65  95 125 163 208 255 315 377
#     4  10  20  40  67  90 122 169 208 253 313 371
#     4  12  24  40  66  98 128 162 209 262 315 373
#
# _framework density 25.152358
#
# number of rings (size 3 to 8) (size 9 to 14) (size 15 to 20)
#    0.000    2.000    2.857    3.429    0.000    4.571 
#    2.571   10.714    0.000    0.857    0.000    0.000 
#    0.000    0.000    0.000    0.000    0.000    0.000 
#
# Total GULP energy -173449.338513 kJ/mol
# GULP energy per Si atom -12389.238465 kJ/mol
# Density = 2.509511 g / cm^3
# Si number density = 25.152358 Si / 1000 Ang^3
#
#
#
# Elastic Constant Matrix: (Units=GPa)
#
#
# Indices 1 2 3 4 5 6 
#
# 1 95.0760 44.2253 39.0772 2.5688 1.3171 -12.1442
# 2 44.2253 67.1423 30.3913 16.0875 4.1609 -10.5894
# 3 39.0772 30.3913 159.6771 19.5320 -16.0252 -25.4902
# 4 2.5688 16.0875 19.5320 32.1176 4.9359 -6.1677
# 5 1.3171 4.1609 -16.0252 4.9359 38.1932 0.2474
# 6 -12.1442 -10.5894 -25.4902 -6.1677 0.2474 30.8940
#
#
#
# Elastic Compliance Matrix: (Units=1/GPa)
#
#
# Indices 1 2 3 4 5 6 
#
# 1 0.016816 -0.011024 -0.002612 0.006341 -0.001307 0.001953
# 2 -0.011024 0.025415 -0.000665 -0.010932 -0.001265 0.001657
# 3 -0.002612 -0.000665 0.008841 -0.004536 0.004425 0.005099
# 4 0.006341 -0.010932 -0.004536 0.040410 -0.006174 0.003120
# 5 -0.001307 -0.001265 0.004425 -0.006174 0.029012 0.001239
# 6 0.001953 0.001657 0.005099 0.003120 0.001239 0.038525
#
#
# Mechanical properties :
#
#
# Convention : Reuss Voigt Hill
#
# Bulk Modulus (GPa) = 44.50355 61.03145 52.76750
# Shear Modulus (GPa) = 25.62634 34.12106 29.87370
#
# Velocity S-wave (km/s) = 3.19540 3.68717 3.45006
# Velocity P-wave (km/s) = 5.59876 6.51493 6.07414
#
# Compressibility (1/GPa) = 0.02247012
#
# Stress axis : x y z
#
# Youngs Moduli (GPa) = 59.46801 39.34674 113.10432
#
# Poissons Ratio (x) = 0.43377 0.29545
# Poissons Ratio (y) = 0.65559 0.07516
# Poissons Ratio (z) = 0.15534 0.02615
#
# Static dielectric constant tensor:
#      x y z
#    x 4.171670 0.065100 -0.151000 
#    y 0.065100 4.312980 0.294900 
#    z -0.151000 0.294900 4.884820 
# 
# 
# High freq. dielectric constant tensor:
#      x y z
#    x 1.980110 -0.000820 -0.020480 
#    y -0.000820 2.007180 0.016630 
#    z -0.020480 0.016630 2.026930 
# 
# From -- ./inp_files/562892.got.cif
#   From: 2010.06.25/outbox.cif.g09.slc.cpg/sg2_282_cif.got.tgz:562892.got - 2010.06.27 13:26:56.
