data_PCOD8007780
_publ_section_title
;
Structure prediction by ZEFSAII (Michael W. Deem and Ramdas Pophale) SiO2 
 PCOD8007780
Probable space group: P -1
;
_chemical_formula_sum "Si O2"
_cell_formula_units_Z 16
_cell_length_a 14.521980
_cell_length_b 18.217694
_cell_length_c 8.831331
_cell_angle_alpha 149.347913
_cell_angle_beta 138.907194
_cell_angle_gamma 42.590876
_cell_volume 755.528538
_symmetry_space_group_name_H-M "P -1"
_symmetry_group_IT_number 2
_symmetry_cell_setting 'triclinic'
loop_
_space_group_symop_operation_xyz
x,y,z
-x,-y,-z
loop_
_atom_site_type_symbol
_atom_site_label
_atom_site_fract_x
_atom_site_fract_y
_atom_site_fract_z
Si Si1 0.009415 0.917713 0.164971
Si Si2 0.299604 0.850699 0.833901
Si Si3 0.723829 0.444511 0.893465
Si Si4 0.552210 0.288001 0.926789
Si Si5 0.003358 0.456094 0.098681
Si Si6 0.800614 0.367908 0.198750
Si Si7 0.575637 0.931896 0.819966
Si Si8 0.122812 0.157326 0.844546
O O1 0.992263 0.826819 0.133774
O O2 0.860098 0.035222 0.139847
O O3 0.137636 0.998234 0.500161
O O4 0.078773 0.790580 0.903506
O O5 0.294857 0.700263 0.475136
O O6 0.366203 0.809877 0.008089
O O7 0.402978 0.934159 0.021502
O O8 0.581960 0.582276 0.948745
O O9 0.848356 0.508998 0.083742
O O10 0.757290 0.399891 0.028535
O O11 0.508715 0.172037 0.553338
O O12 0.657288 0.371974 0.122884
O O13 0.126894 0.507326 0.431735
O O14 0.000000 0.500000 0.000000
O O15 0.055991 0.277986 0.849801
O O16 0.728901 0.824144 0.869099
O O17 0.500000 0.000000 0.000000
#
# Coordination Sequence:
#
# PCOD8007780 Si02
#       8
#     2   2   2   2   2   2   2   2
#     4  10  20  41  72  96 128 175 231 282 336 400
#     4  11  24  44  70  99 138 179 228 290 352 400
#     4  12  24  46  71  96 141 184 232 281 345 417
#     4  12  27  44  66 106 143 182 228 281 354 412
#     4  12  26  43  66 104 139 179 232 288 350 401
#     4  12  25  43  70 101 135 184 235 281 340 417
#     4  11  24  43  69  99 136 185 234 280 341 417
#     4  10  20  41  68  95 129 175 231 277 332 406
#
# _framework density 21.177229000000001
#
# number of rings (size 3 to 8) (size 9 to 14) (size 15 to 20)
#    0.000    0.750    2.500    6.000    3.500    2.500 
#    2.250    0.000    0.000    0.000    0.000    0.000 
#    0.000    0.000    0.000    0.000    0.000    0.000 
#
# Total GULP energy -198383.146543 kJ/mol
# GULP energy per Si atom -12398.946659 kJ/mol
# Density = 2.112903 g / cm^3
# Si number density = 21.177229 Si / 1000 Ang^3
#
#
#
# Elastic Constant Matrix: (Units=GPa)
#
#
# Indices 1 2 3 4 5 6 
#
# 1 132.8610 57.2186 38.1638 -0.7845 18.9320 11.4319
# 2 57.2186 127.9367 29.6402 -5.2422 -2.5981 18.1721
# 3 38.1638 29.6402 89.1707 -1.9689 12.4554 -10.2876
# 4 -0.7845 -5.2422 -1.9689 20.0565 0.9261 -1.9572
# 5 18.9320 -2.5981 12.4554 0.9261 33.1747 -6.0605
# 6 11.4319 18.1721 -10.2876 -1.9572 -6.0605 20.0654
#
#
#
# Elastic Compliance Matrix: (Units=1/GPa)
#
#
# Indices 1 2 3 4 5 6 
#
# 1 0.011768 -0.003465 -0.003839 -0.001259 -0.006926 -0.007750
# 2 -0.003465 0.011761 -0.003872 0.001490 0.002529 -0.009753
# 3 -0.003839 -0.003872 0.015984 0.001808 -0.001688 0.013555
# 4 -0.001259 0.001490 0.001808 0.050895 -0.000321 0.005162
# 5 -0.006926 0.002529 -0.001688 -0.000321 0.037124 0.011972
# 6 -0.007750 -0.009753 0.013555 0.005162 0.011972 0.074154
#
#
# Mechanical properties :
#
#
# Convention : Reuss Voigt Hill
#
# Bulk Modulus (GPa) = 58.27244 66.66818 62.47031
# Shear Modulus (GPa) = 21.76194 29.65571 25.70883
#
# Velocity S-wave (km/s) = 3.20911 3.74620 3.48801
# Velocity P-wave (km/s) = 6.42709 7.08953 6.76642
#
# Compressibility (1/GPa) = 0.01716077
#
# Stress axis : x y z
#
# Youngs Moduli (GPa) = 84.97511 85.02785 62.56249
#
# Poissons Ratio (x) = 0.29464 0.24019
# Poissons Ratio (y) = 0.29446 0.24223
# Poissons Ratio (z) = 0.32623 0.32921
#
# Static dielectric constant tensor:
#      x y z
#    x 4.838640 -0.899840 -0.040360 
#    y -0.899840 4.605000 0.248270 
#    z -0.040360 0.248270 3.824340 
# 
# 
# High freq. dielectric constant tensor:
#      x y z
#    x 1.831550 -0.001980 0.011340 
#    y -0.001980 1.840020 0.001860 
#    z 0.011340 0.001860 1.842110 
# 
# From -- ./inp_files/318200.got.cif
#   From: 2010.06.25/outbox.cif.g09.slc.cpg/sg2_160_cif.got.tgz:318200.got - 2010.06.27 13:26:56.
