data_PCOD8007039
_publ_section_title
;
Structure prediction by ZEFSAII (Michael W. Deem and Ramdas Pophale) SiO2 
 PCOD8007039
Probable space group: P -1
;
_chemical_formula_sum "Si O2"
_cell_formula_units_Z 14
_cell_length_a 9.251931
_cell_length_b 9.083313
_cell_length_c 8.864113
_cell_angle_alpha 93.000575
_cell_angle_beta 84.932559
_cell_angle_gamma 119.414971
_cell_volume 646.321726
_symmetry_space_group_name_H-M "P -1"
_symmetry_group_IT_number 2
_symmetry_cell_setting 'triclinic'
loop_
_space_group_symop_operation_xyz
x,y,z
-x,-y,-z
loop_
_atom_site_type_symbol
_atom_site_label
_atom_site_fract_x
_atom_site_fract_y
_atom_site_fract_z
Si Si1 0.709678 0.219035 0.210574
Si Si2 0.464549 0.330653 0.178615
Si Si3 0.731819 0.704316 0.095739
Si Si4 0.051525 0.682869 0.062243
Si Si5 0.824201 0.996856 0.338127
Si Si6 0.065478 0.436087 0.627334
Si Si7 0.822609 0.780781 0.581644
O O1 0.525555 0.193631 0.200577
O O2 0.713663 0.088111 0.324136
O O3 0.809102 0.406249 0.278507
O O4 0.782222 0.194803 0.041506
O O5 0.619626 0.517574 0.162400
O O6 0.344749 0.335167 0.318514
O O7 0.360669 0.265325 0.032061
O O8 0.909671 0.728656 0.030837
O O9 0.762494 0.842930 0.223049
O O10 0.075489 0.688854 0.244251
O O11 0.000000 0.500000 0.000000
O O12 0.020691 0.134914 0.312717
O O13 0.800570 0.927152 0.507458
O O14 0.155802 0.337019 0.549689
O O15 0.000000 0.500000 0.500000
#
# Coordination Sequence:
#
# PCOD8007039 Si02
#       7
#     2   2   2   2   2   2   2
#     4  11  23  41  67  95 132 167 220 263 322 375
#     4  11  25  42  67  96 128 172 214 267 319 386
#     4  11  23  43  67  96 128 170 220 262 320 376
#     4  10  20  40  66  95 123 166 220 263 297 386
#     4  11  24  44  65  96 131 172 214 266 319 386
#     4  11  21  39  66  98 124 170 217 261 306 386
#     4  11  24  43  66  97 133 168 215 261 329 382
#
# _framework density 21.661038000000001
#
# number of rings (size 3 to 8) (size 9 to 14) (size 15 to 20)
#    0.000    1.143    5.714    0.857    2.000    5.714 
#    0.000    0.000    0.000    0.000    0.000    0.000 
#    0.000    0.000    0.000    0.000    0.000    0.000 
#
# Total GULP energy -173522.122659 kJ/mol
# GULP energy per Si atom -12394.437333 kJ/mol
# Density = 2.161174 g / cm^3
# Si number density = 21.661038 Si / 1000 Ang^3
#
#
#
# Elastic Constant Matrix: (Units=GPa)
#
#
# Indices 1 2 3 4 5 6 
#
# 1 125.5064 39.1126 62.0370 -5.0881 13.1832 -30.2524
# 2 39.1126 36.0182 26.3421 3.7287 11.9191 -14.4142
# 3 62.0370 26.3421 116.8755 -2.2573 6.9217 -4.2575
# 4 -5.0881 3.7287 -2.2573 32.0182 -1.2771 9.2516
# 5 13.1832 11.9191 6.9217 -1.2771 35.9679 -15.7798
# 6 -30.2524 -14.4142 -4.2575 9.2516 -15.7798 29.0742
#
#
#
# Elastic Compliance Matrix: (Units=1/GPa)
#
#
# Indices 1 2 3 4 5 6 
#
# 1 0.017431 -0.009149 -0.006925 -0.000927 0.004718 0.015443
# 2 -0.009149 0.052018 -0.006168 -0.012860 -0.006060 0.016169
# 3 -0.006925 -0.006168 0.013452 0.003604 -0.002652 -0.010880
# 4 -0.000927 -0.012860 0.003604 0.038858 -0.004103 -0.021404
# 5 0.004718 -0.006060 -0.002652 -0.004103 0.038961 0.023968
# 6 0.015443 0.016169 -0.010880 -0.021404 0.023968 0.076705
#
#
# Mechanical properties :
#
#
# Convention : Reuss Voigt Hill
#
# Bulk Modulus (GPa) = 26.03054 59.26483 42.64768
# Shear Modulus (GPa) = 16.96548 29.47264 23.21906
#
# Velocity S-wave (km/s) = 2.80165 3.69267 3.27758
# Velocity P-wave (km/s) = 4.74436 6.75282 5.83565
#
# Compressibility (1/GPa) = 0.03841642
#
# Stress axis : x y z
#
# Youngs Moduli (GPa) = 57.36798 19.22429 74.33580
#
# Poissons Ratio (x) = 0.17589 0.51478
# Poissons Ratio (y) = 0.52487 0.45851
# Poissons Ratio (z) = 0.39728 0.11858
#
# Static dielectric constant tensor:
#      x y z
#    x 3.894200 -0.195320 0.187260 
#    y -0.195320 3.938930 -0.344080 
#    z 0.187260 -0.344080 4.449350 
# 
# 
# High freq. dielectric constant tensor:
#      x y z
#    x 1.849340 -0.024750 0.012270 
#    y -0.024750 1.837560 -0.002830 
#    z 0.012270 -0.002830 1.859200 
# 
# From -- ./inp_files/159206.got.cif
#   From: 2010.06.25/outbox.cif.g09.slc.cpg/sg2_80_cif.got.tgz:159206.got - 2010.06.27 13:26:56.
