data_PCOD8007620
_publ_section_title
;
Structure prediction by ZEFSAII (Michael W. Deem and Ramdas Pophale) SiO2 
 PCOD8007620
Probable space group: P -1
;
_chemical_formula_sum "Si O2"
_cell_formula_units_Z 14
_cell_length_a 9.059825
_cell_length_b 8.627974
_cell_length_c 12.086343
_cell_angle_alpha 73.490139
_cell_angle_beta 64.776735
_cell_angle_gamma 47.793533
_cell_volume 633.086673
_symmetry_space_group_name_H-M "P -1"
_symmetry_group_IT_number 2
_symmetry_cell_setting 'triclinic'
loop_
_space_group_symop_operation_xyz
x,y,z
-x,-y,-z
loop_
_atom_site_type_symbol
_atom_site_label
_atom_site_fract_x
_atom_site_fract_y
_atom_site_fract_z
Si Si1 0.321614 0.523020 0.984466
Si Si2 0.615580 0.118990 0.356064
Si Si3 0.639799 0.120341 0.873753
Si Si4 0.816203 0.670234 0.443872
Si Si5 0.037498 0.467502 0.818191
Si Si6 0.592850 0.987566 0.147515
Si Si7 0.092922 0.794904 0.815362
O O1 0.453475 0.368741 0.867134
O O2 0.156709 0.752067 0.934174
O O3 0.500000 0.500000 0.000000
O O4 0.196327 0.465782 0.108261
O O5 0.401581 0.277490 0.460780
O O6 0.726095 0.224335 0.305117
O O7 0.771762 0.890956 0.410716
O O8 0.563710 0.095806 0.251632
O O9 0.609097 0.001791 0.814315
O O10 0.880026 0.033320 0.811738
O O11 0.602219 0.100688 0.018785
O O12 0.887924 0.562504 0.324539
O O13 0.000000 0.500000 0.500000
O O14 0.195569 0.252507 0.877875
O O15 0.042042 0.643507 0.829886
#
# Coordination Sequence:
#
# PCOD8007620 Si02
#       7
#     2   2   2   2   2   2   2
#     4  12  26  40  66 104 138 175 217 265 328 405
#     4  10  25  45  67  98 129 170 227 277 323 390
#     4  11  23  36  64  98 134 177 207 259 332 394
#     4  10  25  46  72  90 125 178 229 276 329 379
#     4  11  23  45  67  96 138 177 215 278 327 386
#     4  10  20  41  66  89 138 175 214 258 329 392
#     4  12  25  41  67 104 136 169 218 270 333 402
#
# _framework density 22.113876999999999
#
# number of rings (size 3 to 8) (size 9 to 14) (size 15 to 20)
#    0.000    1.143    2.857    3.000   10.000    1.714 
#    0.000    0.714    0.000    0.000    0.000    0.000 
#    0.000    0.000    0.000    0.000    0.000    0.000 
#
# Total GULP energy -173469.090093 kJ/mol
# GULP energy per Si atom -12390.649292 kJ/mol
# Density = 2.206354 g / cm^3
# Si number density = 22.113877 Si / 1000 Ang^3
#
#
#
# Elastic Constant Matrix: (Units=GPa)
#
#
# Indices 1 2 3 4 5 6 
#
# 1 150.8509 38.4810 60.3861 3.7856 -27.9373 -12.1269
# 2 38.4810 57.5092 25.4734 7.6617 -4.7847 -18.2977
# 3 60.3861 25.4734 99.6774 11.6115 -23.0915 -6.3341
# 4 3.7856 7.6617 11.6115 32.8589 -3.5200 -1.6724
# 5 -27.9373 -4.7847 -23.0915 -3.5200 38.2613 -6.0558
# 6 -12.1269 -18.2977 -6.3341 -1.6724 -6.0558 32.5794
#
#
#
# Elastic Compliance Matrix: (Units=1/GPa)
#
#
# Indices 1 2 3 4 5 6 
#
# 1 0.010434 -0.004483 -0.004144 0.001922 0.004985 0.001586
# 2 -0.004483 0.025984 -0.002711 -0.003975 -0.000099 0.012176
# 3 -0.004144 -0.002711 0.014952 -0.003558 0.005438 0.000671
# 4 0.001922 -0.003975 -0.003558 0.032569 0.001721 -0.000217
# 5 0.004985 -0.000099 0.005438 0.001721 0.034691 0.009394
# 6 0.001586 0.012176 0.000671 -0.000217 0.009394 0.039988
#
#
# Mechanical properties :
#
#
# Convention : Reuss Voigt Hill
#
# Bulk Modulus (GPa) = 34.84850 61.85762 48.35306
# Shear Modulus (GPa) = 26.19749 32.98639 29.59194
#
# Velocity S-wave (km/s) = 3.44563 3.86639 3.66206
# Velocity P-wave (km/s) = 5.62340 6.92568 6.30824
#
# Compressibility (1/GPa) = 0.02869564
#
# Stress axis : x y z
#
# Youngs Moduli (GPa) = 95.84273 38.48496 66.87963
#
# Poissons Ratio (x) = 0.17253 0.27712
# Poissons Ratio (y) = 0.42966 0.18129
# Poissons Ratio (z) = 0.39714 0.10432
#
# Static dielectric constant tensor:
#      x y z
#    x 4.200900 -0.435950 0.040340 
#    y -0.435950 4.605190 -0.067220 
#    z 0.040340 -0.067220 3.917910 
# 
# 
# High freq. dielectric constant tensor:
#      x y z
#    x 1.877410 -0.022080 -0.005070 
#    y -0.022080 1.884990 -0.000460 
#    z -0.005070 -0.000460 1.845820 
# 
# From -- ./inp_files/175789.got.cif
#   From: 2010.06.25/outbox.cif.g09.slc.cpg/sg2_88_cif.got.tgz:175789.got - 2010.06.27 13:26:56.
