data_PCOD8007142
_publ_section_title
;
Structure prediction by ZEFSAII (Michael W. Deem and Ramdas Pophale) SiO2 
 PCOD8007142
Probable space group: P -1
;
_chemical_formula_sum "Si O2"
_cell_formula_units_Z 16
_cell_length_a 13.769937
_cell_length_b 15.944694
_cell_length_c 7.147879
_cell_angle_alpha 139.121919
_cell_angle_beta 78.021552
_cell_angle_gamma 126.042316
_cell_volume 742.266976
_symmetry_space_group_name_H-M "P -1"
_symmetry_group_IT_number 2
_symmetry_cell_setting 'triclinic'
loop_
_space_group_symop_operation_xyz
x,y,z
-x,-y,-z
loop_
_atom_site_type_symbol
_atom_site_label
_atom_site_fract_x
_atom_site_fract_y
_atom_site_fract_z
Si Si1 0.502767 0.359196 0.328119
Si Si2 0.774727 0.931969 0.143261
Si Si3 0.306572 0.899095 0.294382
Si Si4 0.810481 0.526216 0.939107
Si Si5 0.779957 0.664325 0.849246
Si Si6 0.017450 0.251941 0.409751
Si Si7 0.872872 0.332952 0.368056
Si Si8 0.413151 0.756989 0.217103
O O1 0.500000 0.500000 0.500000
O O2 0.632765 0.465528 0.590034
O O3 0.348626 0.190746 0.168013
O O4 0.523944 0.277759 0.020244
O O5 0.762799 0.051114 0.469746
O O6 0.917258 0.050722 0.177756
O O7 0.769037 0.808069 0.083697
O O8 0.307737 0.768807 0.195071
O O9 0.458624 0.060196 0.435863
O O10 0.225693 0.810973 0.988335
O O11 0.845950 0.675284 0.036046
O O12 0.805061 0.386975 0.600876
O O13 0.661453 0.402798 0.878598
O O14 0.919257 0.625789 0.228089
O O15 0.864510 0.690746 0.679528
O O16 0.915301 0.259912 0.368682
O O17 0.000000 0.500000 0.500000
#
# Coordination Sequence:
#
# PCOD8007142 Si02
#       8
#     2   2   2   2   2   2   2   2
#     4   9  19  41  67  92 128 165 210 263 316 375
#     4  10  23  42  65  94 130 168 213 267 318 375
#     4  10  22  41  66  94 133 166 215 266 317 378
#     4  12  24  40  68  95 127 169 216 264 318 382
#     4  11  23  43  66  94 128 171 214 263 317 385
#     4  12  24  42  65  95 129 169 213 264 325 376
#     4  12  23  40  62  93 129 167 212 262 320 379
#     4  10  20  40  67  97 128 168 211 267 319 377
#
# _framework density 21.555585000000001
#
# number of rings (size 3 to 8) (size 9 to 14) (size 15 to 20)
#    0.000    1.250    2.500    3.750    0.000    2.000 
#    2.250    5.625    0.000    0.000    0.000    0.000 
#    0.000    0.000    0.000    0.000    0.000    0.000 
#
# Total GULP energy -198252.123567 kJ/mol
# GULP energy per Si atom -12390.757723 kJ/mol
# Density = 2.150652 g / cm^3
# Si number density = 21.555585 Si / 1000 Ang^3
#
#
#
# Elastic Constant Matrix: (Units=GPa)
#
#
# Indices 1 2 3 4 5 6 
#
# 1 100.2779 25.3099 43.6571 -0.4445 4.2223 -13.8650
# 2 25.3099 96.9378 37.9613 13.5272 20.8873 -6.3475
# 3 43.6571 37.9613 103.6931 8.5703 22.2848 -12.0331
# 4 -0.4445 13.5272 8.5703 27.8590 -1.1429 8.0387
# 5 4.2223 20.8873 22.2848 -1.1429 40.2842 6.5625
# 6 -13.8650 -6.3475 -12.0331 8.0387 6.5625 29.2896
#
#
#
# Elastic Compliance Matrix: (Units=1/GPa)
#
#
# Indices 1 2 3 4 5 6 
#
# 1 0.012947 -0.001971 -0.005048 0.002054 0.002093 0.002595
# 2 -0.001971 0.014674 -0.001489 -0.008678 -0.007762 0.005756
# 3 -0.005048 -0.001489 0.015617 -0.006685 -0.008750 0.007499
# 4 0.002054 -0.008678 -0.006685 0.048416 0.012575 -0.019760
# 5 0.002093 -0.007762 -0.008750 0.012575 0.036416 -0.015896
# 6 0.002595 0.005756 0.007499 -0.019760 -0.015896 0.048684
#
#
# Mechanical properties :
#
#
# Convention : Reuss Voigt Hill
#
# Bulk Modulus (GPa) = 38.13447 57.19615 47.66531
# Shear Modulus (GPa) = 24.69017 32.41860 28.55439
#
# Velocity S-wave (km/s) = 3.38808 3.88229 3.64357
# Velocity P-wave (km/s) = 5.74761 6.83287 6.31360
#
# Compressibility (1/GPa) = 0.02622299
#
# Stress axis : x y z
#
# Youngs Moduli (GPa) = 77.23638 68.14769 64.03222
#
# Poissons Ratio (x) = 0.13434 0.32322
# Poissons Ratio (y) = 0.15226 0.09532
# Poissons Ratio (z) = 0.38987 0.10145
#
# Static dielectric constant tensor:
#      x y z
#    x 4.102860 0.194680 0.197520 
#    y 0.194680 3.981850 0.349650 
#    z 0.197520 0.349650 3.939830 
# 
# 
# High freq. dielectric constant tensor:
#      x y z
#    x 1.859130 0.010070 0.001930 
#    y 0.010070 1.840280 0.022090 
#    z 0.001930 0.022090 1.846230 
# 
# From -- ./inp_files/84277.got.cif
#   From: 2010.06.25/outbox.cif.g09.slc.cpg/sg2_43_cif.got.tgz:84277.got - 2010.06.27 13:26:56.
