data_PCOD8007918
_publ_section_title
;
Structure prediction by ZEFSAII (Michael W. Deem and Ramdas Pophale) SiO2 
 PCOD8007918
Probable space group: P -1
;
_chemical_formula_sum "Si O2"
_cell_formula_units_Z 16
_cell_length_a 14.498083
_cell_length_b 9.125340
_cell_length_c 12.733749
_cell_angle_alpha 84.400584
_cell_angle_beta 153.004354
_cell_angle_gamma 102.016197
_cell_volume 733.140026
_symmetry_space_group_name_H-M "P -1"
_symmetry_group_IT_number 2
_symmetry_cell_setting 'triclinic'
loop_
_space_group_symop_operation_xyz
x,y,z
-x,-y,-z
loop_
_atom_site_type_symbol
_atom_site_label
_atom_site_fract_x
_atom_site_fract_y
_atom_site_fract_z
Si Si1 0.174078 0.590275 0.404706
Si Si2 0.222148 0.462848 0.247490
Si Si3 0.901392 0.888087 0.817526
Si Si4 0.323247 0.945547 0.570877
Si Si5 0.231745 0.873399 0.985012
Si Si6 0.885235 0.898696 0.483756
Si Si7 0.603570 0.566261 0.210668
Si Si8 0.309906 0.557305 0.108043
O O1 0.294284 0.532977 0.432183
O O2 0.245494 0.771202 0.471380
O O3 0.216648 0.513878 0.563865
O O4 0.925757 0.545954 0.137744
O O5 0.199818 0.283302 0.236729
O O6 0.379556 0.528802 0.302525
O O7 0.000000 0.500000 0.000000
O O8 0.718686 0.946765 0.572442
O O9 0.105991 0.898709 0.956009
O O10 0.000000 0.000000 0.000000
O O11 0.572276 0.978847 0.845433
O O12 0.201331 0.981769 0.545747
O O13 0.333308 0.735136 0.112233
O O14 0.067259 0.837620 0.725930
O O15 0.696471 0.748679 0.275100
O O16 0.000000 0.000000 0.500000
O O17 0.442862 0.519543 0.148683
O O18 0.500000 0.500000 0.000000
#
# Coordination Sequence:
#
# PCOD8007918 Si02
#       8
#     2   2   2   2   2   2   2   2
#     4  11  24  46  68 106 140 175 232 283 344 413
#     4  10  20  41  71  99 135 184 221 278 340 409
#     4  11  22  42  67 102 143 181 228 277 339 412
#     4  11  26  42  70 102 139 183 229 282 349 410
#     4  11  23  45  68  96 141 181 225 285 341 418
#     4  11  26  48  70  97 136 180 232 291 350 407
#     4  12  28  46  71 104 133 179 239 286 343 416
#     4  11  23  45  73  96 140 183 225 282 350 403
#
# _framework density 21.823934999999999
#
# number of rings (size 3 to 8) (size 9 to 14) (size 15 to 20)
#    0.000    1.000    5.000    2.250    3.500    5.000 
#    0.000    0.000    0.000    0.000    0.000    0.000 
#    0.000    0.000    0.000    0.000    0.000    0.000 
#
# Total GULP energy -198338.827484 kJ/mol
# GULP energy per Si atom -12396.176718 kJ/mol
# Density = 2.177426 g / cm^3
# Si number density = 21.823935 Si / 1000 Ang^3
#
#
#
# Elastic Constant Matrix: (Units=GPa)
#
#
# Indices 1 2 3 4 5 6 
#
# 1 127.0411 55.9706 58.8570 5.5662 -25.8388 24.2874
# 2 55.9706 188.8190 67.8871 23.8535 -22.6537 4.1670
# 3 58.8570 67.8871 121.1167 24.3131 -26.6785 6.9558
# 4 5.5662 23.8535 24.3131 38.2779 4.8673 -1.7269
# 5 -25.8388 -22.6537 -26.6785 4.8673 42.0380 4.8953
# 6 24.2874 4.1670 6.9558 -1.7269 4.8953 33.9534
#
#
#
# Elastic Compliance Matrix: (Units=1/GPa)
#
#
# Indices 1 2 3 4 5 6 
#
# 1 0.013369 -0.001738 -0.003730 0.000323 0.005975 -0.009431
# 2 -0.001738 0.007186 -0.002234 -0.003002 0.001685 0.000423
# 3 -0.003730 -0.002234 0.014581 -0.008268 0.006884 -0.001458
# 4 0.000323 -0.003002 -0.008268 0.034875 -0.011314 0.005236
# 5 0.005975 0.001685 0.006884 -0.011314 0.035395 -0.011569
# 6 -0.009431 0.000423 -0.001458 0.005236 -0.011569 0.038379
#
#
# Mechanical properties :
#
#
# Convention : Reuss Voigt Hill
#
# Bulk Modulus (GPa) = 50.67613 89.15625 69.91619
# Shear Modulus (GPa) = 30.16285 39.80466 34.98376
#
# Velocity S-wave (km/s) = 3.72169 4.27535 4.00809
# Velocity P-wave (km/s) = 6.46056 8.08162 7.31613
#
# Compressibility (1/GPa) = 0.01973316
#
# Stress axis : x y z
#
# Youngs Moduli (GPa) = 74.79956 139.14991 68.58150
#
# Poissons Ratio (x) = 0.24181 0.25580
# Poissons Ratio (y) = 0.12998 0.15323
# Poissons Ratio (z) = 0.27899 0.31089
#
# Static dielectric constant tensor:
#      x y z
#    x 4.065430 0.059300 -0.032430 
#    y 0.059300 4.015150 -0.269630 
#    z -0.032430 -0.269630 4.336130 
# 
# 
# High freq. dielectric constant tensor:
#      x y z
#    x 1.861470 0.001100 0.002450 
#    y 0.001100 1.864240 -0.002660 
#    z 0.002450 -0.002660 1.873390 
# 
# From -- ./inp_files/188031.got.cif
#   From: 2010.06.25/outbox.cif.g09.slc.cpg/sg2_95_cif.got.tgz:188031.got - 2010.06.27 13:26:56.
