data_PCOD8007806
_publ_section_title
;
Structure prediction by ZEFSAII (Michael W. Deem and Ramdas Pophale) SiO2 
 PCOD8007806
Probable space group: P -1
;
_chemical_formula_sum "Si O2"
_cell_formula_units_Z 12
_cell_length_a 8.970140
_cell_length_b 12.010383
_cell_length_c 8.908052
_cell_angle_alpha 75.385413
_cell_angle_beta 80.188290
_cell_angle_gamma 138.822677
_cell_volume 504.234952
_symmetry_space_group_name_H-M "P -1"
_symmetry_group_IT_number 2
_symmetry_cell_setting 'triclinic'
loop_
_space_group_symop_operation_xyz
x,y,z
-x,-y,-z
loop_
_atom_site_type_symbol
_atom_site_label
_atom_site_fract_x
_atom_site_fract_y
_atom_site_fract_z
Si Si1 0.547585 0.664332 0.924892
Si Si2 0.562295 0.859091 0.083498
Si Si3 0.867958 0.032081 0.268856
Si Si4 0.140064 0.769349 0.289419
Si Si5 0.178731 0.778258 0.620177
Si Si6 0.676279 0.377100 0.321513
O O1 0.376917 0.608845 0.838040
O O2 0.876998 0.891667 0.771748
O O3 0.500000 0.500000 0.000000
O O4 0.455091 0.671750 0.091178
O O5 0.309709 0.758167 0.247212
O O6 0.801619 0.988458 0.118578
O O7 0.675434 0.008857 0.877124
O O8 0.958684 0.220289 0.238449
O O9 0.611109 0.825111 0.478219
O O10 0.072732 0.743341 0.484382
O O11 0.852563 0.582074 0.314224
O O12 0.132410 0.615633 0.726973
O O13 0.500000 0.000000 0.500000
#
# Coordination Sequence:
#
# PCOD8007806 Si02
#       6
#     2   2   2   2   2   2
#     4  12  28  46  64  96 139 181 216 265 337 401
#     4  11  24  43  68  99 136 170 219 273 334 390
#     4  11  24  44  70  98 134 176 218 275 327 394
#     4  11  23  41  72 104 130 168 221 281 330 381
#     4  10  20  41  69 100 130 167 224 271 325 380
#     4  11  24  42  68  99 130 175 225 271 322 387
#
# _framework density 23.798428999999999
#
# number of rings (size 3 to 8) (size 9 to 14) (size 15 to 20)
#    0.000    1.000    3.333    4.500    4.667    0.667 
#    0.000    2.500    0.000    0.000    0.000    0.000 
#    0.000    0.000    0.000    0.000    0.000    0.000 
#
# Total GULP energy -148851.849733 kJ/mol
# GULP energy per Si atom -12404.320811 kJ/mol
# Density = 2.374426 g / cm^3
# Si number density = 23.798429 Si / 1000 Ang^3
#
#
#
# Elastic Constant Matrix: (Units=GPa)
#
#
# Indices 1 2 3 4 5 6 
#
# 1 62.2909 29.0639 25.2233 24.7103 2.2851 0.6296
# 2 29.0639 147.9448 30.5876 44.3625 16.6862 -2.0598
# 3 25.2233 30.5876 72.6780 29.7312 17.5734 -2.7229
# 4 24.7103 44.3625 29.7312 47.7162 7.5866 5.6750
# 5 2.2851 16.6862 17.5734 7.5866 34.1610 2.0345
# 6 0.6296 -2.0598 -2.7229 5.6750 2.0345 47.1177
#
#
#
# Elastic Compliance Matrix: (Units=1/GPa)
#
#
# Indices 1 2 3 4 5 6 
#
# 1 0.021394 -0.001377 -0.004558 -0.007492 0.003241 0.000153
# 2 -0.001377 0.009841 0.000681 -0.008538 -0.003268 0.001657
# 3 -0.004558 0.000681 0.021743 -0.010749 -0.009006 0.003031
# 4 -0.007492 -0.008538 -0.010749 0.039891 0.001686 -0.005772
# 5 0.003241 -0.003268 -0.009006 0.001686 0.035056 -0.002423
# 6 0.000153 0.001657 0.003031 -0.005772 -0.002423 0.022269
#
#
# Mechanical properties :
#
#
# Convention : Reuss Voigt Hill
#
# Bulk Modulus (GPa) = 23.54683 50.29592 36.92138
# Shear Modulus (GPa) = 28.59465 39.00158 33.79812
#
# Velocity S-wave (km/s) = 3.47008 4.05264 3.77262
# Velocity P-wave (km/s) = 5.09618 6.56342 5.87578
#
# Compressibility (1/GPa) = 0.04246856
#
# Stress axis : x y z
#
# Youngs Moduli (GPa) = 46.74289 101.61765 45.99144
#
# Poissons Ratio (x) = 0.13997 0.20965
# Poissons Ratio (y) = 0.06438 -0.03134
# Poissons Ratio (z) = 0.21308 -0.06924
#
# Static dielectric constant tensor:
#      x y z
#    x 5.024220 -0.249260 -0.280990 
#    y -0.249260 4.673710 0.137400 
#    z -0.280990 0.137400 4.086210 
# 
# 
# High freq. dielectric constant tensor:
#      x y z
#    x 1.938160 0.006980 -0.002280 
#    y 0.006980 1.966780 0.003560 
#    z -0.002280 0.003560 1.930540 
# 
# From -- ./inp_files/146925.got.cif
#   From: 2010.06.25/outbox.cif.g09.slc.cpg/sg2_74_cif.got.tgz:146925.got - 2010.06.27 13:26:56.
