data_PCOD8007726
_publ_section_title
;
Structure prediction by ZEFSAII (Michael W. Deem and Ramdas Pophale) SiO2 
 PCOD8007726
Probable space group: P -1
;
_chemical_formula_sum "Si O2"
_cell_formula_units_Z 12
_cell_length_a 12.998481
_cell_length_b 6.921892
_cell_length_c 13.209325
_cell_angle_alpha 108.223422
_cell_angle_beta 148.442171
_cell_angle_gamma 87.994798
_cell_volume 522.847381
_symmetry_space_group_name_H-M "P -1"
_symmetry_group_IT_number 2
_symmetry_cell_setting 'triclinic'
loop_
_space_group_symop_operation_xyz
x,y,z
-x,-y,-z
loop_
_atom_site_type_symbol
_atom_site_label
_atom_site_fract_x
_atom_site_fract_y
_atom_site_fract_z
Si Si1 0.971849 0.160398 0.421001
Si Si2 0.397100 0.531665 0.079330
Si Si3 0.759866 0.137906 0.730033
Si Si4 0.993248 0.528421 0.836470
Si Si5 0.823239 0.787577 0.602739
Si Si6 0.361393 0.673453 0.861060
O O1 0.724326 0.145065 0.217754
O O2 0.006481 0.087949 0.325777
O O3 0.158839 0.418017 0.639222
O O4 0.000000 0.000000 0.500000
O O5 0.569517 0.676281 0.334552
O O6 0.437064 0.317208 0.038412
O O7 0.151200 0.433699 0.902819
O O8 0.433066 0.706471 0.044372
O O9 0.811928 0.336321 0.723828
O O10 0.500000 0.000000 0.500000
O O11 0.861772 0.973541 0.751891
O O12 0.863712 0.240729 0.942175
O O13 0.866420 0.584446 0.650266
#
# Coordination Sequence:
#
# PCOD8007726 Si02
#       6
#     2   2   2   2   2   2
#     4  10  21  37  65  98 133 177 221 269 330 396
#     4  10  20  41  67  94 132 183 218 266 339 392
#     4  11  25  46  69  99 131 172 233 282 337 401
#     4  11  24  46  70  95 139 177 217 287 340 387
#     4  11  23  42  68  98 134 176 226 276 332 406
#     4   9  20  39  60  91 140 173 219 272 320 402
#
# _framework density 22.951249000000001
#
# number of rings (size 3 to 8) (size 9 to 14) (size 15 to 20)
#    0.000    1.667    3.333    0.500    2.333    0.667 
#    3.000   12.500    0.000    0.000    0.000    0.000 
#    0.000    0.000    0.000    0.000    0.000    0.000 
#
# Total GULP energy -148835.227334 kJ/mol
# GULP energy per Si atom -12402.935611 kJ/mol
# Density = 2.289901 g / cm^3
# Si number density = 22.951249 Si / 1000 Ang^3
#
#
#
# Elastic Constant Matrix: (Units=GPa)
#
#
# Indices 1 2 3 4 5 6 
#
# 1 132.1419 49.7211 50.2271 -15.1925 7.9049 -7.8952
# 2 49.7211 119.5432 39.1605 -40.5355 7.5361 -8.6616
# 3 50.2271 39.1605 93.1098 -25.0766 7.9541 -4.2325
# 4 -15.1925 -40.5355 -25.0766 38.4923 -2.6047 -0.9420
# 5 7.9049 7.5361 7.9541 -2.6047 31.7908 -4.5689
# 6 -7.8952 -8.6616 -4.2325 -0.9420 -4.5689 36.8288
#
#
#
# Elastic Compliance Matrix: (Units=1/GPa)
#
#
# Indices 1 2 3 4 5 6 
#
# 1 0.010539 -0.003696 -0.004824 -0.002905 -0.000678 0.000677
# 2 -0.003696 0.015118 -0.000301 0.014271 -0.000993 0.002970
# 3 -0.004824 -0.000301 0.015810 0.007964 -0.001935 0.000676
# 4 -0.002905 0.014271 0.007964 0.045148 -0.000269 0.004770
# 5 -0.000678 -0.000993 -0.001935 -0.000269 0.032820 0.003463
# 6 0.000677 0.002970 0.000676 0.004770 0.003463 0.028626
#
#
# Mechanical properties :
#
#
# Convention : Reuss Voigt Hill
#
# Bulk Modulus (GPa) = 41.97485 69.22358 55.59922
# Shear Modulus (GPa) = 28.79421 35.13479 31.96450
#
# Velocity S-wave (km/s) = 3.54585 3.91685 3.73596
# Velocity P-wave (km/s) = 5.92389 7.11914 6.54884
#
# Compressibility (1/GPa) = 0.02382379
#
# Stress axis : x y z
#
# Youngs Moduli (GPa) = 94.88371 66.14527 63.25108
#
# Poissons Ratio (x) = 0.24450 0.30514
# Poissons Ratio (y) = 0.35073 0.01904
# Poissons Ratio (z) = 0.45775 0.01991
#
# Static dielectric constant tensor:
#      x y z
#    x 4.441740 -0.252190 0.012620 
#    y -0.252190 4.017330 -0.198840 
#    z 0.012620 -0.198840 4.267940 
# 
# 
# High freq. dielectric constant tensor:
#      x y z
#    x 1.916960 -0.012190 -0.001230 
#    y -0.012190 1.895440 -0.012310 
#    z -0.001230 -0.012310 1.911850 
# 
# From -- ./inp_files/525894.got.cif
#   From: 2010.06.25/outbox.cif.g09.slc.cpg/sg2_263_cif.got.tgz:525894.got - 2010.06.27 13:26:56.
