data_PCOD8007444
_publ_section_title
;
Structure prediction by ZEFSAII (Michael W. Deem and Ramdas Pophale) SiO2 
 PCOD8007444
Probable space group: P -1
;
_chemical_formula_sum "Si O2"
_cell_formula_units_Z 16
_cell_length_a 10.434325
_cell_length_b 11.614974
_cell_length_c 11.457254
_cell_angle_alpha 43.282555
_cell_angle_beta 125.759979
_cell_angle_gamma 114.459962
_cell_volume 772.351231
_symmetry_space_group_name_H-M "P -1"
_symmetry_group_IT_number 2
_symmetry_cell_setting 'triclinic'
loop_
_space_group_symop_operation_xyz
x,y,z
-x,-y,-z
loop_
_atom_site_type_symbol
_atom_site_label
_atom_site_fract_x
_atom_site_fract_y
_atom_site_fract_z
Si Si1 0.684156 0.532094 0.566951
Si Si2 0.096710 0.873691 0.328935
Si Si3 0.118426 0.162028 0.541377
Si Si4 0.874942 0.209245 0.187066
Si Si5 0.693986 0.524576 0.838683
Si Si6 0.085826 0.251890 0.061907
Si Si7 0.908929 0.635868 0.269357
Si Si8 0.324389 0.584075 0.597278
O O1 0.500000 0.500000 0.500000
O O2 0.737234 0.723092 0.424802
O O3 0.755245 0.496366 0.758814
O O4 0.742605 0.420507 0.569575
O O5 0.254600 0.756764 0.486919
O O6 0.026849 0.849535 0.437984
O O7 0.958600 0.819364 0.205109
O O8 0.143747 0.065692 0.188917
O O9 0.036364 0.233332 0.327939
O O10 0.193821 0.976523 0.695498
O O11 0.922338 0.237241 0.055949
O O12 0.740229 0.344943 0.054687
O O13 0.780894 0.672876 0.840394
O O14 0.511801 0.577072 0.708391
O O15 0.057151 0.372693 0.845127
O O16 0.728068 0.582787 0.235311
O O17 0.000000 0.500000 0.500000
#
# Coordination Sequence:
#
# PCOD8007444 Si02
#       8
#     2   2   2   2   2   2   2   2
#     4  10  21  40  63  89 123 158 201 245 306 365
#     4  10  22  39  65  88 123 160 204 252 299 363
#     4  10  20  41  63  93 119 158 204 249 310 355
#     4  10  23  37  64  92 123 153 202 263 300 355
#     4  11  24  39  62  91 122 159 205 252 306 361
#     4  11  23  39  62  95 119 156 209 257 301 350
#     4  10  22  38  62  86 119 161 201 251 300 359
#     4  10  23  41  59  89 122 166 199 242 313 362
#
# _framework density 20.715964
#
# number of rings (size 3 to 8) (size 9 to 14) (size 15 to 20)
#    0.000    1.750    2.500    0.750    7.000    1.000 
#    0.000    5.000    0.000    0.000    0.000    0.000 
#    0.000    0.000    0.000    0.000    0.000    0.000 
#
# Total GULP energy -198208.873012 kJ/mol
# GULP energy per Si atom -12388.054563 kJ/mol
# Density = 2.066881 g / cm^3
# Si number density = 20.715964 Si / 1000 Ang^3
#
#
#
# Elastic Constant Matrix: (Units=GPa)
#
#
# Indices 1 2 3 4 5 6 
#
# 1 67.2726 28.3436 45.3275 -8.3690 -2.4509 -2.4313
# 2 28.3436 135.1095 54.5277 -12.1142 11.7688 0.4903
# 3 45.3275 54.5277 98.4445 -5.8655 -2.0346 0.3382
# 4 -8.3690 -12.1142 -5.8655 30.8516 -15.7543 -1.6503
# 5 -2.4509 11.7688 -2.0346 -15.7543 35.9736 3.0660
# 6 -2.4313 0.4903 0.3382 -1.6503 3.0660 28.7724
#
#
#
# Elastic Compliance Matrix: (Units=1/GPa)
#
#
# Indices 1 2 3 4 5 6 
#
# 1 0.022562 -0.000644 -0.009603 0.006024 0.003674 0.001984
# 2 -0.000644 0.010036 -0.005257 0.001182 -0.003127 0.000237
# 3 -0.009603 -0.005257 0.017513 -0.000388 0.001985 -0.001162
# 4 0.006024 0.001182 -0.000388 0.044371 0.019350 0.000976
# 5 0.003674 -0.003127 0.001985 0.019350 0.037878 -0.002586
# 6 0.001984 0.000237 -0.001162 0.000976 -0.002586 0.035264
#
#
# Mechanical properties :
#
#
# Convention : Reuss Voigt Hill
#
# Bulk Modulus (GPa) = 52.35191 61.91379 57.13285
# Shear Modulus (GPa) = 24.38999 30.62804 27.50902
#
# Velocity S-wave (km/s) = 3.43498 3.84927 3.64801
# Velocity P-wave (km/s) = 6.40767 7.05037 6.73669
#
# Compressibility (1/GPa) = 0.01910150
#
# Stress axis : x y z
#
# Youngs Moduli (GPa) = 44.32230 99.64383 57.09884
#
# Poissons Ratio (x) = 0.06422 0.54834
# Poissons Ratio (y) = 0.02856 0.30017
# Poissons Ratio (z) = 0.42565 0.52383
#
# Static dielectric constant tensor:
#      x y z
#    x 3.922400 -0.067330 -0.397110 
#    y -0.067330 4.144470 -0.002710 
#    z -0.397110 -0.002710 3.649500 
# 
# 
# High freq. dielectric constant tensor:
#      x y z
#    x 1.801200 -0.008510 -0.022060 
#    y -0.008510 1.825530 0.000960 
#    z -0.022060 0.000960 1.793170 
# 
# From -- ./inp_files/425146.got.cif
#   From: 2010.06.25/outbox.cif.g09.slc.cpg/sg2_213_cif.got.tgz:425146.got - 2010.06.27 13:26:56.
