data_PCOD8007110
_publ_section_title
;
Structure prediction by ZEFSAII (Michael W. Deem and Ramdas Pophale) SiO2 
 PCOD8007110
Probable space group: P -1
;
_chemical_formula_sum "Si O2"
_cell_formula_units_Z 16
_cell_length_a 12.849378
_cell_length_b 8.515273
_cell_length_c 21.234373
_cell_angle_alpha 60.038553
_cell_angle_beta 20.376542
_cell_angle_gamma 63.351506
_cell_volume 699.374986
_symmetry_space_group_name_H-M "P -1"
_symmetry_group_IT_number 2
_symmetry_cell_setting 'triclinic'
loop_
_space_group_symop_operation_xyz
x,y,z
-x,-y,-z
loop_
_atom_site_type_symbol
_atom_site_label
_atom_site_fract_x
_atom_site_fract_y
_atom_site_fract_z
Si Si1 0.815991 0.648258 0.607754
Si Si2 0.204973 0.651687 0.892590
Si Si3 0.669283 0.264625 0.323982
Si Si4 0.853971 0.028557 0.716038
Si Si5 0.040757 0.678572 0.615224
Si Si6 0.300153 0.315278 0.746669
Si Si7 0.179078 0.020858 0.112432
Si Si8 0.136186 0.292790 0.701051
O O1 0.462881 0.593735 0.806279
O O2 0.000000 0.500000 0.500000
O O3 0.925855 0.844145 0.477841
O O4 0.873226 0.643159 0.651240
O O5 0.393280 0.764662 0.709448
O O6 0.000000 0.500000 0.000000
O O7 0.977985 0.773286 0.036322
O O8 0.710358 0.471891 0.280213
O O9 0.381327 0.188015 0.541499
O O10 0.984465 0.185233 0.172797
O O11 0.931937 0.039057 0.743046
O O12 0.866530 0.821675 0.725737
O O13 0.518275 0.095325 0.893097
O O14 0.385876 0.756732 0.392943
O O15 0.060678 0.492679 0.681145
O O16 0.257558 0.282482 0.704107
O O17 0.151151 0.845033 0.117520
#
# Coordination Sequence:
#
# PCOD8007110 Si02
#       8
#     2   2   2   2   2   2   2   2
#     4  12  25  44  72  96 137 180 223 272 343 407
#     4  10  23  41  66 103 129 171 225 277 330 396
#     4  10  20  40  67  92 133 172 223 278 337 391
#     4  11  26  44  62 100 139 179 221 274 342 394
#     4  11  24  45  69  95 142 179 220 274 339 406
#     4  10  22  40  69  99 132 173 226 282 334 392
#     4  11  24  40  67  97 136 174 230 281 323 407
#     4  11  22  42  69 101 130 181 228 276 341 391
#
# _framework density 22.877569999999999
#
# number of rings (size 3 to 8) (size 9 to 14) (size 15 to 20)
#    0.000    1.250    0.000    7.500    7.000    1.500 
#    0.000    1.250    0.000    0.000    0.000    0.000 
#    0.000    0.000    0.000    0.000    0.000    0.000 
#
# Total GULP energy -198248.696097 kJ/mol
# GULP energy per Si atom -12390.543506 kJ/mol
# Density = 2.282550 g / cm^3
# Si number density = 22.877570 Si / 1000 Ang^3
#
#
#
# Elastic Constant Matrix: (Units=GPa)
#
#
# Indices 1 2 3 4 5 6 
#
# 1 160.8840 14.0452 66.5735 6.8876 -23.3671 8.1130
# 2 14.0452 58.6021 19.3234 21.1934 -15.5430 -4.9417
# 3 66.5735 19.3234 75.4436 20.3286 6.6244 17.5676
# 4 6.8876 21.1934 20.3286 33.5435 -4.3279 -5.1213
# 5 -23.3671 -15.5430 6.6244 -4.3279 33.8803 -5.0731
# 6 8.1130 -4.9417 17.5676 -5.1213 -5.0731 9.5172
#
#
#
# Elastic Compliance Matrix: (Units=1/GPa)
#
#
# Indices 1 2 3 4 5 6 
#
# 1 0.003188 -0.006284 0.010763 -0.009970 -0.009493 -0.036272
# 2 -0.006284 0.018230 0.015278 -0.024993 -0.006703 -0.030401
# 3 0.010763 0.015278 -0.029410 0.023547 0.035895 0.084850
# 4 -0.009970 -0.024993 0.023547 0.022032 -0.027750 -0.050879
# 5 -0.009493 -0.006703 0.035895 -0.027750 -0.002322 -0.077816
# 6 -0.036272 -0.030401 0.084850 -0.050879 -0.077816 -0.105273
#
#
# Mechanical properties :
#
#
# Convention : Reuss Voigt Hill
#
# Bulk Modulus (GPa) = 31.72488 54.97934 43.35211
# Shear Modulus (GPa) = -40.79600 28.38737 -6.20431
#
# Velocity S-wave (km/s) = -4.22741 3.52638 -1.64859
# Velocity P-wave (km/s) = 3.15130 6.37688 3.92007
#
# Compressibility (1/GPa) = 0.03152100
#
# Stress axis : x y z
#
# Youngs Moduli (GPa) = 313.69595 54.85485 -34.00213
#
# Poissons Ratio (x) = 0.34471 0.36595
# Poissons Ratio (y) = 1.97125 0.51948
# Poissons Ratio (z) = -3.37619 -0.83807
#
# Static dielectric constant tensor:
#      x y z
#    x 4.920080 0.028540 1.006470 
#    y 0.028540 3.903540 0.093950 
#    z 1.006470 0.093950 6.449370 
# 
# 
# High freq. dielectric constant tensor:
#      x y z
#    x 1.918140 0.009880 -0.002840 
#    y 0.009880 1.886710 0.011550 
#    z -0.002840 0.011550 1.915490 
# 
# From -- ./inp_files/461942.got.cif
#   From: 2010.06.25/outbox.cif.g09.slc.cpg/sg2_231_cif.got.tgz:461942.got - 2010.06.27 13:26:56.
