data_PCOD8007288
_publ_section_title
;
Structure prediction by ZEFSAII (Michael W. Deem and Ramdas Pophale) SiO2 
 PCOD8007288
Probable space group: P -1
;
_chemical_formula_sum "Si O2"
_cell_formula_units_Z 16
_cell_length_a 8.468961
_cell_length_b 9.362257
_cell_length_c 22.658121
_cell_angle_alpha 121.731525
_cell_angle_beta 31.231140
_cell_angle_gamma 124.079604
_cell_volume 766.917941
_symmetry_space_group_name_H-M "P -1"
_symmetry_group_IT_number 2
_symmetry_cell_setting 'triclinic'
loop_
_space_group_symop_operation_xyz
x,y,z
-x,-y,-z
loop_
_atom_site_type_symbol
_atom_site_label
_atom_site_fract_x
_atom_site_fract_y
_atom_site_fract_z
Si Si1 0.777349 0.403549 0.777269
Si Si2 0.749835 0.010770 0.532481
Si Si3 0.780856 0.425441 0.236741
Si Si4 0.930122 0.075277 0.695287
Si Si5 0.646703 0.358209 0.392559
Si Si6 0.911477 0.678930 0.069260
Si Si7 0.684508 0.748696 0.280798
Si Si8 0.235353 0.882028 0.909552
O O1 0.910708 0.232521 0.691881
O O2 0.411767 0.352632 0.870733
O O3 0.870545 0.465678 0.828827
O O4 0.971919 0.557880 0.705064
O O5 0.467524 0.832336 0.583913
O O6 0.909916 0.042169 0.423334
O O7 0.616840 0.179347 0.624423
O O8 0.000000 0.000000 0.500000
O O9 0.568067 0.344853 0.344186
O O10 0.596423 0.549899 0.288625
O O11 0.853744 0.281288 0.140401
O O12 0.590812 0.979341 0.806185
O O13 0.134780 0.125721 0.699190
O O14 0.500000 0.500000 0.500000
O O15 0.891977 0.753340 0.156743
O O16 0.000000 0.500000 0.000000
O O17 0.186099 0.819060 0.979163
O O18 0.000000 0.000000 0.000000
#
# Coordination Sequence:
#
# PCOD8007288 Si02
#       8
#     2   2   2   2   2   2   2   2
#     4   9  21  41  69  91 134 171 220 270 335 390
#     4  12  24  42  74 101 138 171 223 281 337 403
#     4   9  22  44  64  97 131 171 225 265 341 399
#     4  11  23  45  66 101 136 178 221 279 337 395
#     4  10  20  40  70  98 128 169 223 264 338 407
#     4  12  25  43  66  99 136 176 229 281 326 397
#     4  11  25  44  67  97 138 178 219 280 343 396
#     4  12  25  42  71  98 134 178 235 273 334 399
#
# _framework density 20.862727
#
# number of rings (size 3 to 8) (size 9 to 14) (size 15 to 20)
#    0.750    0.500    3.750    1.875    1.750    3.000 
#    0.000    2.500    0.000    0.000    0.000    0.000 
#    0.000    0.000    0.000    0.000    0.000    0.000 
#
# Total GULP energy -198261.951210 kJ/mol
# GULP energy per Si atom -12391.371951 kJ/mol
# Density = 2.081524 g / cm^3
# Si number density = 20.862727 Si / 1000 Ang^3
#
#
#
# Elastic Constant Matrix: (Units=GPa)
#
#
# Indices 1 2 3 4 5 6 
#
# 1 89.5979 18.6698 44.7852 8.1110 14.7751 -7.2459
# 2 18.6698 88.0077 46.7549 6.4908 -2.7583 -12.4402
# 3 44.7852 46.7549 134.1575 7.0479 24.9145 -10.8626
# 4 8.1110 6.4908 7.0479 44.9408 10.3039 1.1808
# 5 14.7751 -2.7583 24.9145 10.3039 31.3340 -0.3993
# 6 -7.2459 -12.4402 -10.8626 1.1808 -0.3993 31.2868
#
#
#
# Elastic Compliance Matrix: (Units=1/GPa)
#
#
# Indices 1 2 3 4 5 6 
#
# 1 0.013897 -0.000889 -0.003493 -0.001078 -0.003478 0.001648
# 2 -0.000889 0.015905 -0.006197 -0.003065 0.007807 0.004182
# 3 -0.003493 -0.006197 0.012506 0.001693 -0.009387 0.000885
# 4 -0.001078 -0.003065 0.001693 0.024804 -0.009289 -0.001935
# 5 -0.003478 0.007807 -0.009387 -0.009289 0.044760 -0.000038
# 6 0.001648 0.004182 0.000885 -0.001935 -0.000038 0.034387
#
#
# Mechanical properties :
#
#
# Convention : Reuss Voigt Hill
#
# Bulk Modulus (GPa) = 47.28096 59.13145 53.20620
# Shear Modulus (GPa) = 28.65895 34.94919 31.80407
#
# Velocity S-wave (km/s) = 3.71036 4.09736 3.90865
# Velocity P-wave (km/s) = 6.40841 7.12665 6.77705
#
# Compressibility (1/GPa) = 0.02115016
#
# Stress axis : x y z
#
# Youngs Moduli (GPa) = 71.95947 62.87282 79.96298
#
# Poissons Ratio (x) = 0.05587 0.27934
# Poissons Ratio (y) = 0.06394 0.49551
# Poissons Ratio (z) = 0.25138 0.38960
#
# Static dielectric constant tensor:
#      x y z
#    x 3.685140 -0.100970 0.123730 
#    y -0.100970 4.022940 -0.044680 
#    z 0.123730 -0.044680 3.856370 
# 
# 
# High freq. dielectric constant tensor:
#      x y z
#    x 1.806270 -0.001640 0.015910 
#    y -0.001640 1.820080 0.006440 
#    z 0.015910 0.006440 1.821140 
# 
# From -- ./inp_files/606430.got.cif
#   From: 2010.06.25/outbox.cif.g09.slc.cpg/sg2_304_cif.got.tgz:606430.got - 2010.06.27 13:26:56.
