data_PCOD8007746
_publ_section_title
;
Structure prediction by ZEFSAII (Michael W. Deem and Ramdas Pophale) SiO2 
 PCOD8007746
Probable space group: P -1
;
_chemical_formula_sum "Si O2"
_cell_formula_units_Z 14
_cell_length_a 11.735587
_cell_length_b 18.369632
_cell_length_c 11.659120
_cell_angle_alpha 38.525996
_cell_angle_beta 125.897411
_cell_angle_gamma 152.773281
_cell_volume 661.470908
_symmetry_space_group_name_H-M "P -1"
_symmetry_group_IT_number 2
_symmetry_cell_setting 'triclinic'
loop_
_space_group_symop_operation_xyz
x,y,z
-x,-y,-z
loop_
_atom_site_type_symbol
_atom_site_label
_atom_site_fract_x
_atom_site_fract_y
_atom_site_fract_z
Si Si1 0.218263 0.788324 0.157811
Si Si2 0.294589 0.953337 0.401532
Si Si3 0.619189 0.920043 0.945899
Si Si4 0.893679 0.772748 0.010697
Si Si5 0.420857 0.325234 0.413597
Si Si6 0.777433 0.445432 0.653700
Si Si7 0.853623 0.968162 0.595326
O O1 0.108450 0.579666 0.328823
O O2 0.991898 0.723029 0.063525
O O3 0.290815 0.879966 0.218774
O O4 0.500000 0.000000 0.000000
O O5 0.010502 0.700133 0.507195
O O6 0.500000 0.000000 0.500000
O O7 0.416419 0.115433 0.167883
O O8 0.261161 0.013059 0.415697
O O9 0.343225 0.688922 0.132252
O O10 0.864912 0.013402 0.024647
O O11 0.629363 0.563706 0.188370
O O12 0.827015 0.822237 0.817002
O O13 0.545583 0.345371 0.569444
O O14 0.324645 0.161007 0.466007
O O15 0.164268 0.216254 0.442266
#
# Coordination Sequence:
#
# PCOD8007746 Si02
#       7
#     2   2   2   2   2   2   2
#     4   8  17  35  68  98 122 164 222 270 302 384
#     4  12  29  44  63 100 135 174 212 270 339 392
#     4   9  21  41  66  97 125 169 220 266 320 383
#     4  10  20  41  67  99 123 174 221 265 323 376
#     4  11  23  43  71  99 125 177 222 270 322 378
#     4  11  21  44  70  97 129 176 219 264 328 385
#     4  11  26  44  63 101 140 162 220 278 318 391
#
# _framework density 21.164950999999999
#
# number of rings (size 3 to 8) (size 9 to 14) (size 15 to 20)
#    0.857    0.857    2.857    0.429    4.000    4.000 
#    2.571    0.000    0.000    0.000    0.000    0.000 
#    0.000    0.000    0.000    0.000    0.000    0.000 
#
# Total GULP energy -173478.825386 kJ/mol
# GULP energy per Si atom -12391.344670 kJ/mol
# Density = 2.111678 g / cm^3
# Si number density = 21.164951 Si / 1000 Ang^3
#
#
#
# Elastic Constant Matrix: (Units=GPa)
#
#
# Indices 1 2 3 4 5 6 
#
# 1 114.5464 32.6731 23.0440 4.4745 -15.8228 -1.5091
# 2 32.6731 91.9193 18.2828 18.1865 -7.3954 2.1134
# 3 23.0440 18.2828 82.0514 0.5642 -23.0165 7.1936
# 4 4.4745 18.1865 0.5642 20.1222 -1.7978 -3.5725
# 5 -15.8228 -7.3954 -23.0165 -1.7978 29.7894 2.1908
# 6 -1.5091 2.1134 7.1936 -3.5725 2.1908 28.3393
#
#
#
# Elastic Compliance Matrix: (Units=1/GPa)
#
#
# Indices 1 2 3 4 5 6 
#
# 1 0.010439 -0.003459 -0.001201 0.001352 0.003766 0.000998
# 2 -0.003459 0.015225 -0.002234 -0.013393 -0.000415 -0.002409
# 3 -0.001201 -0.002234 0.016901 0.002049 0.012348 -0.004884
# 4 0.001352 -0.013393 0.002049 0.063118 0.002172 0.008340
# 5 0.003766 -0.000415 0.012348 0.002172 0.045591 -0.006154
# 6 0.000998 -0.002409 -0.004884 0.008340 -0.006154 0.038286
#
#
# Mechanical properties :
#
#
# Convention : Reuss Voigt Hill
#
# Bulk Modulus (GPa) = 34.75213 48.50188 41.62700
# Shear Modulus (GPa) = 23.48078 29.95132 26.71605
#
# Velocity S-wave (km/s) = 3.33441 3.76591 3.55671
# Velocity P-wave (km/s) = 5.59282 6.47112 6.04793
#
# Compressibility (1/GPa) = 0.02877522
#
# Stress axis : x y z
#
# Youngs Moduli (GPa) = 95.79458 65.68167 59.16955
#
# Poissons Ratio (x) = 0.22721 0.07109
# Poissons Ratio (y) = 0.33137 0.13219
# Poissons Ratio (z) = 0.11509 0.14674
#
# Static dielectric constant tensor:
#      x y z
#    x 4.013550 -0.007690 -0.152580 
#    y -0.007690 3.748910 -0.090290 
#    z -0.152580 -0.090290 3.777040 
# 
# 
# High freq. dielectric constant tensor:
#      x y z
#    x 1.824820 0.007950 -0.020570 
#    y 0.007950 1.819540 -0.002560 
#    z -0.020570 -0.002560 1.825140 
# 
# From -- ./inp_files/436544.got.cif
#   From: 2010.06.25/outbox.cif.g09.slc.cpg/sg2_219_cif.got.tgz:436544.got - 2010.06.27 13:26:56.
