data_PCOD8007469
_publ_section_title
;
Structure prediction by ZEFSAII (Michael W. Deem and Ramdas Pophale) SiO2 
 PCOD8007469
Probable space group: P -1
;
_chemical_formula_sum "Si O2"
_cell_formula_units_Z 14
_cell_length_a 21.756534
_cell_length_b 7.698407
_cell_length_c 13.039734
_cell_angle_alpha 109.217874
_cell_angle_beta 26.883419
_cell_angle_gamma 91.678206
_cell_volume 732.400492
_symmetry_space_group_name_H-M "P -1"
_symmetry_group_IT_number 2
_symmetry_cell_setting 'triclinic'
loop_
_space_group_symop_operation_xyz
x,y,z
-x,-y,-z
loop_
_atom_site_type_symbol
_atom_site_label
_atom_site_fract_x
_atom_site_fract_y
_atom_site_fract_z
Si Si1 0.863964 0.704813 0.667932
Si Si2 0.653549 0.948994 0.693265
Si Si3 0.719192 0.640450 0.363706
Si Si4 0.496588 0.846697 0.245640
Si Si5 0.975751 0.749405 0.299651
Si Si6 0.538651 0.405774 0.571735
Si Si7 0.232325 0.831060 0.001019
O O1 0.000000 0.500000 0.500000
O O2 0.943968 0.646242 0.424300
O O3 0.700157 0.709159 0.911018
O O4 0.816207 0.949569 0.820996
O O5 0.747630 0.697519 0.447078
O O6 0.792928 0.941928 0.552700
O O7 0.573413 0.150163 0.763538
O O8 0.500000 0.000000 0.000000
O O9 0.617816 0.536070 0.505044
O O10 0.599535 0.883592 0.524026
O O11 0.900140 0.464575 0.003373
O O12 0.453875 0.720456 0.362232
O O13 0.056455 0.877217 0.236948
O O14 0.341579 0.596600 0.863141
O O15 0.651737 0.210411 0.277822
#
# Coordination Sequence:
#
# PCOD8007469 Si02
#       7
#     2   2   2   2   2   2   2
#     4  12  24  38  59  94 127 162 206 249 309 369
#     4  10  20  41  64  86 124 162 205 254 311 363
#     4   9  21  39  66  89 121 162 205 256 304 362
#     4  10  22  39  66  87 120 164 207 249 306 365
#     4  11  21  39  63  89 123 168 198 256 312 354
#     4  10  20  41  65  93 122 160 210 250 308 362
#     4  10  22  39  61  92 128 162 200 259 303 362
#
# _framework density 19.115223
#
# number of rings (size 3 to 8) (size 9 to 14) (size 15 to 20)
#    0.857    0.857    2.857    1.714    2.000    0.571 
#    0.000    5.000    0.000    0.000    0.000    0.000 
#    0.000    0.000    0.000    0.000    0.000    0.000 
#
# Total GULP energy -173559.192911 kJ/mol
# GULP energy per Si atom -12397.085208 kJ/mol
# Density = 1.907172 g / cm^3
# Si number density = 19.115223 Si / 1000 Ang^3
#
#
#
# Elastic Constant Matrix: (Units=GPa)
#
#
# Indices 1 2 3 4 5 6 
#
# 1 114.3655 51.0044 54.3906 -12.5116 -15.2706 -21.8992
# 2 51.0044 116.5709 51.7783 -17.6539 -3.2555 -28.1857
# 3 54.3906 51.7783 109.3188 -11.9025 -16.4231 -15.2971
# 4 -12.5116 -17.6539 -11.9025 20.9536 -2.8433 3.7379
# 5 -15.2706 -3.2555 -16.4231 -2.8433 41.6829 1.2135
# 6 -21.8992 -28.1857 -15.2971 3.7379 1.2135 38.6461
#
#
#
# Elastic Compliance Matrix: (Units=1/GPa)
#
#
# Indices 1 2 3 4 5 6 
#
# 1 0.013294 -0.002545 -0.004063 0.003266 0.003187 0.003653
# 2 -0.002545 0.014003 -0.003870 0.006751 -0.001095 0.006621
# 3 -0.004063 -0.003870 0.013876 0.002723 0.003863 -0.000017
# 4 0.003266 0.006751 0.002723 0.057440 0.006654 0.002088
# 5 0.003187 -0.001095 0.003863 0.006654 0.027018 0.001044
# 6 0.003653 0.006621 -0.000017 0.002088 0.001044 0.032533
#
#
# Mechanical properties :
#
#
# Convention : Reuss Voigt Hill
#
# Bulk Modulus (GPa) = 49.46060 72.73352 61.09706
# Shear Modulus (GPa) = 26.90214 32.46198 29.68206
#
# Velocity S-wave (km/s) = 3.75556 4.12543 3.94483
# Velocity P-wave (km/s) = 6.68856 7.79903 7.26504
#
# Compressibility (1/GPa) = 0.02021811
#
# Stress axis : x y z
#
# Youngs Moduli (GPa) = 75.22464 71.41176 72.06457
#
# Poissons Ratio (x) = 0.18173 0.29281
# Poissons Ratio (y) = 0.19143 0.27886
# Poissons Ratio (z) = 0.30565 0.27633
#
# Static dielectric constant tensor:
#      x y z
#    x 3.586770 -0.090110 0.025150 
#    y -0.090110 3.175260 0.014950 
#    z 0.025150 0.014950 3.736490 
# 
# 
# High freq. dielectric constant tensor:
#      x y z
#    x 1.749070 -0.005960 -0.001330 
#    y -0.005960 1.717820 -0.007550 
#    z -0.001330 -0.007550 1.758590 
# 
# From -- ./inp_files/469428.got.cif
#   From: 2010.06.25/outbox.cif.g09.slc.cpg/sg2_235_cif.got.tgz:469428.got - 2010.06.27 13:26:56.
