data_PCOD8007191
_publ_section_title
;
Structure prediction by ZEFSAII (Michael W. Deem and Ramdas Pophale) SiO2 
 PCOD8007191
Probable space group: P -1
;
_chemical_formula_sum "Si O2"
_cell_formula_units_Z 16
_cell_length_a 14.562295
_cell_length_b 11.964082
_cell_length_c 8.189459
_cell_angle_alpha 100.462959
_cell_angle_beta 92.587223
_cell_angle_gamma 31.121547
_cell_volume 707.899888
_symmetry_space_group_name_H-M "P -1"
_symmetry_group_IT_number 2
_symmetry_cell_setting 'triclinic'
loop_
_space_group_symop_operation_xyz
x,y,z
-x,-y,-z
loop_
_atom_site_type_symbol
_atom_site_label
_atom_site_fract_x
_atom_site_fract_y
_atom_site_fract_z
Si Si1 0.603284 0.076348 0.020988
Si Si2 0.946955 0.599219 0.792517
Si Si3 0.433238 0.931216 0.628417
Si Si4 0.391690 0.710310 0.145390
Si Si5 0.073927 0.266895 0.516452
Si Si6 0.023180 0.073043 0.390176
Si Si7 0.329410 0.466755 0.667984
Si Si8 0.311981 0.285637 0.851534
O O1 0.616409 0.086606 0.216759
O O2 0.640685 0.149253 0.940571
O O3 0.413120 0.213531 0.007309
O O4 0.758065 0.818776 0.925387
O O5 0.976162 0.652256 0.653961
O O6 0.949935 0.468058 0.688112
O O7 0.111946 0.442663 0.895120
O O8 0.619529 0.675589 0.512104
O O9 0.285159 0.070632 0.511232
O O10 0.442052 0.057927 0.700290
O O11 0.504673 0.627465 0.292536
O O12 0.198124 0.867398 0.232279
O O13 0.500000 0.500000 0.000000
O O14 0.042074 0.168701 0.519101
O O15 0.840345 0.272338 0.320483
O O16 0.000000 0.000000 0.500000
O O17 0.278735 0.441892 0.807436
#
# Coordination Sequence:
#
# PCOD8007191 Si02
#       8
#     2   2   2   2   2   2   2   2
#     4  11  23  41  63  99 143 176 223 278 344 403
#     4  10  20  40  68  92 136 175 220 278 336 411
#     4  11  23  38  66 105 139 176 219 280 340 410
#     4  11  26  49  70  94 135 184 230 282 347 399
#     4  10  20  41  65 100 129 177 225 277 342 397
#     4  12  26  45  70 101 131 176 238 283 331 404
#     4  11  23  44  71  94 135 178 232 279 336 406
#     4  10  21  39  64  99 134 179 222 266 340 412
#
# _framework density 22.602066000000001
#
# number of rings (size 3 to 8) (size 9 to 14) (size 15 to 20)
#    0.000    1.250    3.750    1.500    3.500    4.000 
#    2.250    0.000    0.000    0.000    0.000    0.000 
#    0.000    0.000    0.000    0.000    0.000    0.000 
#
# Total GULP energy -198372.261835 kJ/mol
# GULP energy per Si atom -12398.266365 kJ/mol
# Density = 2.255062 g / cm^3
# Si number density = 22.602066 Si / 1000 Ang^3
#
#
#
# Elastic Constant Matrix: (Units=GPa)
#
#
# Indices 1 2 3 4 5 6 
#
# 1 83.4479 40.9128 16.7814 -0.8891 -1.4130 14.0911
# 2 40.9128 141.8068 47.5692 9.2752 -6.6461 1.9638
# 3 16.7814 47.5692 59.3450 16.2769 4.7489 -3.5516
# 4 -0.8891 9.2752 16.2769 38.0055 3.7019 0.6331
# 5 -1.4130 -6.6461 4.7489 3.7019 28.7619 1.3831
# 6 14.0911 1.9638 -3.5516 0.6331 1.3831 38.2001
#
#
#
# Elastic Compliance Matrix: (Units=1/GPa)
#
#
# Indices 1 2 3 4 5 6 
#
# 1 0.015251 -0.003663 -0.002382 0.002340 0.000270 -0.005708
# 2 -0.003663 0.011005 -0.008191 0.000381 0.003672 -0.000115
# 3 -0.002382 -0.008191 0.027332 -0.009294 -0.005528 0.004195
# 4 0.002340 0.000381 -0.009294 0.030493 -0.002083 -0.002177
# 5 0.000270 0.003672 -0.005528 -0.002083 0.036912 -0.002104
# 6 -0.005708 -0.000115 0.004195 -0.002177 -0.002104 0.028792
#
#
# Mechanical properties :
#
#
# Convention : Reuss Voigt Hill
#
# Bulk Modulus (GPa) = 39.81156 55.01405 47.41281
# Shear Modulus (GPa) = 26.79125 32.94925 29.87025
#
# Velocity S-wave (km/s) = 3.44662 3.82225 3.63929
# Velocity P-wave (km/s) = 5.78716 6.62364 6.21948
#
# Compressibility (1/GPa) = 0.02511833
#
# Stress axis : x y z
#
# Youngs Moduli (GPa) = 65.56744 90.86861 36.58712
#
# Poissons Ratio (x) = 0.33281 0.08714
# Poissons Ratio (y) = 0.24015 0.29967
# Poissons Ratio (z) = 0.15617 0.74427
#
# Static dielectric constant tensor:
#      x y z
#    x 4.102800 0.005800 0.204130 
#    y 0.005800 4.386150 -0.089630 
#    z 0.204130 -0.089630 3.930220 
# 
# 
# High freq. dielectric constant tensor:
#      x y z
#    x 1.879180 -0.004170 0.002490 
#    y -0.004170 1.911450 -0.007020 
#    z 0.002490 -0.007020 1.878500 
# 
# From -- ./inp_files/273207.got.cif
#   From: 2010.06.25/outbox.cif.g09.slc.cpg/sg2_137_cif.got.tgz:273207.got - 2010.06.27 13:26:56.
