data_PCOD8007591
_publ_section_title
;
Structure prediction by ZEFSAII (Michael W. Deem and Ramdas Pophale) SiO2 
 PCOD8007591
Probable space group: P -1
;
_chemical_formula_sum "Si O2"
_cell_formula_units_Z 16
_cell_length_a 12.008151
_cell_length_b 8.879101
_cell_length_c 15.244622
_cell_angle_alpha 84.892330
_cell_angle_beta 27.499177
_cell_angle_gamma 79.853704
_cell_volume 730.644230
_symmetry_space_group_name_H-M "P -1"
_symmetry_group_IT_number 2
_symmetry_cell_setting 'triclinic'
loop_
_space_group_symop_operation_xyz
x,y,z
-x,-y,-z
loop_
_atom_site_type_symbol
_atom_site_label
_atom_site_fract_x
_atom_site_fract_y
_atom_site_fract_z
Si Si1 0.245164 0.184225 0.244298
Si Si2 0.154576 0.549901 0.559443
Si Si3 0.416529 0.028985 0.692607
Si Si4 0.805068 0.077445 0.838496
Si Si5 0.889214 0.444733 0.210486
Si Si6 0.351784 0.351922 0.784436
Si Si7 0.161982 0.900056 0.729524
Si Si8 0.202548 0.222687 0.471043
O O1 0.150597 0.183685 0.409524
O O2 0.107008 0.340441 0.285565
O O3 0.188742 0.035727 0.242502
O O4 0.535992 0.180286 0.039180
O O5 0.141462 0.495430 0.671767
O O6 0.366854 0.646221 0.387927
O O7 0.213988 0.401419 0.463092
O O8 0.307400 0.176284 0.822484
O O9 0.618386 0.084768 0.489291
O O10 0.195102 0.985690 0.793071
O O11 0.538351 0.882268 0.673674
O O12 0.979777 0.194788 0.688656
O O13 0.900774 0.978723 0.864011
O O14 0.701194 0.567085 0.277421
O O15 0.819542 0.279459 0.257061
O O16 0.167712 0.440428 0.982603
#
# Coordination Sequence:
#
# PCOD8007591 Si02
#       8
#     2   2   2   2   2   2   2   2
#     4  11  24  44  67  94 127 174 220 263 316 375
#     4  12  24  44  66  91 134 175 211 264 319 379
#     4  10  22  39  68  98 127 168 209 263 325 382
#     4  10  23  43  67  96 125 168 219 269 317 377
#     4  11  24  41  64  95 131 171 208 259 326 380
#     4  11  25  41  66  99 129 169 214 259 323 395
#     4  10  20  41  65  96 130 166 211 261 328 377
#     4  11  25  41  66  98 131 170 212 268 317 377
#
# _framework density 21.898484
#
# number of rings (size 3 to 8) (size 9 to 14) (size 15 to 20)
#    0.000    1.250    2.500    2.625    7.000    3.000 
#    2.250    0.000    0.000    0.000    0.000    0.000 
#    0.000    0.000    0.000    0.000    0.000    0.000 
#
# Total GULP energy -198504.024402 kJ/mol
# GULP energy per Si atom -12406.501525 kJ/mol
# Density = 2.184864 g / cm^3
# Si number density = 21.898484 Si / 1000 Ang^3
#
#
#
# Elastic Constant Matrix: (Units=GPa)
#
#
# Indices 1 2 3 4 5 6 
#
# 1 94.5772 32.9711 34.8228 4.8324 -20.2598 4.9406
# 2 32.9711 98.1375 18.8442 21.4651 -6.7639 5.8440
# 3 34.8228 18.8442 65.2646 19.2833 -8.4903 -5.9825
# 4 4.8324 21.4651 19.2833 28.3387 -9.2292 0.3698
# 5 -20.2598 -6.7639 -8.4903 -9.2292 27.1180 2.4566
# 6 4.9406 5.8440 -5.9825 0.3698 2.4566 30.3818
#
#
#
# Elastic Compliance Matrix: (Units=1/GPa)
#
#
# Indices 1 2 3 4 5 6 
#
# 1 0.019688 -0.006112 -0.011456 0.013984 0.014869 -0.005654
# 2 -0.006112 0.014352 0.002240 -0.012835 -0.004581 -0.000799
# 3 -0.011456 0.002240 0.026511 -0.020248 -0.007269 0.007487
# 4 0.013984 -0.012835 -0.020248 0.064074 0.023298 -0.006456
# 5 0.014869 -0.004581 -0.007269 0.023298 0.053179 -0.007552
# 6 -0.005654 -0.000799 0.007487 -0.006456 -0.007552 0.036151
#
#
# Mechanical properties :
#
#
# Convention : Reuss Voigt Hill
#
# Bulk Modulus (GPa) = 33.44916 47.91727 40.68322
# Shear Modulus (GPa) = 19.64048 28.59045 24.11547
#
# Velocity S-wave (km/s) = 2.99806 3.61722 3.32209
# Velocity P-wave (km/s) = 5.22420 6.27493 5.77352
#
# Compressibility (1/GPa) = 0.02989611
#
# Stress axis : x y z
#
# Youngs Moduli (GPa) = 50.79218 69.67597 37.72021
#
# Poissons Ratio (x) = 0.42585 0.43211
# Poissons Ratio (y) = 0.31044 -0.08450
# Poissons Ratio (z) = 0.58186 -0.15608
#
# Static dielectric constant tensor:
#      x y z
#    x 4.053050 -0.064730 -0.036910 
#    y -0.064730 3.805600 0.079860 
#    z -0.036910 0.079860 3.874960 
# 
# 
# High freq. dielectric constant tensor:
#      x y z
#    x 1.862490 -0.003570 -0.002130 
#    y -0.003570 1.858940 0.006070 
#    z -0.002130 0.006070 1.864900 
# 
# From -- ./inp_files/283450.got.cif
#   From: 2010.06.25/outbox.cif.g09.slc.cpg/sg2_142_cif.got.tgz:283450.got - 2010.06.27 13:26:56.
