data_PCOD8007650
_publ_section_title
;
Structure prediction by ZEFSAII (Michael W. Deem and Ramdas Pophale) SiO2 
 PCOD8007650
Probable space group: P -1
;
_chemical_formula_sum "Si O2"
_cell_formula_units_Z 16
_cell_length_a 8.666315
_cell_length_b 13.924199
_cell_length_c 9.646864
_cell_angle_alpha 85.693797
_cell_angle_beta 48.041272
_cell_angle_gamma 68.815362
_cell_volume 783.531842
_symmetry_space_group_name_H-M "P -1"
_symmetry_group_IT_number 2
_symmetry_cell_setting 'triclinic'
loop_
_space_group_symop_operation_xyz
x,y,z
-x,-y,-z
loop_
_atom_site_type_symbol
_atom_site_label
_atom_site_fract_x
_atom_site_fract_y
_atom_site_fract_z
Si Si1 0.399593 0.160788 0.317682
Si Si2 0.181042 0.011185 0.489671
Si Si3 0.911791 0.448840 0.439622
Si Si4 0.369271 0.271179 0.058795
Si Si5 0.174075 0.024484 0.805013
Si Si6 0.327031 0.602836 0.171162
Si Si7 0.652666 0.816277 0.208949
Si Si8 0.161856 0.342840 0.649853
O O1 0.492369 0.182949 0.113280
O O2 0.582597 0.075883 0.318552
O O3 0.291504 0.271918 0.449072
O O4 0.223925 0.109393 0.392482
O O5 0.087824 0.043604 0.697428
O O6 0.394364 0.898077 0.380664
O O7 0.000000 0.000000 0.500000
O O8 0.728620 0.414952 0.631648
O O9 0.806556 0.546299 0.382527
O O10 0.000000 0.500000 0.500000
O O11 0.121054 0.352692 0.253488
O O12 0.551436 0.317285 0.903781
O O13 0.313492 0.215257 0.967996
O O14 0.180093 0.130188 0.852312
O O15 0.000000 0.000000 0.000000
O O16 0.099634 0.643361 0.208564
O O17 0.500000 0.500000 0.000000
O O18 0.723640 0.710505 0.269199
#
# Coordination Sequence:
#
# PCOD8007650 Si02
#       8
#     2   2   2   2   2   2   2   2
#     4  11  22  42  69  91 135 177 216 272 334 389
#     4  11  25  44  68  96 129 170 223 276 325 401
#     4  10  20  41  66  94 133 167 218 278 322 383
#     4  12  25  40  67 103 130 172 228 271 328 397
#     4  11  25  45  65  96 134 172 221 271 337 397
#     4  11  21  41  69  97 126 176 232 267 326 396
#     4  11  26  43  63  96 136 171 216 277 335 389
#     4  11  20  43  69  90 132 179 214 273 337 385
#
# _framework density 20.420356999999999
#
# number of rings (size 3 to 8) (size 9 to 14) (size 15 to 20)
#    0.000    1.000    7.500    0.750    7.000    1.500 
#    0.000    0.625    0.000    0.000    0.000    0.000 
#    0.000    0.000    0.000    0.000    0.000    0.000 
#
# Total GULP energy -198327.680561 kJ/mol
# GULP energy per Si atom -12395.480035 kJ/mol
# Density = 2.037388 g / cm^3
# Si number density = 20.420357 Si / 1000 Ang^3
#
#
#
# Elastic Constant Matrix: (Units=GPa)
#
#
# Indices 1 2 3 4 5 6 
#
# 1 92.5677 25.8635 40.2075 -16.7622 19.5993 9.5515
# 2 25.8635 98.3806 36.8886 -25.4088 5.6434 -4.5890
# 3 40.2075 36.8886 116.3675 -17.3667 7.1479 11.2743
# 4 -16.7622 -25.4088 -17.3667 41.7440 5.5775 -0.1665
# 5 19.5993 5.6434 7.1479 5.5775 34.9293 -3.4164
# 6 9.5515 -4.5890 11.2743 -0.1665 -3.4164 31.9463
#
#
#
# Elastic Compliance Matrix: (Units=1/GPa)
#
#
# Indices 1 2 3 4 5 6 
#
# 1 0.016105 -0.001233 -0.003284 0.005604 -0.009532 -0.004823
# 2 -0.001233 0.013645 -0.003111 0.006747 -0.001632 0.003287
# 3 -0.003284 -0.003111 0.011322 0.001559 -0.000564 -0.003513
# 4 0.005604 0.006747 0.001559 0.032278 -0.009918 -0.002149
# 5 -0.009532 -0.001632 -0.000564 -0.009918 0.036594 0.006676
# 6 -0.004823 0.003287 -0.003513 -0.002149 0.006676 0.035159
#
#
# Mechanical properties :
#
#
# Convention : Reuss Voigt Hill
#
# Bulk Modulus (GPa) = 38.73694 57.02613 47.88153
# Shear Modulus (GPa) = 29.59214 35.34766 32.46990
#
# Velocity S-wave (km/s) = 3.81090 4.16504 3.99190
# Velocity P-wave (km/s) = 6.19475 7.14961 6.68924
#
# Compressibility (1/GPa) = 0.02581515
#
# Stress axis : x y z
#
# Youngs Moduli (GPa) = 62.09352 73.28879 88.32295
#
# Poissons Ratio (x) = 0.09037 0.29010
# Poissons Ratio (y) = 0.07657 0.27474
# Poissons Ratio (z) = 0.20395 0.22797
#
# Static dielectric constant tensor:
#      x y z
#    x 3.158520 0.055840 -0.043700 
#    y 0.055840 5.112580 -0.776710 
#    z -0.043700 -0.776710 4.776770 
# 
# 
# High freq. dielectric constant tensor:
#      x y z
#    x 1.776720 -0.005770 0.002880 
#    y -0.005770 1.817900 -0.004220 
#    z 0.002880 -0.004220 1.803870 
# 
# From -- ./inp_files/201788.got.cif
#   From: 2010.06.25/outbox.cif.g09.slc.cpg/sg2_101_cif.got.tgz:201788.got - 2010.06.27 13:26:56.
