data_PCOD8007125
_publ_section_title
;
Structure prediction by ZEFSAII (Michael W. Deem and Ramdas Pophale) SiO2 
 PCOD8007125
Probable space group: P -1
;
_chemical_formula_sum "Si O2"
_cell_formula_units_Z 16
_cell_length_a 16.876255
_cell_length_b 12.086650
_cell_length_c 8.784417
_cell_angle_alpha 62.484524
_cell_angle_beta 146.383533
_cell_angle_gamma 129.413587
_cell_volume 757.020370
_symmetry_space_group_name_H-M "P -1"
_symmetry_group_IT_number 2
_symmetry_cell_setting 'triclinic'
loop_
_space_group_symop_operation_xyz
x,y,z
-x,-y,-z
loop_
_atom_site_type_symbol
_atom_site_label
_atom_site_fract_x
_atom_site_fract_y
_atom_site_fract_z
Si Si1 0.806500 0.429931 0.098974
Si Si2 0.327663 0.392037 0.366442
Si Si3 0.659162 0.079185 0.411192
Si Si4 0.828469 0.903507 0.866996
Si Si5 0.703362 0.117947 0.103138
Si Si6 0.320084 0.426873 0.686535
Si Si7 0.188460 0.591254 0.543454
Si Si8 0.047635 0.137562 0.587393
O O1 0.701788 0.265796 0.973032
O O2 0.734659 0.414852 0.166099
O O3 0.997817 0.482252 0.348132
O O4 0.795130 0.552306 0.911358
O O5 0.500000 0.500000 0.500000
O O6 0.274383 0.235196 0.316454
O O7 0.336233 0.395910 0.558050
O O8 0.690611 0.074644 0.286289
O O9 0.760403 0.245326 0.524749
O O10 0.728043 0.988998 0.669101
O O11 0.459627 0.007709 0.166151
O O12 0.871623 0.863240 0.122995
O O13 0.000000 0.000000 0.000000
O O14 0.879333 0.142653 0.316797
O O15 0.249348 0.534204 0.536461
O O16 0.194461 0.275033 0.654680
O O17 0.500000 0.500000 0.000000
O O18 0.000000 0.000000 0.500000
#
# Coordination Sequence:
#
# PCOD8007125 Si02
#       8
#     2   2   2   2   2   2   2   2
#     4  10  20  40  67  94 129 179 222 274 334 409
#     4  12  26  44  71  99 131 177 231 286 337 410
#     4  10  22  38  69 101 132 182 222 278 323 409
#     4  12  23  44  71 102 136 180 237 273 336 411
#     4  10  21  41  65  98 137 175 229 268 341 404
#     4  12  27  45  68 101 139 179 225 289 347 399
#     4  10  21  40  67  97 135 174 222 271 343 400
#     4  12  26  45  68 102 141 183 223 287 348 403
#
# _framework density 21.135493
#
# number of rings (size 3 to 8) (size 9 to 14) (size 15 to 20)
#    0.000    1.000    2.500    4.500    3.500    1.500 
#    2.250    0.625    0.000    0.000    0.000    0.000 
#    0.000    0.000    0.000    0.000    0.000    0.000 
#
# Total GULP energy -198311.051786 kJ/mol
# GULP energy per Si atom -12394.440737 kJ/mol
# Density = 2.108739 g / cm^3
# Si number density = 21.135493 Si / 1000 Ang^3
#
#
#
# Elastic Constant Matrix: (Units=GPa)
#
#
# Indices 1 2 3 4 5 6 
#
# 1 127.7217 56.9921 54.0010 10.2472 -2.3154 4.3820
# 2 56.9921 152.0156 46.7869 10.4186 1.5517 0.1010
# 3 54.0010 46.7869 88.2020 -0.7029 4.3860 2.4279
# 4 10.2472 10.4186 -0.7029 41.6428 3.8676 3.0061
# 5 -2.3154 1.5517 4.3860 3.8676 33.6241 7.6056
# 6 4.3820 0.1010 2.4279 3.0061 7.6056 38.7919
#
#
#
# Elastic Compliance Matrix: (Units=1/GPa)
#
#
# Indices 1 2 3 4 5 6 
#
# 1 0.011721 -0.002396 -0.006004 -0.002510 0.002259 -0.001190
# 2 -0.002396 0.008539 -0.003087 -0.001632 -0.000102 0.000588
# 3 -0.006004 -0.003087 0.016812 0.002794 -0.002777 -0.000038
# 4 -0.002510 -0.001632 0.002794 0.025466 -0.003108 -0.001251
# 5 0.002259 -0.000102 -0.002777 -0.003108 0.032004 -0.006115
# 6 -0.001190 0.000588 -0.000038 -0.001251 -0.006115 0.027210
#
#
# Mechanical properties :
#
#
# Convention : Reuss Voigt Hill
#
# Bulk Modulus (GPa) = 70.93368 75.94438 73.43903
# Shear Modulus (GPa) = 33.46160 36.82237 35.14199
#
# Velocity S-wave (km/s) = 3.98325 4.17850 4.08205
# Velocity P-wave (km/s) = 7.40198 7.70000 7.55246
#
# Compressibility (1/GPa) = 0.01409768
#
# Stress axis : x y z
#
# Youngs Moduli (GPa) = 85.31964 117.10724 59.48022
#
# Poissons Ratio (x) = 0.28064 0.35713
# Poissons Ratio (y) = 0.20447 0.18359
# Poissons Ratio (z) = 0.51228 0.36146
#
# Static dielectric constant tensor:
#      x y z
#    x 3.812930 -0.056240 0.204760 
#    y -0.056240 3.936100 0.191010 
#    z 0.204760 0.191010 3.912320 
# 
# 
# High freq. dielectric constant tensor:
#      x y z
#    x 1.821270 0.005280 0.015470 
#    y 0.005280 1.851500 0.007900 
#    z 0.015470 0.007900 1.829020 
# 
# From -- ./inp_files/263165.got.cif
#   From: 2010.06.25/outbox.cif.g09.slc.cpg/sg2_132_cif.got.tgz:263165.got - 2010.06.27 13:26:56.
