data_PCOD8007339
_publ_section_title
;
Structure prediction by ZEFSAII (Michael W. Deem and Ramdas Pophale) SiO2 
 PCOD8007339
Probable space group: P -1
;
_chemical_formula_sum "Si O2"
_cell_formula_units_Z 16
_cell_length_a 13.718668
_cell_length_b 14.625486
_cell_length_c 9.806885
_cell_angle_alpha 140.310749
_cell_angle_beta 118.072005
_cell_angle_gamma 40.944597
_cell_volume 794.173907
_symmetry_space_group_name_H-M "P -1"
_symmetry_group_IT_number 2
_symmetry_cell_setting 'triclinic'
loop_
_space_group_symop_operation_xyz
x,y,z
-x,-y,-z
loop_
_atom_site_type_symbol
_atom_site_label
_atom_site_fract_x
_atom_site_fract_y
_atom_site_fract_z
Si Si1 0.619192 0.303741 0.266923
Si Si2 0.066560 0.561437 0.967076
Si Si3 0.121503 0.532203 0.283835
Si Si4 0.044417 0.893897 0.762596
Si Si5 0.402147 0.188524 0.745027
Si Si6 0.108852 0.835796 0.269305
Si Si7 0.464626 0.157273 0.051597
Si Si8 0.546871 0.529937 0.924454
O O1 0.500000 0.500000 0.500000
O O2 0.794804 0.186457 0.277823
O O3 0.598246 0.156209 0.126797
O O4 0.581975 0.376993 0.169026
O O5 0.219586 0.330644 0.770927
O O6 0.928475 0.585745 0.848934
O O7 0.059991 0.612747 0.181709
O O8 0.060273 0.717070 0.062978
O O9 0.053249 0.712002 0.550943
O O10 0.305456 0.380116 0.242108
O O11 0.908290 0.061306 0.763156
O O12 0.000000 0.000000 0.000000
O O13 0.500000 0.000000 0.500000
O O14 0.447168 0.104136 0.830793
O O15 0.440785 0.312861 0.866832
O O16 0.287019 0.681516 0.258342
O O17 0.000000 0.000000 0.500000
O O18 0.500000 0.000000 0.000000
O O19 0.500000 0.500000 0.000000
#
# Coordination Sequence:
#
# PCOD8007339 Si02
#       8
#     2   2   2   2   2   2   2   2
#     4  11  22  41  63  87 128 165 199 260 313 359
#     4   9  20  38  64  87 116 161 204 258 295 359
#     4  10  20  41  60  87 124 157 206 252 306 364
#     4  12  25  40  62  96 132 163 201 261 326 370
#     4   9  20  39  60  86 120 153 200 256 305 355
#     4  11  21  40  65  92 120 161 219 252 297 379
#     4  10  22  39  60  88 119 161 210 244 302 377
#     4  10  22  40  61  90 124 159 206 253 307 368
#
# _framework density 20.146723000000001
#
# number of rings (size 3 to 8) (size 9 to 14) (size 15 to 20)
#    0.000    1.750    2.500    2.250    1.750    4.000 
#    6.750    0.625    0.000    0.000    0.000    0.000 
#    0.000    0.000    0.000    0.000    0.000    0.000 
#
# Total GULP energy -198340.239475 kJ/mol
# GULP energy per Si atom -12396.264967 kJ/mol
# Density = 2.010087 g / cm^3
# Si number density = 20.146723 Si / 1000 Ang^3
#
#
#
# Elastic Constant Matrix: (Units=GPa)
#
#
# Indices 1 2 3 4 5 6 
#
# 1 82.4655 24.2896 21.9335 2.2744 3.1058 7.7323
# 2 24.2896 73.9206 29.3217 5.3601 5.4112 18.1268
# 3 21.9335 29.3217 130.7393 16.2560 -16.2221 4.1542
# 4 2.2744 5.3601 16.2560 23.5192 -3.1414 -4.2917
# 5 3.1058 5.4112 -16.2221 -3.1414 31.5807 -4.4125
# 6 7.7323 18.1268 4.1542 -4.2917 -4.4125 41.2204
#
#
#
# Elastic Compliance Matrix: (Units=1/GPa)
#
#
# Indices 1 2 3 4 5 6 
#
# 1 0.013770 -0.003458 -0.001752 0.000237 -0.001785 -0.001052
# 2 -0.003458 0.018934 -0.003718 -0.003789 -0.006362 -0.008379
# 3 -0.001752 -0.003718 0.010064 -0.004999 0.005626 0.001031
# 4 0.000237 -0.003789 -0.004999 0.048736 0.003971 0.007625
# 5 -0.001785 -0.006362 0.005626 0.003971 0.037188 0.006960
# 6 -0.001052 -0.008379 0.001031 0.007625 0.006960 0.029577
#
#
# Mechanical properties :
#
#
# Convention : Reuss Voigt Hill
#
# Bulk Modulus (GPa) = 40.14335 48.69054 44.41694
# Shear Modulus (GPa) = 27.11061 33.36945 30.24003
#
# Velocity S-wave (km/s) = 3.67230 4.07421 3.87846
# Velocity P-wave (km/s) = 6.16034 6.80828 6.49240
#
# Compressibility (1/GPa) = 0.02491072
#
# Stress axis : x y z
#
# Youngs Moduli (GPa) = 72.62029 52.81397 99.36881
#
# Poissons Ratio (x) = 0.18265 0.17410
# Poissons Ratio (y) = 0.25114 0.36948
# Poissons Ratio (z) = 0.12724 0.19638
#
# Static dielectric constant tensor:
#      x y z
#    x 4.010180 -0.013280 0.025140 
#    y -0.013280 3.960570 -0.021630 
#    z 0.025140 -0.021630 3.568280 
# 
# 
# High freq. dielectric constant tensor:
#      x y z
#    x 1.788290 -0.004820 0.003960 
#    y -0.004820 1.781660 0.009700 
#    z 0.003960 0.009700 1.781740 
# 
# From -- ./inp_files/314258.got.cif
#   From: 2010.06.25/outbox.cif.g09.slc.cpg/sg2_158_cif.got.tgz:314258.got - 2010.06.27 13:26:56.
