data_PCOD8007820
_publ_section_title
;
Structure prediction by ZEFSAII (Michael W. Deem and Ramdas Pophale) SiO2 
 PCOD8007820
Probable space group: P -1
;
_chemical_formula_sum "Si O2"
_cell_formula_units_Z 16
_cell_length_a 8.939408
_cell_length_b 11.494099
_cell_length_c 18.397020
_cell_angle_alpha 54.677149
_cell_angle_beta 84.534094
_cell_angle_gamma 40.116422
_cell_volume 746.712118
_symmetry_space_group_name_H-M "P -1"
_symmetry_group_IT_number 2
_symmetry_cell_setting 'triclinic'
loop_
_space_group_symop_operation_xyz
x,y,z
-x,-y,-z
loop_
_atom_site_type_symbol
_atom_site_label
_atom_site_fract_x
_atom_site_fract_y
_atom_site_fract_z
Si Si1 0.817404 0.820650 0.470820
Si Si2 0.239013 0.684364 0.293240
Si Si3 0.564381 0.709748 0.289045
Si Si4 0.839392 0.437041 0.224780
Si Si5 0.438105 0.863060 0.480685
Si Si6 0.827600 0.702328 0.865899
Si Si7 0.692534 0.333940 0.868805
Si Si8 0.622132 0.155440 0.224770
O O1 0.652430 0.810996 0.457720
O O2 0.173484 0.491281 0.589521
O O3 0.653763 0.025313 0.473575
O O4 0.794420 0.955169 0.360221
O O5 0.438192 0.654890 0.317059
O O6 0.374452 0.438911 0.420244
O O7 0.260543 0.638971 0.222774
O O8 0.881421 0.004816 0.214008
O O9 0.697323 0.635781 0.229447
O O10 0.291868 0.042345 0.200521
O O11 0.593729 0.537225 0.162531
O O12 0.939959 0.475290 0.149039
O O13 0.136114 0.098124 0.359027
O O14 0.548633 0.829380 0.814349
O O15 0.000000 0.500000 0.000000
O O16 0.623743 0.518370 0.861446
O O17 0.000000 0.000000 0.000000
#
# Coordination Sequence:
#
# PCOD8007820 Si02
#       8
#     2   2   2   2   2   2   2   2
#     4  10  21  40  68 101 141 168 218 275 337 402
#     4  11  25  42  72 101 136 177 219 273 339 401
#     4  10  25  44  66 101 137 178 218 274 336 397
#     4  10  24  46  70  97 136 176 219 281 332 391
#     4  10  20  41  69 102 138 170 218 274 338 403
#     4  12  28  45  67  98 136 177 231 273 328 398
#     4  11  27  47  69  95 136 181 229 272 328 393
#     4  12  26  43  71 103 131 177 224 276 336 393
#
# _framework density 21.427267000000001
#
# number of rings (size 3 to 8) (size 9 to 14) (size 15 to 20)
#    0.000    1.250    2.500    1.500    8.750    5.000 
#    0.000    0.000    0.000    0.000    0.000    0.000 
#    0.000    0.000    0.000    0.000    0.000    0.000 
#
# Total GULP energy -198514.582922 kJ/mol
# GULP energy per Si atom -12407.161433 kJ/mol
# Density = 2.137850 g / cm^3
# Si number density = 21.427267 Si / 1000 Ang^3
#
#
#
# Elastic Constant Matrix: (Units=GPa)
#
#
# Indices 1 2 3 4 5 6 
#
# 1 95.3766 43.5332 42.5018 -11.1742 11.4901 -7.8383
# 2 43.5332 94.4398 33.3696 -8.3880 -3.5761 -14.1265
# 3 42.5018 33.3696 104.2334 -11.4732 7.5951 -0.4860
# 4 -11.1742 -8.3880 -11.4732 33.0422 5.9415 -7.4972
# 5 11.4901 -3.5761 7.5951 5.9415 24.2949 -3.2879
# 6 -7.8383 -14.1265 -0.4860 -7.4972 -3.2879 39.9431
#
#
#
# Elastic Compliance Matrix: (Units=1/GPa)
#
#
# Indices 1 2 3 4 5 6 
#
# 1 0.016559 -0.006067 -0.003677 0.004594 -0.008533 0.001219
# 2 -0.006067 0.015441 -0.002827 0.000838 0.006488 0.004928
# 3 -0.003677 -0.002827 0.012541 0.002707 -0.003442 -0.001344
# 4 0.004594 0.000838 0.002707 0.036557 -0.010862 0.007198
# 5 -0.008533 0.006488 -0.003442 -0.010862 0.050246 0.002675
# 6 0.001219 0.004928 -0.001344 0.007198 0.002675 0.028573
#
#
# Mechanical properties :
#
#
# Convention : Reuss Voigt Hill
#
# Bulk Modulus (GPa) = 51.54677 59.20656 55.37667
# Shear Modulus (GPa) = 26.10643 31.09905 28.60274
#
# Velocity S-wave (km/s) = 3.49431 3.81383 3.65756
# Velocity P-wave (km/s) = 6.35524 6.86186 6.61340
#
# Compressibility (1/GPa) = 0.01939986
#
# Stress axis : x y z
#
# Youngs Moduli (GPa) = 60.39189 64.76109 79.74068
#
# Poissons Ratio (x) = 0.39287 0.29317
# Poissons Ratio (y) = 0.36637 0.22545
# Poissons Ratio (z) = 0.22203 0.18310
#
# Static dielectric constant tensor:
#      x y z
#    x 3.818860 -0.092270 0.055570 
#    y -0.092270 4.039710 0.077460 
#    z 0.055570 0.077460 3.826770 
# 
# 
# High freq. dielectric constant tensor:
#      x y z
#    x 1.842970 -0.006520 0.006050 
#    y -0.006520 1.853450 0.002770 
#    z 0.006050 0.002770 1.839090 
# 
# From -- ./inp_files/238708.got.cif
#   From: 2010.06.25/outbox.cif.g09.slc.cpg/sg2_120_cif.got.tgz:238708.got - 2010.06.27 13:26:56.
