data_PCOD8007421
_publ_section_title
;
Structure prediction by ZEFSAII (Michael W. Deem and Ramdas Pophale) SiO2 
 PCOD8007421
Probable space group: P -1
;
_chemical_formula_sum "Si O2"
_cell_formula_units_Z 14
_cell_length_a 8.923612
_cell_length_b 14.349208
_cell_length_c 7.806808
_cell_angle_alpha 123.804882
_cell_angle_beta 108.160138
_cell_angle_gamma 102.967150
_cell_volume 681.765553
_symmetry_space_group_name_H-M "P -1"
_symmetry_group_IT_number 2
_symmetry_cell_setting 'triclinic'
loop_
_space_group_symop_operation_xyz
x,y,z
-x,-y,-z
loop_
_atom_site_type_symbol
_atom_site_label
_atom_site_fract_x
_atom_site_fract_y
_atom_site_fract_z
Si Si1 0.334981 0.455600 0.527204
Si Si2 0.339655 0.270401 0.613755
Si Si3 0.307408 0.019137 0.277937
Si Si4 0.995076 0.128082 0.574450
Si Si5 0.953727 0.250976 0.022525
Si Si6 0.370217 0.693992 0.974711
Si Si7 0.389021 0.025185 0.717879
O O1 0.500000 0.500000 0.500000
O O2 0.377245 0.390661 0.634818
O O3 0.314962 0.575229 0.706796
O O4 0.142434 0.358042 0.276814
O O5 0.291313 0.143730 0.350997
O O6 0.163683 0.227979 0.624545
O O7 0.524116 0.316608 0.833718
O O8 0.337101 0.013632 0.486415
O O9 0.481781 0.033484 0.253749
O O10 0.127525 0.881460 0.027516
O O11 0.000000 0.000000 0.500000
O O12 0.799958 0.063219 0.336624
O O13 0.995308 0.220238 0.817763
O O14 0.806644 0.300130 0.017018
O O15 0.507124 0.822191 0.044307
#
# Coordination Sequence:
#
# PCOD8007421 Si02
#       7
#     2   2   2   2   2   2   2
#     4  12  27  41  56  83 124 165 198 243 292 339
#     4  11  21  37  63  91 117 149 205 244 288 349
#     4   8  15  32  55  87 112 148 180 242 290 349
#     4  11  17  33  64  97 114 143 193 251 299 346
#     4  10  21  39  62  89 122 155 188 245 308 347
#     4  10  20  41  63  84 118 164 202 231 281 365
#     4   8  15  29  58  86 116 140 188 234 297 334
#
# _framework density 20.534915999999999
#
# number of rings (size 3 to 8) (size 9 to 14) (size 15 to 20)
#    0.000    2.000    4.286    4.286    0.000    0.571 
#    0.000    7.143    0.000    3.429    0.000    0.000 
#    0.000    0.000    0.000    0.000    0.000    0.000 
#
# Total GULP energy -173468.015385 kJ/mol
# GULP energy per Si atom -12390.572527 kJ/mol
# Density = 2.048818 g / cm^3
# Si number density = 20.534916 Si / 1000 Ang^3
#
#
#
# Elastic Constant Matrix: (Units=GPa)
#
#
# Indices 1 2 3 4 5 6 
#
# 1 138.0739 18.4861 67.7856 4.1894 -2.2840 -6.3777
# 2 18.4861 19.6063 18.8045 -2.4124 -15.9538 -1.0597
# 3 67.7856 18.8045 133.1533 28.9968 2.9663 -9.3581
# 4 4.1894 -2.4124 28.9968 15.1446 -9.9206 -4.2919
# 5 -2.2840 -15.9538 2.9663 -9.9206 42.7449 8.8148
# 6 -6.3777 -1.0597 -9.3581 -4.2919 8.8148 22.4519
#
#
#
# Elastic Compliance Matrix: (Units=1/GPa)
#
#
# Indices 1 2 3 4 5 6 
#
# 1 0.010020 -0.015035 -0.001070 -0.006979 -0.007285 0.003217
# 2 -0.015035 -0.102998 0.069788 -0.202849 -0.094976 0.018467
# 3 -0.001070 0.069788 -0.021090 0.080667 0.048085 -0.009258
# 4 -0.006979 -0.202849 0.080667 -0.196642 -0.135052 0.037498
# 5 -0.007285 -0.094976 0.048085 -0.135052 -0.048509 0.006718
# 6 0.003217 0.018467 -0.009258 0.037498 0.006718 0.046997
#
#
# Mechanical properties :
#
#
# Convention : Reuss Voigt Hill
#
# Bulk Modulus (GPa) = -149.24557 55.66511 -46.79023
# Shear Modulus (GPa) = -11.85333 28.45210 8.29938
#
# Velocity S-wave (km/s) = -2.40516 3.72633 2.01255
# Velocity P-wave (km/s) = 8.97495 6.75873 4.17548
#
# Compressibility (1/GPa) = -0.00670037
#
# Stress axis : x y z
#
# Youngs Moduli (GPa) = 99.79650 -9.70894 -47.41612
#
# Poissons Ratio (x) = -0.14597 -0.05072
# Poissons Ratio (y) = 1.50043 3.30907
# Poissons Ratio (z) = 0.10674 0.67757
#
# Static dielectric constant tensor:
#      x y z
#    x 4.344660 -0.028330 0.070220 
#    y -0.028330 3.398900 0.388920 
#    z 0.070220 0.388920 3.926650 
# 
# 
# High freq. dielectric constant tensor:
#      x y z
#    x 1.827740 -0.009310 0.007190 
#    y -0.009310 1.759330 0.029470 
#    z 0.007190 0.029470 1.805850 
# 
# From -- ./inp_files/204454.got.cif
#   From: 2010.06.25/outbox.cif.g09.slc.cpg/sg2_103_cif.got.tgz:204454.got - 2010.06.27 13:26:56.
