data_PCOD8007994
_publ_section_title
;
Structure prediction by ZEFSAII (Michael W. Deem and Ramdas Pophale) SiO2 
 PCOD8007994
Probable space group: P -1
;
_chemical_formula_sum "Si O2"
_cell_formula_units_Z 14
_cell_length_a 9.119512
_cell_length_b 29.013408
_cell_length_c 11.923077
_cell_angle_alpha 150.017216
_cell_angle_beta 141.387042
_cell_angle_gamma 27.835634
_cell_volume 734.529530
_symmetry_space_group_name_H-M "P -1"
_symmetry_group_IT_number 2
_symmetry_cell_setting 'triclinic'
loop_
_space_group_symop_operation_xyz
x,y,z
-x,-y,-z
loop_
_atom_site_type_symbol
_atom_site_label
_atom_site_fract_x
_atom_site_fract_y
_atom_site_fract_z
Si Si1 0.769271 0.165282 0.808922
Si Si2 0.305329 0.858381 0.880429
Si Si3 0.696850 0.709532 0.011969
Si Si4 0.772294 0.783312 0.813859
Si Si5 0.211186 0.732340 0.383547
Si Si6 0.765601 0.116248 0.455144
Si Si7 0.919423 0.540301 0.408466
O O1 0.463959 0.266076 0.913224
O O2 0.655207 0.177767 0.640982
O O3 0.945023 0.029651 0.674937
O O4 0.992365 0.194722 0.005888
O O5 0.576431 0.838186 0.928209
O O6 0.212538 0.784837 0.614358
O O7 0.429934 0.812168 0.982701
O O8 0.000000 0.000000 0.000000
O O9 0.965639 0.714740 0.200068
O O10 0.848031 0.575082 0.777075
O O11 0.534343 0.854633 0.718022
O O12 0.962673 0.637475 0.614174
O O13 0.118401 0.827324 0.429632
O O14 0.562526 0.601654 0.297759
O O15 0.000000 0.500000 0.500000
#
# Coordination Sequence:
#
# PCOD8007994 Si02
#       7
#     2   2   2   2   2   2   2
#     4  11  23  36  59  87 121 158 186 236 300 353
#     4  10  21  37  61  91 116 152 203 245 287 344
#     4  12  22  37  61  92 117 151 204 244 290 350
#     4  10  21  40  60  81 120 158 191 239 299 342
#     4  10  22  39  63  86 116 157 196 248 293 341
#     4   9  21  40  56  84 119 156 193 227 297 357
#     4  10  20  42  63  86 111 156 202 248 297 340
#
# _framework density 19.059819000000001
#
# number of rings (size 3 to 8) (size 9 to 14) (size 15 to 20)
#    0.000    2.000    2.857    3.429    0.000    6.286 
#    0.000    2.857    0.000    0.000    0.000    0.000 
#    0.000    0.000    0.000    0.000    0.000    0.000 
#
# Total GULP energy -173622.956583 kJ/mol
# GULP energy per Si atom -12401.639756 kJ/mol
# Density = 1.901644 g / cm^3
# Si number density = 19.059819 Si / 1000 Ang^3
#
#
#
# Elastic Constant Matrix: (Units=GPa)
#
#
# Indices 1 2 3 4 5 6 
#
# 1 98.2460 3.5711 45.8614 -7.0520 -4.1084 -15.0389
# 2 3.5711 81.3949 36.5443 34.4804 -7.5891 16.6986
# 3 45.8614 36.5443 85.7506 25.0779 -14.2010 -1.2560
# 4 -7.0520 34.4804 25.0779 59.0268 -7.4512 4.9058
# 5 -4.1084 -7.5891 -14.2010 -7.4512 34.8672 -2.0432
# 6 -15.0389 16.6986 -1.2560 4.9058 -2.0432 39.9749
#
#
#
# Elastic Compliance Matrix: (Units=1/GPa)
#
#
# Indices 1 2 3 4 5 6 
#
# 1 0.016225 0.000651 -0.010653 0.005585 -0.000812 0.004770
# 2 0.000651 0.020313 -0.006747 -0.008362 -0.000474 -0.007451
# 3 -0.010653 -0.006747 0.023020 -0.006493 0.005300 0.000602
# 4 0.005585 -0.008362 -0.006493 0.025273 0.001734 0.002377
# 5 -0.000812 -0.000474 0.005300 0.001734 0.031095 0.001435
# 6 0.004770 -0.007451 0.000602 0.002377 0.001435 0.029723
#
#
# Mechanical properties :
#
#
# Convention : Reuss Voigt Hill
#
# Bulk Modulus (GPa) = 38.37347 48.59392 43.48370
# Shear Modulus (GPa) = 26.61941 38.73474 32.67708
#
# Velocity S-wave (km/s) = 3.74120 4.51296 4.14508
# Velocity P-wave (km/s) = 6.23209 7.25993 6.76556
#
# Compressibility (1/GPa) = 0.02605967
#
# Stress axis : x y z
#
# Youngs Moduli (GPa) = 61.63432 49.22913 43.44140
#
# Poissons Ratio (x) = -0.03202 0.46277
# Poissons Ratio (y) = -0.04009 0.29309
# Poissons Ratio (z) = 0.65657 0.33214
#
# Static dielectric constant tensor:
#      x y z
#    x 3.383030 0.082470 -0.181210 
#    y 0.082470 3.725280 0.111640 
#    z -0.181210 0.111640 3.660040 
# 
# 
# High freq. dielectric constant tensor:
#      x y z
#    x 1.729500 0.006430 -0.009250 
#    y 0.006430 1.750670 -0.001150 
#    z -0.009250 -0.001150 1.749880 
# 
# From -- ./inp_files/252746.got.cif
#   From: 2010.06.25/outbox.cif.g09.slc.cpg/sg2_127_cif.got.tgz:252746.got - 2010.06.27 13:26:56.
