data_PCOD8007915
_publ_section_title
;
Structure prediction by ZEFSAII (Michael W. Deem and Ramdas Pophale) SiO2 
 PCOD8007915
Probable space group: P -1
;
_chemical_formula_sum "Si O2"
_cell_formula_units_Z 16
_cell_length_a 8.259571
_cell_length_b 15.884210
_cell_length_c 8.017269
_cell_angle_alpha 94.844138
_cell_angle_beta 120.768607
_cell_angle_gamma 50.333531
_cell_volume 647.427904
_symmetry_space_group_name_H-M "P -1"
_symmetry_group_IT_number 2
_symmetry_cell_setting 'triclinic'
loop_
_space_group_symop_operation_xyz
x,y,z
-x,-y,-z
loop_
_atom_site_type_symbol
_atom_site_label
_atom_site_fract_x
_atom_site_fract_y
_atom_site_fract_z
Si Si1 0.020125 0.788427 0.805123
Si Si2 0.976495 0.908182 0.479143
Si Si3 0.184813 0.309716 0.865365
Si Si4 0.074776 0.354687 0.441704
Si Si5 0.354048 0.493915 0.276078
Si Si6 0.496899 0.271043 0.422754
Si Si7 0.412303 0.118627 0.169214
Si Si8 0.415137 0.411562 0.952128
O O1 0.310069 0.682264 0.019486
O O2 0.027304 0.862995 0.688527
O O3 0.929827 0.736746 0.645893
O O4 0.809266 0.869853 0.855017
O O5 0.189981 0.805247 0.440453
O O6 0.676915 0.980391 0.280317
O O7 0.000000 0.000000 0.500000
O O8 0.045990 0.355677 0.622282
O O9 0.944861 0.383263 0.882955
O O10 0.333238 0.173261 0.949447
O O11 0.369065 0.333305 0.995095
O O12 0.365749 0.301768 0.542789
O O13 0.833980 0.488226 0.275695
O O14 0.500000 0.500000 0.500000
O O15 0.341522 0.398923 0.291728
O O16 0.470946 0.462981 0.141730
O O17 0.437004 0.203517 0.281756
#
# Coordination Sequence:
#
# PCOD8007915 Si02
#       8
#     2   2   2   2   2   2   2   2
#     4  11  22  40  67  98 131 168 226 280 328 400
#     4  10  20  41  71  98 125 174 224 277 336 393
#     4  12  24  42  63  96 140 183 220 270 329 394
#     4  11  25  41  62  99 140 176 223 270 330 395
#     4  12  23  38  68  97 137 174 219 272 337 398
#     4  10  20  42  65  96 131 175 214 278 332 392
#     4  10  22  41  68  96 129 176 229 274 329 385
#     4  12  22  42  63  98 141 179 216 270 332 404
#
# _framework density 24.713176000000001
#
# number of rings (size 3 to 8) (size 9 to 14) (size 15 to 20)
#    0.000    1.000    3.750    4.500    0.000    1.000 
#    0.000    1.250    0.000    0.000    0.000    0.000 
#    0.000    0.000    0.000    0.000    0.000    0.000 
#
# Total GULP energy -198221.354652 kJ/mol
# GULP energy per Si atom -12388.834666 kJ/mol
# Density = 2.465693 g / cm^3
# Si number density = 24.713176 Si / 1000 Ang^3
#
#
#
# Elastic Constant Matrix: (Units=GPa)
#
#
# Indices 1 2 3 4 5 6 
#
# 1 131.6590 39.5174 47.1719 -24.6564 4.2101 -35.6851
# 2 39.5174 52.1101 33.6290 -27.6367 2.9573 -20.7914
# 3 47.1719 33.6290 114.4364 -25.3170 -3.7280 -21.5230
# 4 -24.6564 -27.6367 -25.3170 28.6316 3.1967 5.8248
# 5 4.2101 2.9573 -3.7280 3.1967 39.8552 -12.5045
# 6 -35.6851 -20.7914 -21.5230 5.8248 -12.5045 42.1162
#
#
#
# Elastic Compliance Matrix: (Units=1/GPa)
#
#
# Indices 1 2 3 4 5 6 
#
# 1 0.011829 -0.002380 -0.001671 0.004791 0.000757 0.007557
# 2 -0.002380 0.051389 -0.001671 0.043089 -0.002189 0.015890
# 3 -0.001671 -0.001671 0.012160 0.006730 0.002043 0.003649
# 4 0.004791 0.043089 0.006730 0.083943 -0.004877 0.015713
# 5 0.000757 -0.002189 0.002043 -0.004877 0.028844 0.009844
# 6 0.007557 0.015890 0.003649 0.015713 0.009844 0.040605
#
#
# Mechanical properties :
#
#
# Convention : Reuss Voigt Hill
#
# Bulk Modulus (GPa) = 15.64065 59.87135 37.75600
# Shear Modulus (GPa) = 19.11856 33.97977 26.54916
#
# Velocity S-wave (km/s) = 2.78442 3.71208 3.28119
# Velocity P-wave (km/s) = 4.08410 6.53083 5.44663
#
# Compressibility (1/GPa) = 0.06393594
#
# Stress axis : x y z
#
# Youngs Moduli (GPa) = 84.53455 19.45927 82.23569
#
# Poissons Ratio (x) = 0.04630 0.13743
# Poissons Ratio (y) = 0.20115 0.13740
# Poissons Ratio (z) = 0.14128 0.03251
#
# Static dielectric constant tensor:
#      x y z
#    x 5.271140 -0.630450 0.041620 
#    y -0.630450 4.897300 -0.405560 
#    z 0.041620 -0.405560 4.285140 
# 
# 
# High freq. dielectric constant tensor:
#      x y z
#    x 2.008560 -0.005000 -0.000370 
#    y -0.005000 1.969410 -0.024200 
#    z -0.000370 -0.024200 1.961810 
# 
# From -- ./inp_files/215161.got.cif
#   From: 2010.06.25/outbox.cif.g09.slc.cpg/sg2_108_cif.got.tgz:215161.got - 2010.06.27 13:26:56.
