data_PCOD8007823
_publ_section_title
;
Structure prediction by ZEFSAII (Michael W. Deem and Ramdas Pophale) SiO2 
 PCOD8007823
Probable space group: P -1
;
_chemical_formula_sum "Si O2"
_cell_formula_units_Z 16
_cell_length_a 18.009664
_cell_length_b 8.732762
_cell_length_c 21.230768
_cell_angle_alpha 151.980510
_cell_angle_beta 27.077825
_cell_angle_gamma 140.864281
_cell_volume 713.183225
_symmetry_space_group_name_H-M "P -1"
_symmetry_group_IT_number 2
_symmetry_cell_setting 'triclinic'
loop_
_space_group_symop_operation_xyz
x,y,z
-x,-y,-z
loop_
_atom_site_type_symbol
_atom_site_label
_atom_site_fract_x
_atom_site_fract_y
_atom_site_fract_z
Si Si1 0.599827 0.313207 0.042027
Si Si2 0.355124 0.553908 0.077745
Si Si3 0.852939 0.758943 0.209119
Si Si4 0.740116 0.792314 0.560278
Si Si5 0.006168 0.568563 0.686579
Si Si6 0.806191 0.116979 0.497694
Si Si7 0.538865 0.624054 0.332507
Si Si8 0.861972 0.786042 0.663159
O O1 0.581980 0.533947 0.072163
O O2 0.782529 0.152236 0.852621
O O3 0.537586 0.525195 0.224727
O O4 0.500000 0.000000 0.000000
O O5 0.190075 0.355874 0.140525
O O6 0.297182 0.934509 0.259194
O O7 0.500000 0.500000 0.000000
O O8 0.717306 0.563051 0.204085
O O9 0.903746 0.094191 0.260802
O O10 0.780174 0.851877 0.366702
O O11 0.000000 0.500000 0.000000
O O12 0.917491 0.610082 0.372998
O O13 0.593529 0.549364 0.587955
O O14 0.732534 0.972781 0.564271
O O15 0.052562 0.320518 0.505362
O O16 0.738321 0.494855 0.671144
O O17 0.000062 0.171024 0.372652
O O18 0.500000 0.000000 0.500000
#
# Coordination Sequence:
#
# PCOD8007823 Si02
#       8
#     2   2   2   2   2   2   2   2
#     4  12  25  43  73  99 138 187 239 284 359 417
#     4  12  27  41  71 115 142 168 238 314 351 408
#     4  11  26  46  68  98 144 193 239 286 353 430
#     4  12  23  45  72 101 139 187 238 292 358 421
#     4  11  22  46  72  98 143 187 229 293 360 419
#     4  10  23  38  72 101 137 177 234 293 357 404
#     4  12  27  49  71  99 144 196 236 285 357 435
#     4  10  20  41  69 104 133 180 232 288 352 426
#
# _framework density 22.434626999999999
#
# number of rings (size 3 to 8) (size 9 to 14) (size 15 to 20)
#    0.000    0.750    5.000    1.875    5.250    0.500 
#    2.250    1.250    0.000    0.000    0.000    0.000 
#    0.000    0.000    0.000    0.000    0.000    0.000 
#
# Total GULP energy -198285.006911 kJ/mol
# GULP energy per Si atom -12392.812932 kJ/mol
# Density = 2.238356 g / cm^3
# Si number density = 22.434627 Si / 1000 Ang^3
#
#
#
# Elastic Constant Matrix: (Units=GPa)
#
#
# Indices 1 2 3 4 5 6 
#
# 1 123.8147 50.3503 35.2664 -9.9173 3.7832 -4.7001
# 2 50.3503 120.2354 28.5974 -19.7891 11.2867 -0.7107
# 3 35.2664 28.5974 82.6507 0.9365 7.6086 -6.1108
# 4 -9.9173 -19.7891 0.9365 38.1368 4.5641 -1.1888
# 5 3.7832 11.2867 7.6086 4.5641 42.7172 -5.8551
# 6 -4.7001 -0.7107 -6.1108 -1.1888 -5.8551 46.3847
#
#
#
# Elastic Compliance Matrix: (Units=1/GPa)
#
#
# Indices 1 2 3 4 5 6 
#
# 1 0.010529 -0.003522 -0.003288 0.000943 0.000576 0.000677
# 2 -0.003522 0.011519 -0.002322 0.005455 -0.003000 -0.000725
# 3 -0.003288 -0.002322 0.014546 -0.002224 -0.001266 0.001331
# 4 0.000943 0.005455 -0.002224 0.029871 -0.004305 0.000108
# 5 0.000576 -0.003000 -0.001266 -0.004305 0.025237 0.002921
# 6 0.000677 -0.000725 0.001331 0.000108 0.002921 0.022163
#
#
# Mechanical properties :
#
#
# Convention : Reuss Voigt Hill
#
# Bulk Modulus (GPa) = 54.55455 61.68100 58.11778
# Shear Modulus (GPa) = 36.16938 39.61353 37.89146
#
# Velocity S-wave (km/s) = 4.01959 4.20662 4.11417
# Velocity P-wave (km/s) = 6.77589 7.15175 6.96636
#
# Compressibility (1/GPa) = 0.01833028
#
# Stress axis : x y z
#
# Youngs Moduli (GPa) = 94.97667 86.81027 68.74960
#
# Poissons Ratio (x) = 0.30574 0.22603
# Poissons Ratio (y) = 0.33450 0.15965
# Poissons Ratio (z) = 0.31225 0.20159
#
# Static dielectric constant tensor:
#      x y z
#    x 2.220080 -0.022770 1.491190 
#    y -0.022770 3.444890 -0.103260 
#    z 1.491190 -0.103260 2.397890 
# 
# 
# High freq. dielectric constant tensor:
#      x y z
#    x 1.893430 -0.000360 -0.016420 
#    y -0.000360 1.882910 -0.006550 
#    z -0.016420 -0.006550 1.879850 
# 
# From -- ./inp_files/599793.got.cif
#   From: 2010.06.25/outbox.cif.g09.slc.cpg/sg2_300_cif.got.tgz:599793.got - 2010.06.27 13:26:56.
