data_PCOD8007419
_publ_section_title
;
Structure prediction by ZEFSAII (Michael W. Deem and Ramdas Pophale) SiO2 
 PCOD8007419
Probable space group: P -1
;
_chemical_formula_sum "Si O2"
_cell_formula_units_Z 16
_cell_length_a 14.739953
_cell_length_b 12.091657
_cell_length_c 5.602377
_cell_angle_alpha 68.733582
_cell_angle_beta 84.175542
_cell_angle_gamma 48.462571
_cell_volume 682.539688
_symmetry_space_group_name_H-M "P -1"
_symmetry_group_IT_number 2
_symmetry_cell_setting 'triclinic'
loop_
_space_group_symop_operation_xyz
x,y,z
-x,-y,-z
loop_
_atom_site_type_symbol
_atom_site_label
_atom_site_fract_x
_atom_site_fract_y
_atom_site_fract_z
Si Si1 0.816899 0.701447 0.664321
Si Si2 0.345578 0.195090 0.756853
Si Si3 0.349200 0.768711 0.317489
Si Si4 0.764949 0.524571 0.094962
Si Si5 0.978059 0.777807 0.631869
Si Si6 0.598962 0.028126 0.695425
Si Si7 0.574905 0.506076 0.166303
Si Si8 0.913384 0.963741 0.011135
O O1 0.793892 0.704807 0.386312
O O2 0.927572 0.687093 0.729559
O O3 0.683158 0.875139 0.623994
O O4 0.833054 0.553724 0.872207
O O5 0.328019 0.320745 0.837471
O O6 0.452779 0.143596 0.580936
O O7 0.386499 0.035365 0.989716
O O8 0.349714 0.882840 0.401520
O O9 0.474758 0.669711 0.210897
O O10 0.347778 0.649868 0.563029
O O11 0.229196 0.871655 0.098388
O O12 0.675122 0.504779 0.014695
O O13 0.874335 0.358542 0.332330
O O14 0.924097 0.879389 0.320541
O O15 0.946807 0.870514 0.820472
O O16 0.500000 0.500000 0.000000
O O17 0.000000 0.000000 0.000000
#
# Coordination Sequence:
#
# PCOD8007419 Si02
#       8
#     2   2   2   2   2   2   2   2
#     4  11  24  41  71 101 141 190 237 300 362 429
#     4  10  22  39  67  95 141 184 230 300 357 435
#     4  11  24  45  71 101 142 181 245 297 367 431
#     4  11  26  45  66 104 145 188 246 294 369 435
#     4  12  28  48  76 110 146 195 251 298 361 429
#     4  10  20  41  63 103 135 177 238 289 367 424
#     4  11  27  43  71 103 142 189 236 306 370 435
#     4  12  28  50  79 106 148 197 246 304 358 431
#
# _framework density 23.441858
#
# number of rings (size 3 to 8) (size 9 to 14) (size 15 to 20)
#    0.000    1.000    2.500    2.625    8.750    1.500 
#    0.000    0.000    0.000    0.000    0.000    0.000 
#    0.000    0.000    0.000    0.000    0.000    0.000 
#
# Total GULP energy -198236.865811 kJ/mol
# GULP energy per Si atom -12389.804113 kJ/mol
# Density = 2.338850 g / cm^3
# Si number density = 23.441858 Si / 1000 Ang^3
#
#
#
# Elastic Constant Matrix: (Units=GPa)
#
#
# Indices 1 2 3 4 5 6 
#
# 1 189.3835 28.9439 53.0181 -13.5720 9.2697 16.7550
# 2 28.9439 67.9255 38.1806 -21.3509 0.7218 3.3887
# 3 53.0181 38.1806 108.9683 -10.1276 7.3560 3.9069
# 4 -13.5720 -21.3509 -10.1276 33.8904 -3.5496 7.1540
# 5 9.2697 0.7218 7.3560 -3.5496 37.4486 2.9509
# 6 16.7550 3.3887 3.9069 7.1540 2.9509 30.0156
#
#
#
# Elastic Compliance Matrix: (Units=1/GPa)
#
#
# Indices 1 2 3 4 5 6 
#
# 1 0.006627 -0.000368 -0.002700 0.002359 -0.000579 -0.003812
# 2 -0.000368 0.023197 -0.006660 0.013833 0.002666 -0.005106
# 3 -0.002700 -0.006660 0.012732 -0.001947 -0.001988 0.001261
# 4 0.002359 0.013833 -0.001947 0.041810 0.004522 -0.013035
# 5 -0.000579 0.002666 -0.001988 0.004522 0.027893 -0.003539
# 6 -0.003812 -0.005106 0.001261 -0.013035 -0.003539 0.039311
#
#
# Mechanical properties :
#
#
# Convention : Reuss Voigt Hill
#
# Bulk Modulus (GPa) = 43.29091 67.39583 55.34337
# Shear Modulus (GPa) = 27.97557 36.67990 32.32774
#
# Velocity S-wave (km/s) = 3.45831 3.95994 3.71760
# Velocity P-wave (km/s) = 5.86975 7.05130 6.48748
#
# Compressibility (1/GPa) = 0.02309954
#
# Stress axis : x y z
#
# Youngs Moduli (GPa) = 150.89415 43.10898 78.53974
#
# Poissons Ratio (x) = 0.01587 0.21209
# Poissons Ratio (y) = 0.05556 0.52307
# Poissons Ratio (z) = 0.40748 0.28710
#
# Static dielectric constant tensor:
#      x y z
#    x 4.318330 -0.059090 -0.018860 
#    y -0.059090 4.452530 -0.040400 
#    z -0.018860 -0.040400 4.351270 
# 
# 
# High freq. dielectric constant tensor:
#      x y z
#    x 1.946350 0.003130 0.010800 
#    y 0.003130 1.927070 -0.014060 
#    z 0.010800 -0.014060 1.918210 
# 
# From -- ./inp_files/68987.got.cif
#   From: 2010.06.25/outbox.cif.g09.slc.cpg/sg2_35_cif.got.tgz:68987.got - 2010.06.27 13:26:56.
