data_PCOD8007398
_publ_section_title
;
Structure prediction by ZEFSAII (Michael W. Deem and Ramdas Pophale) SiO2 
 PCOD8007398
Probable space group: P -1
;
_chemical_formula_sum "Si O2"
_cell_formula_units_Z 16
_cell_length_a 6.321081
_cell_length_b 8.635608
_cell_length_c 25.623699
_cell_angle_alpha 44.352410
_cell_angle_beta 97.207678
_cell_angle_gamma 123.417514
_cell_volume 724.719715
_symmetry_space_group_name_H-M "P -1"
_symmetry_group_IT_number 2
_symmetry_cell_setting 'triclinic'
loop_
_space_group_symop_operation_xyz
x,y,z
-x,-y,-z
loop_
_atom_site_type_symbol
_atom_site_label
_atom_site_fract_x
_atom_site_fract_y
_atom_site_fract_z
Si Si1 0.643102 0.931814 0.884092
Si Si2 0.886843 0.720438 0.315992
Si Si3 0.728209 0.248622 0.986858
Si Si4 0.786603 0.819740 0.115265
Si Si5 0.537049 0.336568 0.756153
Si Si6 0.003480 0.704422 0.604024
Si Si7 0.324001 0.337063 0.146986
Si Si8 0.417641 0.375538 0.468681
O O1 0.627746 0.717147 0.896519
O O2 0.587056 0.110945 0.804835
O O3 0.407520 0.748605 0.965232
O O4 0.959464 0.164146 0.863174
O O5 0.742369 0.775538 0.255142
O O6 0.919424 0.499145 0.346871
O O7 0.717039 0.598867 0.393970
O O8 0.186731 0.059385 0.249071
O O9 0.866995 0.564482 0.888137
O O10 0.500000 0.000000 0.000000
O O11 0.916335 0.160316 0.027940
O O12 0.516877 0.642311 0.190157
O O13 0.643854 0.617550 0.108235
O O14 0.813068 0.640639 0.664112
O O15 0.827171 0.637694 0.561347
O O16 0.297951 0.042982 0.538821
O O17 0.500000 0.500000 0.500000
#
# Coordination Sequence:
#
# PCOD8007398 Si02
#       8
#     2   2   2   2   2   2   2   2
#     4  11  21  43  61  89 125 164 211 254 305 360
#     4  11  22  43  64  92 130 158 202 255 306 365
#     4   9  22  41  59  90 125 164 212 254 305 360
#     4  10  22  40  61  88 125 167 205 259 305 355
#     4  10  20  41  62  89 128 160 203 253 308 356
#     4  10  21  43  64  89 127 160 197 251 303 366
#     4  11  22  40  61  94 121 162 210 254 307 363
#     4  10  24  42  66  95 121 161 201 245 306 371
#
# _framework density 22.077500000000001
#
# number of rings (size 3 to 8) (size 9 to 14) (size 15 to 20)
#    0.000    1.750    2.500    0.750    1.750    3.000 
#   13.500    0.000    0.000    0.000    0.000    0.000 
#    0.000    0.000    0.000    0.000    0.000    0.000 
#
# Total GULP energy -198234.839223 kJ/mol
# GULP energy per Si atom -12389.677451 kJ/mol
# Density = 2.202725 g / cm^3
# Si number density = 22.077500 Si / 1000 Ang^3
#
#
#
# Elastic Constant Matrix: (Units=GPa)
#
#
# Indices 1 2 3 4 5 6 
#
# 1 77.9700 21.7416 28.3381 -14.2254 28.4894 9.3743
# 2 21.7416 97.2796 29.9423 -7.7392 12.1913 3.8731
# 3 28.3381 29.9423 103.7451 -16.2813 21.7576 -6.6919
# 4 -14.2254 -7.7392 -16.2813 34.6500 -6.3567 5.0219
# 5 28.4894 12.1913 21.7576 -6.3567 40.3713 5.1618
# 6 9.3743 3.8731 -6.6919 5.0219 5.1618 21.2893
#
#
#
# Elastic Compliance Matrix: (Units=1/GPa)
#
#
# Indices 1 2 3 4 5 6 
#
# 1 0.020015 -0.001631 -0.002413 0.006009 -0.010339 -0.008186
# 2 -0.001631 0.011747 -0.002881 0.000881 -0.000393 -0.002437
# 3 -0.002413 -0.002881 0.012951 0.002679 -0.004775 0.006184
# 4 0.006009 0.000881 0.002679 0.034415 0.000782 -0.010272
# 5 -0.010339 -0.000393 -0.004775 0.000782 0.035609 -0.005695
# 6 -0.008186 -0.002437 0.006184 -0.010272 -0.005695 0.056768
#
#
# Mechanical properties :
#
#
# Convention : Reuss Voigt Hill
#
# Bulk Modulus (GPa) = 32.40213 48.78206 40.59210
# Shear Modulus (GPa) = 25.55665 32.52698 29.04181
#
# Velocity S-wave (km/s) = 3.40603 3.84253 3.63085
# Velocity P-wave (km/s) = 5.49331 6.46765 6.00029
#
# Compressibility (1/GPa) = 0.03086217
#
# Stress axis : x y z
#
# Youngs Moduli (GPa) = 49.96134 85.12462 77.21701
#
# Poissons Ratio (x) = 0.13883 0.18635
# Poissons Ratio (y) = 0.08148 0.22249
# Poissons Ratio (z) = 0.12057 0.24528
#
# Static dielectric constant tensor:
#      x y z
#    x 4.042370 -0.055970 0.162100 
#    y -0.055970 3.748270 0.100640 
#    z 0.162100 0.100640 4.468170 
# 
# 
# High freq. dielectric constant tensor:
#      x y z
#    x 1.864940 -0.007660 0.010270 
#    y -0.007660 1.855590 0.006350 
#    z 0.010270 0.006350 1.882100 
# 
# From -- ./inp_files/117370.got.cif
#   From: 2010.06.25/outbox.cif.g09.slc.cpg/sg2_59_cif.got.tgz:117370.got - 2010.06.27 13:26:56.
