data_PCOD8007710
_publ_section_title
;
Structure prediction by ZEFSAII (Michael W. Deem and Ramdas Pophale) SiO2 
 PCOD8007710
Probable space group: P -1
;
_chemical_formula_sum "Si O2"
_cell_formula_units_Z 16
_cell_length_a 13.872860
_cell_length_b 22.026810
_cell_length_c 10.163216
_cell_angle_alpha 43.387993
_cell_angle_beta 148.633535
_cell_angle_gamma 152.613580
_cell_volume 737.137529
_symmetry_space_group_name_H-M "P -1"
_symmetry_group_IT_number 2
_symmetry_cell_setting 'triclinic'
loop_
_space_group_symop_operation_xyz
x,y,z
-x,-y,-z
loop_
_atom_site_type_symbol
_atom_site_label
_atom_site_fract_x
_atom_site_fract_y
_atom_site_fract_z
Si Si1 0.936022 0.753118 0.326405
Si Si2 0.621245 0.183379 0.613048
Si Si3 0.940436 0.370665 0.440525
Si Si4 0.920087 0.916548 0.912856
Si Si5 0.958945 0.412175 0.840614
Si Si6 0.458317 0.045441 0.183990
Si Si7 0.659405 0.292938 0.950896
Si Si8 0.464137 0.391572 0.688339
O O1 0.831782 0.718213 0.409881
O O2 0.844299 0.632516 0.329766
O O3 0.277020 0.878699 0.530435
O O4 0.796120 0.780748 0.036242
O O5 0.728308 0.266453 0.472382
O O6 0.819958 0.280339 0.813181
O O7 0.312621 0.112619 0.394748
O O8 0.621343 0.076835 0.781212
O O9 0.112042 0.522650 0.426637
O O10 0.788665 0.330657 0.186678
O O11 0.195470 0.993287 0.032805
O O12 0.000000 0.000000 0.000000
O O13 0.873997 0.387486 0.934140
O O14 0.293682 0.527193 0.047076
O O15 0.519734 0.146558 0.990508
O O16 0.464251 0.311407 0.706921
O O17 0.500000 0.500000 0.500000
#
# Coordination Sequence:
#
# PCOD8007710 Si02
#       8
#     2   2   2   2   2   2   2   2
#     4  11  20  36  66  99 124 162 223 278 313 374
#     4  12  25  42  67  98 137 174 206 274 338 385
#     4  10  20  41  67  92 127 170 218 269 317 380
#     4  12  21  38  65  96 128 171 222 260 321 387
#     4  11  24  45  62  94 137 172 214 272 331 388
#     4  11  23  41  63  98 135 164 220 271 323 384
#     4  10  22  40  67  92 126 173 219 270 313 385
#     4  11  21  40  68  98 122 174 229 264 320 389
#
# _framework density 21.705582
#
# number of rings (size 3 to 8) (size 9 to 14) (size 15 to 20)
#    0.000    1.000    2.500    8.250    0.000    0.500 
#    4.500    1.875    0.000    0.000    0.000    0.000 
#    0.000    0.000    0.000    0.000    0.000    0.000 
#
# Total GULP energy -198214.092280 kJ/mol
# GULP energy per Si atom -12388.380767 kJ/mol
# Density = 2.165618 g / cm^3
# Si number density = 21.705582 Si / 1000 Ang^3
#
#
#
# Elastic Constant Matrix: (Units=GPa)
#
#
# Indices 1 2 3 4 5 6 
#
# 1 102.2348 40.7504 39.6585 3.3777 24.1797 -0.5192
# 2 40.7504 111.0876 39.0728 -22.6528 16.9684 -15.0125
# 3 39.6585 39.0728 62.8304 -13.2508 19.8737 -11.3523
# 4 3.3777 -22.6528 -13.2508 43.0056 -8.4904 5.6752
# 5 24.1797 16.9684 19.8737 -8.4904 36.0383 -6.7463
# 6 -0.5192 -15.0125 -11.3523 5.6752 -6.7463 53.0804
#
#
#
# Elastic Compliance Matrix: (Units=1/GPa)
#
#
# Indices 1 2 3 4 5 6 
#
# 1 0.016061 -0.003959 -0.007376 -0.006627 -0.006913 -0.002710
# 2 -0.003959 0.013403 -0.004372 0.005834 0.000555 0.002264
# 3 -0.007376 -0.004372 0.026802 0.004932 -0.006025 0.003130
# 4 -0.006627 0.005834 0.004932 0.029514 0.005978 0.000244
# 5 -0.006913 0.000555 -0.006025 0.005978 0.037402 0.002915
# 6 -0.002710 0.002264 0.003130 0.000244 0.002915 0.020467
#
#
# Mechanical properties :
#
#
# Convention : Reuss Voigt Hill
#
# Bulk Modulus (GPa) = 40.23953 57.23512 48.73732
# Shear Modulus (GPa) = 27.27069 36.86962 32.07016
#
# Velocity S-wave (km/s) = 3.54841 4.12591 3.84801
# Velocity P-wave (km/s) = 5.94704 7.00882 6.49965
#
# Compressibility (1/GPa) = 0.02485119
#
# Stress axis : x y z
#
# Youngs Moduli (GPa) = 62.26308 74.61116 37.31033
#
# Poissons Ratio (x) = 0.29537 0.27522
# Poissons Ratio (y) = 0.24649 0.16313
# Poissons Ratio (z) = 0.45928 0.32621
#
# Static dielectric constant tensor:
#      x y z
#    x 4.157200 -0.278380 0.637340 
#    y -0.278380 4.511610 -0.627870 
#    z 0.637340 -0.627870 4.006430 
# 
# 
# High freq. dielectric constant tensor:
#      x y z
#    x 1.854600 -0.000830 0.033900 
#    y -0.000830 1.865320 -0.036870 
#    z 0.033900 -0.036870 1.823950 
# 
# From -- ./inp_files/282954.got.cif
#   From: 2010.06.25/outbox.cif.g09.slc.cpg/sg2_142_cif.got.tgz:282954.got - 2010.06.27 13:26:56.
