data_PCOD8007568
_publ_section_title
;
Structure prediction by ZEFSAII (Michael W. Deem and Ramdas Pophale) SiO2 
 PCOD8007568
Probable space group: P -1
;
_chemical_formula_sum "Si O2"
_cell_formula_units_Z 16
_cell_length_a 11.253707
_cell_length_b 7.860645
_cell_length_c 11.507115
_cell_angle_alpha 126.415949
_cell_angle_beta 115.610404
_cell_angle_gamma 85.947582
_cell_volume 714.023474
_symmetry_space_group_name_H-M "P -1"
_symmetry_group_IT_number 2
_symmetry_cell_setting 'triclinic'
loop_
_space_group_symop_operation_xyz
x,y,z
-x,-y,-z
loop_
_atom_site_type_symbol
_atom_site_label
_atom_site_fract_x
_atom_site_fract_y
_atom_site_fract_z
Si Si1 0.192864 0.319204 0.528121
Si Si2 0.713854 0.763023 0.704676
Si Si3 0.222125 0.962708 0.568435
Si Si4 0.491508 0.942547 0.782958
Si Si5 0.141043 0.535128 0.229705
Si Si6 0.092956 0.785434 0.101056
Si Si7 0.314605 0.773116 0.856426
Si Si8 0.084247 0.957596 0.743307
O O1 0.285686 0.360658 0.468136
O O2 0.235939 0.517840 0.717093
O O3 0.034312 0.270618 0.403844
O O4 0.207973 0.096653 0.502587
O O5 0.562399 0.783207 0.676036
O O6 0.760262 0.624244 0.770647
O O7 0.813736 0.006923 0.839706
O O8 0.382766 0.013774 0.684529
O O9 0.159054 0.705568 0.412879
O O10 0.138724 0.030246 0.666513
O O11 0.420762 0.811267 0.811311
O O12 0.605074 0.160634 0.961909
O O13 0.177919 0.667613 0.176756
O O14 0.983987 0.388447 0.098980
O O15 0.971904 0.848930 0.148687
O O16 0.207829 0.920493 0.858021
#
# Coordination Sequence:
#
# PCOD8007568 Si02
#       8
#     2   2   2   2   2   2   2   2
#     4  11  23  39  62  98 124 159 216 258 315 376
#     4  11  22  42  64  95 124 171 208 252 315 372
#     4  11  23  42  61  91 131 169 206 257 312 370
#     4  10  24  43  62  87 126 171 212 255 304 374
#     4  11  22  40  65  92 132 161 203 266 315 366
#     4  10  23  41  62 102 126 159 208 261 319 377
#     4  10  22  42  64  91 123 163 216 258 308 373
#     4  10  20  41  65  91 128 159 200 269 320 365
#
# _framework density 22.408228000000001
#
# number of rings (size 3 to 8) (size 9 to 14) (size 15 to 20)
#    0.000    1.500    2.500    3.375    0.000    6.000 
#    4.500    0.000    0.000    0.000    0.000    0.000 
#    0.000    0.000    0.000    0.000    0.000    0.000 
#
# Total GULP energy -198406.997746 kJ/mol
# GULP energy per Si atom -12400.437359 kJ/mol
# Density = 2.235723 g / cm^3
# Si number density = 22.408228 Si / 1000 Ang^3
#
#
#
# Elastic Constant Matrix: (Units=GPa)
#
#
# Indices 1 2 3 4 5 6 
#
# 1 111.6884 36.6330 18.7147 -18.6713 -6.5366 -18.3054
# 2 36.6330 102.6503 27.5465 6.3807 -4.0711 -5.6561
# 3 18.7147 27.5465 117.2418 0.0150 15.3595 -6.5092
# 4 -18.6713 6.3807 0.0150 27.8167 3.4486 3.4947
# 5 -6.5366 -4.0711 15.3595 3.4486 20.7813 0.1525
# 6 -18.3054 -5.6561 -6.5092 3.4947 0.1525 12.8111
#
#
#
# Elastic Compliance Matrix: (Units=1/GPa)
#
#
# Indices 1 2 3 4 5 6 
#
# 1 0.014912 -0.004644 -0.000738 0.008661 0.002768 0.016487
# 2 -0.004644 0.012683 -0.002829 -0.006449 0.004191 -0.000764
# 3 -0.000738 -0.002829 0.010631 0.000868 -0.008809 0.002966
# 4 0.008661 -0.006449 0.000868 0.044306 -0.006518 -0.002040
# 5 0.002768 0.004191 -0.008809 -0.006518 0.057386 0.002424
# 6 0.016487 -0.000764 0.002966 -0.002040 0.002424 0.103312
#
#
# Mechanical properties :
#
#
# Convention : Reuss Voigt Hill
#
# Bulk Modulus (GPa) = 45.86255 55.26319 50.56287
# Shear Modulus (GPa) = 18.73215 28.86091 23.79653
#
# Velocity S-wave (km/s) = 2.89442 3.59271 3.26230
# Velocity P-wave (km/s) = 5.62863 6.47500 6.06659
#
# Compressibility (1/GPa) = 0.02180428
#
# Stress axis : x y z
#
# Youngs Moduli (GPa) = 67.05880 78.84375 94.06880
#
# Poissons Ratio (x) = 0.36615 0.06938
# Poissons Ratio (y) = 0.31142 0.26615
# Poissons Ratio (z) = 0.04946 0.22308
#
# Static dielectric constant tensor:
#      x y z
#    x 3.907330 -0.086290 0.095660 
#    y -0.086290 3.822600 0.009470 
#    z 0.095660 0.009470 4.294850 
# 
# 
# High freq. dielectric constant tensor:
#      x y z
#    x 1.865710 -0.007830 0.001680 
#    y -0.007830 1.873280 0.000900 
#    z 0.001680 0.000900 1.898440 
# 
# From -- ./inp_files/418475.got.cif
#   From: 2010.06.25/outbox.cif.g09.slc.cpg/sg2_210_cif.got.tgz:418475.got - 2010.06.27 13:26:56.
