data_PCOD8007640
_publ_section_title
;
Structure prediction by ZEFSAII (Michael W. Deem and Ramdas Pophale) SiO2 
 PCOD8007640
Probable space group: P -1
;
_chemical_formula_sum "Si O2"
_cell_formula_units_Z 16
_cell_length_a 16.010490
_cell_length_b 13.276496
_cell_length_c 15.235682
_cell_angle_alpha 122.950853
_cell_angle_beta 38.326804
_cell_angle_gamma 152.832271
_cell_volume 769.496405
_symmetry_space_group_name_H-M "P -1"
_symmetry_group_IT_number 2
_symmetry_cell_setting 'triclinic'
loop_
_space_group_symop_operation_xyz
x,y,z
-x,-y,-z
loop_
_atom_site_type_symbol
_atom_site_label
_atom_site_fract_x
_atom_site_fract_y
_atom_site_fract_z
Si Si1 0.651063 0.662782 0.363395
Si Si2 0.318504 0.743977 0.467624
Si Si3 0.800567 0.592027 0.512557
Si Si4 0.119203 0.896674 0.569940
Si Si5 0.834983 0.231175 0.843066
Si Si6 0.686050 0.190939 0.269410
Si Si7 0.836711 0.110063 0.968052
Si Si8 0.763821 0.431778 0.738815
O O1 0.500000 0.500000 0.500000
O O2 0.419177 0.491102 0.393870
O O3 0.890261 0.759902 0.175295
O O4 0.799235 0.906912 0.375495
O O5 0.377244 0.675234 0.448532
O O6 0.313790 0.699689 0.348499
O O7 0.993485 0.537352 0.658177
O O8 0.583137 0.055502 0.387309
O O9 0.927726 0.752177 0.570854
O O10 0.081177 0.795048 0.314757
O O11 0.908797 0.675375 0.713978
O O12 0.408700 0.042991 0.385923
O O13 0.900775 0.222649 0.876820
O O14 0.041987 0.509471 0.792123
O O15 0.500000 0.000000 0.000000
O O16 0.811890 0.192143 0.100565
O O17 0.535265 0.792443 0.064067
#
# Coordination Sequence:
#
# PCOD8007640 Si02
#       8
#     2   2   2   2   2   2   2   2
#     4  12  25  44  59  90 129 173 207 246 307 378
#     4   8  16  34  64  93 119 154 207 257 310 362
#     4  11  22  41  64  92 123 164 211 251 303 377
#     4  10  21  43  70  89 124 164 206 256 315 361
#     4  12  23  37  60  97 124 156 214 259 302 367
#     4  10  20  41  66  93 123 164 201 264 317 351
#     4  11  22  40  62  88 131 162 204 258 307 363
#     4   8  16  35  63  94 120 157 201 260 313 353
#
# _framework density 20.792819000000001
#
# number of rings (size 3 to 8) (size 9 to 14) (size 15 to 20)
#    0.000    1.750    2.500    4.125    0.000    2.500 
#    4.500    5.625    0.000    0.000    0.000    0.000 
#    0.000    0.000    0.000    0.000    0.000    0.000 
#
# Total GULP energy -198380.566078 kJ/mol
# GULP energy per Si atom -12398.785380 kJ/mol
# Density = 2.074549 g / cm^3
# Si number density = 20.792819 Si / 1000 Ang^3
#
#
#
# Elastic Constant Matrix: (Units=GPa)
#
#
# Indices 1 2 3 4 5 6 
#
# 1 124.2479 25.0087 38.9446 1.1977 -13.5393 1.7550
# 2 25.0087 75.8570 33.4968 -14.8508 -10.3131 -0.2781
# 3 38.9446 33.4968 83.4516 -3.8572 -10.5889 -4.5725
# 4 1.1977 -14.8508 -3.8572 32.2261 -2.3473 -3.2200
# 5 -13.5393 -10.3131 -10.5889 -2.3473 38.5561 -3.7952
# 6 1.7550 -0.2781 -4.5725 -3.2200 -3.7952 20.7075
#
#
#
# Elastic Compliance Matrix: (Units=1/GPa)
#
#
# Indices 1 2 3 4 5 6 
#
# 1 0.009813 -0.001613 -0.003883 -0.001615 0.001687 -0.001653
# 2 -0.001613 0.018303 -0.005737 0.008151 0.003348 0.000997
# 3 -0.003883 -0.005737 0.016603 0.000071 0.002090 0.004312
# 4 -0.001615 0.008151 0.000071 0.035846 0.004470 0.006655
# 5 0.001687 0.003348 0.002090 0.004470 0.028896 0.006355
# 6 -0.001653 0.000997 0.004312 0.006655 0.006355 0.051597
#
#
# Mechanical properties :
#
#
# Convention : Reuss Voigt Hill
#
# Bulk Modulus (GPa) = 44.94237 53.16186 49.05212
# Shear Modulus (GPa) = 26.18592 30.70503 28.44548
#
# Velocity S-wave (km/s) = 3.55262 3.84697 3.70272
# Velocity P-wave (km/s) = 6.20398 6.73462 6.47474
#
# Compressibility (1/GPa) = 0.02225072
#
# Stress axis : x y z
#
# Youngs Moduli (GPa) = 101.90545 54.63665 60.23067
#
# Poissons Ratio (x) = 0.08815 0.23388
# Poissons Ratio (y) = 0.16442 0.34557
# Poissons Ratio (z) = 0.39570 0.31348
#
# Static dielectric constant tensor:
#      x y z
#    x 4.113300 -0.084560 0.174710 
#    y -0.084560 3.986180 -0.326660 
#    z 0.174710 -0.326660 3.924980 
# 
# 
# High freq. dielectric constant tensor:
#      x y z
#    x 1.824160 -0.000780 0.014030 
#    y -0.000780 1.817930 -0.017860 
#    z 0.014030 -0.017860 1.807670 
# 
# From -- ./inp_files/532605.got.cif
#   From: 2010.06.25/outbox.cif.g09.slc.cpg/sg2_267_cif.got.tgz:532605.got - 2010.06.27 13:26:56.
