data_PCOD8007067
_publ_section_title
;
Structure prediction by ZEFSAII (Michael W. Deem and Ramdas Pophale) SiO2 
 PCOD8007067
Probable space group: P -1
;
_chemical_formula_sum "Si O2"
_cell_formula_units_Z 16
_cell_length_a 6.512841
_cell_length_b 11.533998
_cell_length_c 12.070070
_cell_angle_alpha 57.578270
_cell_angle_beta 89.946441
_cell_angle_gamma 81.421072
_cell_volume 753.397219
_symmetry_space_group_name_H-M "P -1"
_symmetry_group_IT_number 2
_symmetry_cell_setting 'triclinic'
loop_
_space_group_symop_operation_xyz
x,y,z
-x,-y,-z
loop_
_atom_site_type_symbol
_atom_site_label
_atom_site_fract_x
_atom_site_fract_y
_atom_site_fract_z
Si Si1 0.407106 0.450291 0.138361
Si Si2 0.248528 0.859837 0.378872
Si Si3 0.054257 0.888681 0.694775
Si Si4 0.760682 0.755022 0.898709
Si Si5 0.794646 0.353646 0.342101
Si Si6 0.999477 0.603073 0.164971
Si Si7 0.597332 0.004270 0.235636
Si Si8 0.972776 0.885925 0.149806
O O1 0.307185 0.315090 0.177439
O O2 0.580786 0.413222 0.250328
O O3 0.227385 0.568651 0.127196
O O4 0.500000 0.500000 0.000000
O O5 0.256433 0.704692 0.507245
O O6 0.482844 0.890243 0.354220
O O7 0.144970 0.877129 0.249376
O O8 0.114522 0.972547 0.406309
O O9 0.073297 0.775371 0.657183
O O10 0.963267 0.823719 0.837882
O O11 0.275530 0.928529 0.705113
O O12 0.572559 0.873274 0.881017
O O13 0.822183 0.639521 0.052188
O O14 0.937566 0.471706 0.298107
O O15 0.995136 0.732654 0.178627
O O16 0.742257 0.928297 0.178154
O O17 0.000000 0.000000 0.000000
#
# Coordination Sequence:
#
# PCOD8007067 Si02
#       8
#     2   2   2   2   2   2   2   2
#     4  12  24  39  64 100 138 169 212 264 330 393
#     4  10  25  43  66  97 131 174 223 268 318 385
#     4  10  20  40  66  98 134 169 212 269 333 387
#     4  11  21  39  66 101 131 167 213 275 325 383
#     4  12  24  41  65  99 135 176 215 265 331 392
#     4  12  26  41  66  97 137 176 215 268 329 382
#     4  10  22  42  70  95 129 168 219 273 322 381
#     4  11  26  47  70  94 128 171 223 271 322 387
#
# _framework density 21.237134999999999
#
# number of rings (size 3 to 8) (size 9 to 14) (size 15 to 20)
#    0.000    1.000    3.750    3.750    1.750    6.000 
#    0.000    1.250    0.000    0.000    0.000    0.000 
#    0.000    0.000    0.000    0.000    0.000    0.000 
#
# Total GULP energy -198420.500746 kJ/mol
# GULP energy per Si atom -12401.281297 kJ/mol
# Density = 2.118880 g / cm^3
# Si number density = 21.237135 Si / 1000 Ang^3
#
#
#
# Elastic Constant Matrix: (Units=GPa)
#
#
# Indices 1 2 3 4 5 6 
#
# 1 131.9186 50.4049 51.2763 -8.1052 -17.8104 0.3751
# 2 50.4049 147.5613 33.1608 -7.1082 -12.7595 0.5899
# 3 51.2763 33.1608 119.4915 -27.0849 -10.5597 6.5783
# 4 -8.1052 -7.1082 -27.0849 25.8307 8.5652 -4.0105
# 5 -17.8104 -12.7595 -10.5597 8.5652 28.8180 -3.5285
# 6 0.3751 0.5899 6.5783 -4.0105 -3.5285 37.6188
#
#
#
# Elastic Compliance Matrix: (Units=1/GPa)
#
#
# Indices 1 2 3 4 5 6 
#
# 1 0.010620 -0.002403 -0.004243 -0.003322 0.005030 0.000791
# 2 -0.002403 0.007983 -0.001100 -0.000256 0.001750 0.000228
# 3 -0.004243 -0.001100 0.013271 0.012840 -0.002197 -0.001098
# 4 -0.003322 -0.000256 0.012840 0.056027 -0.013811 0.002469
# 5 0.005030 0.001750 -0.002197 -0.013811 0.042226 0.002795
# 6 0.000791 0.000228 -0.001098 0.002469 0.002795 0.027288
#
#
# Mechanical properties :
#
#
# Convention : Reuss Voigt Hill
#
# Bulk Modulus (GPa) = 61.03724 74.29505 67.66615
# Shear Modulus (GPa) = 28.03186 36.06214 32.04700
#
# Velocity S-wave (km/s) = 3.63705 4.12523 3.88881
# Velocity P-wave (km/s) = 6.81474 7.59931 7.21770
#
# Compressibility (1/GPa) = 0.01638344
#
# Stress axis : x y z
#
# Youngs Moduli (GPa) = 94.15968 125.26766 75.34964
#
# Poissons Ratio (x) = 0.30096 0.31969
# Poissons Ratio (y) = 0.22623 0.08290
# Poissons Ratio (z) = 0.39950 0.13782
#
# Static dielectric constant tensor:
#      x y z
#    x 3.946880 -0.008080 -0.130350 
#    y -0.008080 3.931250 -0.214890 
#    z -0.130350 -0.214890 3.742650 
# 
# 
# High freq. dielectric constant tensor:
#      x y z
#    x 1.845790 0.001340 -0.007640 
#    y 0.001340 1.832030 -0.016990 
#    z -0.007640 -0.016990 1.821040 
# 
# From -- ./inp_files/69877.got.cif
#   From: 2010.06.25/outbox.cif.g09.slc.cpg/sg2_35_cif.got.tgz:69877.got - 2010.06.27 13:26:56.
