data_PCOD8007923
_publ_section_title
;
Structure prediction by ZEFSAII (Michael W. Deem and Ramdas Pophale) SiO2 
 PCOD8007923
Probable space group: P -1
;
_chemical_formula_sum "Si O2"
_cell_formula_units_Z 14
_cell_length_a 9.483287
_cell_length_b 8.249774
_cell_length_c 7.618169
_cell_angle_alpha 96.516508
_cell_angle_beta 76.138382
_cell_angle_gamma 114.539836
_cell_volume 526.315976
_symmetry_space_group_name_H-M "P -1"
_symmetry_group_IT_number 2
_symmetry_cell_setting 'triclinic'
loop_
_space_group_symop_operation_xyz
x,y,z
-x,-y,-z
loop_
_atom_site_type_symbol
_atom_site_label
_atom_site_fract_x
_atom_site_fract_y
_atom_site_fract_z
Si Si1 0.187738 0.723639 0.634627
Si Si2 0.474639 0.749143 0.095711
Si Si3 0.740248 0.634053 0.917911
Si Si4 0.046502 0.836443 0.990005
Si Si5 0.487743 0.105552 0.288239
Si Si6 0.825129 0.849848 0.569972
Si Si7 0.996969 0.323091 0.667433
O O1 0.060896 0.531301 0.714240
O O2 0.174215 0.858508 0.803799
O O3 0.130929 0.748529 0.461482
O O4 0.377461 0.776969 0.595656
O O5 0.320424 0.568180 0.161225
O O6 0.479228 0.905266 0.243140
O O7 0.618182 0.686900 0.074581
O O8 0.472539 0.796503 0.897791
O O9 0.886817 0.655509 0.001250
O O10 0.810814 0.781061 0.763810
O O11 0.107853 0.812304 0.163105
O O12 0.000000 0.000000 0.000000
O O13 0.322975 0.097938 0.421573
O O14 0.835335 0.695012 0.423742
O O15 0.000000 0.000000 0.500000
#
# Coordination Sequence:
#
# PCOD8007923 Si02
#       7
#     2   2   2   2   2   2   2
#     4  11  25  48  73 113 148 200 253 313 380 453
#     4   9  20  40  73 110 141 195 249 315 376 451
#     4  10  20  41  72 109 146 188 254 308 379 456
#     4  12  24  42  78 109 146 200 251 311 380 455
#     4  10  22  44  74 107 151 192 255 310 380 453
#     4  11  24  46  72 101 148 200 245 312 379 452
#     4  11  26  46  76 107 157 198 254 312 376 464
#
# _framework density 26.599990999999999
#
# number of rings (size 3 to 8) (size 9 to 14) (size 15 to 20)
#    0.000    1.429    1.429    3.000    0.000    4.000 
#    0.000    0.714    3.143    0.000    0.000    0.000 
#    0.000    0.000    0.000    0.000    0.000    0.000 
#
# Total GULP energy -173468.074039 kJ/mol
# GULP energy per Si atom -12390.576717 kJ/mol
# Density = 2.653945 g / cm^3
# Si number density = 26.599991 Si / 1000 Ang^3
#
#
#
# Elastic Constant Matrix: (Units=GPa)
#
#
# Indices 1 2 3 4 5 6 
#
# 1 142.9637 52.6821 50.9338 -1.5413 4.4451 20.5598
# 2 52.6821 104.4572 32.4027 -19.2616 2.5449 1.3848
# 3 50.9338 32.4027 103.3326 -9.1893 9.8394 6.9869
# 4 -1.5413 -19.2616 -9.1893 39.3033 -2.7537 -7.2096
# 5 4.4451 2.5449 9.8394 -2.7537 37.6384 -7.8562
# 6 20.5598 1.3848 6.9869 -7.2096 -7.8562 40.2305
#
#
#
# Elastic Compliance Matrix: (Units=1/GPa)
#
#
# Indices 1 2 3 4 5 6 
#
# 1 0.011005 -0.005051 -0.003664 -0.004078 -0.001518 -0.005841
# 2 -0.005051 0.013832 -0.001624 0.007020 0.001418 0.003922
# 3 -0.003664 -0.001624 0.012428 0.001697 -0.002676 -0.000449
# 4 -0.004078 0.007020 0.001697 0.030779 0.003429 0.007734
# 5 -0.001518 0.001418 -0.002676 0.003429 0.029168 0.007502
# 6 -0.005841 0.003922 -0.000449 0.007734 0.007502 0.030636
#
#
# Mechanical properties :
#
#
# Convention : Reuss Voigt Hill
#
# Bulk Modulus (GPa) = 60.28214 69.19896 64.74055
# Shear Modulus (GPa) = 32.45584 37.75010 35.10297
#
# Velocity S-wave (km/s) = 3.49685 3.77128 3.63665
# Velocity P-wave (km/s) = 6.24625 6.71078 6.48268
#
# Compressibility (1/GPa) = 0.01658866
#
# Stress axis : x y z
#
# Youngs Moduli (GPa) = 90.87078 72.29361 80.46038
#
# Poissons Ratio (x) = 0.36518 0.29477
# Poissons Ratio (y) = 0.45901 0.13064
# Poissons Ratio (z) = 0.33291 0.11738
#
# Static dielectric constant tensor:
#      x y z
#    x 5.362090 -0.138910 -0.224700 
#    y -0.138910 5.409410 0.328650 
#    z -0.224700 0.328650 4.841120 
# 
# 
# High freq. dielectric constant tensor:
#      x y z
#    x 2.070760 -0.006060 -0.011860 
#    y -0.006060 2.080900 -0.002580 
#    z -0.011860 -0.002580 2.064430 
# 
# From -- ./inp_files/244429.got.cif
#   From: 2010.06.25/outbox.cif.g09.slc.cpg/sg2_123_cif.got.tgz:244429.got - 2010.06.27 13:26:56.
