data_PCOD8007602
_publ_section_title
;
Structure prediction by ZEFSAII (Michael W. Deem and Ramdas Pophale) SiO2 
 PCOD8007602
Probable space group: P -1
;
_chemical_formula_sum "Si O2"
_cell_formula_units_Z 16
_cell_length_a 9.213129
_cell_length_b 16.061275
_cell_length_c 9.626944
_cell_angle_alpha 110.450000
_cell_angle_beta 78.068827
_cell_angle_gamma 48.562452
_cell_volume 782.328258
_symmetry_space_group_name_H-M "P -1"
_symmetry_group_IT_number 2
_symmetry_cell_setting 'triclinic'
loop_
_space_group_symop_operation_xyz
x,y,z
-x,-y,-z
loop_
_atom_site_type_symbol
_atom_site_label
_atom_site_fract_x
_atom_site_fract_y
_atom_site_fract_z
Si Si1 0.405338 0.619483 0.984404
Si Si2 0.378965 0.915679 0.724764
Si Si3 0.248918 0.416364 0.540091
Si Si4 0.052586 0.062397 0.615507
Si Si5 0.778781 0.903940 0.895011
Si Si6 0.788489 0.865191 0.572040
Si Si7 0.136280 0.535232 0.329271
Si Si8 0.284946 0.581486 0.701577
O O1 0.616700 0.588162 0.881837
O O2 0.309290 0.623080 0.862854
O O3 0.500000 0.500000 0.000000
O O4 0.205119 0.773132 0.192170
O O5 0.541397 0.753850 0.642524
O O6 0.535556 0.928468 0.658636
O O7 0.209200 0.962308 0.661461
O O8 0.215030 0.016732 0.952638
O O9 0.171014 0.507695 0.471071
O O10 0.325169 0.457318 0.655976
O O11 0.030237 0.467369 0.688647
O O12 0.212059 0.061916 0.506275
O O13 0.000000 0.000000 0.500000
O O14 0.828334 0.905708 0.726482
O O15 0.001529 0.730414 0.791713
O O16 0.500000 0.000000 0.000000
O O17 0.016042 0.688238 0.409488
O O18 0.500000 0.500000 0.500000
#
# Coordination Sequence:
#
# PCOD8007602 Si02
#       8
#     2   2   2   2   2   2   2   2
#     4  12  25  44  68  94 137 179 224 274 342 410
#     4  10  23  42  66  97 129 174 225 280 335 401
#     4  10  22  39  71  97 132 164 227 276 330 400
#     4  12  27  44  61  94 138 175 223 274 338 403
#     4  10  21  40  67 100 131 172 225 279 340 401
#     4  10  20  43  68  90 131 179 215 273 343 399
#     4  10  20  41  66 100 127 172 214 275 334 394
#     4  12  23  43  71 102 133 178 230 276 340 406
#
# _framework density 20.451772999999999
#
# number of rings (size 3 to 8) (size 9 to 14) (size 15 to 20)
#    0.000    1.250    5.000    0.375    3.500    1.000 
#    2.250    2.500    0.000    0.000    0.000    0.000 
#    0.000    0.000    0.000    0.000    0.000    0.000 
#
# Total GULP energy -198265.327964 kJ/mol
# GULP energy per Si atom -12391.582998 kJ/mol
# Density = 2.040522 g / cm^3
# Si number density = 20.451773 Si / 1000 Ang^3
#
#
#
# Elastic Constant Matrix: (Units=GPa)
#
#
# Indices 1 2 3 4 5 6 
#
# 1 110.1254 42.8004 63.2665 11.4537 14.4464 5.5377
# 2 42.8004 73.9483 24.7894 6.9457 5.0559 -6.4824
# 3 63.2665 24.7894 122.2287 11.5628 13.7199 -2.5239
# 4 11.4537 6.9457 11.5628 30.5177 -2.6533 4.0943
# 5 14.4464 5.0559 13.7199 -2.6533 38.8116 0.7186
# 6 5.5377 -6.4824 -2.5239 4.0943 0.7186 33.8199
#
#
#
# Elastic Compliance Matrix: (Units=1/GPa)
#
#
# Indices 1 2 3 4 5 6 
#
# 1 0.016554 -0.007370 -0.006684 -0.001668 -0.002872 -0.004359
# 2 -0.007370 0.018299 0.000422 -0.002235 -0.000036 0.005017
# 3 -0.006684 0.000422 0.012091 -0.002677 -0.002070 0.002446
# 4 -0.001668 -0.002235 -0.002677 0.035944 0.004405 -0.004800
# 5 -0.002872 -0.000036 -0.002070 0.004405 0.027887 -0.000817
# 6 -0.004359 0.005017 0.002446 -0.004800 -0.000817 0.032025
#
#
# Mechanical properties :
#
#
# Convention : Reuss Voigt Hill
#
# Bulk Modulus (GPa) = 50.80664 63.11276 56.95970
# Shear Modulus (GPa) = 28.30889 32.32624 30.31757
#
# Velocity S-wave (km/s) = 3.72449 3.98000 3.85436
# Velocity P-wave (km/s) = 6.58725 7.21435 6.90792
#
# Compressibility (1/GPa) = 0.01968247
#
# Stress axis : x y z
#
# Youngs Moduli (GPa) = 60.40823 54.64760 82.70424
#
# Poissons Ratio (x) = 0.40274 0.55276
# Poissons Ratio (y) = 0.44520 -0.03494
# Poissons Ratio (z) = 0.40374 -0.02309
#
# Static dielectric constant tensor:
#      x y z
#    x 3.992450 -0.196940 -0.099690 
#    y -0.196940 3.656070 0.190020 
#    z -0.099690 0.190020 4.048740 
# 
# 
# High freq. dielectric constant tensor:
#      x y z
#    x 1.799480 -0.007780 0.000770 
#    y -0.007780 1.794240 0.009060 
#    z 0.000770 0.009060 1.807250 
# 
# From -- ./inp_files/208291.got.cif
#   From: 2010.06.25/outbox.cif.g09.slc.cpg/sg2_105_cif.got.tgz:208291.got - 2010.06.27 13:26:56.
