data_PCOD8007909
_publ_section_title
;
Structure prediction by ZEFSAII (Michael W. Deem and Ramdas Pophale) SiO2 
 PCOD8007909
Probable space group: P -1
;
_chemical_formula_sum "Si O2"
_cell_formula_units_Z 16
_cell_length_a 18.700250
_cell_length_b 11.981586
_cell_length_c 8.808755
_cell_angle_alpha 127.345399
_cell_angle_beta 127.931706
_cell_angle_gamma 29.010506
_cell_volume 742.572208
_symmetry_space_group_name_H-M "P -1"
_symmetry_group_IT_number 2
_symmetry_cell_setting 'triclinic'
loop_
_space_group_symop_operation_xyz
x,y,z
-x,-y,-z
loop_
_atom_site_type_symbol
_atom_site_label
_atom_site_fract_x
_atom_site_fract_y
_atom_site_fract_z
Si Si1 0.142307 0.904515 0.173081
Si Si2 0.841240 0.170791 0.513027
Si Si3 0.157526 0.172968 0.248662
Si Si4 0.351312 0.133380 0.656442
Si Si5 0.160640 0.327996 0.851664
Si Si6 0.732026 0.038788 0.105033
Si Si7 0.605537 0.620579 0.990545
Si Si8 0.337769 0.348997 0.239996
O O1 0.136823 0.901292 0.344135
O O2 0.289464 0.646589 0.080747
O O3 0.142456 0.068859 0.268116
O O4 0.000000 0.000000 0.000000
O O5 0.744051 0.178870 0.301544
O O6 0.739595 0.434840 0.584242
O O7 0.000000 0.000000 0.500000
O O8 0.275938 0.147746 0.428133
O O9 0.999337 0.447769 0.250334
O O10 0.209642 0.033315 0.049122
O O11 0.283331 0.150792 0.734849
O O12 0.531071 0.884357 0.681709
O O13 0.322931 0.337133 0.785983
O O14 0.157474 0.196162 0.845454
O O15 0.205099 0.403904 0.077286
O O16 0.558881 0.207209 0.017888
O O17 0.588750 0.684984 0.846772
#
# Coordination Sequence:
#
# PCOD8007909 Si02
#       8
#     2   2   2   2   2   2   2   2
#     4  11  24  45  67  97 136 170 216 274 333 389
#     4  11  25  43  69  96 128 176 223 265 325 395
#     4  12  27  40  65 101 135 171 218 274 334 380
#     4  11  21  42  67 100 126 168 219 277 332 380
#     4  11  21  45  69  92 129 176 222 268 320 399
#     4  12  24  43  65  97 132 174 225 265 323 392
#     4  10  22  41  70  94 130 174 219 265 326 397
#     4  10  20  41  71  94 128 168 223 266 321 400
#
# _framework density 21.546726
#
# number of rings (size 3 to 8) (size 9 to 14) (size 15 to 20)
#    0.000    1.000    2.500    6.000    1.750    3.000 
#    2.250    0.000    0.000    0.000    0.000    0.000 
#    0.000    0.000    0.000    0.000    0.000    0.000 
#
# Total GULP energy -198476.116522 kJ/mol
# GULP energy per Si atom -12404.757283 kJ/mol
# Density = 2.149768 g / cm^3
# Si number density = 21.546726 Si / 1000 Ang^3
#
#
#
# Elastic Constant Matrix: (Units=GPa)
#
#
# Indices 1 2 3 4 5 6 
#
# 1 59.7364 21.7160 16.8839 7.5458 -2.5500 -5.0813
# 2 21.7160 124.2496 32.1110 0.7042 -1.0607 2.1709
# 3 16.8839 32.1110 140.2414 4.4891 9.5575 0.7834
# 4 7.5458 0.7042 4.4891 37.6626 -6.3310 2.9688
# 5 -2.5500 -1.0607 9.5575 -6.3310 31.3230 1.4789
# 6 -5.0813 2.1709 0.7834 2.9688 1.4789 26.5126
#
#
#
# Elastic Compliance Matrix: (Units=1/GPa)
#
#
# Indices 1 2 3 4 5 6 
#
# 1 0.019162 -0.002983 -0.001594 -0.003770 0.000979 0.004331
# 2 -0.002983 0.009060 -0.001795 0.000898 0.000860 -0.001409
# 3 -0.001594 -0.001795 0.007961 -0.001062 -0.002829 -0.000117
# 4 -0.003770 0.000898 -0.001062 0.028778 0.006068 -0.004326
# 5 0.000979 0.000860 -0.002829 0.006068 0.034237 -0.002388
# 6 0.004331 -0.001409 -0.000117 -0.004326 -0.002388 0.039284
#
#
# Mechanical properties :
#
#
# Convention : Reuss Voigt Hill
#
# Bulk Modulus (GPa) = 42.66397 51.73881 47.20139
# Shear Modulus (GPa) = 31.43887 36.00073 33.71980
#
# Velocity S-wave (km/s) = 3.82396 4.09200 3.96025
# Velocity P-wave (km/s) = 6.27221 6.81106 6.54718
#
# Compressibility (1/GPa) = 0.02343898
#
# Stress axis : x y z
#
# Youngs Moduli (GPa) = 52.18761 110.37024 125.61403
#
# Poissons Ratio (x) = 0.32923 0.20024
# Poissons Ratio (y) = 0.15568 0.22546
# Poissons Ratio (z) = 0.08319 0.19810
#
# Static dielectric constant tensor:
#      x y z
#    x 4.011840 0.002860 0.163190 
#    y 0.002860 4.086250 0.102130 
#    z 0.163190 0.102130 4.017570 
# 
# 
# High freq. dielectric constant tensor:
#      x y z
#    x 1.837790 -0.006140 0.010240 
#    y -0.006140 1.854270 0.007520 
#    z 0.010240 0.007520 1.854380 
# 
# From -- ./inp_files/190167.got.cif
#   From: 2010.06.25/outbox.cif.g09.slc.cpg/sg2_96_cif.got.tgz:190167.got - 2010.06.27 13:26:56.
