data_PCOD8007160
_publ_section_title
;
Structure prediction by ZEFSAII (Michael W. Deem and Ramdas Pophale) SiO2 
 PCOD8007160
Probable space group: P -1
;
_chemical_formula_sum "Si O2"
_cell_formula_units_Z 16
_cell_length_a 11.585842
_cell_length_b 18.078999
_cell_length_c 9.503150
_cell_angle_alpha 58.395113
_cell_angle_beta 131.586339
_cell_angle_gamma 150.620931
_cell_volume 722.349914
_symmetry_space_group_name_H-M "P -1"
_symmetry_group_IT_number 2
_symmetry_cell_setting 'triclinic'
loop_
_space_group_symop_operation_xyz
x,y,z
-x,-y,-z
loop_
_atom_site_type_symbol
_atom_site_label
_atom_site_fract_x
_atom_site_fract_y
_atom_site_fract_z
Si Si1 0.336900 0.507424 0.967505
Si Si2 0.949095 0.362309 0.543647
Si Si3 0.906266 0.376339 0.958840
Si Si4 0.800284 0.739998 0.809143
Si Si5 0.764486 0.131502 0.174702
Si Si6 0.914202 0.860544 0.061451
Si Si7 0.358622 0.681074 0.457469
Si Si8 0.765253 0.111757 0.512838
O O1 0.390238 0.428825 0.122605
O O2 0.594507 0.690156 0.980741
O O3 0.164174 0.429172 0.764575
O O4 0.167863 0.465074 0.001134
O O5 0.661888 0.256212 0.495016
O O6 0.917985 0.273602 0.491094
O O7 0.067906 0.498211 0.417851
O O8 0.653119 0.280650 0.744501
O O9 0.816005 0.257886 0.108059
O O10 0.000000 0.500000 0.000000
O O11 0.614275 0.736248 0.621325
O O12 0.981890 0.798883 0.763861
O O13 0.001953 0.862430 0.977832
O O14 0.716540 0.068176 0.352832
O O15 0.500000 0.000000 0.000000
O O16 0.057826 0.883702 0.286592
O O17 0.000000 0.000000 0.000000
O O18 0.500000 0.000000 0.500000
#
# Coordination Sequence:
#
# PCOD8007160 Si02
#       8
#     2   2   2   2   2   2   2   2
#     4  10  21  42  70  96 139 185 227 273 346 404
#     4  10  20  40  68 101 133 179 231 284 323 411
#     4  10  23  41  66  97 136 178 231 281 332 408
#     4  11  22  44  69  99 139 181 225 282 347 416
#     4  11  27  48  68  94 139 189 222 280 364 412
#     4  12  26  41  69 108 140 174 230 293 335 402
#     4  10  21  35  71 100 132 170 230 280 341 385
#     4  12  27  44  71  96 135 180 238 278 349 421
#
# _framework density 22.149930999999999
#
# number of rings (size 3 to 8) (size 9 to 14) (size 15 to 20)
#    0.000    1.250    2.500    2.625    5.250    3.000 
#    0.000    4.375    0.000    0.000    0.000    0.000 
#    0.000    0.000    0.000    0.000    0.000    0.000 
#
# Total GULP energy -198332.581824 kJ/mol
# GULP energy per Si atom -12395.786364 kJ/mol
# Density = 2.209952 g / cm^3
# Si number density = 22.149931 Si / 1000 Ang^3
#
#
#
# Elastic Constant Matrix: (Units=GPa)
#
#
# Indices 1 2 3 4 5 6 
#
# 1 100.2515 45.6848 66.3484 -3.2810 2.9666 -14.6525
# 2 45.6848 83.3419 24.9994 1.3904 -4.3803 -8.2933
# 3 66.3484 24.9994 136.6921 -3.6153 -3.3128 -0.1350
# 4 -3.2810 1.3904 -3.6153 31.2597 -0.4349 -0.0967
# 5 2.9666 -4.3803 -3.3128 -0.4349 44.0247 0.2725
# 6 -14.6525 -8.2933 -0.1350 -0.0967 0.2725 39.5655
#
#
#
# Elastic Compliance Matrix: (Units=1/GPa)
#
#
# Indices 1 2 3 4 5 6 
#
# 1 0.020178 -0.008164 -0.008324 0.001497 -0.002819 0.005756
# 2 -0.008164 0.016358 0.000988 -0.001438 0.002235 0.000390
# 3 -0.008324 0.000988 0.011220 0.000392 0.001525 -0.002847
# 4 0.001497 -0.001438 0.000392 0.032259 0.000102 0.000332
# 5 -0.002819 0.002235 0.001525 0.000102 0.023247 -0.000730
# 6 0.005756 0.000390 -0.002847 0.000332 -0.000730 0.027484
#
#
# Mechanical properties :
#
#
# Convention : Reuss Voigt Hill
#
# Bulk Modulus (GPa) = 59.68443 66.03898 62.86170
# Shear Modulus (GPa) = 29.88055 35.18684 32.53370
#
# Velocity S-wave (km/s) = 3.67688 3.99002 3.83664
# Velocity P-wave (km/s) = 6.71044 7.14886 6.93312
#
# Compressibility (1/GPa) = 0.01675479
#
# Stress axis : x y z
#
# Youngs Moduli (GPa) = 49.55853 61.13163 89.12663
#
# Poissons Ratio (x) = 0.49910 0.74190
# Poissons Ratio (y) = 0.40461 -0.08803
# Poissons Ratio (z) = 0.41253 -0.06038
#
# Static dielectric constant tensor:
#      x y z
#    x 4.787040 -0.411710 -0.177240 
#    y -0.411710 4.152790 -0.176520 
#    z -0.177240 -0.176520 4.185160 
# 
# 
# High freq. dielectric constant tensor:
#      x y z
#    x 1.879550 -0.012540 0.004870 
#    y -0.012540 1.866810 -0.011590 
#    z 0.004870 -0.011590 1.875050 
# 
# From -- ./inp_files/279246.got.cif
#   From: 2010.06.25/outbox.cif.g09.slc.cpg/sg2_140_cif.got.tgz:279246.got - 2010.06.27 13:26:56.
