data_PCOD8007346
_publ_section_title
;
Structure prediction by ZEFSAII (Michael W. Deem and Ramdas Pophale) SiO2 
 PCOD8007346
Probable space group: P -1
;
_chemical_formula_sum "Si O2"
_cell_formula_units_Z 14
_cell_length_a 7.953374
_cell_length_b 10.970690
_cell_length_c 14.041080
_cell_angle_alpha 111.318963
_cell_angle_beta 51.601465
_cell_angle_gamma 135.689551
_cell_volume 663.348244
_symmetry_space_group_name_H-M "P -1"
_symmetry_group_IT_number 2
_symmetry_cell_setting 'triclinic'
loop_
_space_group_symop_operation_xyz
x,y,z
-x,-y,-z
loop_
_atom_site_type_symbol
_atom_site_label
_atom_site_fract_x
_atom_site_fract_y
_atom_site_fract_z
Si Si1 0.474104 0.769244 0.949869
Si Si2 0.674926 0.311492 0.660308
Si Si3 0.567895 0.100409 0.179575
Si Si4 0.889960 0.291453 0.766471
Si Si5 0.030014 0.310051 0.384293
Si Si6 0.549202 0.379870 0.267442
Si Si7 0.893865 0.062753 0.196132
O O1 0.412335 0.873321 0.935067
O O2 0.406117 0.615832 0.862685
O O3 0.804796 0.890991 0.905206
O O4 0.274667 0.690021 0.089962
O O5 0.879563 0.361293 0.690621
O O6 0.725968 0.485314 0.675118
O O7 0.769663 0.267340 0.521981
O O8 0.342021 0.143391 0.752008
O O9 0.588528 0.251671 0.265412
O O10 0.807921 0.098351 0.136169
O O11 0.248506 0.908445 0.254531
O O12 0.226568 0.422775 0.713968
O O13 0.219609 0.289346 0.377637
O O14 0.891651 0.176836 0.307072
#
# Coordination Sequence:
#
# PCOD8007346 Si02
#       7
#     2   2   2   2   2   2   2
#     4   9  21  38  58  88 118 149 190 230 289 340
#     4  10  23  36  62  84 111 156 194 232 294 328
#     4   9  21  36  58  88 113 151 189 232 286 338
#     4  11  20  39  56  87 118 149 192 235 279 352
#     4  10  21  41  57  85 115 151 195 242 277 341
#     4   9  21  36  58  80 119 153 184 235 288 328
#     4  10  20  41  61  85 115 152 189 239 284 339
#
# _framework density 21.105052000000001
#
# number of rings (size 3 to 8) (size 9 to 14) (size 15 to 20)
#    0.857    1.429    0.000    2.143    2.000    2.857 
#    2.571    5.000    0.000    0.000    0.000    0.000 
#    0.000    0.000    0.000    0.000    0.000    0.000 
#
# Total GULP energy -173456.788365 kJ/mol
# GULP energy per Si atom -12389.770597 kJ/mol
# Density = 2.105702 g / cm^3
# Si number density = 21.105052 Si / 1000 Ang^3
#
#
#
# Elastic Constant Matrix: (Units=GPa)
#
#
# Indices 1 2 3 4 5 6 
#
# 1 143.3728 9.9268 25.5134 -39.1292 1.0143 40.8902
# 2 9.9268 87.0799 -1.8553 6.4191 6.3276 7.3650
# 3 25.5134 -1.8553 34.7272 -11.9455 2.9308 12.5098
# 4 -39.1292 6.4191 -11.9455 38.3199 12.6168 -24.9458
# 5 1.0143 6.3276 2.9308 12.6168 19.4497 -10.8775
# 6 40.8902 7.3650 12.5098 -24.9458 -10.8775 58.5630
#
#
#
# Elastic Compliance Matrix: (Units=1/GPa)
#
#
# Indices 1 2 3 4 5 6 
#
# 1 0.012250 -0.001214 -0.002215 0.012548 -0.010595 -0.004551
# 2 -0.001214 0.012497 0.001812 -0.003751 -0.003746 -0.003405
# 3 -0.002215 0.001812 0.037528 0.011269 -0.016181 -0.004903
# 4 0.012548 -0.003751 0.011269 0.060166 -0.035498 0.008339
# 5 -0.010595 -0.003746 -0.016181 -0.035498 0.085399 0.012067
# 6 -0.004551 -0.003405 -0.004903 0.008339 0.012067 0.027522
#
#
# Mechanical properties :
#
#
# Convention : Reuss Voigt Hill
#
# Bulk Modulus (GPa) = 16.93733 36.92776 26.93255
# Shear Modulus (GPa) = 19.35893 38.70620 29.03257
#
# Velocity S-wave (km/s) = 3.03192 4.28714 3.71296
# Velocity P-wave (km/s) = 4.50549 6.48392 5.58304
#
# Compressibility (1/GPa) = 0.05904117
#
# Stress axis : x y z
#
# Youngs Moduli (GPa) = 81.62964 80.01651 26.64659
#
# Poissons Ratio (x) = 0.09713 0.05903
# Poissons Ratio (y) = 0.09909 -0.04828
# Poissons Ratio (z) = 0.18084 -0.14498
#
# Static dielectric constant tensor:
#      x y z
#    x 3.850740 0.073390 0.091420 
#    y 0.073390 3.821470 0.064810 
#    z 0.091420 0.064810 3.398140 
# 
# 
# High freq. dielectric constant tensor:
#      x y z
#    x 1.828940 0.011590 0.003990 
#    y 0.011590 1.835980 0.006750 
#    z 0.003990 0.006750 1.794660 
# 
# From -- ./inp_files/267017.got.cif
#   From: 2010.06.25/outbox.cif.g09.slc.cpg/sg2_134_cif.got.tgz:267017.got - 2010.06.27 13:26:56.
