data_PCOD8007701
_publ_section_title
;
Structure prediction by ZEFSAII (Michael W. Deem and Ramdas Pophale) SiO2 
 PCOD8007701
Probable space group: P -1
;
_chemical_formula_sum "Si O2"
_cell_formula_units_Z 14
_cell_length_a 7.125148
_cell_length_b 15.428885
_cell_length_c 9.095392
_cell_angle_alpha 60.560045
_cell_angle_beta 129.780274
_cell_angle_gamma 125.991022
_cell_volume 610.911546
_symmetry_space_group_name_H-M "P -1"
_symmetry_group_IT_number 2
_symmetry_cell_setting 'triclinic'
loop_
_space_group_symop_operation_xyz
x,y,z
-x,-y,-z
loop_
_atom_site_type_symbol
_atom_site_label
_atom_site_fract_x
_atom_site_fract_y
_atom_site_fract_z
Si Si1 0.709103 0.826962 0.369788
Si Si2 0.292582 0.152330 0.314623
Si Si3 0.302100 0.617283 0.784849
Si Si4 0.155719 0.812756 0.110076
Si Si5 0.245927 0.387728 0.480475
Si Si6 0.755678 0.596425 0.201692
Si Si7 0.869211 0.044958 0.771909
O O1 0.758100 0.878494 0.514075
O O2 0.435258 0.827112 0.165862
O O3 0.688240 0.705055 0.486280
O O4 0.932531 0.891604 0.311930
O O5 0.533864 0.268292 0.309061
O O6 0.359805 0.060169 0.336832
O O7 0.004923 0.140400 0.116465
O O8 0.240868 0.522239 0.712066
O O9 0.026416 0.610795 0.724995
O O10 0.466751 0.593982 0.018258
O O11 0.983641 0.683351 0.143785
O O12 0.226491 0.872176 0.258063
O O13 0.500000 0.500000 0.500000
O O14 0.178127 0.358739 0.639780
O O15 0.000000 0.000000 0.000000
#
# Coordination Sequence:
#
# PCOD8007701 Si02
#       7
#     2   2   2   2   2   2   2
#     4  12  24  41  66  99 130 169 219 267 326 378
#     4  10  23  42  65  95 129 168 221 268 318 385
#     4  10  22  40  65  93 128 173 214 262 323 382
#     4  10  22  44  67  93 130 173 216 265 325 384
#     4  12  24  38  62  99 134 166 213 265 322 391
#     4  10  20  41  67  89 129 175 210 263 325 379
#     4  10  23  45  66  95 128 174 223 262 326 380
#
# _framework density 22.916575000000002
#
# number of rings (size 3 to 8) (size 9 to 14) (size 15 to 20)
#    0.000    1.429    1.429    3.429    0.000    4.571 
#    2.571    0.000    0.000    0.000    0.000    0.000 
#    0.000    0.000    0.000    0.000    0.000    0.000 
#
# Total GULP energy -173568.996359 kJ/mol
# GULP energy per Si atom -12397.785454 kJ/mol
# Density = 2.286442 g / cm^3
# Si number density = 22.916575 Si / 1000 Ang^3
#
#
#
# Elastic Constant Matrix: (Units=GPa)
#
#
# Indices 1 2 3 4 5 6 
#
# 1 84.3675 28.8957 23.4365 -8.8694 18.2910 -0.1094
# 2 28.8957 136.0438 21.4107 -2.4535 2.9106 -7.2681
# 3 23.4365 21.4107 52.4877 -0.0243 3.4000 -4.6878
# 4 -8.8694 -2.4535 -0.0243 29.3908 -0.6990 -4.9734
# 5 18.2910 2.9106 3.4000 -0.6990 39.0601 -5.1272
# 6 -0.1094 -7.2681 -4.6878 -4.9734 -5.1272 31.9330
#
#
#
# Elastic Compliance Matrix: (Units=1/GPa)
#
#
# Indices 1 2 3 4 5 6 
#
# 1 0.016329 -0.002391 -0.006019 0.004240 -0.007112 -0.001853
# 2 -0.002391 0.008286 -0.002216 0.000286 0.000930 0.001746
# 3 -0.006019 -0.002216 0.022807 -0.001475 0.001341 0.002808
# 4 0.004240 0.000286 -0.001475 0.036232 -0.000518 0.005423
# 5 -0.007112 0.000930 0.001341 -0.000518 0.029396 0.005023
# 6 -0.001853 0.001746 0.002808 0.005423 0.005023 0.033770
#
#
# Mechanical properties :
#
#
# Convention : Reuss Voigt Hill
#
# Bulk Modulus (GPa) = 38.21281 46.70942 42.46112
# Shear Modulus (GPa) = 28.28130 33.35386 30.81758
#
# Velocity S-wave (km/s) = 3.51678 3.81917 3.67109
# Velocity P-wave (km/s) = 5.76206 6.31464 6.04467
#
# Compressibility (1/GPa) = 0.02616923
#
# Stress axis : x y z
#
# Youngs Moduli (GPa) = 61.24028 120.68735 43.84650
#
# Poissons Ratio (x) = 0.28862 0.26389
# Poissons Ratio (y) = 0.14646 0.09718
# Poissons Ratio (z) = 0.36858 0.26748
#
# Static dielectric constant tensor:
#      x y z
#    x 3.948450 -0.258050 0.117290 
#    y -0.258050 4.535380 0.050870 
#    z 0.117290 0.050870 4.163520 
# 
# 
# High freq. dielectric constant tensor:
#      x y z
#    x 1.887250 -0.004810 0.009520 
#    y -0.004810 1.926360 -0.000060 
#    z 0.009520 -0.000060 1.908950 
# 
# From -- ./inp_files/135063.got.cif
#   From: 2010.06.25/outbox.cif.g09.slc.cpg/sg2_68_cif.got.tgz:135063.got - 2010.06.27 13:26:56.
