data_PCOD8007993
_publ_section_title
;
Structure prediction by ZEFSAII (Michael W. Deem and Ramdas Pophale) SiO2 
 PCOD8007993
Probable space group: P -1
;
_chemical_formula_sum "Si O2"
_cell_formula_units_Z 14
_cell_length_a 11.707977
_cell_length_b 11.973793
_cell_length_c 15.399579
_cell_angle_alpha 29.847235
_cell_angle_beta 39.026321
_cell_angle_gamma 49.300825
_cell_volume 674.920751
_symmetry_space_group_name_H-M "P -1"
_symmetry_group_IT_number 2
_symmetry_cell_setting 'triclinic'
loop_
_space_group_symop_operation_xyz
x,y,z
-x,-y,-z
loop_
_atom_site_type_symbol
_atom_site_label
_atom_site_fract_x
_atom_site_fract_y
_atom_site_fract_z
Si Si1 0.125115 0.742728 0.526774
Si Si2 0.631473 0.372999 0.856753
Si Si3 0.265715 0.115358 0.317262
Si Si4 0.695219 0.073915 0.872295
Si Si5 0.214435 0.874261 0.929385
Si Si6 0.444337 0.162836 0.350834
Si Si7 0.830578 0.780153 0.146066
O O1 0.161787 0.869657 0.327597
O O2 0.191218 0.490087 0.658886
O O3 0.912612 0.741298 0.678110
O O4 0.239876 0.880727 0.439654
O O5 0.670859 0.306552 0.779953
O O6 0.637621 0.637881 0.682733
O O7 0.435755 0.261881 0.078027
O O8 0.803184 0.294820 0.864018
O O9 0.299661 0.057043 0.437765
O O10 0.500000 0.000000 0.000000
O O11 0.759644 0.878399 0.030779
O O12 0.371482 0.765738 0.856258
O O13 0.269029 0.120006 0.776883
O O14 0.039569 0.874546 0.971746
O O15 0.500000 0.000000 0.500000
#
# Coordination Sequence:
#
# PCOD8007993 Si02
#       7
#     2   2   2   2   2   2   2
#     4  11  23  41  67  88 125 163 204 251 301 367
#     4  10  20  42  63  83 128 161 197 256 303 355
#     4  10  22  43  60  89 123 165 201 246 310 356
#     4  11  24  41  62  94 123 161 203 250 307 365
#     4   9  20  41  59  88 122 162 197 250 309 351
#     4  11  23  35  62  92 120 158 207 245 300 368
#     4  10  22  40  65  89 124 159 203 253 305 361
#
# _framework density 20.743176999999999
#
# number of rings (size 3 to 8) (size 9 to 14) (size 15 to 20)
#    0.000    1.714    1.429    3.429    4.000    1.714 
#    0.000    4.286    0.000    0.000    0.000    0.000 
#    0.000    0.000    0.000    0.000    0.000    0.000 
#
# Total GULP energy -173466.577365 kJ/mol
# GULP energy per Si atom -12390.469812 kJ/mol
# Density = 2.069596 g / cm^3
# Si number density = 20.743177 Si / 1000 Ang^3
#
#
#
# Elastic Constant Matrix: (Units=GPa)
#
#
# Indices 1 2 3 4 5 6 
#
# 1 153.2078 42.8875 37.3729 -17.1972 8.6401 7.8772
# 2 42.8875 124.1276 24.6830 -26.1535 8.5171 13.2872
# 3 37.3729 24.6830 55.0161 -15.6873 7.7326 5.0428
# 4 -17.1972 -26.1535 -15.6873 38.3641 -6.5861 -2.3001
# 5 8.6401 8.5171 7.7326 -6.5861 21.7306 1.8236
# 6 7.8772 13.2872 5.0428 -2.3001 1.8236 38.0144
#
#
#
# Elastic Compliance Matrix: (Units=1/GPa)
#
#
# Indices 1 2 3 4 5 6 
#
# 1 0.008241 -0.001743 -0.004524 0.000493 -0.000798 -0.000430
# 2 -0.001743 0.010465 -0.001592 0.005369 -0.000987 -0.002713
# 3 -0.004524 -0.001592 0.024406 0.006053 -0.004329 -0.001170
# 4 0.000493 0.005369 0.006053 0.033345 0.005739 -0.001040
# 5 -0.000798 -0.000987 -0.004329 0.005739 0.050083 -0.000971
# 6 -0.000430 -0.002713 -0.001170 -0.001040 -0.000971 0.027482
#
#
# Mechanical properties :
#
#
# Convention : Reuss Voigt Hill
#
# Bulk Modulus (GPa) = 36.50661 60.24870 48.37766
# Shear Modulus (GPa) = 27.95296 34.78236 31.36766
#
# Velocity S-wave (km/s) = 3.67491 4.09933 3.89291
# Velocity P-wave (km/s) = 5.97028 7.17733 6.60145
#
# Compressibility (1/GPa) = 0.02739230
#
# Stress axis : x y z
#
# Youngs Moduli (GPa) = 121.34363 95.56058 40.97408
#
# Poissons Ratio (x) = 0.16657 0.18536
# Poissons Ratio (y) = 0.21151 0.06525
# Poissons Ratio (z) = 0.54895 0.15218
#
# Static dielectric constant tensor:
#      x y z
#    x 3.962110 0.044100 -0.187070 
#    y 0.044100 4.200920 -0.276280 
#    z -0.187070 -0.276280 3.435400 
# 
# 
# High freq. dielectric constant tensor:
#      x y z
#    x 1.830360 0.004010 0.000070 
#    y 0.004010 1.835810 -0.000800 
#    z 0.000070 -0.000800 1.770510 
# 
# From -- ./inp_files/189593.got.cif
#   From: 2010.06.25/outbox.cif.g09.slc.cpg/sg2_95_cif.got.tgz:189593.got - 2010.06.27 13:26:56.
