data_PCOD8007235
_publ_section_title
;
Structure prediction by ZEFSAII (Michael W. Deem and Ramdas Pophale) SiO2 
 PCOD8007235
Probable space group: P -1
;
_chemical_formula_sum "Si O2"
_cell_formula_units_Z 16
_cell_length_a 11.100852
_cell_length_b 12.556149
_cell_length_c 5.138937
_cell_angle_alpha 82.621874
_cell_angle_beta 79.040077
_cell_angle_gamma 72.196663
_cell_volume 667.648962
_symmetry_space_group_name_H-M "P -1"
_symmetry_group_IT_number 2
_symmetry_cell_setting 'triclinic'
loop_
_space_group_symop_operation_xyz
x,y,z
-x,-y,-z
loop_
_atom_site_type_symbol
_atom_site_label
_atom_site_fract_x
_atom_site_fract_y
_atom_site_fract_z
Si Si1 0.689220 0.691520 0.169646
Si Si2 0.211258 0.763001 0.328798
Si Si3 0.059907 0.393611 0.683708
Si Si4 0.182990 0.198130 0.320252
Si Si5 0.595016 0.921268 0.290202
Si Si6 0.670351 0.036982 0.789713
Si Si7 0.472807 0.576897 0.236569
Si Si8 0.058140 0.743237 0.904464
O O1 0.809455 0.590708 0.252082
O O2 0.669643 0.791040 0.370750
O O3 0.565352 0.654190 0.184904
O O4 0.723247 0.738902 0.868516
O O5 0.251847 0.875430 0.326745
O O6 0.329157 0.656112 0.245812
O O7 0.153960 0.727542 0.626798
O O8 0.114615 0.792063 0.114898
O O9 0.093011 0.276246 0.548323
O O10 0.000000 0.500000 0.500000
O O11 0.963190 0.377182 0.957078
O O12 0.081310 0.176897 0.153617
O O13 0.274263 0.070719 0.409769
O O14 0.481715 0.901084 0.155240
O O15 0.500000 0.000000 0.500000
O O16 0.693148 0.976636 0.082376
O O17 0.500000 0.500000 0.500000
O O18 0.500000 0.500000 0.000000
#
# Coordination Sequence:
#
# PCOD8007235 Si02
#       8
#     2   2   2   2   2   2   2   2
#     4  10  24  44  70 107 141 187 242 301 364 420
#     4  12  26  48  72 105 148 193 236 290 370 435
#     4  11  25  45  77 101 141 189 247 301 356 418
#     4  10  23  47  70 106 140 183 246 297 354 426
#     4  10  20  40  69 104 148 181 245 294 359 432
#     4  10  23  40  69 103 139 191 233 298 359 429
#     4  12  29  47  72 104 147 190 240 298 359 433
#     4  11  26  48  71 103 148 187 243 292 358 435
#
# _framework density 23.964690000000001
#
# number of rings (size 3 to 8) (size 9 to 14) (size 15 to 20)
#    0.000    1.250    2.500    1.500    5.250    6.000 
#    0.000    0.000    0.000    0.000    0.000    0.000 
#    0.000    0.000    0.000    0.000    0.000    0.000 
#
# Total GULP energy -198227.952971 kJ/mol
# GULP energy per Si atom -12389.247061 kJ/mol
# Density = 2.391015 g / cm^3
# Si number density = 23.964690 Si / 1000 Ang^3
#
#
#
# Elastic Constant Matrix: (Units=GPa)
#
#
# Indices 1 2 3 4 5 6 
#
# 1 71.1427 28.7519 32.3483 -17.8022 -29.5426 -6.0959
# 2 28.7519 125.9698 49.6899 -5.3480 -17.3301 -15.2308
# 3 32.3483 49.6899 143.7108 0.0195 -24.3613 1.2842
# 4 -17.8022 -5.3480 0.0195 40.1350 -0.4787 6.2739
# 5 -29.5426 -17.3301 -24.3613 -0.4787 37.1840 -6.8883
# 6 -6.0959 -15.2308 1.2842 6.2739 -6.8883 36.0660
#
#
#
# Elastic Compliance Matrix: (Units=1/GPa)
#
#
# Indices 1 2 3 4 5 6 
#
# 1 0.027916 -0.001273 -0.002270 0.011475 0.021424 0.006357
# 2 -0.001273 0.010320 -0.002847 0.000101 0.002817 0.004765
# 3 -0.002270 -0.002847 0.008879 -0.001169 0.002444 -0.001232
# 4 0.011475 0.000101 -0.001169 0.030377 0.008486 -0.001640
# 5 0.021424 0.002817 0.002444 0.008486 0.049283 0.012660
# 6 0.006357 0.004765 -0.001232 -0.001640 0.012660 0.033561
#
#
# Mechanical properties :
#
#
# Convention : Reuss Voigt Hill
#
# Bulk Modulus (GPa) = 29.12494 62.48929 45.80712
# Shear Modulus (GPa) = 27.09144 38.01255 32.55199
#
# Velocity S-wave (km/s) = 3.36590 3.98702 3.68955
# Velocity P-wave (km/s) = 5.22354 6.87948 6.10789
#
# Compressibility (1/GPa) = 0.03433483
#
# Stress axis : x y z
#
# Youngs Moduli (GPa) = 35.82235 96.90080 112.62416
#
# Poissons Ratio (x) = 0.12335 0.25567
# Poissons Ratio (y) = 0.04560 0.32061
# Poissons Ratio (z) = 0.08132 0.27585
#
# Static dielectric constant tensor:
#      x y z
#    x 2.238010 1.200350 1.089340 
#    y 1.200350 3.513550 -0.391180 
#    z 1.089340 -0.391180 4.108040 
# 
# 
# High freq. dielectric constant tensor:
#      x y z
#    x 1.975720 -0.017550 0.005480 
#    y -0.017550 1.939750 0.001030 
#    z 0.005480 0.001030 1.963040 
# 
# From -- ./inp_files/69704.got.cif
#   From: 2010.06.25/outbox.cif.g09.slc.cpg/sg2_35_cif.got.tgz:69704.got - 2010.06.27 13:26:56.
