data_PCOD8007835
_publ_section_title
;
Structure prediction by ZEFSAII (Michael W. Deem and Ramdas Pophale) SiO2 
 PCOD8007835
Probable space group: P -1
;
_chemical_formula_sum "Si O2"
_cell_formula_units_Z 16
_cell_length_a 18.898649
_cell_length_b 16.950393
_cell_length_c 12.084781
_cell_angle_alpha 148.081352
_cell_angle_beta 41.554851
_cell_angle_gamma 159.629668
_cell_volume 688.423755
_symmetry_space_group_name_H-M "P -1"
_symmetry_group_IT_number 2
_symmetry_cell_setting 'triclinic'
loop_
_space_group_symop_operation_xyz
x,y,z
-x,-y,-z
loop_
_atom_site_type_symbol
_atom_site_label
_atom_site_fract_x
_atom_site_fract_y
_atom_site_fract_z
Si Si1 0.794923 0.852442 0.071486
Si Si2 0.344587 0.602120 0.220622
Si Si3 0.062724 0.848465 0.955369
Si Si4 0.538321 0.811327 0.693188
Si Si5 0.277889 0.817636 0.662487
Si Si6 0.894082 0.112843 0.492475
Si Si7 0.120443 0.146630 0.417529
Si Si8 0.706159 0.214463 0.156163
O O1 0.772144 0.900959 0.035700
O O2 0.825691 0.005112 0.317432
O O3 0.611301 0.505556 0.898240
O O4 0.000000 0.000000 0.000000
O O5 0.228427 0.584595 0.415460
O O6 0.175459 0.379823 0.055327
O O7 0.564860 0.927757 0.309559
O O8 0.072671 0.678579 0.741520
O O9 0.135677 0.000296 0.170296
O O10 0.353818 0.488088 0.576253
O O11 0.441858 0.829885 0.759447
O O12 0.678694 0.880965 0.532409
O O13 0.689296 0.055800 0.903665
O O14 0.383510 0.948289 0.815039
O O15 0.008081 0.110051 0.411680
O O16 0.049702 0.442806 0.709635
O O17 0.000000 0.000000 0.500000
#
# Coordination Sequence:
#
# PCOD8007835 Si02
#       8
#     2   2   2   2   2   2   2   2
#     4  10  20  41  69  92 132 169 218 270 319 391
#     4  10  23  42  62  95 133 168 218 270 325 388
#     4  11  24  42  66  96 131 175 214 265 334 385
#     4  10  25  42  67  96 126 176 227 265 325 390
#     4  11  25  39  66  96 132 173 214 269 335 390
#     4  11  22  43  72  96 125 180 219 270 330 386
#     4  11  26  42  65  98 136 167 222 276 323 389
#     4  10  23  44  63  93 138 164 223 274 321 391
#
# _framework density 23.241499000000001
#
# number of rings (size 3 to 8) (size 9 to 14) (size 15 to 20)
#    0.000    1.500    2.500    2.250    7.000    4.000 
#    0.000    0.000    0.000    0.000    0.000    0.000 
#    0.000    0.000    0.000    0.000    0.000    0.000 
#
# Total GULP energy -198366.650176 kJ/mol
# GULP energy per Si atom -12397.915636 kJ/mol
# Density = 2.318860 g / cm^3
# Si number density = 23.241499 Si / 1000 Ang^3
#
#
#
# Elastic Constant Matrix: (Units=GPa)
#
#
# Indices 1 2 3 4 5 6 
#
# 1 51.4470 -1.3896 29.2023 -7.3415 7.1328 -16.6310
# 2 -1.3896 93.2653 39.8578 -9.1920 9.9759 -8.6212
# 3 29.2023 39.8578 147.7442 -13.2676 7.9762 -8.5605
# 4 -7.3415 -9.1920 -13.2676 33.9099 -3.7026 5.8125
# 5 7.1328 9.9759 7.9762 -3.7026 32.9681 -6.9849
# 6 -16.6310 -8.6212 -8.5605 5.8125 -6.9849 25.0802
#
#
#
# Elastic Compliance Matrix: (Units=1/GPa)
#
#
# Indices 1 2 3 4 5 6 
#
# 1 0.029331 0.005046 -0.005795 0.002094 -0.002412 0.018050
# 2 0.005046 0.013501 -0.003999 0.001955 -0.002851 0.005375
# 3 -0.005795 -0.003999 0.008994 0.001608 -0.000070 -0.002539
# 4 0.002094 0.001955 0.001608 0.032001 0.001213 -0.004469
# 5 -0.002412 -0.002851 -0.000070 0.001213 0.033219 0.006367
# 6 0.018050 0.005375 -0.002539 -0.004469 0.006367 0.055631
#
#
# Mechanical properties :
#
#
# Convention : Reuss Voigt Hill
#
# Bulk Modulus (GPa) = 23.62349 47.53305 35.57827
# Shear Modulus (GPa) = 25.47375 33.37737 29.42556
#
# Velocity S-wave (km/s) = 3.31425 3.79372 3.56206
# Velocity P-wave (km/s) = 4.98318 6.29968 5.67970
#
# Compressibility (1/GPa) = 0.04233074
#
# Stress axis : x y z
#
# Youngs Moduli (GPa) = 34.09383 74.07064 111.19075
#
# Poissons Ratio (x) = -0.37377 0.64431
# Poissons Ratio (y) = -0.17204 0.44461
# Poissons Ratio (z) = 0.19756 0.29618
#
# Static dielectric constant tensor:
#      x y z
#    x 4.364310 -0.314700 -0.323630 
#    y -0.314700 4.215990 0.236600 
#    z -0.323630 0.236600 4.811850 
# 
# 
# High freq. dielectric constant tensor:
#      x y z
#    x 1.913070 -0.004720 -0.006080 
#    y -0.004720 1.915180 -0.004490 
#    z -0.006080 -0.004490 1.930230 
# 
# From -- ./inp_files/472502.got.cif
#   From: 2010.06.25/outbox.cif.g09.slc.cpg/sg2_237_cif.got.tgz:472502.got - 2010.06.27 13:26:56.
