data_PCOD8007189
_publ_section_title
;
Structure prediction by ZEFSAII (Michael W. Deem and Ramdas Pophale) SiO2 
 PCOD8007189
Probable space group: P -1
;
_chemical_formula_sum "Si O2"
_cell_formula_units_Z 16
_cell_length_a 9.346455
_cell_length_b 11.999996
_cell_length_c 14.474876
_cell_angle_alpha 62.293627
_cell_angle_beta 138.840932
_cell_angle_gamma 95.259785
_cell_volume 847.891896
_symmetry_space_group_name_H-M "P -1"
_symmetry_group_IT_number 2
_symmetry_cell_setting 'triclinic'
loop_
_space_group_symop_operation_xyz
x,y,z
-x,-y,-z
loop_
_atom_site_type_symbol
_atom_site_label
_atom_site_fract_x
_atom_site_fract_y
_atom_site_fract_z
Si Si1 0.491750 0.273248 0.831588
Si Si2 0.800191 0.201817 0.488548
Si Si3 0.475998 0.531691 0.627846
Si Si4 0.763778 0.971975 0.101112
Si Si5 0.158839 0.245114 0.525043
Si Si6 0.317886 0.241630 0.956583
Si Si7 0.281334 0.952278 0.640193
Si Si8 0.141156 0.502791 0.321181
O O1 0.552530 0.400808 0.785381
O O2 0.290960 0.269105 0.668031
O O3 0.382792 0.297549 0.872110
O O4 0.736416 0.124864 0.997491
O O5 0.617560 0.323908 0.417446
O O6 0.656596 0.120439 0.403375
O O7 0.030852 0.087878 0.698983
O O8 0.898649 0.264613 0.428770
O O9 0.266038 0.540730 0.453418
O O10 0.714147 0.512229 0.696617
O O11 0.814369 0.859965 0.086681
O O12 0.500000 0.000000 0.000000
O O13 0.121883 0.358979 0.384772
O O14 0.320623 0.092457 0.615591
O O15 0.128137 0.373689 0.870814
O O16 0.561657 0.161428 0.163830
O O17 0.000000 0.000000 0.500000
#
# Coordination Sequence:
#
# PCOD8007189 Si02
#       8
#     2   2   2   2   2   2   2   2
#     4  10  17  31  57  83 107 135 177 228 269 316
#     4  11  19  35  56  81 111 141 174 220 276 319
#     4  10  21  36  52  81 112 142 180 225 267 308
#     4  10  16  30  54  84 103 131 177 223 262 314
#     4  10  17  33  55  82 107 140 177 219 275 317
#     4  11  18  34  57  85 106 140 181 218 271 318
#     4  10  21  34  55  86 113 136 173 228 272 318
#     4  10  21  35  55  79 110 143 184 224 259 317
#
# _framework density 18.870329000000002
#
# number of rings (size 3 to 8) (size 9 to 14) (size 15 to 20)
#    0.000    1.750    5.000    3.000    0.000    2.000 
#    0.000   10.000    0.000    0.000    0.000    0.000 
#    0.000    0.000    0.000    0.000    0.000    0.000 
#
# Total GULP energy -198328.949732 kJ/mol
# GULP energy per Si atom -12395.559358 kJ/mol
# Density = 1.882738 g / cm^3
# Si number density = 18.870329 Si / 1000 Ang^3
#
#
#
# Elastic Constant Matrix: (Units=GPa)
#
#
# Indices 1 2 3 4 5 6 
#
# 1 90.4079 53.1136 47.1486 -19.8761 6.0497 -14.6257
# 2 53.1136 97.3173 52.1946 -19.3675 0.8834 -26.1548
# 3 47.1486 52.1946 107.2401 -19.8376 -1.6512 -1.7565
# 4 -19.8761 -19.3675 -19.8376 37.6549 -5.3785 -1.8084
# 5 6.0497 0.8834 -1.6512 -5.3785 9.7739 1.6652
# 6 -14.6257 -26.1548 -1.7565 -1.8084 1.6652 21.0319
#
#
#
# Elastic Compliance Matrix: (Units=1/GPa)
#
#
# Indices 1 2 3 4 5 6 
#
# 1 0.019864 -0.004232 -0.006005 0.003821 -0.012420 0.009362
# 2 -0.004232 0.028181 -0.009839 0.008263 -0.002528 0.032192
# 3 -0.006005 -0.009839 0.016944 0.001509 0.010980 -0.015736
# 4 0.003821 0.008263 0.001509 0.036430 0.014629 0.015033
# 5 -0.012420 -0.002528 0.010980 0.014629 0.123435 -0.019378
# 6 0.009362 0.032192 -0.015736 0.015033 -0.019378 0.095602
#
#
# Mechanical properties :
#
#
# Convention : Reuss Voigt Hill
#
# Bulk Modulus (GPa) = 40.25953 66.65321 53.45637
# Shear Modulus (GPa) = 13.55427 23.19272 18.37349
#
# Velocity S-wave (km/s) = 2.68299 3.50959 3.12376
# Velocity P-wave (km/s) = 5.56588 7.19871 6.43430
#
# Compressibility (1/GPa) = 0.02483884
#
# Stress axis : x y z
#
# Youngs Moduli (GPa) = 50.34179 35.48477 59.01792
#
# Poissons Ratio (x) = 0.15016 0.35440
# Poissons Ratio (y) = 0.21303 0.58066
# Poissons Ratio (z) = 0.30230 0.34912
#
# Static dielectric constant tensor:
#      x y z
#    x 3.181790 -0.122320 -0.169980 
#    y -0.122320 4.087440 -0.266860 
#    z -0.169980 -0.266860 3.527600 
# 
# 
# High freq. dielectric constant tensor:
#      x y z
#    x 1.691210 -0.015830 -0.010040 
#    y -0.015830 1.740130 -0.021070 
#    z -0.010040 -0.021070 1.729270 
# 
# From -- ./inp_files/215852.got.cif
#   From: 2010.06.25/outbox.cif.g09.slc.cpg/sg2_108_cif.got.tgz:215852.got - 2010.06.27 13:26:56.
