data_PCOD8007335
_publ_section_title
;
Structure prediction by ZEFSAII (Michael W. Deem and Ramdas Pophale) SiO2 
 PCOD8007335
Probable space group: P -1
;
_chemical_formula_sum "Si O2"
_cell_formula_units_Z 16
_cell_length_a 11.828585
_cell_length_b 9.461712
_cell_length_c 11.066530
_cell_angle_alpha 125.150135
_cell_angle_beta 65.608630
_cell_angle_gamma 84.703045
_cell_volume 826.757907
_symmetry_space_group_name_H-M "P -1"
_symmetry_group_IT_number 2
_symmetry_cell_setting 'triclinic'
loop_
_space_group_symop_operation_xyz
x,y,z
-x,-y,-z
loop_
_atom_site_type_symbol
_atom_site_label
_atom_site_fract_x
_atom_site_fract_y
_atom_site_fract_z
Si Si1 0.364748 0.084154 0.017327
Si Si2 0.615241 0.788895 0.194277
Si Si3 0.141455 0.004594 0.406339
Si Si4 0.372637 0.595912 0.013260
Si Si5 0.861474 0.658333 0.583519
Si Si6 0.668744 0.592897 0.462114
Si Si7 0.328617 0.075063 0.533694
Si Si8 0.600921 0.308834 0.214032
O O1 0.246805 0.268062 0.223180
O O2 0.400534 0.142443 0.901847
O O3 0.500000 0.000000 0.000000
O O4 0.310384 0.922385 0.939873
O O5 0.699720 0.868596 0.283712
O O6 0.460373 0.867716 0.357207
O O7 0.691241 0.556394 0.050245
O O8 0.116759 0.164110 0.393465
O O9 0.194141 0.065568 0.534748
O O10 0.253214 0.797158 0.210003
O O11 0.000000 0.000000 0.500000
O O12 0.500000 0.500000 0.000000
O O13 0.436076 0.620633 0.871763
O O14 0.806963 0.556837 0.457087
O O15 0.000000 0.500000 0.500000
O O16 0.632576 0.770034 0.474376
O O17 0.692310 0.401513 0.282924
O O18 0.542637 0.640958 0.631794
#
# Coordination Sequence:
#
# PCOD8007335 Si02
#       8
#     2   2   2   2   2   2   2   2
#     4  12  21  41  65  93 123 162 208 256 308 363
#     4  11  22  36  64  95 125 157 202 255 315 365
#     4  11  25  44  63  88 126 166 205 257 308 364
#     4  12  23  38  63  99 123 158 210 259 300 366
#     4  11  25  44  63  88 126 166 207 252 310 369
#     4  10  21  38  63  91 128 161 198 254 317 360
#     4  10  20  41  59  93 131 158 197 256 317 361
#     4  11  21  38  64  95 124 160 203 257 310 362
#
# _framework density 19.352702000000001
#
# number of rings (size 3 to 8) (size 9 to 14) (size 15 to 20)
#    0.000    1.000    6.250    1.500    1.750    0.000 
#    2.250    2.500    0.000    0.000    0.000    0.000 
#    0.000    0.000    0.000    0.000    0.000    0.000 
#
# Total GULP energy -198378.809801 kJ/mol
# GULP energy per Si atom -12398.675613 kJ/mol
# Density = 1.930865 g / cm^3
# Si number density = 19.352702 Si / 1000 Ang^3
#
#
#
# Elastic Constant Matrix: (Units=GPa)
#
#
# Indices 1 2 3 4 5 6 
#
# 1 115.8695 44.4527 64.8790 1.8795 0.9737 -1.0871
# 2 44.4527 98.2261 49.1191 1.3975 5.0839 -4.2252
# 3 64.8790 49.1191 111.5653 7.1959 8.8931 -7.4115
# 4 1.8795 1.3975 7.1959 42.4361 -3.4905 5.7670
# 5 0.9737 5.0839 8.8931 -3.4905 27.5297 4.9609
# 6 -1.0871 -4.2252 -7.4115 5.7670 4.9609 33.8098
#
#
#
# Elastic Compliance Matrix: (Units=1/GPa)
#
#
# Indices 1 2 3 4 5 6 
#
# 1 0.013661 -0.002876 -0.007127 0.001223 0.002886 -0.002115
# 2 -0.002876 0.013684 -0.004213 0.000179 -0.001193 0.000839
# 3 -0.007127 -0.004213 0.015855 -0.003212 -0.005226 0.004035
# 4 0.001223 0.000179 -0.003212 0.025253 0.005192 -0.005712
# 5 0.002886 -0.001193 -0.005226 0.005192 0.040229 -0.007990
# 6 -0.002115 0.000839 0.004035 -0.005712 -0.007990 0.032645
#
#
# Mechanical properties :
#
#
# Convention : Reuss Voigt Hill
#
# Bulk Modulus (GPa) = 67.71893 71.39583 69.55738
# Shear Modulus (GPa) = 28.62351 31.90246 30.26299
#
# Velocity S-wave (km/s) = 3.85001 4.06455 3.95873
# Velocity P-wave (km/s) = 7.40482 7.68111 7.54423
#
# Compressibility (1/GPa) = 0.01476692
#
# Stress axis : x y z
#
# Youngs Moduli (GPa) = 73.20313 73.07735 63.07191
#
# Poissons Ratio (x) = 0.21015 0.44954
# Poissons Ratio (y) = 0.21052 0.26573
# Poissons Ratio (z) = 0.52175 0.30789
#
# Static dielectric constant tensor:
#      x y z
#    x 3.509720 -0.020360 0.794300 
#    y -0.020360 3.645580 0.578520 
#    z 0.794300 0.578520 2.193740 
# 
# 
# High freq. dielectric constant tensor:
#      x y z
#    x 1.738760 -0.003260 0.036250 
#    y -0.003260 1.765450 0.004310 
#    z 0.036250 0.004310 1.750940 
# 
# From -- ./inp_files/239780.got.cif
#   From: 2010.06.25/outbox.cif.g09.slc.cpg/sg2_120_cif.got.tgz:239780.got - 2010.06.27 13:26:56.
