data_PCOD8007264
_publ_section_title
;
Structure prediction by ZEFSAII (Michael W. Deem and Ramdas Pophale) SiO2 
 PCOD8007264
Probable space group: P -1
;
_chemical_formula_sum "Si O2"
_cell_formula_units_Z 14
_cell_length_a 15.946056
_cell_length_b 10.737118
_cell_length_c 8.551810
_cell_angle_alpha 42.315552
_cell_angle_beta 69.965310
_cell_angle_gamma 40.660643
_cell_volume 557.049988
_symmetry_space_group_name_H-M "P -1"
_symmetry_group_IT_number 2
_symmetry_cell_setting 'triclinic'
loop_
_space_group_symop_operation_xyz
x,y,z
-x,-y,-z
loop_
_atom_site_type_symbol
_atom_site_label
_atom_site_fract_x
_atom_site_fract_y
_atom_site_fract_z
Si Si1 0.407023 0.749164 0.193892
Si Si2 0.060504 0.820855 0.287310
Si Si3 0.607456 0.453139 0.070638
Si Si4 0.382299 0.096699 0.096458
Si Si5 0.073040 0.651116 0.903494
Si Si6 0.909716 0.772068 0.597267
Si Si7 0.640109 0.542338 0.650747
O O1 0.500000 0.500000 0.500000
O O2 0.316113 0.741744 0.165863
O O3 0.307706 0.059758 0.066631
O O4 0.515504 0.683949 0.064218
O O5 0.239554 0.522397 0.445639
O O6 0.008325 0.696259 0.464082
O O7 0.998699 0.048827 0.255523
O O8 0.000000 0.000000 0.000000
O O9 0.654399 0.534252 0.839497
O O10 0.500000 0.500000 0.000000
O O11 0.741370 0.112412 0.367621
O O12 0.237951 0.443712 0.930322
O O13 0.474159 0.864646 0.401424
O O14 0.500000 0.000000 0.000000
O O15 0.086578 0.457587 0.196631
O O16 0.966084 0.761429 0.733363
#
# Coordination Sequence:
#
# PCOD8007264 Si02
#       7
#     2   2   2   2   2   2   2
#     4   9  20  36  69  92 129 176 228 275 339 408
#     4  12  26  46  71 102 142 189 234 290 359 426
#     4  10  20  40  69  99 131 184 227 281 350 420
#     4  11  24  43  67 105 138 176 238 292 347 417
#     4  11  27  44  71 107 140 181 236 297 354 414
#     4  11  24  45  73  98 146 181 234 289 360 411
#     4  10  22  43  67  97 137 182 236 278 353 424
#
# _framework density 25.132394999999999
#
# number of rings (size 3 to 8) (size 9 to 14) (size 15 to 20)
#    0.000    1.429    1.429    3.857   10.000    0.571 
#    0.000    5.714    0.000    0.000    0.000    0.000 
#    0.000    0.000    0.000    0.000    0.000    0.000 
#
# Total GULP energy -173512.141584 kJ/mol
# GULP energy per Si atom -12393.724399 kJ/mol
# Density = 2.507519 g / cm^3
# Si number density = 25.132395 Si / 1000 Ang^3
#
#
#
# Elastic Constant Matrix: (Units=GPa)
#
#
# Indices 1 2 3 4 5 6 
#
# 1 47.5587 20.9354 13.3713 -0.2061 5.8403 -30.1058
# 2 20.9354 122.0231 27.6700 11.9977 3.8437 -23.1764
# 3 13.3713 27.6700 96.2007 11.1531 10.2641 -10.9638
# 4 -0.2061 11.9977 11.1531 42.9571 -12.6295 0.0811
# 5 5.8403 3.8437 10.2641 -12.6295 40.5966 5.9326
# 6 -30.1058 -23.1764 -10.9638 0.0811 5.9326 43.9083
#
#
#
# Elastic Compliance Matrix: (Units=1/GPa)
#
#
# Indices 1 2 3 4 5 6 
#
# 1 0.041416 -0.000783 -0.000742 -0.002616 -0.010786 0.029260
# 2 -0.000783 0.009926 -0.001675 -0.002932 -0.001982 0.004557
# 3 -0.000742 -0.001675 0.012165 -0.003985 -0.004378 0.002243
# 4 -0.002616 -0.002932 -0.003985 0.028479 0.011388 -0.005928
# 5 -0.010786 -0.001982 -0.004378 0.011388 0.033071 -0.014024
# 6 0.029260 0.004557 0.002243 -0.005928 -0.014024 0.047709
#
#
# Mechanical properties :
#
#
# Convention : Reuss Voigt Hill
#
# Bulk Modulus (GPa) = 17.51155 43.30398 30.40776
# Shear Modulus (GPa) = 25.22688 39.07946 32.15317
#
# Velocity S-wave (km/s) = 3.17165 3.94756 3.58068
# Velocity P-wave (km/s) = 4.51612 6.16809 5.40559
#
# Compressibility (1/GPa) = 0.05710517
#
# Stress axis : x y z
#
# Youngs Moduli (GPa) = 24.14541 100.74867 82.20461
#
# Poissons Ratio (x) = 0.07886 0.06104
# Poissons Ratio (y) = 0.01890 0.13772
# Poissons Ratio (z) = 0.01793 0.16879
#
# Static dielectric constant tensor:
#      x y z
#    x 5.047720 0.032430 -0.166750 
#    y 0.032430 5.542420 0.705910 
#    z -0.166750 0.705910 4.970260 
# 
# 
# High freq. dielectric constant tensor:
#      x y z
#    x 1.998560 -0.013800 0.006780 
#    y -0.013800 2.001700 0.022700 
#    z 0.006780 0.022700 2.004040 
# 
# From -- ./inp_files/332716.got.cif
#   From: 2010.06.25/outbox.cif.g09.slc.cpg/sg2_167_cif.got.tgz:332716.got - 2010.06.27 13:26:56.
