data_PCOD8007502
_publ_section_title
;
Structure prediction by ZEFSAII (Michael W. Deem and Ramdas Pophale) SiO2 
 PCOD8007502
Probable space group: P -1
;
_chemical_formula_sum "Si O2"
_cell_formula_units_Z 16
_cell_length_a 8.477664
_cell_length_b 8.054415
_cell_length_c 19.177098
_cell_angle_alpha 67.105511
_cell_angle_beta 44.628189
_cell_angle_gamma 52.954792
_cell_volume 732.385268
_symmetry_space_group_name_H-M "P -1"
_symmetry_group_IT_number 2
_symmetry_cell_setting 'triclinic'
loop_
_space_group_symop_operation_xyz
x,y,z
-x,-y,-z
loop_
_atom_site_type_symbol
_atom_site_label
_atom_site_fract_x
_atom_site_fract_y
_atom_site_fract_z
Si Si1 0.610249 0.794957 0.544799
Si Si2 0.179071 0.089421 0.405833
Si Si3 0.236310 0.543073 0.918201
Si Si4 0.199884 0.829056 0.760839
Si Si5 0.738413 0.801374 0.259447
Si Si6 0.341774 0.892353 0.087360
Si Si7 0.764888 0.505994 0.420757
Si Si8 0.215485 0.692726 0.043784
O O1 0.756353 0.818819 0.561018
O O2 0.378709 0.751612 0.648810
O O3 0.790629 0.598320 0.471748
O O4 0.500000 0.000000 0.500000
O O5 0.015720 0.276570 0.372712
O O6 0.434510 0.906415 0.315089
O O7 0.000000 0.000000 0.500000
O O8 0.271113 0.630625 0.820114
O O9 0.499007 0.326380 0.887465
O O10 0.187141 0.715131 0.965415
O O11 0.000000 0.500000 0.000000
O O12 0.250299 0.998424 0.753236
O O13 0.896028 0.945666 0.815588
O O14 0.790997 0.642006 0.330500
O O15 0.964318 0.674633 0.151515
O O16 0.213541 0.880744 0.055713
O O17 0.500000 0.000000 0.000000
O O18 0.500000 0.500000 0.500000
O O19 0.500000 0.500000 0.000000
#
# Coordination Sequence:
#
# PCOD8007502 Si02
#       8
#     2   2   2   2   2   2   2   2
#     4  11  22  44  68  94 132 175 215 272 331 390
#     4  11  22  42  66  98 133 172 222 273 327 391
#     4  11  22  41  63  94 129 164 215 268 315 383
#     4  10  22  40  67  90 130 165 215 265 324 383
#     4  10  22  42  67  94 131 170 222 265 330 388
#     4  10  20  41  64  92 129 166 210 266 321 383
#     4  12  23  43  69  94 135 173 217 279 323 390
#     4   9  22  41  68  91 129 170 213 262 329 383
#
# _framework density 21.846425
#
# number of rings (size 3 to 8) (size 9 to 14) (size 15 to 20)
#    0.000    1.500    5.000    0.375    0.000    9.000 
#    2.250    2.500    2.750    0.000    0.000    0.000 
#    0.000    0.000    0.000    0.000    0.000    0.000 
#
# Total GULP energy -198221.725923 kJ/mol
# GULP energy per Si atom -12388.857870 kJ/mol
# Density = 2.179670 g / cm^3
# Si number density = 21.846425 Si / 1000 Ang^3
#
#
#
# Elastic Constant Matrix: (Units=GPa)
#
#
# Indices 1 2 3 4 5 6 
#
# 1 69.7667 27.9883 28.4580 0.9006 -11.9167 -13.1907
# 2 27.9883 125.5640 65.2929 -8.3370 -4.0547 -34.3260
# 3 28.4580 65.2929 161.5300 -1.8425 -16.0276 -21.4228
# 4 0.9006 -8.3370 -1.8425 47.2274 -5.3027 -5.8136
# 5 -11.9167 -4.0547 -16.0276 -5.3027 36.5110 1.2068
# 6 -13.1907 -34.3260 -21.4228 -5.8136 1.2068 36.7454
#
#
#
# Elastic Compliance Matrix: (Units=1/GPa)
#
#
# Indices 1 2 3 4 5 6 
#
# 1 0.017118 -0.002081 -0.001261 0.000199 0.004721 0.003343
# 2 -0.002081 0.013321 -0.003706 0.003415 -0.000664 0.010099
# 3 -0.001261 -0.003706 0.008304 0.000114 0.002811 0.000853
# 4 0.000199 0.003415 0.000114 0.023027 0.003612 0.006853
# 5 0.004721 -0.000664 0.002811 0.003612 0.030539 0.002281
# 6 0.003343 0.010099 0.000853 0.006853 0.002281 0.039354
#
#
# Mechanical properties :
#
#
# Convention : Reuss Voigt Hill
#
# Bulk Modulus (GPa) = 40.56929 66.70436 53.63682
# Shear Modulus (GPa) = 32.47307 39.77152 36.12229
#
# Velocity S-wave (km/s) = 3.85960 4.27137 4.07069
# Velocity P-wave (km/s) = 6.20262 7.41119 6.83368
#
# Compressibility (1/GPa) = 0.02464919
#
# Stress axis : x y z
#
# Youngs Moduli (GPa) = 58.41715 75.07128 120.42279
#
# Poissons Ratio (x) = 0.15619 0.15183
# Poissons Ratio (y) = 0.12154 0.44623
# Poissons Ratio (z) = 0.07365 0.27818
#
# Static dielectric constant tensor:
#      x y z
#    x 4.116430 -0.004710 -0.086670 
#    y -0.004710 4.069990 0.336870 
#    z -0.086670 0.336870 4.833760 
# 
# 
# High freq. dielectric constant tensor:
#      x y z
#    x 1.844830 -0.006530 -0.019890 
#    y -0.006530 1.865280 0.004990 
#    z -0.019890 0.004990 1.867990 
# 
# From -- ./inp_files/342419.got.cif
#   From: 2010.06.25/outbox.cif.g09.slc.cpg/sg2_172_cif.got.tgz:342419.got - 2010.06.27 13:26:56.
