data_PCOD8007113
_publ_section_title
;
Structure prediction by ZEFSAII (Michael W. Deem and Ramdas Pophale) SiO2 
 PCOD8007113
Probable space group: P -1
;
_chemical_formula_sum "Si O2"
_cell_formula_units_Z 14
_cell_length_a 18.187106
_cell_length_b 18.224383
_cell_length_c 5.250759
_cell_angle_alpha 99.868027
_cell_angle_beta 66.421649
_cell_angle_gamma 155.688069
_cell_volume 564.136020
_symmetry_space_group_name_H-M "P -1"
_symmetry_group_IT_number 2
_symmetry_cell_setting 'triclinic'
loop_
_space_group_symop_operation_xyz
x,y,z
-x,-y,-z
loop_
_atom_site_type_symbol
_atom_site_label
_atom_site_fract_x
_atom_site_fract_y
_atom_site_fract_z
Si Si1 0.108321 0.014519 0.844913
Si Si2 0.712927 0.055088 0.546636
Si Si3 0.844206 0.326247 0.413651
Si Si4 0.987919 0.257561 0.782327
Si Si5 0.798395 0.693875 0.714200
Si Si6 0.710010 0.781611 0.788296
Si Si7 0.744886 0.373508 0.283846
O O1 0.285375 0.171140 0.457633
O O2 0.225118 0.102417 0.008473
O O3 0.920156 0.791254 0.882280
O O4 0.000000 0.000000 0.000000
O O5 0.694516 0.129417 0.614957
O O6 0.811924 0.116894 0.715626
O O7 0.463281 0.803191 0.727785
O O8 0.863786 0.154742 0.165032
O O9 0.680809 0.250262 0.491879
O O10 0.000000 0.500000 0.500000
O O11 0.010087 0.434359 0.044157
O O12 0.095214 0.268907 0.618096
O O13 0.200266 0.498255 0.595897
O O14 0.851565 0.825126 0.619525
O O15 0.540502 0.458948 0.958728
#
# Coordination Sequence:
#
# PCOD8007113 Si02
#       7
#     2   2   2   2   2   2   2
#     4  10  21  38  61  90 120 149 202 258 305 367
#     4  11  25  42  64  91 126 170 204 246 313 361
#     4  10  20  40  67  93 123 158 211 257 294 356
#     4  11  26  41  59  93 128 165 206 253 305 376
#     4  10  23  41  64  89 126 161 207 260 310 364
#     4  10  23  40  65  93 116 162 211 258 313 362
#     4  10  23  41  62  93 128 161 206 255 301 365
#
# _framework density 24.816707999999998
#
# number of rings (size 3 to 8) (size 9 to 14) (size 15 to 20)
#    0.000    1.714    1.429    2.143    2.000   13.714 
#    0.000    0.000    0.000    0.000    0.000    0.000 
#    0.000    0.000    0.000    0.000    0.000    0.000 
#
# Total GULP energy -173471.042369 kJ/mol
# GULP energy per Si atom -12390.788741 kJ/mol
# Density = 2.476022 g / cm^3
# Si number density = 24.816708 Si / 1000 Ang^3
#
#
#
# Elastic Constant Matrix: (Units=GPa)
#
#
# Indices 1 2 3 4 5 6 
#
# 1 49.9208 32.7430 16.0325 -1.5857 -2.5094 -0.9033
# 2 32.7430 167.2928 20.9103 13.8109 -8.3785 3.0384
# 3 16.0325 20.9103 63.4142 20.1941 6.7378 3.3976
# 4 -1.5857 13.8109 20.1941 33.0125 1.9789 0.7097
# 5 -2.5094 -8.3785 6.7378 1.9789 27.0889 17.1693
# 6 -0.9033 3.0384 3.3976 0.7097 17.1693 23.3675
#
#
#
# Elastic Compliance Matrix: (Units=1/GPa)
#
#
# Indices 1 2 3 4 5 6 
#
# 1 0.025952 -0.004723 -0.007721 0.007833 0.001321 0.001531
# 2 -0.004723 0.007611 -0.000587 -0.003272 0.005479 -0.005013
# 3 -0.007721 -0.000587 0.022923 -0.013782 -0.006745 0.001819
# 4 0.007833 -0.003272 -0.013782 0.040499 -0.001439 0.002560
# 5 0.001321 0.005479 -0.006745 -0.001439 0.075398 -0.055036
# 6 0.001531 -0.005013 0.001819 0.002560 -0.055036 0.083601
#
#
# Mechanical properties :
#
#
# Convention : Reuss Voigt Hill
#
# Bulk Modulus (GPa) = 32.86802 46.66660 39.76731
# Shear Modulus (GPa) = 17.11240 30.75658 23.93449
#
# Velocity S-wave (km/s) = 2.62878 3.52426 3.10893
# Velocity P-wave (km/s) = 4.74205 5.95028 5.38019
#
# Compressibility (1/GPa) = 0.03042471
#
# Stress axis : x y z
#
# Youngs Moduli (GPa) = 38.53296 131.39108 43.62434
#
# Poissons Ratio (x) = 0.62051 0.33681
# Poissons Ratio (y) = 0.18198 0.02561
# Poissons Ratio (z) = 0.29750 0.07714
#
# Static dielectric constant tensor:
#      x y z
#    x 4.602260 0.032150 0.113970 
#    y 0.032150 4.555110 0.234460 
#    z 0.113970 0.234460 4.282350 
# 
# 
# High freq. dielectric constant tensor:
#      x y z
#    x 1.972420 -0.011700 0.001280 
#    y -0.011700 2.013140 0.008730 
#    z 0.001280 0.008730 1.977240 
# 
# From -- ./inp_files/120298.got.cif
#   From: 2010.06.25/outbox.cif.g09.slc.cpg/sg2_61_cif.got.tgz:120298.got - 2010.06.27 13:26:56.
