data_PCOD8008633
_publ_section_title
;
Structure prediction by ZEFSAII (Michael W. Deem and Ramdas Pophale) SiO2 
 PCOD8008633
Probable space group: P -1
;
_chemical_formula_sum "Si O2"
_cell_formula_units_Z 14
_cell_length_a 9.969132
_cell_length_b 14.593311
_cell_length_c 14.320369
_cell_angle_alpha 150.566988
_cell_angle_beta 131.924072
_cell_angle_gamma 64.092807
_cell_volume 699.264909
_symmetry_space_group_name_H-M "P -1"
_symmetry_group_IT_number 2
_symmetry_cell_setting 'triclinic'
loop_
_space_group_symop_operation_xyz
x,y,z
-x,-y,-z
loop_
_atom_site_type_symbol
_atom_site_label
_atom_site_fract_x
_atom_site_fract_y
_atom_site_fract_z
Si Si1 0.350966 0.155057 0.419093
Si Si2 0.448551 0.415052 0.164858
Si Si3 0.292132 0.352753 0.233474
Si Si4 0.076447 0.904407 0.787573
Si Si5 0.274411 0.780443 0.934630
Si Si6 0.627881 0.453491 0.940040
Si Si7 0.030306 0.486382 0.715782
O O1 0.395590 0.349378 0.543960
O O2 0.128035 0.070218 0.275822
O O3 0.500730 0.225758 0.639778
O O4 0.388277 0.977817 0.225790
O O5 0.293702 0.359905 0.128012
O O6 0.565903 0.268376 0.093949
O O7 0.334544 0.388004 0.988429
O O8 0.500000 0.500000 0.500000
O O9 0.132257 0.426901 0.265214
O O10 0.245630 0.123427 0.039675
O O11 0.122912 0.819729 0.830674
O O12 0.067630 0.753824 0.564442
O O13 0.159306 0.588497 0.775974
O O14 0.834547 0.469883 0.090692
O O15 0.500000 0.500000 0.000000
#
# Coordination Sequence:
#
# PCOD8008633 Si02
#       7
#     2   2   2   2   2   2   2
#     4  10  22  40  70  99 128 166 227 269 321 392
#     4  10  24  44  65  96 135 171 214 279 322 380
#     4  12  28  45  64  99 142 173 214 276 338 388
#     4  12  24  40  69 101 132 168 229 269 325 403
#     4  12  22  38  71 100 123 179 222 269 329 382
#     4  10  20  45  70  97 132 165 229 277 309 395
#     4  12  24  42  71  97 133 178 215 273 337 378
#
# _framework density 20.021024000000001
#
# number of rings (size 3 to 8) (size 9 to 14) (size 15 to 20)
#    0.857    0.000    5.714    2.571    2.000    4.571 
#    2.571    0.714    0.000    0.000    0.000    0.000 
#    0.000    0.000    0.000    0.000    0.000    0.000 
#
# Total GULP energy -173610.392220 kJ/mol
# GULP energy per Si atom -12400.742301 kJ/mol
# Density = 1.997546 g / cm^3
# Si number density = 20.021024 Si / 1000 Ang^3
#
#
#
# Elastic Constant Matrix: (Units=GPa)
#
#
# Indices 1 2 3 4 5 6 
#
# 1 69.1174 13.8248 18.3124 7.8323 -12.8613 0.9633
# 2 13.8248 89.9641 42.3527 -8.9564 4.0900 6.1071
# 3 18.3124 42.3527 131.7237 -0.1552 -18.3286 -7.5145
# 4 7.8323 -8.9564 -0.1552 38.7720 -2.7949 -3.6510
# 5 -12.8613 4.0900 -18.3286 -2.7949 26.1225 2.2635
# 6 0.9633 6.1071 -7.5145 -3.6510 2.2635 34.0049
#
#
#
# Elastic Compliance Matrix: (Units=1/GPa)
#
#
# Indices 1 2 3 4 5 6 
#
# 1 0.017185 -0.003225 -0.000228 -0.003692 0.008491 -0.000920
# 2 -0.003225 0.015105 -0.005586 0.003311 -0.007257 -0.003017
# 3 -0.000228 -0.005586 0.010689 -0.000363 0.007981 0.002802
# 4 -0.003692 0.003311 -0.000363 0.027536 0.000150 0.002376
# 5 0.008491 -0.007257 0.007981 0.000150 0.049251 -0.000436
# 6 -0.000920 -0.003017 0.002802 0.002376 -0.000436 0.030879
#
#
# Mechanical properties :
#
#
# Convention : Reuss Voigt Hill
#
# Bulk Modulus (GPa) = 40.15761 48.86499 44.51130
# Shear Modulus (GPa) = 28.24486 34.20091 31.22289
#
# Velocity S-wave (km/s) = 3.76008 4.13758 3.95334
# Velocity P-wave (km/s) = 6.24117 6.87648 6.56651
#
# Compressibility (1/GPa) = 0.02490188
#
# Stress axis : x y z
#
# Youngs Moduli (GPa) = 58.19183 66.20129 93.55044
#
# Poissons Ratio (x) = 0.21348 0.02129
# Poissons Ratio (y) = 0.18765 0.52262
# Poissons Ratio (z) = 0.01324 0.36983
#
# Static dielectric constant tensor:
#      x y z
#    x 3.594020 0.001620 -0.090610 
#    y 0.001620 3.704880 -0.154180 
#    z -0.090610 -0.154180 3.872540 
# 
# 
# High freq. dielectric constant tensor:
#      x y z
#    x 1.778940 -0.000280 -0.018580 
#    y -0.000280 1.777060 -0.000850 
#    z -0.018580 -0.000850 1.780440 
# 
# From -- ./inp_files/319235.got.cif
#   From: 2010.06.25/outbox.cif.g09.slc.cpg/sg2_160_cif.got.tgz:319235.got - 2010.06.27 13:26:56.
