data_PCOD8008469
_publ_section_title
;
Structure prediction by ZEFSAII (Michael W. Deem and Ramdas Pophale) SiO2 
 PCOD8008469
Probable space group: P -1
;
_chemical_formula_sum "Si O2"
_cell_formula_units_Z 16
_cell_length_a 12.857781
_cell_length_b 22.303064
_cell_length_c 6.947901
_cell_angle_alpha 50.091863
_cell_angle_beta 43.550572
_cell_angle_gamma 33.059983
_cell_volume 745.778599
_symmetry_space_group_name_H-M "P -1"
_symmetry_group_IT_number 2
_symmetry_cell_setting 'triclinic'
loop_
_space_group_symop_operation_xyz
x,y,z
-x,-y,-z
loop_
_atom_site_type_symbol
_atom_site_label
_atom_site_fract_x
_atom_site_fract_y
_atom_site_fract_z
Si Si1 0.906514 0.691854 0.475618
Si Si2 0.350018 0.247117 0.942660
Si Si3 0.627739 0.028808 0.810471
Si Si4 0.035787 0.151545 0.985875
Si Si5 0.781264 0.616362 0.502809
Si Si6 0.386859 0.462719 0.296414
Si Si7 0.026098 0.079927 0.740631
Si Si8 0.318710 0.749190 0.450272
O O1 0.936575 0.765663 0.186613
O O2 0.750053 0.694897 0.546133
O O3 0.138921 0.569541 0.456530
O O4 0.785113 0.747830 0.725164
O O5 0.449176 0.156864 0.831824
O O6 0.193889 0.358916 0.797347
O O7 0.545732 0.222548 0.822473
O O8 0.758727 0.002293 0.500174
O O9 0.500000 0.000000 0.000000
O O10 0.775208 0.965386 0.929287
O O11 0.046184 0.128372 0.796109
O O12 0.815470 0.202218 0.270689
O O13 0.605987 0.609327 0.731440
O O14 0.000000 0.500000 0.500000
O O15 0.515701 0.384738 0.474647
O O16 0.500000 0.500000 0.000000
O O17 0.840044 0.192040 0.638811
O O18 0.000000 0.000000 0.000000
#
# Coordination Sequence:
#
# PCOD8008469 Si02
#       8
#     2   2   2   2   2   2   2   2
#     4  11  23  41  67  95 129 171 215 264 322 388
#     4  11  23  40  63  95 128 165 218 266 317 383
#     4  11  24  41  63  93 128 168 214 271 324 381
#     4  11  23  41  64  93 131 171 218 268 320 386
#     4   9  22  40  65  90 129 168 206 263 323 378
#     4  10  20  43  69  95 129 172 212 267 325 380
#     4  11  24  42  65  95 129 171 221 263 325 387
#     4  10  23  41  64  92 132 166 215 266 325 380
#
# _framework density 21.454090000000001
#
# number of rings (size 3 to 8) (size 9 to 14) (size 15 to 20)
#    0.000    1.500    1.250    3.000    0.000   14.500 
#    0.000    1.875    0.000    0.000    0.000    0.000 
#    0.000    0.000    0.000    0.000    0.000    0.000 
#
# Total GULP energy -198234.382706 kJ/mol
# GULP energy per Si atom -12389.648919 kJ/mol
# Density = 2.140526 g / cm^3
# Si number density = 21.454090 Si / 1000 Ang^3
#
#
#
# Elastic Constant Matrix: (Units=GPa)
#
#
# Indices 1 2 3 4 5 6 
#
# 1 99.0119 28.4147 48.2128 1.2729 -0.2069 4.0821
# 2 28.4147 75.9749 39.1603 -0.9400 -1.0088 -1.3683
# 3 48.2128 39.1603 126.3845 6.5796 -4.2197 -5.3363
# 4 1.2729 -0.9400 6.5796 36.3844 4.7392 -3.8503
# 5 -0.2069 -1.0088 -4.2197 4.7392 39.5904 -3.5333
# 6 4.0821 -1.3683 -5.3363 -3.8503 -3.5333 32.8178
#
#
#
# Elastic Compliance Matrix: (Units=1/GPa)
#
#
# Indices 1 2 3 4 5 6 
#
# 1 0.013065 -0.002740 -0.004267 0.000069 -0.000688 -0.002499
# 2 -0.002740 0.016302 -0.004059 0.001323 -0.000145 0.000500
# 3 -0.004267 -0.004059 0.011035 -0.001921 0.001467 0.002088
# 4 0.000069 0.001323 -0.001921 0.028588 -0.003349 0.002728
# 5 -0.000688 -0.000145 0.001467 -0.003349 0.026052 0.002730
# 6 -0.002499 0.000500 0.002088 0.002728 0.002730 0.031756
#
#
# Mechanical properties :
#
#
# Convention : Reuss Voigt Hill
#
# Bulk Modulus (GPa) = 54.73277 59.21632 56.97455
# Shear Modulus (GPa) = 32.25379 34.13075 33.19227
#
# Velocity S-wave (km/s) = 3.88156 3.99290 3.93762
# Velocity P-wave (km/s) = 6.75690 6.99421 6.87658
#
# Compressibility (1/GPa) = 0.01827059
#
# Stress axis : x y z
#
# Youngs Moduli (GPa) = 76.54275 61.34041 90.62235
#
# Poissons Ratio (x) = 0.16808 0.38667
# Poissons Ratio (y) = 0.20974 0.36780
# Poissons Ratio (z) = 0.32660 0.24896
#
# Static dielectric constant tensor:
#      x y z
#    x 5.472240 -0.600470 -0.566160 
#    y -0.600470 4.328930 0.170510 
#    z -0.566160 0.170510 3.917600 
# 
# 
# High freq. dielectric constant tensor:
#      x y z
#    x 1.849380 -0.012070 -0.008770 
#    y -0.012070 1.852380 -0.018220 
#    z -0.008770 -0.018220 1.835670 
# 
# From -- ./inp_files/83010.got.cif
#   From: 2010.06.25/outbox.cif.g09.slc.cpg/sg2_42_cif.got.tgz:83010.got - 2010.06.27 13:26:56.
