data_PCOD8008671
_publ_section_title
;
Structure prediction by ZEFSAII (Michael W. Deem and Ramdas Pophale) SiO2 
 PCOD8008671
Probable space group: P -1
;
_chemical_formula_sum "Si O2"
_cell_formula_units_Z 14
_cell_length_a 13.308727
_cell_length_b 6.516251
_cell_length_c 10.662461
_cell_angle_alpha 72.839959
_cell_angle_beta 58.478885
_cell_angle_gamma 86.218060
_cell_volume 748.714587
_symmetry_space_group_name_H-M "P -1"
_symmetry_group_IT_number 2
_symmetry_cell_setting 'triclinic'
loop_
_space_group_symop_operation_xyz
x,y,z
-x,-y,-z
loop_
_atom_site_type_symbol
_atom_site_label
_atom_site_fract_x
_atom_site_fract_y
_atom_site_fract_z
Si Si1 0.055278 0.285182 0.537127
Si Si2 0.836606 0.008902 0.669864
Si Si3 0.390705 0.102520 0.993911
Si Si4 0.237061 0.579822 0.491956
Si Si5 0.477215 0.483016 0.260962
Si Si6 0.442591 0.946018 0.735138
Si Si7 0.598340 0.297753 0.430507
O O1 0.131353 0.200222 0.388619
O O2 0.143945 0.362743 0.580016
O O3 0.000000 0.500000 0.500000
O O4 0.947758 0.098711 0.671666
O O5 0.724672 0.934134 0.840509
O O6 0.815520 0.199165 0.551249
O O7 0.428929 0.357303 0.906525
O O8 0.359979 0.995530 0.896472
O O9 0.500000 0.000000 0.000000
O O10 0.346168 0.555117 0.330023
O O11 0.280838 0.588601 0.606753
O O12 0.518783 0.468119 0.384529
O O13 0.477664 0.245475 0.241688
O O14 0.530067 0.161405 0.611751
O O15 0.368050 0.868687 0.672116
#
# Coordination Sequence:
#
# PCOD8008671 Si02
#       7
#     2   2   2   2   2   2   2
#     4   9  22  40  61  81 104 155 198 243 282 318
#     4  10  22  40  56  87 117 144 195 237 286 347
#     4  12  22  35  54  88 126 151 181 229 298 355
#     4  11  19  33  61  85 110 148 197 239 276 334
#     4  10  21  32  53  86 120 155 179 227 288 337
#     4   9  21  34  50  82 121 155 183 228 278 331
#     4   9  19  36  53  83 122 152 199 224 276 343
#
# _framework density 18.698713999999999
#
# number of rings (size 3 to 8) (size 9 to 14) (size 15 to 20)
#    0.857    1.143    2.857    0.429    4.000    2.857 
#    0.000    0.000    0.000    1.714    0.000    0.000 
#    0.000    0.000    0.000    0.000    0.000    0.000 
#
# Total GULP energy -173455.179624 kJ/mol
# GULP energy per Si atom -12389.655687 kJ/mol
# Density = 1.865616 g / cm^3
# Si number density = 18.698714 Si / 1000 Ang^3
#
#
#
# Elastic Constant Matrix: (Units=GPa)
#
#
# Indices 1 2 3 4 5 6 
#
# 1 110.2126 40.4982 35.7578 -0.6172 -14.1024 21.1566
# 2 40.4982 115.9921 34.8968 -1.5929 -7.1006 -1.9081
# 3 35.7578 34.8968 88.6194 0.5849 -14.0884 -5.7037
# 4 -0.6172 -1.5929 0.5849 29.1592 -2.7447 -1.1202
# 5 -14.1024 -7.1006 -14.0884 -2.7447 22.4419 -0.3553
# 6 21.1566 -1.9081 -5.7037 -1.1202 -0.3553 30.8457
#
#
#
# Elastic Compliance Matrix: (Units=1/GPa)
#
#
# Indices 1 2 3 4 5 6 
#
# 1 0.014586 -0.003649 -0.004338 0.000260 0.005146 -0.010964
# 2 -0.003649 0.010718 -0.002650 0.000623 -0.000447 0.002694
# 3 -0.004338 -0.002650 0.015440 0.000263 0.006252 0.005748
# 4 0.000260 0.000623 0.000263 0.034828 0.004804 0.001229
# 5 0.005146 -0.000447 0.006252 0.004804 0.052139 -0.001626
# 6 -0.010964 0.002694 0.005748 0.001229 -0.001626 0.041195
#
#
# Mechanical properties :
#
#
# Convention : Reuss Voigt Hill
#
# Bulk Modulus (GPa) = 51.35965 59.68108 55.52037
# Shear Modulus (GPa) = 25.42328 30.06743 27.74536
#
# Velocity S-wave (km/s) = 3.69131 4.01433 3.85621
# Velocity P-wave (km/s) = 6.75976 7.31252 7.04156
#
# Compressibility (1/GPa) = 0.01947054
#
# Stress axis : x y z
#
# Youngs Moduli (GPa) = 68.55766 93.29904 64.76678
#
# Poissons Ratio (x) = 0.34049 0.28093
# Poissons Ratio (y) = 0.25020 0.17162
# Poissons Ratio (z) = 0.29738 0.24723
#
# Static dielectric constant tensor:
#      x y z
#    x 3.630530 0.226960 -0.063440 
#    y 0.226960 3.708150 -0.025890 
#    z -0.063440 -0.025890 3.169040 
# 
# 
# High freq. dielectric constant tensor:
#      x y z
#    x 1.712670 0.013640 0.003310 
#    y 0.013640 1.756370 0.002090 
#    z 0.003310 0.002090 1.684360 
# 
# From -- ./inp_files/409029.got.cif
#   From: 2010.06.25/outbox.cif.g09.slc.cpg/sg2_205_cif.got.tgz:409029.got - 2010.06.27 13:26:56.
