data_PCOD8008735
_publ_section_title
;
Structure prediction by ZEFSAII (Michael W. Deem and Ramdas Pophale) SiO2 
 PCOD8008735
Probable space group: P -1
;
_chemical_formula_sum "Si O2"
_cell_formula_units_Z 14
_cell_length_a 9.296658
_cell_length_b 13.946969
_cell_length_c 9.185512
_cell_angle_alpha 44.559624
_cell_angle_beta 66.672715
_cell_angle_gamma 80.604208
_cell_volume 754.176399
_symmetry_space_group_name_H-M "P -1"
_symmetry_group_IT_number 2
_symmetry_cell_setting 'triclinic'
loop_
_space_group_symop_operation_xyz
x,y,z
-x,-y,-z
loop_
_atom_site_type_symbol
_atom_site_label
_atom_site_fract_x
_atom_site_fract_y
_atom_site_fract_z
Si Si1 0.525260 0.674452 0.167498
Si Si2 0.991269 0.852497 0.514288
Si Si3 0.786558 0.375726 0.834134
Si Si4 0.316492 0.577825 0.621366
Si Si5 0.025188 0.643182 0.496291
Si Si6 0.741216 0.944234 0.695599
Si Si7 0.764578 0.240120 0.297799
O O1 0.389096 0.628586 0.152497
O O2 0.456363 0.658869 0.374893
O O3 0.658450 0.579342 0.192957
O O4 0.602667 0.835921 0.943758
O O5 0.814184 0.871755 0.607910
O O6 0.989172 0.784248 0.429673
O O7 0.057782 0.751538 0.714233
O O8 0.113554 0.002102 0.305926
O O9 0.899515 0.317284 0.735250
O O10 0.859312 0.535570 0.668627
O O11 0.776710 0.280290 0.082171
O O12 0.146052 0.571440 0.620955
O O13 0.327593 0.658429 0.683442
O O14 0.671070 0.079146 0.522915
#
# Coordination Sequence:
#
# PCOD8008735 Si02
#       7
#     2   2   2   2   2   2   2
#     4  10  21  36  54  82 113 139 172 232 270 317
#     4   8  18  36  56  81 101 144 189 214 257 322
#     4  10  21  34  54  83 116 135 176 225 279 311
#     4   9  20  36  57  81 100 145 194 210 262 317
#     4   9  19  37  57  79 107 146 179 223 262 321
#     4   9  19  35  58  79 111 137 185 222 261 317
#     4   9  19  35  55  80 104 142 185 217 260 323
#
# _framework density 18.563296999999999
#
# number of rings (size 3 to 8) (size 9 to 14) (size 15 to 20)
#    0.857    2.000    0.000    0.000    4.000    2.857 
#    0.000    0.714    0.000    0.000    0.000    0.000 
#    0.000    0.000    0.000    0.000    0.000    0.000 
#
# Total GULP energy -173522.000152 kJ/mol
# GULP energy per Si atom -12394.428582 kJ/mol
# Density = 1.852105 g / cm^3
# Si number density = 18.563297 Si / 1000 Ang^3
#
#
#
# Elastic Constant Matrix: (Units=GPa)
#
#
# Indices 1 2 3 4 5 6 
#
# 1 40.0008 18.9851 18.7313 -0.1562 -8.5319 8.8507
# 2 18.9851 130.8109 45.4502 2.7627 0.8470 2.6333
# 3 18.7313 45.4502 109.6094 1.6513 -1.7565 13.9654
# 4 -0.1562 2.7627 1.6513 19.4211 7.7208 0.4168
# 5 -8.5319 0.8470 -1.7565 7.7208 23.1168 -5.5070
# 6 8.8507 2.6333 13.9654 0.4168 -5.5070 18.9858
#
#
#
# Elastic Compliance Matrix: (Units=1/GPa)
#
#
# Indices 1 2 3 4 5 6 
#
# 1 0.032270 -0.003594 -0.002600 -0.003014 0.010589 -0.009495
# 2 -0.003594 0.009397 -0.003640 -0.000695 -0.001058 0.002758
# 3 -0.002600 -0.003640 0.012019 0.000383 -0.001869 -0.007675
# 4 -0.003014 -0.000695 0.000383 0.060816 -0.022985 -0.006782
# 5 0.010589 -0.001058 -0.001869 -0.022985 0.058059 0.013930
# 6 -0.009495 0.002758 -0.007675 -0.006782 0.013930 0.066550
#
#
# Mechanical properties :
#
#
# Convention : Reuss Voigt Hill
#
# Bulk Modulus (GPa) = 29.39550 49.63938 39.51744
# Shear Modulus (GPa) = 18.51042 25.45504 21.98273
#
# Velocity S-wave (km/s) = 3.16120 3.70707 3.44496
# Velocity P-wave (km/s) = 5.40314 6.71727 6.09572
#
# Compressibility (1/GPa) = 0.03401881
#
# Stress axis : x y z
#
# Youngs Moduli (GPa) = 30.98820 106.41640 83.20090
#
# Poissons Ratio (x) = 0.38247 0.21628
# Poissons Ratio (y) = 0.11137 0.30287
# Poissons Ratio (z) = 0.08055 0.38738
#
# Static dielectric constant tensor:
#      x y z
#    x 3.172580 -0.033400 -0.026110 
#    y -0.033400 3.496730 0.015030 
#    z -0.026110 0.015030 3.173600 
# 
# 
# High freq. dielectric constant tensor:
#      x y z
#    x 1.695610 -0.005070 -0.007480 
#    y -0.005070 1.727660 0.001210 
#    z -0.007480 0.001210 1.703090 
# 
# From -- ./inp_files/201544.got.cif
#   From: 2010.06.25/outbox.cif.g09.slc.cpg/sg2_101_cif.got.tgz:201544.got - 2010.06.27 13:26:56.
