data_PCOD8008889
_publ_section_title
;
Structure prediction by ZEFSAII (Michael W. Deem and Ramdas Pophale) SiO2 
 PCOD8008889
Probable space group: P -1
;
_chemical_formula_sum "Si O2"
_cell_formula_units_Z 14
_cell_length_a 17.136303
_cell_length_b 11.307528
_cell_length_c 19.703977
_cell_angle_alpha 140.073029
_cell_angle_beta 158.664748
_cell_angle_gamma 30.473297
_cell_volume 690.967676
_symmetry_space_group_name_H-M "P -1"
_symmetry_group_IT_number 2
_symmetry_cell_setting 'triclinic'
loop_
_space_group_symop_operation_xyz
x,y,z
-x,-y,-z
loop_
_atom_site_type_symbol
_atom_site_label
_atom_site_fract_x
_atom_site_fract_y
_atom_site_fract_z
Si Si1 0.211275 0.049404 0.784591
Si Si2 0.557649 0.910549 0.673269
Si Si3 0.771501 0.241102 0.627422
Si Si4 0.575605 0.534860 0.838318
Si Si5 0.006786 0.495881 0.255252
Si Si6 0.969684 0.341167 0.953448
Si Si7 0.609032 0.775550 0.443353
O O1 0.034216 0.147227 0.753017
O O2 0.040167 0.258057 0.682071
O O3 0.276795 0.800080 0.709945
O O4 0.500000 0.000000 0.000000
O O5 0.309878 0.928980 0.514572
O O6 0.736950 0.693105 0.669831
O O7 0.411493 0.158796 0.623683
O O8 0.750854 0.873204 0.875421
O O9 0.500000 0.500000 0.500000
O O10 0.861463 0.230948 0.772950
O O11 0.741261 0.521425 0.902411
O O12 0.561515 0.322079 0.730547
O O13 0.742402 0.511187 0.030406
O O14 0.082770 0.425698 0.365557
O O15 0.000000 0.500000 0.000000
O O16 0.500000 0.000000 0.500000
#
# Coordination Sequence:
#
# PCOD8008889 Si02
#       7
#     2   2   2   2   2   2   2
#     4  10  21  40  62  93 127 156 197 254 310 366
#     4  10  21  35  57  88 116 156 207 248 287 363
#     4  12  21  38  63  87 122 157 198 249 308 354
#     4  10  22  37  60  89 121 162 200 248 310 357
#     4   9  18  36  58  87 123 153 201 251 296 356
#     4  11  20  35  60  88 121 151 202 253 299 354
#     4  10  21  36  57  87 122 161 207 248 293 360
#
# _framework density 20.261441000000001
#
# number of rings (size 3 to 8) (size 9 to 14) (size 15 to 20)
#    0.000    1.714    2.857    3.429    0.000    6.857 
#    0.000    2.143    0.000    4.286    0.000    0.000 
#    0.000    0.000    0.000    0.000    0.000    0.000 
#
# Total GULP energy -173443.010716 kJ/mol
# GULP energy per Si atom -12388.786480 kJ/mol
# Density = 2.021532 g / cm^3
# Si number density = 20.261441 Si / 1000 Ang^3
#
#
#
# Elastic Constant Matrix: (Units=GPa)
#
#
# Indices 1 2 3 4 5 6 
#
# 1 99.6819 44.9484 62.7657 -14.4858 -15.7106 26.0149
# 2 44.9484 95.3740 50.4621 -3.4959 -4.8110 27.4434
# 3 62.7657 50.4621 121.7597 0.9154 -21.3507 10.5933
# 4 -14.4858 -3.4959 0.9154 30.5383 6.7422 0.9893
# 5 -15.7106 -4.8110 -21.3507 6.7422 46.4660 -9.7460
# 6 26.0149 27.4434 10.5933 0.9893 -9.7460 35.7102
#
#
#
# Elastic Compliance Matrix: (Units=1/GPa)
#
#
# Indices 1 2 3 4 5 6 
#
# 1 0.021318 -0.000804 -0.009933 0.011111 -0.001725 -0.012744
# 2 -0.000804 0.017945 -0.006768 0.003306 -0.004637 -0.012554
# 3 -0.009933 -0.006768 0.016534 -0.007765 0.006672 0.009569
# 4 0.011111 0.003306 -0.007765 0.040727 -0.007810 -0.011592
# 5 -0.001725 -0.004637 0.006672 -0.007810 0.026834 0.010381
# 6 -0.012744 -0.012554 0.009569 -0.011592 0.010381 0.047251
#
#
# Mechanical properties :
#
#
# Convention : Reuss Voigt Hill
#
# Bulk Modulus (GPa) = 48.10923 70.35201 59.23062
# Shear Modulus (GPa) = 23.52408 33.11885 28.32147
#
# Velocity S-wave (km/s) = 3.41108 4.04737 3.74277
# Velocity P-wave (km/s) = 6.26975 7.52590 6.92636
#
# Compressibility (1/GPa) = 0.02078603
#
# Stress axis : x y z
#
# Youngs Moduli (GPa) = 46.90936 55.72694 60.48078
#
# Poissons Ratio (x) = 0.04479 0.60077
# Poissons Ratio (y) = 0.03770 0.40935
# Poissons Ratio (z) = 0.46596 0.37718
#
# Static dielectric constant tensor:
#      x y z
#    x 3.838160 0.318880 -0.304320 
#    y 0.318880 3.944620 -0.147100 
#    z -0.304320 -0.147100 3.987870 
# 
# 
# High freq. dielectric constant tensor:
#      x y z
#    x 1.773310 0.025450 -0.011820 
#    y 0.025450 1.774420 0.000520 
#    z -0.011820 0.000520 1.799730 
# 
# From -- ./inp_files/273337.got.cif
#   From: 2010.06.25/outbox.cif.g09.slc.cpg/sg2_137_cif.got.tgz:273337.got - 2010.06.27 13:26:56.
