data_PCOD8008664
_publ_section_title
;
Structure prediction by ZEFSAII (Michael W. Deem and Ramdas Pophale) SiO2 
 PCOD8008664
Probable space group: P -1
;
_chemical_formula_sum "Si O2"
_cell_formula_units_Z 16
_cell_length_a 20.099916
_cell_length_b 15.392835
_cell_length_c 7.881706
_cell_angle_alpha 44.084671
_cell_angle_beta 67.639202
_cell_angle_gamma 36.627114
_cell_volume 892.173081
_symmetry_space_group_name_H-M "P -1"
_symmetry_group_IT_number 2
_symmetry_cell_setting 'triclinic'
loop_
_space_group_symop_operation_xyz
x,y,z
-x,-y,-z
loop_
_atom_site_type_symbol
_atom_site_label
_atom_site_fract_x
_atom_site_fract_y
_atom_site_fract_z
Si Si1 0.856480 0.745748 0.989606
Si Si2 0.626583 0.196097 0.715234
Si Si3 0.816543 0.366870 0.209573
Si Si4 0.647705 0.433400 0.479844
Si Si5 0.128079 0.433544 0.098651
Si Si6 0.819267 0.823606 0.287709
Si Si7 0.883366 0.003661 0.054713
Si Si8 0.943056 0.067037 0.214244
O O1 0.879030 0.672892 0.269380
O O2 0.976058 0.661413 0.942643
O O3 0.842571 0.651795 0.003120
O O4 0.725789 0.011408 0.732211
O O5 0.623368 0.350925 0.494644
O O6 0.485979 0.341989 0.615202
O O7 0.677687 0.071442 0.023647
O O8 0.693747 0.486858 0.253243
O O9 0.827415 0.289603 0.122009
O O10 0.802004 0.536380 0.978953
O O11 0.946703 0.149462 0.479249
O O12 0.752218 0.248321 0.774522
O O13 0.184553 0.259835 0.429229
O O14 0.897381 0.836046 0.246491
O O15 0.887872 0.031233 0.209428
O O16 0.003907 0.894264 0.001995
#
# Coordination Sequence:
#
# PCOD8008664 Si02
#       8
#     2   2   2   2   2   2   2   2
#     4   9  21  34  54  79 107 146 176 224 262 306
#     4   8  18  36  58  76 101 145 181 219 267 308
#     4  10  21  32  51  78 113 139 169 224 271 318
#     4   9  17  36  57  76 104 141 179 217 270 317
#     4  11  21  34  52  85 108 142 181 213 273 322
#     4   9  19  35  55  78 109 140 179 221 259 316
#     4   9  17  32  54  80 103 140 175 218 271 326
#     4   9  19  32  50  78 111 135 171 221 281 316
#
# _framework density 17.933741000000001
#
# number of rings (size 3 to 8) (size 9 to 14) (size 15 to 20)
#    0.750    2.000    0.000    1.125    7.000    0.000 
#    4.500    2.500    0.000    4.500    0.000    0.000 
#    0.000    0.000    0.000    0.000    0.000    0.000 
#
# Total GULP energy -198247.370247 kJ/mol
# GULP energy per Si atom -12390.460640 kJ/mol
# Density = 1.789292 g / cm^3
# Si number density = 17.933741 Si / 1000 Ang^3
#
#
#
# Elastic Constant Matrix: (Units=GPa)
#
#
# Indices 1 2 3 4 5 6 
#
# 1 79.9396 47.3525 38.2326 9.8321 -4.2665 9.9624
# 2 47.3525 97.0481 33.6708 -6.3784 2.8010 2.4538
# 3 38.2326 33.6708 71.3105 11.1807 -21.9006 4.7519
# 4 9.8321 -6.3784 11.1807 20.1204 0.7524 7.9600
# 5 -4.2665 2.8010 -21.9006 0.7524 21.6994 3.2988
# 6 9.9624 2.4538 4.7519 7.9600 3.2988 38.1030
#
#
#
# Elastic Compliance Matrix: (Units=1/GPa)
#
#
# Indices 1 2 3 4 5 6 
#
# 1 0.022452 -0.009693 -0.005434 -0.010051 0.000918 -0.002548
# 2 -0.009693 0.022074 -0.014739 0.020517 -0.020408 0.000432
# 3 -0.005434 -0.014739 0.041570 -0.026317 0.043872 -0.001115
# 4 -0.010051 0.020517 -0.026317 0.080697 -0.032547 -0.009452
# 5 0.000918 -0.020408 0.043872 -0.032547 0.095194 -0.005839
# 6 -0.002548 0.000432 -0.001115 -0.009452 -0.005839 0.029502
#
#
# Mechanical properties :
#
#
# Convention : Reuss Voigt Hill
#
# Bulk Modulus (GPa) = 37.92856 54.09000 46.00928
# Shear Modulus (GPa) = 13.88859 24.58739 19.23799
#
# Velocity S-wave (km/s) = 2.78589 3.70674 3.27880
# Velocity P-wave (km/s) = 5.61636 6.96752 6.32810
#
# Compressibility (1/GPa) = 0.02636536
#
# Stress axis : x y z
#
# Youngs Moduli (GPa) = 44.53878 45.30257 24.05585
#
# Poissons Ratio (x) = 0.43910 0.13071
# Poissons Ratio (y) = 0.43170 0.35456
# Poissons Ratio (z) = 0.24200 0.66772
#
# Static dielectric constant tensor:
#      x y z
#    x 3.334800 0.081470 0.011710 
#    y 0.081470 3.306900 0.033390 
#    z 0.011710 0.033390 3.086640 
# 
# 
# High freq. dielectric constant tensor:
#      x y z
#    x 1.686800 0.008940 -0.003420 
#    y 0.008940 1.681980 0.001780 
#    z -0.003420 0.001780 1.675670 
# 
# From -- ./inp_files/335170.got.cif
#   From: 2010.06.25/outbox.cif.g09.slc.cpg/sg2_168_cif.got.tgz:335170.got - 2010.06.27 13:26:56.
