data_PCOD8008921
_publ_section_title
;
Structure prediction by ZEFSAII (Michael W. Deem and Ramdas Pophale) SiO2 
 PCOD8008921
Probable space group: P -1
;
_chemical_formula_sum "Si O2"
_cell_formula_units_Z 16
_cell_length_a 12.502598
_cell_length_b 26.510660
_cell_length_c 11.959421
_cell_angle_alpha 28.501480
_cell_angle_beta 29.928063
_cell_angle_gamma 28.783331
_cell_volume 826.681920
_symmetry_space_group_name_H-M "P -1"
_symmetry_group_IT_number 2
_symmetry_cell_setting 'triclinic'
loop_
_space_group_symop_operation_xyz
x,y,z
-x,-y,-z
loop_
_atom_site_type_symbol
_atom_site_label
_atom_site_fract_x
_atom_site_fract_y
_atom_site_fract_z
Si Si1 0.575598 0.916020 0.346301
Si Si2 0.250322 0.905058 0.097718
Si Si3 0.116160 0.522725 0.482637
Si Si4 0.115062 0.744935 0.126501
Si Si5 0.225321 0.563104 0.077501
Si Si6 0.714058 0.122766 0.134532
Si Si7 0.232168 0.879812 0.564592
Si Si8 0.391526 0.721859 0.517435
O O1 0.507292 0.886279 0.588101
O O2 0.378651 0.931039 0.403310
O O3 0.830196 0.808287 0.286708
O O4 0.588637 0.039060 0.105395
O O5 0.290239 0.795005 0.353325
O O6 0.344435 0.854676 0.986927
O O7 0.964902 0.000824 0.169070
O O8 0.194492 0.602471 0.334334
O O9 0.051214 0.595615 0.280725
O O10 0.338368 0.386982 0.537157
O O11 0.867794 0.517132 0.755479
O O12 0.264083 0.765070 0.052200
O O13 0.165321 0.793944 0.868495
O O14 0.500000 0.500000 0.000000
O O15 0.194951 0.675620 0.813269
O O16 0.390267 0.803822 0.462857
O O17 0.000000 0.000000 0.500000
#
# Coordination Sequence:
#
# PCOD8008921 Si02
#       8
#     2   2   2   2   2   2   2   2
#     4  10  21  35  59  82 112 152 186 234 285 339
#     4  10  21  39  60  85 112 149 192 236 289 338
#     4  10  21  36  56  82 113 153 195 224 277 345
#     4  10  21  36  58  83 110 150 192 233 281 340
#     4   9  20  35  53  78 111 151 187 226 268 330
#     4   9  20  40  62  83 110 146 196 241 282 337
#     4  11  23  36  53  86 123 148 184 233 286 343
#     4  11  22  35  57  84 118 153 184 236 285 333
#
# _framework density 19.354482000000001
#
# number of rings (size 3 to 8) (size 9 to 14) (size 15 to 20)
#    0.000    2.000    1.250    2.625    5.250    5.000 
#    0.000    0.625    0.000    1.500    0.000    0.000 
#    0.000    0.000    0.000    0.000    0.000    0.000 
#
# Total GULP energy -198283.725361 kJ/mol
# GULP energy per Si atom -12392.732835 kJ/mol
# Density = 1.931043 g / cm^3
# Si number density = 19.354482 Si / 1000 Ang^3
#
#
#
# Elastic Constant Matrix: (Units=GPa)
#
#
# Indices 1 2 3 4 5 6 
#
# 1 97.2964 48.4609 61.6981 -13.6955 11.7448 6.0206
# 2 48.4609 85.6373 44.7908 -8.7161 -0.3677 12.5855
# 3 61.6981 44.7908 125.9553 -8.8685 -1.9707 -7.7309
# 4 -13.6955 -8.7161 -8.8685 33.1645 4.0732 -3.9734
# 5 11.7448 -0.3677 -1.9707 4.0732 34.6290 0.7367
# 6 6.0206 12.5855 -7.7309 -3.9734 0.7367 17.9623
#
#
#
# Elastic Compliance Matrix: (Units=1/GPa)
#
#
# Indices 1 2 3 4 5 6 
#
# 1 0.020228 -0.006327 -0.007681 0.005101 -0.007875 -0.004202
# 2 -0.006327 0.019779 -0.004807 -0.000687 0.002462 -0.014059
# 3 -0.007681 -0.004807 0.014228 0.000437 0.003056 0.012038
# 4 0.005101 -0.000687 0.000437 0.033707 -0.005819 0.006654
# 5 -0.007875 0.002462 0.003056 -0.005819 0.032441 -0.000388
# 6 -0.004202 -0.014059 0.012038 0.006654 -0.000388 0.073600
#
#
# Mechanical properties :
#
#
# Convention : Reuss Voigt Hill
#
# Bulk Modulus (GPa) = 60.21908 68.75428 64.48668
# Shear Modulus (GPa) = 21.08384 27.41378 24.24881
#
# Velocity S-wave (km/s) = 3.30411 3.76760 3.54344
# Velocity P-wave (km/s) = 6.76295 7.38425 7.08042
#
# Compressibility (1/GPa) = 0.01660603
#
# Stress axis : x y z
#
# Youngs Moduli (GPa) = 49.43572 50.55994 70.28149
#
# Poissons Ratio (x) = 0.31989 0.53981
# Poissons Ratio (y) = 0.31277 0.33785
# Poissons Ratio (z) = 0.37970 0.24304
#
# Static dielectric constant tensor:
#      x y z
#    x 3.514830 0.260800 -0.173830 
#    y 0.260800 3.348790 0.049110 
#    z -0.173830 0.049110 4.020800 
# 
# 
# High freq. dielectric constant tensor:
#      x y z
#    x 1.737260 0.015470 -0.017330 
#    y 0.015470 1.736440 0.007390 
#    z -0.017330 0.007390 1.769020 
# 
# From -- ./inp_files/439537.got.cif
#   From: 2010.06.25/outbox.cif.g09.slc.cpg/sg2_220_cif.got.tgz:439537.got - 2010.06.27 13:26:56.
