data_PCOD8008154
_publ_section_title
;
Structure prediction by ZEFSAII (Michael W. Deem and Ramdas Pophale) SiO2 
 PCOD8008154
Probable space group: P -1
;
_chemical_formula_sum "Si O2"
_cell_formula_units_Z 16
_cell_length_a 21.282418
_cell_length_b 18.448044
_cell_length_c 12.625058
_cell_angle_alpha 150.992002
_cell_angle_beta 38.714473
_cell_angle_gamma 161.396601
_cell_volume 728.029950
_symmetry_space_group_name_H-M "P -1"
_symmetry_group_IT_number 2
_symmetry_cell_setting 'triclinic'
loop_
_space_group_symop_operation_xyz
x,y,z
-x,-y,-z
loop_
_atom_site_type_symbol
_atom_site_label
_atom_site_fract_x
_atom_site_fract_y
_atom_site_fract_z
Si Si1 0.978577 0.817684 0.735149
Si Si2 0.853689 0.632667 0.289717
Si Si3 0.366291 0.596900 0.503526
Si Si4 0.724992 0.263414 0.792289
Si Si5 0.294611 0.299895 0.562924
Si Si6 0.463229 0.721930 0.065697
Si Si7 0.573505 0.587643 0.135844
Si Si8 0.081703 0.570021 0.597855
O O1 0.885310 0.565651 0.610285
O O2 0.847689 0.678315 0.626714
O O3 0.197907 0.047743 0.696694
O O4 0.000000 0.000000 0.000000
O O5 0.689983 0.406561 0.312983
O O6 0.811169 0.741423 0.441666
O O7 0.794866 0.437095 0.028455
O O8 0.100279 0.936633 0.386399
O O9 0.441313 0.520456 0.304638
O O10 0.527305 0.908361 0.627364
O O11 0.664954 0.292713 0.808333
O O12 0.913157 0.404069 0.691704
O O13 0.500000 0.500000 0.500000
O O14 0.380372 0.498777 0.803975
O O15 0.425438 0.587088 0.054649
O O16 0.707549 0.072427 0.189722
O O17 0.500000 0.500000 0.000000
O O18 0.000000 0.500000 0.500000
#
# Coordination Sequence:
#
# PCOD8008154 Si02
#       8
#     2   2   2   2   2   2   2   2
#     4  12  26  45  67 101 136 178 233 283 346 423
#     4  10  23  41  69 101 136 185 230 283 349 409
#     4  12  24  44  69  98 145 183 231 287 348 412
#     4  11  25  46  68 100 144 177 234 289 348 417
#     4  10  20  42  67 101 138 176 233 286 337 413
#     4  11  25  42  70 100 134 183 226 284 351 404
#     4  12  25  43  68 101 136 183 233 289 345 411
#     4  12  27  45  70 102 136 183 232 289 350 414
#
# _framework density 21.977118999999998
#
# number of rings (size 3 to 8) (size 9 to 14) (size 15 to 20)
#    0.000    0.750    3.750    3.375    1.750    2.500 
#    0.000    0.625    0.000    0.000    0.000    0.000 
#    0.000    0.000    0.000    0.000    0.000    0.000 
#
# Total GULP energy -198269.953052 kJ/mol
# GULP energy per Si atom -12391.872066 kJ/mol
# Density = 2.192710 g / cm^3
# Si number density = 21.977119 Si / 1000 Ang^3
#
#
#
# Elastic Constant Matrix: (Units=GPa)
#
#
# Indices 1 2 3 4 5 6 
#
# 1 108.8900 22.5190 44.1016 8.0570 -0.2441 -2.2198
# 2 22.5190 98.0072 36.8499 13.1272 12.6803 11.0288
# 3 44.1016 36.8499 88.5353 7.5483 1.8115 5.6625
# 4 8.0570 13.1272 7.5483 42.8417 3.6494 4.5715
# 5 -0.2441 12.6803 1.8115 3.6494 35.1192 8.2830
# 6 -2.2198 11.0288 5.6625 4.5715 8.2830 39.3608
#
#
#
# Elastic Compliance Matrix: (Units=1/GPa)
#
#
# Indices 1 2 3 4 5 6 
#
# 1 0.011701 -0.000669 -0.005562 -0.001227 0.000332 0.001720
# 2 -0.000669 0.013191 -0.004737 -0.002549 -0.003797 -0.001957
# 3 -0.005562 -0.004737 0.016134 -0.000287 0.001231 -0.001533
# 4 -0.001227 -0.002549 -0.000287 0.024711 -0.001185 -0.001934
# 5 0.000332 -0.003797 0.001231 -0.001185 0.031210 -0.005525
# 6 0.001720 -0.001957 -0.001533 -0.001934 -0.005525 0.027659
#
#
# Mechanical properties :
#
#
# Convention : Reuss Voigt Hill
#
# Bulk Modulus (GPa) = 52.38313 55.81928 54.10120
# Shear Modulus (GPa) = 32.69936 36.26181 34.48059
#
# Velocity S-wave (km/s) = 3.86149 4.06640 3.96527
# Velocity P-wave (km/s) = 6.61578 6.89213 6.75537
#
# Compressibility (1/GPa) = 0.01909012
#
# Stress axis : x y z
#
# Youngs Moduli (GPa) = 85.45953 75.80936 61.97903
#
# Poissons Ratio (x) = 0.05074 0.34475
# Poissons Ratio (y) = 0.05720 0.29358
# Poissons Ratio (z) = 0.47536 0.35908
#
# Static dielectric constant tensor:
#      x y z
#    x 4.209200 0.190900 -0.148740 
#    y 0.190900 4.281320 0.103630 
#    z -0.148740 0.103630 3.870020 
# 
# 
# High freq. dielectric constant tensor:
#      x y z
#    x 1.870770 0.009670 0.005280 
#    y 0.009670 1.877970 0.011040 
#    z 0.005280 0.011040 1.867360 
# 
# From -- ./inp_files/273158.got.cif
#   From: 2010.06.25/outbox.cif.g09.slc.cpg/sg2_137_cif.got.tgz:273158.got - 2010.06.27 13:26:56.
