data_PCOD8008953
_publ_section_title
;
Structure prediction by ZEFSAII (Michael W. Deem and Ramdas Pophale) SiO2 
 PCOD8008953
Probable space group: P -1
;
_chemical_formula_sum "Si O2"
_cell_formula_units_Z 16
_cell_length_a 11.458829
_cell_length_b 6.092022
_cell_length_c 11.374523
_cell_angle_alpha 82.515238
_cell_angle_beta 108.534110
_cell_angle_gamma 92.159434
_cell_volume 746.423370
_symmetry_space_group_name_H-M "P -1"
_symmetry_group_IT_number 2
_symmetry_cell_setting 'triclinic'
loop_
_space_group_symop_operation_xyz
x,y,z
-x,-y,-z
loop_
_atom_site_type_symbol
_atom_site_label
_atom_site_fract_x
_atom_site_fract_y
_atom_site_fract_z
Si Si1 0.087351 0.774539 0.949913
Si Si2 0.314974 0.594865 0.647179
Si Si3 0.855190 0.566973 0.210363
Si Si4 0.307017 0.055729 0.957542
Si Si5 0.529474 0.283404 0.100703
Si Si6 0.322466 0.914372 0.405717
Si Si7 0.073096 0.837747 0.197654
Si Si8 0.567144 0.713269 0.456968
O O1 0.131378 0.581815 0.891673
O O2 0.192013 0.957399 0.996345
O O3 0.062661 0.695248 0.081640
O O4 0.971831 0.908280 0.849306
O O5 0.185695 0.579376 0.679549
O O6 0.431270 0.658586 0.759833
O O7 0.302385 0.773793 0.527952
O O8 0.350862 0.353192 0.624180
O O9 0.739646 0.733064 0.146721
O O10 0.981918 0.701449 0.265501
O O11 0.359648 0.861491 0.906374
O O12 0.407687 0.133637 0.078728
O O13 0.500000 0.500000 0.000000
O O14 0.209897 0.854423 0.289747
O O15 0.450984 0.872002 0.379991
O O16 0.335153 0.171553 0.430254
O O17 0.500000 0.500000 0.500000
#
# Coordination Sequence:
#
# PCOD8008953 Si02
#       8
#     2   2   2   2   2   2   2   2
#     4  10  21  41  62  92 124 168 210 273 314 371
#     4  11  23  38  65  93 131 167 203 264 321 381
#     4  11  22  41  63  94 131 164 212 265 322 378
#     4  10  21  35  60  92 129 162 207 256 322 381
#     4  11  21  36  58  94 127 166 201 255 318 380
#     4  10  23  43  63  93 125 168 214 260 313 381
#     4  10  24  41  65  89 124 171 219 261 315 378
#     4   9  22  42  64  91 126 165 208 259 317 377
#
# _framework density 21.435555999999998
#
# number of rings (size 3 to 8) (size 9 to 14) (size 15 to 20)
#    0.000    1.750    2.500    0.375    1.750    7.500 
#    0.000    1.250    0.000    0.000    0.000    0.000 
#    0.000    0.000    0.000    0.000    0.000    0.000 
#
# Total GULP energy -198265.755133 kJ/mol
# GULP energy per Si atom -12391.609696 kJ/mol
# Density = 2.138677 g / cm^3
# Si number density = 21.435556 Si / 1000 Ang^3
#
#
#
# Elastic Constant Matrix: (Units=GPa)
#
#
# Indices 1 2 3 4 5 6 
#
# 1 87.4146 28.2952 29.3652 9.5070 0.0989 1.7910
# 2 28.2952 101.3549 36.5852 14.5954 -7.8544 -19.1631
# 3 29.3652 36.5852 90.6874 11.3014 6.7527 -1.5450
# 4 9.5070 14.5954 11.3014 34.7739 3.3901 -2.2277
# 5 0.0989 -7.8544 6.7527 3.3901 35.4715 4.7906
# 6 1.7910 -19.1631 -1.5450 -2.2277 4.7906 42.0652
#
#
#
# Elastic Compliance Matrix: (Units=1/GPa)
#
#
# Indices 1 2 3 4 5 6 
#
# 1 0.013626 -0.002793 -0.003137 -0.001706 0.000388 -0.002102
# 2 -0.002793 0.014189 -0.004526 -0.003697 0.003580 0.005813
# 3 -0.003137 -0.004526 0.014307 -0.001630 -0.003413 -0.001101
# 4 -0.001706 -0.003697 -0.001630 0.031681 -0.003587 0.000415
# 5 0.000388 0.003580 -0.003413 -0.003587 0.030266 -0.002148
# 6 -0.002102 0.005813 -0.001101 0.000415 -0.002148 0.026736
#
#
# Mechanical properties :
#
#
# Convention : Reuss Voigt Hill
#
# Bulk Modulus (GPa) = 47.15201 51.99425 49.57313
# Shear Modulus (GPa) = 31.48826 34.80955 33.14890
#
# Velocity S-wave (km/s) = 3.83688 4.03416 3.93675
# Velocity P-wave (km/s) = 6.45552 6.78292 6.62124
#
# Compressibility (1/GPa) = 0.02120800
#
# Stress axis : x y z
#
# Youngs Moduli (GPa) = 73.38912 70.47804 69.89415
#
# Poissons Ratio (x) = 0.19687 0.21929
# Poissons Ratio (y) = 0.20500 0.31636
# Poissons Ratio (z) = 0.23025 0.31901
#
# Static dielectric constant tensor:
#      x y z
#    x 4.226200 -0.094670 -0.024590 
#    y -0.094670 4.204330 0.142150 
#    z -0.024590 0.142150 3.571130 
# 
# 
# High freq. dielectric constant tensor:
#      x y z
#    x 1.855110 0.006800 0.000620 
#    y 0.006800 1.853610 0.014880 
#    z 0.000620 0.014880 1.808580 
# 
# From -- ./inp_files/410631.got.cif
#   From: 2010.06.25/outbox.cif.g09.slc.cpg/sg2_206_cif.got.tgz:410631.got - 2010.06.27 13:26:56.
