data_PCOD8008687
_publ_section_title
;
Structure prediction by ZEFSAII (Michael W. Deem and Ramdas Pophale) SiO2 
 PCOD8008687
Probable space group: P -1
;
_chemical_formula_sum "Si O2"
_cell_formula_units_Z 16
_cell_length_a 9.873803
_cell_length_b 16.690213
_cell_length_c 8.827687
_cell_angle_alpha 54.140156
_cell_angle_beta 78.741570
_cell_angle_gamma 47.630531
_cell_volume 821.282905
_symmetry_space_group_name_H-M "P -1"
_symmetry_group_IT_number 2
_symmetry_cell_setting 'triclinic'
loop_
_space_group_symop_operation_xyz
x,y,z
-x,-y,-z
loop_
_atom_site_type_symbol
_atom_site_label
_atom_site_fract_x
_atom_site_fract_y
_atom_site_fract_z
Si Si1 0.458973 0.909289 0.421716
Si Si2 0.438615 0.672165 0.206456
Si Si3 0.281741 0.194502 0.115182
Si Si4 0.524263 0.821178 0.186340
Si Si5 0.144671 0.324196 0.515241
Si Si6 0.222037 0.592354 0.391741
Si Si7 0.429976 0.300641 0.149013
Si Si8 0.870674 0.462639 0.827478
O O1 0.394388 0.925544 0.240897
O O2 0.694989 0.804767 0.489892
O O3 0.421011 0.831299 0.621590
O O4 0.344839 0.063142 0.337523
O O5 0.410907 0.783574 0.189717
O O6 0.254838 0.692720 0.247067
O O7 0.633458 0.518755 0.387159
O O8 0.449976 0.694619 0.001829
O O9 0.303843 0.280960 0.113924
O O10 0.433667 0.121655 0.020578
O O11 0.053743 0.300537 0.005843
O O12 0.742751 0.687665 0.348626
O O13 0.043460 0.470916 0.300019
O O14 0.995130 0.314149 0.602417
O O15 0.248566 0.522089 0.304933
O O16 0.285401 0.449133 0.101220
#
# Coordination Sequence:
#
# PCOD8008687 Si02
#       8
#     2   2   2   2   2   2   2   2
#     4   9  19  34  56  78 107 139 175 217 267 314
#     4  10  21  33  52  82 107 143 176 215 265 314
#     4  11  19  30  54  85 105 134 180 223 257 313
#     4   9  17  33  54  77 105 136 172 215 266 307
#     4   9  17  32  57  79 102 135 167 223 267 298
#     4  11  19  33  55  80 110 135 180 222 257 316
#     4  10  21  34  49  77 113 142 170 217 268 315
#     4  11  19  33  54  81 109 137 172 221 272 304
#
# _framework density 19.481715000000001
#
# number of rings (size 3 to 8) (size 9 to 14) (size 15 to 20)
#    0.750    1.250    2.500    3.000    0.000    1.500 
#    0.000    0.000    0.000    7.500    0.000    1.750 
#    0.000    0.000    0.000    0.000    0.000    0.000 
#
# Total GULP energy -198232.765526 kJ/mol
# GULP energy per Si atom -12389.547845 kJ/mol
# Density = 1.943737 g / cm^3
# Si number density = 19.481715 Si / 1000 Ang^3
#
#
#
# Elastic Constant Matrix: (Units=GPa)
#
#
# Indices 1 2 3 4 5 6 
#
# 1 104.1509 22.4948 27.3323 -1.3506 -18.0691 -0.5986
# 2 22.4948 49.2093 34.6557 -5.5265 -6.0085 0.7522
# 3 27.3323 34.6557 93.0297 -1.6853 -13.9112 -0.1748
# 4 -1.3506 -5.5265 -1.6853 32.9539 0.8979 -2.5332
# 5 -18.0691 -6.0085 -13.9112 0.8979 23.3496 0.9081
# 6 -0.5986 0.7522 -0.1748 -2.5332 0.9081 11.3890
#
#
#
# Elastic Compliance Matrix: (Units=1/GPa)
#
#
# Indices 1 2 3 4 5 6 
#
# 1 0.012039 -0.003967 -0.000905 -0.000417 0.007765 0.000169
# 2 -0.003967 0.029456 -0.009964 0.004214 -0.001540 -0.001247
# 3 -0.000905 -0.009964 0.015616 -0.001065 0.006075 0.000129
# 4 -0.000417 0.004214 -0.001065 0.031541 -0.001350 0.006807
# 5 0.007765 -0.001540 0.006075 -0.001350 0.052262 -0.003864
# 6 0.000169 -0.001247 0.000129 0.006807 -0.003864 0.089719
#
#
# Mechanical properties :
#
#
# Convention : Reuss Voigt Hill
#
# Bulk Modulus (GPa) = 36.44421 46.15063 41.29742
# Shear Modulus (GPa) = 18.55625 24.33232 21.44429
#
# Velocity S-wave (km/s) = 3.08960 3.53793 3.32134
# Velocity P-wave (km/s) = 5.61026 6.35845 5.99604
#
# Compressibility (1/GPa) = 0.02743920
#
# Stress axis : x y z
#
# Youngs Moduli (GPa) = 83.06632 33.94891 64.03520
#
# Poissons Ratio (x) = 0.13467 0.05797
# Poissons Ratio (y) = 0.32951 0.63804
# Poissons Ratio (z) = 0.07520 0.33826
#
# Static dielectric constant tensor:
#      x y z
#    x 3.220910 0.130870 -0.097170 
#    y 0.130870 3.295060 0.261440 
#    z -0.097170 0.261440 3.738030 
# 
# 
# High freq. dielectric constant tensor:
#      x y z
#    x 1.716200 0.015680 -0.009070 
#    y 0.015680 1.742140 0.016470 
#    z -0.009070 0.016470 1.766530 
# 
# From -- ./inp_files/216721.got.cif
#   From: 2010.06.25/outbox.cif.g09.slc.cpg/sg2_109_cif.got.tgz:216721.got - 2010.06.27 13:26:56.
