data_PCOD8008161
_publ_section_title
;
Structure prediction by ZEFSAII (Michael W. Deem and Ramdas Pophale) SiO2 
 PCOD8008161
Probable space group: P -1
;
_chemical_formula_sum "Si O2"
_cell_formula_units_Z 16
_cell_length_a 8.923838
_cell_length_b 11.506500
_cell_length_c 10.443125
_cell_angle_alpha 83.441802
_cell_angle_beta 65.980893
_cell_angle_gamma 52.351705
_cell_volume 762.007922
_symmetry_space_group_name_H-M "P -1"
_symmetry_group_IT_number 2
_symmetry_cell_setting 'triclinic'
loop_
_space_group_symop_operation_xyz
x,y,z
-x,-y,-z
loop_
_atom_site_type_symbol
_atom_site_label
_atom_site_fract_x
_atom_site_fract_y
_atom_site_fract_z
Si Si1 0.237834 0.872969 0.590177
Si Si2 0.484994 0.287745 0.703729
Si Si3 0.274808 0.542583 0.917772
Si Si4 0.069989 0.567463 0.370130
Si Si5 0.519764 0.658735 0.893493
Si Si6 0.153779 0.252364 0.828879
Si Si7 0.079553 0.815218 0.435995
Si Si8 0.207268 0.955095 0.869124
O O1 0.469345 0.752492 0.460210
O O2 0.082985 0.843501 0.584239
O O3 0.249564 0.858374 0.739393
O O4 0.135976 0.044762 0.569400
O O5 0.335451 0.467468 0.763998
O O6 0.364292 0.225638 0.804737
O O7 0.716335 0.208500 0.696047
O O8 0.346717 0.641142 0.910861
O O9 0.403491 0.396904 0.982792
O O10 0.026407 0.644789 0.015832
O O11 0.289373 0.427375 0.258487
O O12 0.103684 0.667755 0.429225
O O13 0.000000 0.500000 0.500000
O O14 0.912443 0.664955 0.295869
O O15 0.404483 0.836185 0.906566
O O16 0.200418 0.094431 0.821742
O O17 0.000000 0.000000 0.000000
#
# Coordination Sequence:
#
# PCOD8008161 Si02
#       8
#     2   2   2   2   2   2   2   2
#     4   9  21  38  64  94 122 171 209 253 323 368
#     4  10  21  39  68  90 128 167 206 266 321 365
#     4  10  20  42  67  86 128 166 217 249 322 372
#     4  11  23  41  65  94 128 167 213 258 316 379
#     4  10  22  38  65  94 117 177 207 256 311 382
#     4  11  24  41  63  98 128 164 210 272 308 371
#     4   9  19  41  64  89 124 171 205 254 318 377
#     4  12  24  39  65  96 128 162 217 259 310 376
#
# _framework density 20.997156
#
# number of rings (size 3 to 8) (size 9 to 14) (size 15 to 20)
#    0.750    1.000    3.750    0.375    3.500    1.500 
#    2.250    3.750    0.000    0.000    0.000    0.000 
#    0.000    0.000    0.000    0.000    0.000    0.000 
#
# Total GULP energy -198208.833278 kJ/mol
# GULP energy per Si atom -12388.052080 kJ/mol
# Density = 2.094937 g / cm^3
# Si number density = 20.997156 Si / 1000 Ang^3
#
#
#
# Elastic Constant Matrix: (Units=GPa)
#
#
# Indices 1 2 3 4 5 6 
#
# 1 75.6365 29.8070 30.5937 3.9009 -16.2710 14.9033
# 2 29.8070 125.1131 45.2391 5.8490 -2.2622 0.7688
# 3 30.5937 45.2391 114.1596 18.8372 -7.6814 6.6708
# 4 3.9009 5.8490 18.8372 33.0614 6.4659 2.1215
# 5 -16.2710 -2.2622 -7.6814 6.4659 22.6457 -0.9752
# 6 14.9033 0.7688 6.6708 2.1215 -0.9752 21.1668
#
#
#
# Elastic Compliance Matrix: (Units=1/GPa)
#
#
# Indices 1 2 3 4 5 6 
#
# 1 0.021492 -0.003927 -0.001995 -0.002691 0.014563 -0.013420
# 2 -0.003927 0.010074 -0.003527 0.001105 -0.003187 0.003253
# 3 -0.001995 -0.003527 0.012186 -0.006820 0.004233 -0.001429
# 4 -0.002691 0.001105 -0.006820 0.037168 -0.014766 -0.000401
# 5 0.014563 -0.003187 0.004233 -0.014766 0.059644 -0.007244
# 6 -0.013420 0.003253 -0.001429 -0.000401 -0.007244 0.056731
#
#
# Mechanical properties :
#
#
# Convention : Reuss Voigt Hill
#
# Bulk Modulus (GPa) = 40.23562 58.46542 49.35052
# Shear Modulus (GPa) = 22.27400 29.32608 25.80004
#
# Velocity S-wave (km/s) = 3.26054 3.74126 3.50914
# Velocity P-wave (km/s) = 5.77744 6.82404 6.32244
#
# Compressibility (1/GPa) = 0.02485360
#
# Stress axis : x y z
#
# Youngs Moduli (GPa) = 46.52968 99.26266 82.06457
#
# Poissons Ratio (x) = 0.38982 0.16373
# Poissons Ratio (y) = 0.18273 0.28941
# Poissons Ratio (z) = 0.09283 0.35006
#
# Static dielectric constant tensor:
#      x y z
#    x 3.656410 0.049090 0.052370 
#    y 0.049090 3.672070 0.170130 
#    z 0.052370 0.170130 3.751730 
# 
# 
# High freq. dielectric constant tensor:
#      x y z
#    x 1.805450 0.006590 -0.000570 
#    y 0.006590 1.817680 0.028360 
#    z -0.000570 0.028360 1.820440 
# 
# From -- ./inp_files/305053.got.cif
#   From: 2010.06.25/outbox.cif.g09.slc.cpg/sg2_153_cif.got.tgz:305053.got - 2010.06.27 13:26:56.
