data_PCOD8008715
_publ_section_title
;
Structure prediction by ZEFSAII (Michael W. Deem and Ramdas Pophale) SiO2 
 PCOD8008715
Probable space group: P -1
;
_chemical_formula_sum "Si O2"
_cell_formula_units_Z 16
_cell_length_a 13.957616
_cell_length_b 9.156277
_cell_length_c 11.576094
_cell_angle_alpha 85.074332
_cell_angle_beta 129.846772
_cell_angle_gamma 123.510952
_cell_volume 860.130706
_symmetry_space_group_name_H-M "P -1"
_symmetry_group_IT_number 2
_symmetry_cell_setting 'triclinic'
loop_
_space_group_symop_operation_xyz
x,y,z
-x,-y,-z
loop_
_atom_site_type_symbol
_atom_site_label
_atom_site_fract_x
_atom_site_fract_y
_atom_site_fract_z
Si Si1 0.025397 0.133437 0.275160
Si Si2 0.830316 0.518051 0.949611
Si Si3 0.155196 0.807181 0.041403
Si Si4 0.357157 0.505254 0.405457
Si Si5 0.195630 0.724675 0.521522
Si Si6 0.499331 0.890094 0.612682
Si Si7 0.029977 0.308401 0.486887
Si Si8 0.943229 0.736506 0.239914
O O1 0.206135 0.306855 0.359372
O O2 0.007592 0.152641 0.396641
O O3 0.994624 0.940842 0.239362
O O4 0.889919 0.127398 0.106557
O O5 0.811141 0.330783 0.967471
O O6 0.690098 0.463568 0.757378
O O7 0.808361 0.582677 0.051758
O O8 0.010244 0.698037 0.030144
O O9 0.317708 0.999948 0.209871
O O10 0.500000 0.500000 0.500000
O O11 0.416181 0.676081 0.525264
O O12 0.388961 0.874203 0.632618
O O13 0.131198 0.508550 0.482774
O O14 0.149360 0.762269 0.607906
O O15 0.100943 0.747510 0.348040
O O16 0.500000 0.000000 0.500000
O O17 0.125669 0.331442 0.676913
#
# Coordination Sequence:
#
# PCOD8008715 Si02
#       8
#     2   2   2   2   2   2   2   2
#     4  11  22  39  59  90 118 159 196 246 291 358
#     4  10  21  40  56  89 114 163 196 242 287 360
#     4  10  23  35  62  83 124 152 201 242 297 346
#     4  11  26  37  59  87 129 152 192 246 306 350
#     4   9  20  36  63  88 112 157 202 243 284 347
#     4  12  22  40  61  91 119 158 195 250 296 349
#     4   9  19  39  63  88 112 159 207 238 288 348
#     4  10  21  33  65  84 118 148 207 237 290 347
#
# _framework density 18.601825000000002
#
# number of rings (size 3 to 8) (size 9 to 14) (size 15 to 20)
#    0.750    1.000    2.500    1.875    7.000    1.000 
#    0.000    0.625    0.000    1.500    0.000    0.000 
#    0.000    0.000    0.000    0.000    0.000    0.000 
#
# Total GULP energy -198340.198532 kJ/mol
# GULP energy per Si atom -12396.262408 kJ/mol
# Density = 1.855949 g / cm^3
# Si number density = 18.601825 Si / 1000 Ang^3
#
#
#
# Elastic Constant Matrix: (Units=GPa)
#
#
# Indices 1 2 3 4 5 6 
#
# 1 78.2044 32.6354 50.6606 -1.3693 -4.0923 -0.1535
# 2 32.6354 113.8286 49.5899 -10.6869 -2.2821 -15.1808
# 3 50.6606 49.5899 128.9873 -0.2140 -5.5173 -4.8186
# 4 -1.3693 -10.6869 -0.2140 26.1591 -0.9556 -0.8304
# 5 -4.0923 -2.2821 -5.5173 -0.9556 35.2278 6.1809
# 6 -0.1535 -15.1808 -4.8186 -0.8304 6.1809 26.2356
#
#
#
# Elastic Compliance Matrix: (Units=1/GPa)
#
#
# Indices 1 2 3 4 5 6 
#
# 1 0.017952 -0.002962 -0.005963 -0.000362 0.001488 -0.003066
# 2 -0.002962 0.012524 -0.003430 0.005114 -0.001166 0.007036
# 3 -0.005963 -0.003430 0.011441 -0.001594 0.000864 -0.000172
# 4 -0.000362 0.005114 -0.001594 0.040424 0.000463 0.003835
# 5 0.001488 -0.001166 0.000864 0.000463 0.029957 -0.007550
# 6 -0.003066 0.007036 -0.000172 0.003835 -0.007550 0.044038
#
#
# Mechanical properties :
#
#
# Convention : Reuss Voigt Hill
#
# Bulk Modulus (GPa) = 58.11907 65.19914 61.65911
# Shear Modulus (GPa) = 26.76933 30.06679 28.41806
#
# Velocity S-wave (km/s) = 3.79762 4.02473 3.91282
# Velocity P-wave (km/s) = 7.10921 7.53153 7.32341
#
# Compressibility (1/GPa) = 0.01720606
#
# Stress axis : x y z
#
# Youngs Moduli (GPa) = 55.70531 79.84812 87.40160
#
# Poissons Ratio (x) = 0.23651 0.52121
# Poissons Ratio (y) = 0.16500 0.29979
# Poissons Ratio (z) = 0.33219 0.27388
#
# Static dielectric constant tensor:
#      x y z
#    x 3.112640 0.162630 0.106960 
#    y 0.162630 3.202000 -0.200650 
#    z 0.106960 -0.200650 3.283590 
# 
# 
# High freq. dielectric constant tensor:
#      x y z
#    x 1.712680 -0.010690 -0.011470 
#    y -0.010690 1.726500 -0.010860 
#    z -0.011470 -0.010860 1.708450 
# 
# From -- ./inp_files/245082.got.cif
#   From: 2010.06.25/outbox.cif.g09.slc.cpg/sg2_123_cif.got.tgz:245082.got - 2010.06.27 13:26:56.
