data_PCOD8008969
_publ_section_title
;
Structure prediction by ZEFSAII (Michael W. Deem and Ramdas Pophale) SiO2 
 PCOD8008969
Probable space group: P -1
;
_chemical_formula_sum "Si O2"
_cell_formula_units_Z 12
_cell_length_a 6.055331
_cell_length_b 11.998465
_cell_length_c 8.635491
_cell_angle_alpha 117.380271
_cell_angle_beta 112.696506
_cell_angle_gamma 77.802793
_cell_volume 513.541543
_symmetry_space_group_name_H-M "P -1"
_symmetry_group_IT_number 2
_symmetry_cell_setting 'triclinic'
loop_
_space_group_symop_operation_xyz
x,y,z
-x,-y,-z
loop_
_atom_site_type_symbol
_atom_site_label
_atom_site_fract_x
_atom_site_fract_y
_atom_site_fract_z
Si Si1 0.797191 0.402458 0.897306
Si Si2 0.869688 0.787547 0.277711
Si Si3 0.515313 0.815837 0.791080
Si Si4 0.326813 0.090816 0.409773
Si Si5 0.524008 0.375473 0.094273
Si Si6 0.867614 0.972121 0.143201
O O1 0.554970 0.476321 0.817714
O O2 0.870173 0.280258 0.734595
O O3 0.764203 0.364318 0.045913
O O4 0.000000 0.500000 0.000000
O O5 0.832086 0.811272 0.465416
O O6 0.854977 0.927044 0.289366
O O7 0.664560 0.702633 0.102975
O O8 0.520566 0.823542 0.610531
O O9 0.450470 0.681042 0.760743
O O10 0.310254 0.909992 0.862702
O O11 0.780475 0.854032 0.944195
O O12 0.500000 0.000000 0.500000
O O13 0.142861 0.007286 0.205592
#
# Coordination Sequence:
#
# PCOD8008969 Si02
#       6
#     2   2   2   2   2   2
#     4   9  19  37  63  87 113 151 210 250 302 358
#     4  10  21  35  61  89 119 161 200 249 299 353
#     4  10  22  39  60  91 125 161 203 246 305 356
#     4  12  24  37  59  92 132 165 199 242 303 364
#     4   9  20  39  62  88 115 156 204 254 298 361
#     4  10  22  38  58  88 125 166 204 244 293 361
#
# _framework density 23.367146000000002
#
# number of rings (size 3 to 8) (size 9 to 14) (size 15 to 20)
#    0.000    2.000    1.667    1.000    2.333    4.000 
#    0.000    0.833    0.000   10.000    0.000    0.000 
#    0.000    0.000    0.000    0.000    0.000    0.000 
#
# Total GULP energy -148678.938750 kJ/mol
# GULP energy per Si atom -12389.911563 kJ/mol
# Density = 2.331396 g / cm^3
# Si number density = 23.367146 Si / 1000 Ang^3
#
#
#
# Elastic Constant Matrix: (Units=GPa)
#
#
# Indices 1 2 3 4 5 6 
#
# 1 122.5045 55.8484 30.1600 -15.1281 -31.0134 9.5694
# 2 55.8484 135.4821 33.4936 -28.6638 -29.5284 13.5994
# 3 30.1600 33.4936 39.4027 -13.9845 -17.1378 1.3213
# 4 -15.1281 -28.6638 -13.9845 28.9106 8.2582 -15.7261
# 5 -31.0134 -29.5284 -17.1378 8.2582 53.5470 -5.1923
# 6 9.5694 13.5994 1.3213 -15.7261 -5.1923 44.8195
#
#
#
# Elastic Compliance Matrix: (Units=1/GPa)
#
#
# Indices 1 2 3 4 5 6 
#
# 1 0.011614 -0.002783 -0.005317 -0.001038 0.003511 -0.001436
# 2 -0.002783 0.011619 -0.004080 0.007463 0.002346 0.000079
# 3 -0.005317 -0.004080 0.040625 0.014973 0.006055 0.007131
# 4 -0.001038 0.007463 0.014973 0.058205 0.001081 0.018064
# 5 0.003511 0.002346 0.006055 0.001081 0.023920 0.001511
# 6 -0.001436 0.000079 0.007131 0.018064 0.001511 0.028897
#
#
# Mechanical properties :
#
#
# Convention : Reuss Voigt Hill
#
# Bulk Modulus (GPa) = 25.31747 59.59925 42.45836
# Shear Modulus (GPa) = 23.53972 37.31458 30.42715
#
# Velocity S-wave (km/s) = 3.17738 4.00044 3.61242
# Velocity P-wave (km/s) = 4.93144 6.84828 5.96733
#
# Compressibility (1/GPa) = 0.03949842
#
# Stress axis : x y z
#
# Youngs Moduli (GPa) = 86.10638 86.06299 24.61520
#
# Poissons Ratio (x) = 0.23954 0.13088
# Poissons Ratio (y) = 0.23966 0.10043
# Poissons Ratio (z) = 0.45782 0.35112
#
# Static dielectric constant tensor:
#      x y z
#    x 4.631560 -0.048300 -0.251680 
#    y -0.048300 4.603040 -0.065270 
#    z -0.251680 -0.065270 3.865080 
# 
# 
# High freq. dielectric constant tensor:
#      x y z
#    x 1.936090 0.012990 -0.013470 
#    y 0.012990 1.925290 -0.011890 
#    z -0.013470 -0.011890 1.877020 
# 
# From -- ./inp_files/24347.got.cif
#   From: 2010.06.25/outbox.cif.g09.slc.cpg/sg2_13_cif.got.tgz:24347.got - 2010.06.27 13:26:56.
