data_PCOD8008267
_publ_section_title
;
Structure prediction by ZEFSAII (Michael W. Deem and Ramdas Pophale) SiO2 
 PCOD8008267
Probable space group: P -1
;
_chemical_formula_sum "Si O2"
_cell_formula_units_Z 16
_cell_length_a 5.935006
_cell_length_b 17.897358
_cell_length_c 20.732249
_cell_angle_alpha 20.474561
_cell_angle_beta 71.332333
_cell_angle_gamma 70.154592
_cell_volume 724.549207
_symmetry_space_group_name_H-M "P -1"
_symmetry_group_IT_number 2
_symmetry_cell_setting 'triclinic'
loop_
_space_group_symop_operation_xyz
x,y,z
-x,-y,-z
loop_
_atom_site_type_symbol
_atom_site_label
_atom_site_fract_x
_atom_site_fract_y
_atom_site_fract_z
Si Si1 0.536975 0.390315 0.769601
Si Si2 0.933263 0.730067 0.044080
Si Si3 0.712011 0.023875 0.143405
Si Si4 0.260214 0.713849 0.718302
Si Si5 0.996990 0.036063 0.573032
Si Si6 0.712500 0.659191 0.644388
Si Si7 0.688405 0.784500 0.888785
Si Si8 0.705238 0.540878 0.502030
O O1 0.250342 0.387841 0.799706
O O2 0.603550 0.600290 0.632976
O O3 0.640418 0.393542 0.686141
O O4 0.637351 0.163504 0.974309
O O5 0.172666 0.563662 0.154582
O O6 0.848008 0.796244 0.927857
O O7 0.006362 0.951285 0.890733
O O8 0.650302 0.788105 0.325964
O O9 0.576976 0.117437 0.145316
O O10 0.191628 0.845810 0.682752
O O11 0.513717 0.764492 0.627305
O O12 0.279854 0.462247 0.937194
O O13 0.067901 0.787281 0.620110
O O14 0.769366 0.930224 0.705667
O O15 0.105370 0.160540 0.522367
O O16 0.500000 0.500000 0.500000
O O17 0.000000 0.500000 0.500000
#
# Coordination Sequence:
#
# PCOD8008267 Si02
#       8
#     2   2   2   2   2   2   2   2
#     4  10  24  45  74  97 139 184 228 283 342 425
#     4  10  20  42  69  96 129 174 236 282 332 408
#     4  10  25  44  74 100 135 186 230 277 350 417
#     4  11  22  44  54  96 136 181 229 289 353 404
#     4  11  25  35  65  89 143 179 223 298 354 393
#     4  11  20  41  65  95 129 183 233 279 340 417
#     4  11  22  40  65  98 127 180 240 282 334 424
#     4  12  32  51  74 116 149 176 230 291 358 437
#
# _framework density 22.082695999999999
#
# number of rings (size 3 to 8) (size 9 to 14) (size 15 to 20)
#    0.000    1.250    5.000    0.750   12.250    1.000 
#    0.000    0.625    0.000    0.000    0.000    0.000 
#    0.000    0.000    0.000    0.000    0.000    0.000 
#
# Total GULP energy -198209.835648 kJ/mol
# GULP energy per Si atom -12388.114728 kJ/mol
# Density = 2.203243 g / cm^3
# Si number density = 22.082696 Si / 1000 Ang^3
#
#
#
# Elastic Constant Matrix: (Units=GPa)
#
#
# Indices 1 2 3 4 5 6 
#
# 1 96.0940 21.6966 7.3741 -10.6607 -16.8077 -1.8442
# 2 21.6966 66.9493 21.3810 11.0421 -5.4371 -6.9146
# 3 7.3741 21.3810 85.0855 -7.9225 -19.9850 1.4761
# 4 -10.6607 11.0421 -7.9225 38.6456 4.2400 -4.6074
# 5 -16.8077 -5.4371 -19.9850 4.2400 26.2782 -10.4151
# 6 -1.8442 -6.9146 1.4761 -4.6074 -10.4151 23.6695
#
#
#
# Elastic Compliance Matrix: (Units=1/GPa)
#
#
# Indices 1 2 3 4 5 6 
#
# 1 0.014021 -0.004890 0.003171 0.005301 0.011762 0.005673
# 2 -0.004890 0.019924 -0.005422 -0.007628 -0.000238 0.004188
# 3 0.003171 -0.005422 0.016686 0.004824 0.014835 0.005090
# 4 0.005301 -0.007628 0.004824 0.030828 0.002479 0.004975
# 5 0.011762 -0.000238 0.014835 0.002479 0.068520 0.030555
# 6 0.005673 0.004188 0.005090 0.004975 0.030555 0.058010
#
#
# Mechanical properties :
#
#
# Convention : Reuss Voigt Hill
#
# Bulk Modulus (GPa) = 27.50970 38.78134 33.14552
# Shear Modulus (GPa) = 21.33219 30.89714 26.11467
#
# Velocity S-wave (km/s) = 3.11145 3.74459 3.44260
# Velocity P-wave (km/s) = 5.03912 6.02461 5.55377
#
# Compressibility (1/GPa) = 0.03635082
#
# Stress axis : x y z
#
# Youngs Moduli (GPa) = 71.31949 50.19015 59.93094
#
# Poissons Ratio (x) = 0.24543 -0.19006
# Poissons Ratio (y) = 0.34875 0.32493
# Poissons Ratio (z) = -0.22618 0.27212
#
# Static dielectric constant tensor:
#      x y z
#    x 4.381790 -0.093310 -0.197630 
#    y -0.093310 3.830030 -0.137920 
#    z -0.197630 -0.137920 3.969480 
# 
# 
# High freq. dielectric constant tensor:
#      x y z
#    x 1.878830 -0.006370 -0.013120 
#    y -0.006370 1.846200 -0.008410 
#    z -0.013120 -0.008410 1.875690 
# 
# From -- ./inp_files/44771.got.cif
#   From: 2010.06.25/outbox.cif.g09.slc.cpg/sg2_23_cif.got.tgz:44771.got - 2010.06.27 13:26:56.
