data_PCOD8008372
_publ_section_title
;
Structure prediction by ZEFSAII (Michael W. Deem and Ramdas Pophale) SiO2 
 PCOD8008372
Probable space group: P -1
;
_chemical_formula_sum "Si O2"
_cell_formula_units_Z 16
_cell_length_a 14.386783
_cell_length_b 8.696195
_cell_length_c 11.541931
_cell_angle_alpha 95.448305
_cell_angle_beta 78.487573
_cell_angle_gamma 149.020845
_cell_volume 719.966447
_symmetry_space_group_name_H-M "P -1"
_symmetry_group_IT_number 2
_symmetry_cell_setting 'triclinic'
loop_
_space_group_symop_operation_xyz
x,y,z
-x,-y,-z
loop_
_atom_site_type_symbol
_atom_site_label
_atom_site_fract_x
_atom_site_fract_y
_atom_site_fract_z
Si Si1 0.531766 0.202291 0.444656
Si Si2 0.471976 0.482984 0.167766
Si Si3 0.706320 0.862147 0.471939
Si Si4 0.855740 0.500418 0.960403
Si Si5 0.756760 0.690929 0.606092
Si Si6 0.016047 0.899181 0.739830
Si Si7 0.305399 0.507559 0.815934
Si Si8 0.765144 0.024047 0.969199
O O1 0.331871 0.010146 0.490546
O O2 0.701680 0.520858 0.492001
O O3 0.589178 0.262889 0.300653
O O4 0.500000 0.000000 0.500000
O O5 0.427687 0.533103 0.289247
O O6 0.584525 0.488062 0.170693
O O7 0.273491 0.146615 0.140615
O O8 0.583868 0.751794 0.074326
O O9 0.500000 0.500000 0.500000
O O10 0.823463 0.951397 0.556923
O O11 0.817236 0.982444 0.333762
O O12 0.778832 0.220684 0.938562
O O13 0.876966 0.611712 0.838149
O O14 0.711621 0.393946 0.068255
O O15 0.053150 0.774494 0.994240
O O16 0.910365 0.813881 0.647090
O O17 0.100638 0.163884 0.805335
#
# Coordination Sequence:
#
# PCOD8008372 Si02
#       8
#     2   2   2   2   2   2   2   2
#     4  11  25  42  66 100 132 172 219 276 332 390
#     4  11  23  43  71  93 133 180 229 266 331 407
#     4  10  20  43  65  92 125 172 220 266 322 398
#     4  11  26  42  66 100 140 170 220 284 340 388
#     4  11  23  41  69  97 126 175 226 273 326 401
#     4  12  23  41  70  98 133 176 226 276 336 394
#     4  12  23  42  67  96 135 175 222 271 332 403
#     4  10  25  44  63 100 132 181 219 274 337 397
#
# _framework density 22.223258999999999
#
# number of rings (size 3 to 8) (size 9 to 14) (size 15 to 20)
#    0.000    1.000    5.000    2.250    5.250    2.500 
#    0.000    0.625    0.000    0.000    0.000    0.000 
#    0.000    0.000    0.000    0.000    0.000    0.000 
#
# Total GULP energy -198326.584119 kJ/mol
# GULP energy per Si atom -12395.411507 kJ/mol
# Density = 2.217268 g / cm^3
# Si number density = 22.223259 Si / 1000 Ang^3
#
#
#
# Elastic Constant Matrix: (Units=GPa)
#
#
# Indices 1 2 3 4 5 6 
#
# 1 123.6760 26.5352 42.8695 -15.0152 10.8841 -3.7275
# 2 26.5352 61.0864 17.6101 -9.7961 7.8087 -2.7731
# 3 42.8695 17.6101 131.1957 -16.8122 -3.6815 -7.9365
# 4 -15.0152 -9.7961 -16.8122 23.9334 1.3291 11.9991
# 5 10.8841 7.8087 -3.6815 1.3291 48.7721 -4.8921
# 6 -3.7275 -2.7731 -7.9365 11.9991 -4.8921 28.8356
#
#
#
# Elastic Compliance Matrix: (Units=1/GPa)
#
#
# Indices 1 2 3 4 5 6 
#
# 1 0.010286 -0.002768 -0.002582 0.004628 -0.002371 -0.001976
# 2 -0.002768 0.019207 -0.001035 0.006576 -0.002918 -0.002027
# 3 -0.002582 -0.001035 0.009198 0.004005 0.001394 0.000668
# 4 0.004628 0.006576 0.004005 0.063010 -0.005999 -0.024905
# 5 -0.002371 -0.002918 0.001394 -0.005999 0.022379 0.006090
# 6 -0.001976 -0.002027 0.000668 -0.024905 0.006090 0.045809
#
#
# Mechanical properties :
#
#
# Convention : Reuss Voigt Hill
#
# Bulk Modulus (GPa) = 38.58238 54.44307 46.51272
# Shear Modulus (GPa) = 26.13696 35.57109 30.85403
#
# Velocity S-wave (km/s) = 3.43316 4.00512 3.73012
# Velocity P-wave (km/s) = 5.75451 6.77786 6.28704
#
# Compressibility (1/GPa) = 0.02591857
#
# Stress axis : x y z
#
# Youngs Moduli (GPa) = 97.22246 52.06541 108.72246
#
# Poissons Ratio (x) = 0.14411 0.28076
# Poissons Ratio (y) = 0.26910 0.11258
# Poissons Ratio (z) = 0.25107 0.05391
#
# Static dielectric constant tensor:
#      x y z
#    x 3.453390 0.356730 0.255560 
#    y 0.356730 3.706200 0.004750 
#    z 0.255560 0.004750 4.247170 
# 
# 
# High freq. dielectric constant tensor:
#      x y z
#    x 1.888060 0.008790 0.006400 
#    y 0.008790 1.841260 -0.001190 
#    z 0.006400 -0.001190 1.891330 
# 
# From -- ./inp_files/329326.got.cif
#   From: 2010.06.25/outbox.cif.g09.slc.cpg/sg2_165_cif.got.tgz:329326.got - 2010.06.27 13:26:56.
