data_PCOD8008188
_publ_section_title
;
Structure prediction by ZEFSAII (Michael W. Deem and Ramdas Pophale) SiO2 
 PCOD8008188
Probable space group: P -1
;
_chemical_formula_sum "Si O2"
_cell_formula_units_Z 16
_cell_length_a 10.315738
_cell_length_b 14.267607
_cell_length_c 20.641958
_cell_angle_alpha 20.025143
_cell_angle_beta 52.423194
_cell_angle_gamma 63.395344
_cell_volume 731.650506
_symmetry_space_group_name_H-M "P -1"
_symmetry_group_IT_number 2
_symmetry_cell_setting 'triclinic'
loop_
_space_group_symop_operation_xyz
x,y,z
-x,-y,-z
loop_
_atom_site_type_symbol
_atom_site_label
_atom_site_fract_x
_atom_site_fract_y
_atom_site_fract_z
Si Si1 0.629890 0.356210 0.324854
Si Si2 0.818345 0.529051 0.030931
Si Si3 0.363820 0.487691 0.240887
Si Si4 0.054322 0.795293 0.407682
Si Si5 0.112569 0.007321 0.111124
Si Si6 0.505436 0.313102 0.180993
Si Si7 0.611279 0.886603 0.149673
Si Si8 0.774747 0.636098 0.370041
O O1 0.691542 0.292707 0.277281
O O2 0.458896 0.426168 0.315568
O O3 0.578414 0.044209 0.582960
O O4 0.799877 0.631825 0.131096
O O5 0.720438 0.418327 0.063522
O O6 0.000000 0.500000 0.000000
O O7 0.826453 0.858668 0.828473
O O8 0.406083 0.372229 0.234918
O O9 0.147332 0.315239 0.431001
O O10 0.436642 0.854911 0.973982
O O11 0.136949 0.572100 0.552074
O O12 0.066119 0.790784 0.328942
O O13 0.267995 0.972978 0.043259
O O14 0.919351 0.897248 0.203988
O O15 0.500000 0.500000 0.000000
O O16 0.738324 0.810823 0.208483
O O17 0.418718 0.579515 0.394175
#
# Coordination Sequence:
#
# PCOD8008188 Si02
#       8
#     2   2   2   2   2   2   2   2
#     4  10  23  41  68  92 133 175 218 275 336 401
#     4  10  20  42  67  94 131 175 226 277 336 395
#     4  11  23  44  68  95 132 182 218 277 345 393
#     4  11  23  39  69  97 133 173 229 277 326 403
#     4  11  24  41  65 101 129 174 229 269 320 406
#     4  11  24  45  67 100 133 173 228 279 343 404
#     4  11  25  43  67  93 142 180 216 277 341 390
#     4  11  24  43  61  97 137 182 217 274 336 395
#
# _framework density 21.868365000000001
#
# number of rings (size 3 to 8) (size 9 to 14) (size 15 to 20)
#    0.000    1.250    1.250    6.000    1.750    4.000 
#    4.500    1.250    0.000    0.000    0.000    0.000 
#    0.000    0.000    0.000    0.000    0.000    0.000 
#
# Total GULP energy -198356.388797 kJ/mol
# GULP energy per Si atom -12397.274300 kJ/mol
# Density = 2.181859 g / cm^3
# Si number density = 21.868365 Si / 1000 Ang^3
#
#
#
# Elastic Constant Matrix: (Units=GPa)
#
#
# Indices 1 2 3 4 5 6 
#
# 1 135.2035 47.6181 65.9813 -11.1050 -2.0667 -14.7614
# 2 47.6181 79.0717 37.3067 -3.4891 4.9730 -7.1114
# 3 65.9813 37.3067 118.1166 -15.9583 9.9630 -0.2109
# 4 -11.1050 -3.4891 -15.9583 42.5265 -7.5203 -6.0582
# 5 -2.0667 4.9730 9.9630 -7.5203 42.7188 -6.6743
# 6 -14.7614 -7.1114 -0.2109 -6.0582 -6.6743 31.1362
#
#
#
# Elastic Compliance Matrix: (Units=1/GPa)
#
#
# Indices 1 2 3 4 5 6 
#
# 1 0.012689 -0.004557 -0.005639 0.002392 0.003854 0.006228
# 2 -0.004557 0.016860 -0.002778 -0.000953 -0.001522 0.001160
# 3 -0.005639 -0.002778 0.013043 0.002140 -0.003159 -0.003480
# 4 0.002392 -0.000953 0.002140 0.026907 0.005616 0.007370
# 5 0.003854 -0.001522 -0.003159 0.005616 0.026794 0.008294
# 6 0.006228 0.001160 -0.003480 0.007370 0.008294 0.038523
#
#
# Mechanical properties :
#
#
# Convention : Reuss Voigt Hill
#
# Bulk Modulus (GPa) = 60.08623 70.46710 65.27666
# Shear Modulus (GPa) = 30.06401 35.37535 32.71968
#
# Velocity S-wave (km/s) = 3.71181 4.02636 3.87228
# Velocity P-wave (km/s) = 6.77540 7.34226 7.06452
#
# Compressibility (1/GPa) = 0.01664275
#
# Stress axis : x y z
#
# Youngs Moduli (GPa) = 78.80929 59.31304 76.66907
#
# Poissons Ratio (x) = 0.27031 0.43237
# Poissons Ratio (y) = 0.35916 0.21296
# Poissons Ratio (z) = 0.44444 0.16475
#
# Static dielectric constant tensor:
#      x y z
#    x 4.555200 -0.263180 -0.398260 
#    y -0.263180 3.903550 0.006520 
#    z -0.398260 0.006520 4.304490 
# 
# 
# High freq. dielectric constant tensor:
#      x y z
#    x 1.857680 -0.012420 -0.011880 
#    y -0.012420 1.847830 -0.006070 
#    z -0.011880 -0.006070 1.879970 
# 
# From -- ./inp_files/590399.got.cif
#   From: 2010.06.25/outbox.cif.g09.slc.cpg/sg2_296_cif.got.tgz:590399.got - 2010.06.27 13:26:56.
