data_PCOD8008377
_publ_section_title
;
Structure prediction by ZEFSAII (Michael W. Deem and Ramdas Pophale) SiO2 
 PCOD8008377
Probable space group: P -1
;
_chemical_formula_sum "Si O2"
_cell_formula_units_Z 14
_cell_length_a 12.931515
_cell_length_b 10.580665
_cell_length_c 8.897777
_cell_angle_alpha 47.229646
_cell_angle_beta 127.135334
_cell_angle_gamma 106.772908
_cell_volume 696.971546
_symmetry_space_group_name_H-M "P -1"
_symmetry_group_IT_number 2
_symmetry_cell_setting 'triclinic'
loop_
_space_group_symop_operation_xyz
x,y,z
-x,-y,-z
loop_
_atom_site_type_symbol
_atom_site_label
_atom_site_fract_x
_atom_site_fract_y
_atom_site_fract_z
Si Si1 0.341559 0.942914 0.485159
Si Si2 0.571196 0.053644 0.754295
Si Si3 0.732891 0.311312 0.150950
Si Si4 0.016239 0.580573 0.788943
Si Si5 0.749529 0.726566 0.278563
Si Si6 0.504378 0.675618 0.280147
Si Si7 0.780175 0.654654 0.022568
O O1 0.478473 0.925373 0.712217
O O2 0.273490 0.149757 0.246142
O O3 0.373985 0.858817 0.414633
O O4 0.251947 0.826177 0.585061
O O5 0.487832 0.185359 0.693511
O O6 0.694790 0.935521 0.045877
O O7 0.877760 0.290271 0.216882
O O8 0.627737 0.261861 0.983325
O O9 0.688431 0.516567 0.001052
O O10 0.876638 0.694357 0.522286
O O11 0.000000 0.500000 0.000000
O O12 0.071654 0.418005 0.854736
O O13 0.635697 0.641898 0.322155
O O14 0.788741 0.643666 0.217763
O O15 0.500000 0.500000 0.500000
#
# Coordination Sequence:
#
# PCOD8008377 Si02
#       7
#     2   2   2   2   2   2   2
#     4  10  20  43  65  95 125 169 205 260 316 368
#     4  10  23  39  64  94 131 158 210 262 315 372
#     4  10  23  40  64  93 125 163 213 254 312 370
#     4  10  23  43  62  92 127 168 208 258 317 371
#     4  11  22  42  65  87 127 173 200 260 322 359
#     4  12  24  37  62  97 126 162 213 261 309 372
#     4   9  23  41  67  89 129 165 211 257 311 378
#
# _framework density 20.086903
#
# number of rings (size 3 to 8) (size 9 to 14) (size 15 to 20)
#    0.857    0.857    1.429    2.571    4.000    0.571 
#    0.000    7.143    0.000    0.000    0.000    0.000 
#    0.000    0.000    0.000    0.000    0.000    0.000 
#
# Total GULP energy -173504.291284 kJ/mol
# GULP energy per Si atom -12393.163663 kJ/mol
# Density = 2.004118 g / cm^3
# Si number density = 20.086903 Si / 1000 Ang^3
#
#
#
# Elastic Constant Matrix: (Units=GPa)
#
#
# Indices 1 2 3 4 5 6 
#
# 1 170.8192 38.5113 73.8967 5.4627 -21.8513 5.7599
# 2 38.5113 55.3375 28.2353 -2.8328 -12.8047 -9.1725
# 3 73.8967 28.2353 130.5855 5.9742 -8.5492 5.9200
# 4 5.4627 -2.8328 5.9742 29.5867 6.4309 0.2823
# 5 -21.8513 -12.8047 -8.5492 6.4309 46.5889 -0.7550
# 6 5.7599 -9.1725 5.9200 0.2823 -0.7550 37.1163
#
#
#
# Elastic Compliance Matrix: (Units=1/GPa)
#
#
# Indices 1 2 3 4 5 6 
#
# 1 0.008847 -0.003984 -0.003819 -0.001787 0.002573 -0.001682
# 2 -0.003984 0.024839 -0.003312 0.002826 0.004080 0.007346
# 3 -0.003819 -0.003312 0.010660 -0.001626 -0.000552 -0.001925
# 4 -0.001787 0.002826 -0.001626 0.035871 -0.005298 0.000854
# 5 0.002573 0.004080 -0.000552 -0.005298 0.024443 0.001234
# 6 -0.001682 0.007346 -0.001925 0.000854 0.001234 0.029345
#
#
# Mechanical properties :
#
#
# Convention : Reuss Voigt Hill
#
# Bulk Modulus (GPa) = 45.20996 70.89207 58.05102
# Shear Modulus (GPa) = 30.56110 37.06499 33.81304
#
# Velocity S-wave (km/s) = 3.90480 4.30028 4.10730
# Velocity P-wave (km/s) = 6.54874 7.74763 7.17328
#
# Compressibility (1/GPa) = 0.02211902
#
# Stress axis : x y z
#
# Youngs Moduli (GPa) = 113.02868 40.25860 93.80500
#
# Poissons Ratio (x) = 0.16037 0.35822
# Poissons Ratio (y) = 0.45026 0.31066
# Poissons Ratio (z) = 0.43163 0.13333
#
# Static dielectric constant tensor:
#      x y z
#    x 3.684410 0.051140 -0.074600 
#    y 0.051140 3.035730 -0.195140 
#    z -0.074600 -0.195140 3.858410 
# 
# 
# High freq. dielectric constant tensor:
#      x y z
#    x 1.789710 -0.012700 -0.017850 
#    y -0.012700 1.759450 0.001960 
#    z -0.017850 0.001960 1.793610 
# 
# From -- ./inp_files/251725.got.cif
#   From: 2010.06.25/outbox.cif.g09.slc.cpg/sg2_126_cif.got.tgz:251725.got - 2010.06.27 13:26:56.
