data_PCOD8008799
_publ_section_title
;
Structure prediction by ZEFSAII (Michael W. Deem and Ramdas Pophale) SiO2 
 PCOD8008799
Probable space group: P -1
;
_chemical_formula_sum "Si O2"
_cell_formula_units_Z 16
_cell_length_a 11.693505
_cell_length_b 20.456832
_cell_length_c 11.693605
_cell_angle_alpha 148.943744
_cell_angle_beta 115.854485
_cell_angle_gamma 42.282352
_cell_volume 797.951537
_symmetry_space_group_name_H-M "P -1"
_symmetry_group_IT_number 2
_symmetry_cell_setting 'triclinic'
loop_
_space_group_symop_operation_xyz
x,y,z
-x,-y,-z
loop_
_atom_site_type_symbol
_atom_site_label
_atom_site_fract_x
_atom_site_fract_y
_atom_site_fract_z
Si Si1 0.148963 0.002599 0.703778
Si Si2 0.544179 0.694551 0.291649
Si Si3 0.883496 0.489231 0.558282
Si Si4 0.271948 0.160353 0.102101
Si Si5 0.683529 0.380408 0.704896
Si Si6 0.092315 0.587763 0.286615
Si Si7 0.718187 0.448829 0.221561
Si Si8 0.691091 0.790137 0.334139
O O1 0.291851 0.889423 0.481305
O O2 0.165630 0.853392 0.547664
O O3 0.239997 0.038819 0.879822
O O4 0.907957 0.222085 0.905582
O O5 0.631945 0.616101 0.341357
O O6 0.614506 0.770056 0.379287
O O7 0.634740 0.503681 0.978485
O O8 0.774490 0.713053 0.838448
O O9 0.864574 0.448333 0.614416
O O10 0.784917 0.470033 0.395601
O O11 0.124253 0.319741 0.380239
O O12 0.500000 0.000000 0.000000
O O13 0.804480 0.363670 0.636901
O O14 0.462816 0.504668 0.748622
O O15 0.848253 0.774120 0.426394
O O16 0.197242 0.383903 0.970903
O O17 0.500000 0.000000 0.500000
#
# Coordination Sequence:
#
# PCOD8008799 Si02
#       8
#     2   2   2   2   2   2   2   2
#     4  10  21  34  61  88 115 160 202 248 300 355
#     4  10  22  37  62  90 122 156 201 262 301 354
#     4  10  23  38  61  92 122 162 199 254 312 352
#     4  10  21  36  58  90 122 154 202 251 300 360
#     4  10  22  41  57  87 127 165 205 246 297 362
#     4  10  24  42  61  87 127 164 201 252 305 365
#     4  10  21  39  60  92 124 157 205 250 305 359
#     4  10  24  41  62  90 120 162 208 250 306 368
#
# _framework density 20.051342999999999
#
# number of rings (size 3 to 8) (size 9 to 14) (size 15 to 20)
#    0.000    2.000    0.000    3.000    8.750    6.500 
#    0.000    2.500    0.000    0.000    0.000    0.000 
#    0.000    0.000    0.000    0.000    0.000    0.000 
#
# Total GULP energy -198360.081095 kJ/mol
# GULP energy per Si atom -12397.505068 kJ/mol
# Density = 2.000571 g / cm^3
# Si number density = 20.051343 Si / 1000 Ang^3
#
#
#
# Elastic Constant Matrix: (Units=GPa)
#
#
# Indices 1 2 3 4 5 6 
#
# 1 169.4701 84.4474 49.3041 8.9376 -3.5534 0.2828
# 2 84.4474 117.4818 37.0262 5.0485 -8.1459 4.7527
# 3 49.3041 37.0262 77.5292 16.0573 6.4514 9.6463
# 4 8.9376 5.0485 16.0573 32.7324 -2.7454 -7.1296
# 5 -3.5534 -8.1459 6.4514 -2.7454 25.0222 -3.5121
# 6 0.2828 4.7527 9.6463 -7.1296 -3.5121 31.3344
#
#
#
# Elastic Compliance Matrix: (Units=1/GPa)
#
#
# Indices 1 2 3 4 5 6 
#
# 1 0.010048 -0.006012 -0.004044 0.000755 0.000924 0.002341
# 2 -0.006012 0.014290 -0.003764 0.001696 0.004953 -0.000014
# 3 -0.004044 -0.003764 0.021858 -0.012070 -0.010164 -0.010007
# 4 0.000755 0.001696 -0.012070 0.039819 0.010055 0.013639
# 5 0.000924 0.004953 -0.010164 0.010055 0.046822 0.009905
# 6 0.002341 -0.000014 -0.010007 0.013639 0.009905 0.039189
#
#
# Mechanical properties :
#
#
# Convention : Reuss Voigt Hill
#
# Bulk Modulus (GPa) = 53.88099 78.44850 66.16474
# Shear Modulus (GPa) = 24.28941 30.73135 27.51038
#
# Velocity S-wave (km/s) = 3.48424 3.91913 3.70807
# Velocity P-wave (km/s) = 6.56631 7.72581 7.16954
#
# Compressibility (1/GPa) = 0.01855942
#
# Stress axis : x y z
#
# Youngs Moduli (GPa) = 99.51790 69.97712 45.74950
#
# Poissons Ratio (x) = 0.42067 0.18500
# Poissons Ratio (y) = 0.59826 0.17218
# Poissons Ratio (z) = 0.40242 0.26336
#
# Static dielectric constant tensor:
#      x y z
#    x 3.891390 -0.201870 -0.125440 
#    y -0.201870 3.513880 0.184930 
#    z -0.125440 0.184930 3.884280 
# 
# 
# High freq. dielectric constant tensor:
#      x y z
#    x 1.788250 -0.014860 -0.000970 
#    y -0.014860 1.773180 0.010230 
#    z -0.000970 0.010230 1.789490 
# 
# From -- ./inp_files/427568.got.cif
#   From: 2010.06.25/outbox.cif.g09.slc.cpg/sg2_214_cif.got.tgz:427568.got - 2010.06.27 13:26:56.
