data_PCOD8008813
_publ_section_title
;
Structure prediction by ZEFSAII (Michael W. Deem and Ramdas Pophale) SiO2 
 PCOD8008813
Probable space group: P -1
;
_chemical_formula_sum "Si O2"
_cell_formula_units_Z 14
_cell_length_a 9.394279
_cell_length_b 7.295595
_cell_length_c 12.102636
_cell_angle_alpha 110.050201
_cell_angle_beta 127.406743
_cell_angle_gamma 67.596491
_cell_volume 602.118824
_symmetry_space_group_name_H-M "P -1"
_symmetry_group_IT_number 2
_symmetry_cell_setting 'triclinic'
loop_
_space_group_symop_operation_xyz
x,y,z
-x,-y,-z
loop_
_atom_site_type_symbol
_atom_site_label
_atom_site_fract_x
_atom_site_fract_y
_atom_site_fract_z
Si Si1 0.674804 0.465043 0.820173
Si Si2 0.708006 0.503628 0.084686
Si Si3 0.905121 0.056182 0.791978
Si Si4 0.768520 0.875883 0.900546
Si Si5 0.359792 0.077616 0.776853
Si Si6 0.077826 0.133843 0.480329
Si Si7 0.731132 0.333847 0.283791
O O1 0.751919 0.265222 0.746152
O O2 0.728491 0.655184 0.828807
O O3 0.451576 0.501835 0.733211
O O4 0.776875 0.421655 0.979344
O O5 0.723654 0.734646 0.144691
O O6 0.806413 0.363993 0.201632
O O7 0.500000 0.500000 0.000000
O O8 0.849130 0.911712 0.827143
O O9 0.908896 0.954279 0.654293
O O10 0.097964 0.104298 0.930626
O O11 0.579194 0.042938 0.863594
O O12 0.274036 0.146060 0.627413
O O13 0.308274 0.886871 0.769728
O O14 0.913014 0.339889 0.444043
O O15 0.000000 0.000000 0.500000
#
# Coordination Sequence:
#
# PCOD8008813 Si02
#       7
#     2   2   2   2   2   2   2
#     4  10  22  38  64  98 125 160 212 263 316 368
#     4  10  21  34  64  96 126 156 210 262 310 365
#     4  11  24  41  65  90 133 161 211 268 306 376
#     4  10  23  39  66  96 122 170 211 257 324 360
#     4  10  22  42  64  94 128 170 211 256 312 382
#     4  10  24  44  65  92 128 172 209 255 318 377
#     4   9  21  40  64  92 127 167 207 254 315 368
#
# _framework density 23.251225000000002
#
# number of rings (size 3 to 8) (size 9 to 14) (size 15 to 20)
#    0.000    2.000    0.000    2.143   12.000    4.000 
#    0.000    9.286    0.000    0.000    0.000    0.000 
#    0.000    0.000    0.000    0.000    0.000    0.000 
#
# Total GULP energy -173451.046745 kJ/mol
# GULP energy per Si atom -12389.360482 kJ/mol
# Density = 2.319830 g / cm^3
# Si number density = 23.251225 Si / 1000 Ang^3
#
#
#
# Elastic Constant Matrix: (Units=GPa)
#
#
# Indices 1 2 3 4 5 6 
#
# 1 77.8357 33.2962 28.9145 -7.9025 -4.9245 -4.5423
# 2 33.2962 76.6200 46.0459 -26.3555 13.7146 -9.2611
# 3 28.9145 46.0459 68.6777 -13.0771 0.1997 -19.6695
# 4 -7.9025 -26.3555 -13.0771 41.1244 -4.1175 5.2636
# 5 -4.9245 13.7146 0.1997 -4.1175 28.1650 -8.6755
# 6 -4.5423 -9.2611 -19.6695 5.2636 -8.6755 36.8729
#
#
#
# Elastic Compliance Matrix: (Units=1/GPa)
#
#
# Indices 1 2 3 4 5 6 
#
# 1 0.017384 -0.008227 -0.001910 -0.001958 0.007081 0.001002
# 2 -0.008227 0.036746 -0.021189 0.014483 -0.020109 -0.009886
# 3 -0.001910 -0.021189 0.033399 -0.003977 0.014141 0.016154
# 4 -0.001958 0.014483 -0.003977 0.032102 -0.003981 -0.004244
# 5 0.007081 -0.020109 0.014141 -0.003981 0.050742 0.015872
# 6 0.001002 -0.009886 0.016154 -0.004244 0.015872 0.037718
#
#
# Mechanical properties :
#
#
# Convention : Reuss Voigt Hill
#
# Bulk Modulus (GPa) = 40.19379 48.84964 44.52171
# Shear Modulus (GPa) = 17.91893 28.89092 23.40492
#
# Velocity S-wave (km/s) = 2.77910 3.52881 3.17615
# Velocity P-wave (km/s) = 5.25567 6.13665 5.71317
#
# Compressibility (1/GPa) = 0.02487947
#
# Stress axis : x y z
#
# Youngs Moduli (GPa) = 57.52471 27.21352 29.94085
#
# Poissons Ratio (x) = 0.22388 0.05718
# Poissons Ratio (y) = 0.47324 0.63441
# Poissons Ratio (z) = 0.10985 0.57662
#
# Static dielectric constant tensor:
#      x y z
#    x 4.023980 -0.709730 0.891390 
#    y -0.709730 3.836460 -0.568270 
#    z 0.891390 -0.568270 5.739060 
# 
# 
# High freq. dielectric constant tensor:
#      x y z
#    x 1.919490 0.006590 0.006000 
#    y 0.006590 1.936370 -0.026490 
#    z 0.006000 -0.026490 1.899470 
# 
# From -- ./inp_files/418277.got.cif
#   From: 2010.06.25/outbox.cif.g09.slc.cpg/sg2_210_cif.got.tgz:418277.got - 2010.06.27 13:26:56.
