data_PCOD8008775
_publ_section_title
;
Structure prediction by ZEFSAII (Michael W. Deem and Ramdas Pophale) SiO2 
 PCOD8008775
Probable space group: P -1
;
_chemical_formula_sum "Si O2"
_cell_formula_units_Z 14
_cell_length_a 12.056832
_cell_length_b 15.213941
_cell_length_c 13.359801
_cell_angle_alpha 160.247330
_cell_angle_beta 128.201309
_cell_angle_gamma 52.740518
_cell_volume 648.315150
_symmetry_space_group_name_H-M "P -1"
_symmetry_group_IT_number 2
_symmetry_cell_setting 'triclinic'
loop_
_space_group_symop_operation_xyz
x,y,z
-x,-y,-z
loop_
_atom_site_type_symbol
_atom_site_label
_atom_site_fract_x
_atom_site_fract_y
_atom_site_fract_z
Si Si1 0.655526 0.557472 0.832415
Si Si2 0.032677 0.775313 0.858317
Si Si3 0.358697 0.298663 0.803074
Si Si4 0.078213 0.073878 0.832980
Si Si5 0.319424 0.747698 0.105199
Si Si6 0.045602 0.530879 0.170797
Si Si7 0.396480 0.979416 0.829657
O O1 0.784979 0.499955 0.766928
O O2 0.569035 0.302070 0.505736
O O3 0.709661 0.607178 0.028401
O O4 0.566499 0.813037 0.012225
O O5 0.000000 0.500000 0.500000
O O6 0.197036 0.759349 0.966163
O O7 0.927965 0.845154 0.967917
O O8 0.000000 0.000000 0.000000
O O9 0.528223 0.288449 0.902267
O O10 0.308127 0.016102 0.448609
O O11 0.302770 0.502946 0.906157
O O12 0.237106 0.025445 0.830358
O O13 0.994557 0.815161 0.492193
O O14 0.991310 0.305614 0.969701
O O15 0.000000 0.500000 0.000000
O O16 0.500000 0.000000 0.000000
#
# Coordination Sequence:
#
# PCOD8008775 Si02
#       7
#     2   2   2   2   2   2   2
#     4  10  21  34  58  87 111 144 198 230 292 361
#     4  12  26  42  62  89 122 167 211 243 304 366
#     4  10  21  40  61  89 116 153 200 255 303 354
#     4  10  23  39  56  86 119 148 195 242 283 348
#     4  10  23  39  61  85 120 155 201 254 303 346
#     4  10  21  36  58  88 115 149 183 232 304 354
#     4  10  21  38  56  83 117 155 188 237 289 348
#
# _framework density 21.594436000000002
#
# number of rings (size 3 to 8) (size 9 to 14) (size 15 to 20)
#    0.000    1.714    0.000    3.429    4.000    2.286 
#    0.000    0.000    0.000    0.000    0.000    0.000 
#    0.000    0.000    0.000    0.000    0.000    0.000 
#
# Total GULP energy -173593.536911 kJ/mol
# GULP energy per Si atom -12399.538351 kJ/mol
# Density = 2.154529 g / cm^3
# Si number density = 21.594436 Si / 1000 Ang^3
#
#
#
# Elastic Constant Matrix: (Units=GPa)
#
#
# Indices 1 2 3 4 5 6 
#
# 1 41.9012 21.2322 21.2022 8.3200 -13.6112 3.9694
# 2 21.2322 163.8865 74.6933 12.2916 11.5718 21.3655
# 3 21.2022 74.6933 201.4005 17.9723 1.1594 20.8200
# 4 8.3200 12.2916 17.9723 45.4855 9.3244 8.5216
# 5 -13.6112 11.5718 1.1594 9.3244 25.8139 -9.3752
# 6 3.9694 21.3655 20.8200 8.5216 -9.3752 39.6367
#
#
#
# Elastic Compliance Matrix: (Units=1/GPa)
#
#
# Indices 1 2 3 4 5 6 
#
# 1 0.041705 -0.007599 -0.001757 -0.014371 0.035110 0.012237
# 2 -0.007599 0.009597 -0.002297 0.003405 -0.011887 -0.006749
# 3 -0.001757 -0.002297 0.006285 -0.001133 -0.000401 -0.001739
# 4 -0.014371 0.003405 -0.001133 0.031615 -0.025018 -0.012516
# 5 0.035110 -0.011887 -0.000401 -0.025018 0.081737 0.027814
# 6 0.012237 -0.006749 -0.001739 -0.012516 0.027814 0.037824
#
#
# Mechanical properties :
#
#
# Convention : Reuss Voigt Hill
#
# Bulk Modulus (GPa) = 29.17035 71.27150 50.22092
# Shear Modulus (GPa) = 20.53424 41.52457 31.02940
#
# Velocity S-wave (km/s) = 3.08702 4.38988 3.79478
# Velocity P-wave (km/s) = 5.12287 7.66622 6.51977
#
# Compressibility (1/GPa) = 0.03428139
#
# Stress axis : x y z
#
# Youngs Moduli (GPa) = 23.97813 104.20007 159.10275
#
# Poissons Ratio (x) = 0.79180 0.27953
# Poissons Ratio (y) = 0.18221 0.36546
# Poissons Ratio (z) = 0.04213 0.23935
#
# Static dielectric constant tensor:
#      x y z
#    x 4.028810 0.047740 0.033800 
#    y 0.047740 3.907370 0.442800 
#    z 0.033800 0.442800 4.148030 
# 
# 
# High freq. dielectric constant tensor:
#      x y z
#    x 1.837510 0.005370 0.002390 
#    y 0.005370 1.854980 0.016440 
#    z 0.002390 0.016440 1.865200 
# 
# From -- ./inp_files/66533.got.cif
#   From: 2010.06.25/outbox.cif.g09.slc.cpg/sg2_34_cif.got.tgz:66533.got - 2010.06.27 13:26:56.
