data_PCOD8008357
_publ_section_title
;
Structure prediction by ZEFSAII (Michael W. Deem and Ramdas Pophale) SiO2 
 PCOD8008357
Probable space group: P -1
;
_chemical_formula_sum "Si O2"
_cell_formula_units_Z 14
_cell_length_a 26.163219
_cell_length_b 11.159366
_cell_length_c 12.582548
_cell_angle_alpha 148.623373
_cell_angle_beta 157.337533
_cell_angle_gamma 28.082953
_cell_volume 650.243514
_symmetry_space_group_name_H-M "P -1"
_symmetry_group_IT_number 2
_symmetry_cell_setting 'triclinic'
loop_
_space_group_symop_operation_xyz
x,y,z
-x,-y,-z
loop_
_atom_site_type_symbol
_atom_site_label
_atom_site_fract_x
_atom_site_fract_y
_atom_site_fract_z
Si Si1 0.443526 0.788965 0.246459
Si Si2 0.879569 0.422576 0.253461
Si Si3 0.711374 0.885838 0.613912
Si Si4 0.972972 0.156276 0.822679
Si Si5 0.709449 0.396513 0.346750
Si Si6 0.164639 0.784326 0.186787
Si Si7 0.653564 0.933287 0.300340
O O1 0.588024 0.502214 0.291649
O O2 0.500000 0.000000 0.500000
O O3 0.364115 0.855555 0.259972
O O4 0.320123 0.804931 0.934937
O O5 0.767733 0.627355 0.277719
O O6 0.000000 0.500000 0.500000
O O7 0.780757 0.424829 0.962558
O O8 0.963821 0.150361 0.270526
O O9 0.683979 0.648568 0.420159
O O10 0.633203 0.992621 0.431391
O O11 0.890676 0.775946 0.869500
O O12 0.878633 0.242505 0.598197
O O13 0.858070 0.321171 0.822830
O O14 0.279625 0.900493 0.506122
O O15 0.000000 0.000000 0.000000
O O16 0.500000 0.000000 0.000000
#
# Coordination Sequence:
#
# PCOD8008357 Si02
#       7
#     2   2   2   2   2   2   2
#     4   9  22  45  63  89 136 169 215 264 324 382
#     4  11  21  44  66  92 132 177 215 270 324 386
#     4  11  23  44  64  98 136 163 217 279 316 392
#     4  11  22  42  70  96 129 172 222 263 325 394
#     4  10  23  43  69  95 130 173 213 266 332 388
#     4  10  20  43  64  91 132 170 217 263 323 383
#     4  12  26  42  67 100 131 174 222 273 331 383
#
# _framework density 21.530396
#
# number of rings (size 3 to 8) (size 9 to 14) (size 15 to 20)
#    0.000    1.429    5.714    0.429    2.000    5.714 
#   10.286    0.000    0.000    0.000    0.000    0.000 
#    0.000    0.000    0.000    0.000    0.000    0.000 
#
# Total GULP energy -173532.839979 kJ/mol
# GULP energy per Si atom -12395.202856 kJ/mol
# Density = 2.148139 g / cm^3
# Si number density = 21.530396 Si / 1000 Ang^3
#
#
#
# Elastic Constant Matrix: (Units=GPa)
#
#
# Indices 1 2 3 4 5 6 
#
# 1 119.8874 32.8952 55.3362 0.1550 -12.6146 -21.0523
# 2 32.8952 56.0689 37.2411 1.7172 -10.6703 -8.5712
# 3 55.3362 37.2411 177.7367 -10.6023 -4.9573 -6.0502
# 4 0.1550 1.7172 -10.6023 39.8683 -1.3526 -5.5018
# 5 -12.6146 -10.6703 -4.9573 -1.3526 41.1755 10.7870
# 6 -21.0523 -8.5712 -6.0502 -5.5018 10.7870 26.6915
#
#
#
# Elastic Compliance Matrix: (Units=1/GPa)
#
#
# Indices 1 2 3 4 5 6 
#
# 1 0.012027 -0.004140 -0.002581 0.000497 0.000343 0.007535
# 2 -0.004140 0.023711 -0.003610 -0.001611 0.003971 0.001594
# 3 -0.002581 -0.003610 0.007256 0.001948 -0.000546 -0.000929
# 4 0.000497 -0.001611 0.001948 0.026482 -0.000753 0.006079
# 5 0.000343 0.003971 -0.000546 -0.000753 0.027958 -0.010032
# 6 0.007535 0.001594 -0.000929 0.006079 -0.010032 0.049017
#
#
# Mechanical properties :
#
#
# Convention : Reuss Voigt Hill
#
# Bulk Modulus (GPa) = 44.78105 67.18201 55.98153
# Shear Modulus (GPa) = 28.64396 36.76176 32.70286
#
# Velocity S-wave (km/s) = 3.65142 4.13660 3.90156
# Velocity P-wave (km/s) = 6.21460 7.35434 6.80836
#
# Compressibility (1/GPa) = 0.02233088
#
# Stress axis : x y z
#
# Youngs Moduli (GPa) = 83.14468 42.17537 137.81931
#
# Poissons Ratio (x) = 0.17459 0.35578
# Poissons Ratio (y) = 0.34419 0.49757
# Poissons Ratio (z) = 0.21463 0.15227
#
# Static dielectric constant tensor:
#      x y z
#    x 4.710850 -0.545100 -0.298810 
#    y -0.545100 3.518550 0.257080 
#    z -0.298810 0.257080 4.228830 
# 
# 
# High freq. dielectric constant tensor:
#      x y z
#    x 1.852940 -0.017520 0.002890 
#    y -0.017520 1.812560 0.010880 
#    z 0.002890 0.010880 1.863030 
# 
# From -- ./inp_files/272923.got.cif
#   From: 2010.06.25/outbox.cif.g09.slc.cpg/sg2_137_cif.got.tgz:272923.got - 2010.06.27 13:26:56.
