data_PCOD8008366
_publ_section_title
;
Structure prediction by ZEFSAII (Michael W. Deem and Ramdas Pophale) SiO2 
 PCOD8008366
Probable space group: P -1
;
_chemical_formula_sum "Si O2"
_cell_formula_units_Z 16
_cell_length_a 12.066385
_cell_length_b 9.346030
_cell_length_c 17.940399
_cell_angle_alpha 129.489451
_cell_angle_beta 30.123696
_cell_angle_gamma 119.952482
_cell_volume 776.846324
_symmetry_space_group_name_H-M "P -1"
_symmetry_group_IT_number 2
_symmetry_cell_setting 'triclinic'
loop_
_space_group_symop_operation_xyz
x,y,z
-x,-y,-z
loop_
_atom_site_type_symbol
_atom_site_label
_atom_site_fract_x
_atom_site_fract_y
_atom_site_fract_z
Si Si1 0.139338 0.809842 0.444339
Si Si2 0.760366 0.449043 0.325801
Si Si3 0.571500 0.578580 0.062036
Si Si4 0.363240 0.734109 0.968939
Si Si5 0.292226 0.754148 0.849614
Si Si6 0.215616 0.208046 0.482763
Si Si7 0.826080 0.846538 0.768899
Si Si8 0.095100 0.169709 0.111129
O O1 0.354714 0.660739 0.261016
O O2 0.955495 0.772087 0.478843
O O3 0.045475 0.780049 0.571343
O O4 0.210352 0.014917 0.464161
O O5 0.500000 0.500000 0.500000
O O6 0.811183 0.397752 0.192219
O O7 0.866275 0.626636 0.355389
O O8 0.848058 0.263696 0.262109
O O9 0.702827 0.416169 0.982972
O O10 0.500000 0.500000 0.000000
O O11 0.729789 0.735637 0.009065
O O12 0.297328 0.678171 0.905599
O O13 0.626325 0.743096 0.820709
O O14 0.231407 0.931710 0.135219
O O15 0.538360 0.784572 0.689784
O O16 0.128737 0.949092 0.003123
O O17 0.870178 0.787118 0.808431
#
# Coordination Sequence:
#
# PCOD8008366 Si02
#       8
#     2   2   2   2   2   2   2   2
#     4  11  23  36  62  95 134 159 200 264 321 367
#     4  10  23  40  66  90 122 165 221 258 298 374
#     4  12  24  37  61  96 133 162 202 262 319 380
#     4  10  22  38  61  94 128 168 207 251 321 370
#     4  10  20  43  65  86 126 173 209 252 302 376
#     4  10  21  36  60  95 124 164 206 254 314 364
#     4  10  22  38  64  91 133 163 202 260 316 380
#     4  11  22  41  65  95 122 166 212 256 320 370
#
# _framework density 20.596094999999998
#
# number of rings (size 3 to 8) (size 9 to 14) (size 15 to 20)
#    0.000    1.500    3.750    1.125    5.250    2.500 
#    0.000    0.625    2.750    2.250    0.000    0.000 
#    0.000    0.000    0.000    0.000    0.000    0.000 
#
# Total GULP energy -198402.171635 kJ/mol
# GULP energy per Si atom -12400.135727 kJ/mol
# Density = 2.054922 g / cm^3
# Si number density = 20.596095 Si / 1000 Ang^3
#
#
#
# Elastic Constant Matrix: (Units=GPa)
#
#
# Indices 1 2 3 4 5 6 
#
# 1 111.4865 49.1982 45.2714 23.6326 13.8761 -13.9222
# 2 49.1982 70.5832 33.7554 11.4064 17.3524 -11.8102
# 3 45.2714 33.7554 114.4647 5.7363 5.0861 -10.4645
# 4 23.6326 11.4064 5.7363 31.0626 0.4372 4.5095
# 5 13.8761 17.3524 5.0861 0.4372 40.1877 7.0969
# 6 -13.9222 -11.8102 -10.4645 4.5095 7.0969 33.7706
#
#
#
# Elastic Compliance Matrix: (Units=1/GPa)
#
#
# Indices 1 2 3 4 5 6 
#
# 1 0.016515 -0.006430 -0.003459 -0.010327 -0.003360 0.005573
# 2 -0.006430 0.024461 -0.003368 -0.004411 -0.009170 0.007376
# 3 -0.003459 -0.003368 0.010985 0.001778 0.001184 0.000314
# 4 -0.010327 -0.004411 0.001778 0.043052 0.006978 -0.012464
# 5 -0.003360 -0.009170 0.001184 0.006978 0.031871 -0.011855
# 6 0.005573 0.007376 0.000314 -0.012464 -0.011855 0.038742
#
#
# Mechanical properties :
#
#
# Convention : Reuss Voigt Hill
#
# Bulk Modulus (GPa) = 39.29660 61.44272 50.36966
# Shear Modulus (GPa) = 24.92255 32.22482 28.57368
#
# Velocity S-wave (km/s) = 3.48237 3.95980 3.72874
# Velocity P-wave (km/s) = 5.94056 7.12767 6.56102
#
# Compressibility (1/GPa) = 0.02544750
#
# Stress axis : x y z
#
# Youngs Moduli (GPa) = 60.55134 40.88083 91.03593
#
# Poissons Ratio (x) = 0.26284 0.31493
# Poissons Ratio (y) = 0.38932 0.30659
# Poissons Ratio (z) = 0.20947 0.13768
#
# Static dielectric constant tensor:
#      x y z
#    x 3.949290 0.062420 0.096000 
#    y 0.062420 3.689880 0.253430 
#    z 0.096000 0.253430 3.905350 
# 
# 
# High freq. dielectric constant tensor:
#      x y z
#    x 1.807920 -0.002920 0.004960 
#    y -0.002920 1.791190 0.015100 
#    z 0.004960 0.015100 1.814740 
# 
# From -- ./inp_files/186545.got.cif
#   From: 2010.06.25/outbox.cif.g09.slc.cpg/sg2_94_cif.got.tgz:186545.got - 2010.06.27 13:26:56.
