data_PCOD8008070
_publ_section_title
;
Structure prediction by ZEFSAII (Michael W. Deem and Ramdas Pophale) SiO2 
 PCOD8008070
Probable space group: P -1
;
_chemical_formula_sum "Si O2"
_cell_formula_units_Z 16
_cell_length_a 9.310439
_cell_length_b 18.260834
_cell_length_c 8.799387
_cell_angle_alpha 91.256070
_cell_angle_beta 91.310396
_cell_angle_gamma 29.548780
_cell_volume 737.594422
_symmetry_space_group_name_H-M "P -1"
_symmetry_group_IT_number 2
_symmetry_cell_setting 'triclinic'
loop_
_space_group_symop_operation_xyz
x,y,z
-x,-y,-z
loop_
_atom_site_type_symbol
_atom_site_label
_atom_site_fract_x
_atom_site_fract_y
_atom_site_fract_z
Si Si1 0.214788 0.431105 0.630818
Si Si2 0.159343 0.642711 0.006651
Si Si3 0.141620 0.900894 0.353057
Si Si4 0.800466 0.411080 0.485971
Si Si5 0.187705 0.160267 0.274223
Si Si6 0.934845 0.635494 0.214365
Si Si7 0.711683 0.036473 0.840151
Si Si8 0.182643 0.074288 0.835113
O O1 0.534296 0.260276 0.592653
O O2 0.223235 0.515513 0.643671
O O3 0.101623 0.437277 0.779746
O O4 0.000000 0.500000 0.500000
O O5 0.105126 0.584430 0.065418
O O6 0.011768 0.769309 0.118207
O O7 0.500000 0.500000 0.000000
O O8 0.026053 0.704579 0.840744
O O9 0.128172 0.960727 0.209220
O O10 0.982836 0.897605 0.296736
O O11 0.000000 0.000000 0.500000
O O12 0.500000 0.500000 0.500000
O O13 0.070867 0.238005 0.439565
O O14 0.876724 0.416489 0.644283
O O15 0.141787 0.093956 0.257712
O O16 0.518842 0.033212 0.240220
O O17 0.623388 0.812630 0.208284
O O18 0.748945 0.005686 0.019265
#
# Coordination Sequence:
#
# PCOD8008070 Si02
#       8
#     2   2   2   2   2   2   2   2
#     4   9  23  44  60  86 135 168 210 261 333 378
#     4  11  22  41  67  98 130 173 223 270 323 384
#     4  11  26  40  69  96 131 169 218 273 323 395
#     4  11  25  39  64  98 131 170 220 274 325 385
#     4  11  23  40  69  92 131 172 216 269 325 389
#     4  10  20  42  65  88 131 172 214 268 321 393
#     4  10  21  44  63  94 128 173 211 266 329 380
#     4  11  23  43  66  96 133 167 222 268 322 398
#
# _framework density 21.692136999999999
#
# number of rings (size 3 to 8) (size 9 to 14) (size 15 to 20)
#    0.000    1.500    2.500    1.875   10.500    0.500 
#    2.250    1.875    0.000    0.000    0.000    0.000 
#    0.000    0.000    0.000    0.000    0.000    0.000 
#
# Total GULP energy -198305.063444 kJ/mol
# GULP energy per Si atom -12394.066465 kJ/mol
# Density = 2.164276 g / cm^3
# Si number density = 21.692137 Si / 1000 Ang^3
#
#
#
# Elastic Constant Matrix: (Units=GPa)
#
#
# Indices 1 2 3 4 5 6 
#
# 1 119.9087 49.0193 21.9917 -3.9612 -7.2829 -7.5464
# 2 49.0193 110.0513 19.1071 -0.1325 -8.1088 -17.9185
# 3 21.9917 19.1071 24.1525 -6.9852 1.3754 -1.2938
# 4 -3.9612 -0.1325 -6.9852 35.8736 0.3756 -1.9662
# 5 -7.2829 -8.1088 1.3754 0.3756 34.6186 -3.3920
# 6 -7.5464 -17.9185 -1.2938 -1.9662 -3.3920 36.6889
#
#
#
# Elastic Compliance Matrix: (Units=1/GPa)
#
#
# Indices 1 2 3 4 5 6 
#
# 1 0.011316 -0.003475 -0.007710 -0.000256 0.001927 0.000523
# 2 -0.003475 0.013089 -0.007512 -0.001523 0.003201 0.005627
# 3 -0.007710 -0.007512 0.057490 0.010201 -0.006094 -0.003244
# 4 -0.000256 -0.001523 0.010201 0.029898 -0.001035 0.001070
# 5 0.001927 0.003201 -0.006094 -0.001035 0.030739 0.004531
# 6 0.000523 0.005627 -0.003244 0.001070 0.004531 0.030474
#
#
# Mechanical properties :
#
#
# Convention : Reuss Voigt Hill
#
# Bulk Modulus (GPa) = 22.47155 48.26098 35.36626
# Shear Modulus (GPa) = 22.19922 32.36920 27.28421
#
# Velocity S-wave (km/s) = 3.20250 3.86710 3.55038
# Velocity P-wave (km/s) = 4.90474 6.49890 5.75726
#
# Compressibility (1/GPa) = 0.04450072
#
# Stress axis : x y z
#
# Youngs Moduli (GPa) = 88.37214 76.40045 17.39422
#
# Poissons Ratio (x) = 0.26548 0.13411
# Poissons Ratio (y) = 0.30708 0.13067
# Poissons Ratio (z) = 0.68137 0.57393
#
# Static dielectric constant tensor:
#      x y z
#    x 4.384000 0.168990 -0.374260 
#    y 0.168990 3.951320 -0.242870 
#    z -0.374260 -0.242870 3.869760 
# 
# 
# High freq. dielectric constant tensor:
#      x y z
#    x 1.867630 -0.002250 -0.015630 
#    y -0.002250 1.856100 -0.016020 
#    z -0.015630 -0.016020 1.840150 
# 
# From -- ./inp_files/208674.got.cif
#   From: 2010.06.25/outbox.cif.g09.slc.cpg/sg2_105_cif.got.tgz:208674.got - 2010.06.27 13:26:56.
