data_PCOD8008790
_publ_section_title
;
Structure prediction by ZEFSAII (Michael W. Deem and Ramdas Pophale) SiO2 
 PCOD8008790
Probable space group: P -1
;
_chemical_formula_sum "Si O2"
_cell_formula_units_Z 16
_cell_length_a 5.591116
_cell_length_b 13.881793
_cell_length_c 12.752420
_cell_angle_alpha 48.860042
_cell_angle_beta 73.662250
_cell_angle_gamma 88.440827
_cell_volume 698.032685
_symmetry_space_group_name_H-M "P -1"
_symmetry_group_IT_number 2
_symmetry_cell_setting 'triclinic'
loop_
_space_group_symop_operation_xyz
x,y,z
-x,-y,-z
loop_
_atom_site_type_symbol
_atom_site_label
_atom_site_fract_x
_atom_site_fract_y
_atom_site_fract_z
Si Si1 0.695662 0.445199 0.944860
Si Si2 0.641302 0.889049 0.093017
Si Si3 0.084224 0.784578 0.856259
Si Si4 0.421946 0.621361 0.563984
Si Si5 0.601182 0.643358 0.151639
Si Si6 0.075053 0.699183 0.695866
Si Si7 0.986419 0.729664 0.460409
Si Si8 0.909321 0.975027 0.192080
O O1 0.628005 0.432567 0.838808
O O2 0.963971 0.547568 0.850569
O O3 0.500000 0.500000 0.000000
O O4 0.706299 0.301280 0.088072
O O5 0.503828 0.747958 0.164072
O O6 0.672558 0.888442 0.216512
O O7 0.500000 0.000000 0.000000
O O8 0.920767 0.923846 0.981201
O O9 0.052464 0.793776 0.727797
O O10 0.190119 0.933628 0.775433
O O11 0.823256 0.715366 0.994904
O O12 0.322597 0.464398 0.703496
O O13 0.364414 0.699319 0.621078
O O14 0.728304 0.656349 0.482325
O O15 0.234153 0.661550 0.466708
O O16 0.920439 0.738322 0.586452
O O17 0.064658 0.876765 0.298073
#
# Coordination Sequence:
#
# PCOD8008790 Si02
#       8
#     2   2   2   2   2   2   2   2
#     4  12  20  32  59  95 130 162 205 264 316 368
#     4  10  23  43  68  89 116 157 211 272 319 370
#     4  11  21  35  59  91 124 166 210 255 313 374
#     4  10  21  40  62  95 128 171 206 257 312 380
#     4  11  20  37  62  91 122 161 211 263 318 369
#     4  10  21  34  59  91 133 162 207 248 315 366
#     4  10  23  41  65  87 136 169 207 256 314 377
#     4  10  24  44  61  88 121 163 212 260 316 373
#
# _framework density 22.921562999999999
#
# number of rings (size 3 to 8) (size 9 to 14) (size 15 to 20)
#    0.750    0.750    3.750    1.875    1.750    0.500 
#    0.000    1.875    0.000    0.000    0.000    0.000 
#    0.000    0.000    0.000    0.000    0.000    0.000 
#
# Total GULP energy -198220.776158 kJ/mol
# GULP energy per Si atom -12388.798510 kJ/mol
# Density = 2.286939 g / cm^3
# Si number density = 22.921563 Si / 1000 Ang^3
#
#
#
# Elastic Constant Matrix: (Units=GPa)
#
#
# Indices 1 2 3 4 5 6 
#
# 1 101.7489 28.5845 8.8380 -6.0628 18.7010 3.6880
# 2 28.5845 145.5257 15.7121 -21.1821 17.4663 14.7065
# 3 8.8380 15.7121 62.3588 -9.8509 26.8466 5.3046
# 4 -6.0628 -21.1821 -9.8509 16.8526 -4.7070 7.7433
# 5 18.7010 17.4663 26.8466 -4.7070 43.5034 -1.9287
# 6 3.6880 14.7065 5.3046 7.7433 -1.9287 25.0850
#
#
#
# Elastic Compliance Matrix: (Units=1/GPa)
#
#
# Indices 1 2 3 4 5 6 
#
# 1 0.011243 -0.000866 0.001811 0.003986 -0.005312 -0.003167
# 2 -0.000866 0.012135 0.004330 0.023066 -0.005360 -0.015435
# 3 0.001811 0.004330 0.027940 0.025744 -0.017773 -0.018026
# 4 0.003986 0.023066 0.025744 0.128148 -0.015670 -0.060315
# 5 -0.005312 -0.005360 -0.017773 -0.015670 0.037377 0.015393
# 6 -0.003167 -0.015435 -0.018026 -0.060315 0.015393 0.072992
#
#
# Mechanical properties :
#
#
# Convention : Reuss Voigt Hill
#
# Bulk Modulus (GPa) = 16.16383 46.21139 31.18761
# Shear Modulus (GPa) = 16.67172 34.18814 25.42993
#
# Velocity S-wave (km/s) = 2.69985 3.86622 3.33443
# Velocity P-wave (km/s) = 4.09707 6.33519 5.33482
#
# Compressibility (1/GPa) = 0.06186654
#
# Stress axis : x y z
#
# Youngs Moduli (GPa) = 88.94648 82.40725 35.79038
#
# Poissons Ratio (x) = 0.07137 -0.06480
# Poissons Ratio (y) = 0.07704 -0.15496
# Poissons Ratio (z) = -0.16105 -0.35680
#
# Static dielectric constant tensor:
#      x y z
#    x 3.856220 0.078160 0.092500 
#    y 0.078160 4.245650 0.066560 
#    z 0.092500 0.066560 4.161200 
# 
# 
# High freq. dielectric constant tensor:
#      x y z
#    x 1.888990 0.000230 0.013640 
#    y 0.000230 1.895260 0.000110 
#    z 0.013640 0.000110 1.896680 
# 
# From -- ./inp_files/111315.got.cif
#   From: 2010.06.25/outbox.cif.g09.slc.cpg/sg2_56_cif.got.tgz:111315.got - 2010.06.27 13:26:56.
