data_PCOD8008771
_publ_section_title
;
Structure prediction by ZEFSAII (Michael W. Deem and Ramdas Pophale) SiO2 
 PCOD8008771
Probable space group: P -1
;
_chemical_formula_sum "Si O2"
_cell_formula_units_Z 16
_cell_length_a 18.518704
_cell_length_b 11.643560
_cell_length_c 11.414812
_cell_angle_alpha 42.341880
_cell_angle_beta 41.236017
_cell_angle_gamma 74.810244
_cell_volume 819.251092
_symmetry_space_group_name_H-M "P -1"
_symmetry_group_IT_number 2
_symmetry_cell_setting 'triclinic'
loop_
_space_group_symop_operation_xyz
x,y,z
-x,-y,-z
loop_
_atom_site_type_symbol
_atom_site_label
_atom_site_fract_x
_atom_site_fract_y
_atom_site_fract_z
Si Si1 0.725556 0.183363 0.136629
Si Si2 0.241633 0.751512 0.211179
Si Si3 0.041322 0.360189 0.394113
Si Si4 0.053138 0.358417 0.910048
Si Si5 0.918177 0.911972 0.289582
Si Si6 0.828832 0.432973 0.150332
Si Si7 0.620535 0.758704 0.698465
Si Si8 0.447897 0.966387 0.325790
O O1 0.614473 0.167557 0.371954
O O2 0.691775 0.944222 0.364288
O O3 0.705599 0.244891 0.986442
O O4 0.889342 0.388085 0.833645
O O5 0.156142 0.512164 0.559322
O O6 0.133168 0.801246 0.292866
O O7 0.389237 0.941349 0.962197
O O8 0.072355 0.262990 0.533250
O O9 0.116717 0.388299 0.156896
O O10 0.148566 0.448251 0.844346
O O11 0.991731 0.110434 0.145532
O O12 0.921030 0.353876 0.090405
O O13 0.748737 0.783153 0.582446
O O14 0.000000 0.000000 0.000000
O O15 0.657175 0.209027 0.517383
O O16 0.551859 0.824588 0.825601
O O17 0.500000 0.500000 0.000000
#
# Coordination Sequence:
#
# PCOD8008771 Si02
#       8
#     2   2   2   2   2   2   2   2
#     4   9  19  36  53  81 112 152 192 220 280 345
#     4  11  19  34  56  85 109 150 189 232 280 334
#     4  10  21  34  58  80 114 151 189 236 277 335
#     4  10  21  37  63  80 113 148 199 242 269 337
#     4  12  23  36  56  90 120 146 184 237 293 334
#     4   9  19  42  59  82 104 155 205 230 277 328
#     4  10  22  36  54  85 117 151 178 228 290 338
#     4   9  20  34  59  80 114 147 189 229 277 345
#
# _framework density 19.530031000000001
#
# number of rings (size 3 to 8) (size 9 to 14) (size 15 to 20)
#    0.750    1.250    1.250    3.000    3.500    2.000 
#    0.000    0.000    0.000    0.750    0.000    0.000 
#    0.000    0.000    0.000    0.000    0.000    0.000 
#
# Total GULP energy -198242.987051 kJ/mol
# GULP energy per Si atom -12390.186691 kJ/mol
# Density = 1.948558 g / cm^3
# Si number density = 19.530031 Si / 1000 Ang^3
#
#
#
# Elastic Constant Matrix: (Units=GPa)
#
#
# Indices 1 2 3 4 5 6 
#
# 1 120.8405 39.7475 72.6479 -11.8248 -16.1826 5.4006
# 2 39.7475 67.1344 43.7166 -19.3003 -9.4023 11.9836
# 3 72.6479 43.7166 112.5864 -16.6841 -25.8528 -1.7480
# 4 -11.8248 -19.3003 -16.6841 20.1917 -1.5281 -10.3238
# 5 -16.1826 -9.4023 -25.8528 -1.5281 49.6212 0.4388
# 6 5.4006 11.9836 -1.7480 -10.3238 0.4388 30.7201
#
#
#
# Elastic Compliance Matrix: (Units=1/GPa)
#
#
# Indices 1 2 3 4 5 6 
#
# 1 0.014261 -0.003457 -0.008544 -0.003490 -0.000538 -0.002810
# 2 -0.003457 0.026032 -0.005097 0.016583 0.001698 -0.004288
# 3 -0.008544 -0.005097 0.019715 0.011153 0.006790 0.008263
# 4 -0.003490 0.016583 0.011153 0.085221 0.010233 0.023273
# 5 -0.000538 0.001698 0.006790 0.010233 0.024126 0.002913
# 6 -0.002810 -0.004288 0.008263 0.023273 0.002913 0.042968
#
#
# Mechanical properties :
#
#
# Convention : Reuss Voigt Hill
#
# Bulk Modulus (GPa) = 38.74195 68.08726 53.41460
# Shear Modulus (GPa) = 19.59851 29.73656 24.66754
#
# Velocity S-wave (km/s) = 3.17125 3.90629 3.55781
# Velocity P-wave (km/s) = 5.76969 7.43532 6.65482
#
# Compressibility (1/GPa) = 0.02581182
#
# Stress axis : x y z
#
# Youngs Moduli (GPa) = 70.12073 38.41499 50.72377
#
# Poissons Ratio (x) = 0.13278 0.43341
# Poissons Ratio (y) = 0.24237 0.25853
# Poissons Ratio (z) = 0.59914 0.19579
#
# Static dielectric constant tensor:
#      x y z
#    x 3.638930 0.137390 -0.090400 
#    y 0.137390 3.159990 -0.011140 
#    z -0.090400 -0.011140 3.664580 
# 
# 
# High freq. dielectric constant tensor:
#      x y z
#    x 1.763260 0.009090 -0.011910 
#    y 0.009090 1.713140 -0.001440 
#    z -0.011910 -0.001440 1.768340 
# 
# From -- ./inp_files/464286.got.cif
#   From: 2010.06.25/outbox.cif.g09.slc.cpg/sg2_233_cif.got.tgz:464286.got - 2010.06.27 13:26:56.
