data_PCOD8008676
_publ_section_title
;
Structure prediction by ZEFSAII (Michael W. Deem and Ramdas Pophale) SiO2 
 PCOD8008676
Probable space group: P -1
;
_chemical_formula_sum "Si O2"
_cell_formula_units_Z 16
_cell_length_a 11.729086
_cell_length_b 15.850817
_cell_length_c 8.004928
_cell_angle_alpha 66.691576
_cell_angle_beta 71.763891
_cell_angle_gamma 124.347298
_cell_volume 797.920228
_symmetry_space_group_name_H-M "P -1"
_symmetry_group_IT_number 2
_symmetry_cell_setting 'triclinic'
loop_
_space_group_symop_operation_xyz
x,y,z
-x,-y,-z
loop_
_atom_site_type_symbol
_atom_site_label
_atom_site_fract_x
_atom_site_fract_y
_atom_site_fract_z
Si Si1 0.926801 0.653507 0.389373
Si Si2 0.403069 0.722559 0.831703
Si Si3 0.328452 0.969346 0.066812
Si Si4 0.008897 0.475047 0.731000
Si Si5 0.282072 0.940944 0.473481
Si Si6 0.353985 0.778588 0.481413
Si Si7 0.907543 0.653563 0.033731
Si Si8 0.351492 0.492626 0.058085
O O1 0.835730 0.639206 0.266677
O O2 0.807969 0.612438 0.638416
O O3 0.150382 0.822325 0.157112
O O4 0.936325 0.547125 0.448870
O O5 0.344682 0.692370 0.688172
O O6 0.563792 0.896696 0.647201
O O7 0.472968 0.661103 0.889319
O O8 0.209960 0.620536 0.110142
O O9 0.241237 0.952381 0.295219
O O10 0.500000 0.000000 0.000000
O O11 0.444183 0.117881 0.795163
O O12 0.161328 0.650966 0.552700
O O13 0.019718 0.408798 0.934828
O O14 0.361808 0.884621 0.476785
O O15 0.086609 0.827056 0.761327
O O16 0.744078 0.566451 0.035355
O O17 0.500000 0.500000 0.000000
#
# Coordination Sequence:
#
# PCOD8008676 Si02
#       8
#     2   2   2   2   2   2   2   2
#     4  10  22  42  65  94 128 166 214 264 323 380
#     4  12  22  37  62  95 133 170 209 257 328 386
#     4  10  21  32  56  96 137 168 197 248 318 395
#     4  10  21  35  64  98 127 165 203 261 335 385
#     4  11  21  34  59  93 138 169 197 257 323 393
#     4  11  19  34  55  94 139 163 203 247 325 401
#     4  10  21  43  64  95 124 168 209 265 326 380
#     4  12  27  46  67  91 125 173 225 271 306 368
#
# _framework density 20.052129999999998
#
# number of rings (size 3 to 8) (size 9 to 14) (size 15 to 20)
#    0.750    0.500    3.750    3.750    3.500    1.000 
#    0.000    0.625    0.000    1.500    0.000    0.000 
#    0.000    0.000    0.000    0.000    0.000    0.000 
#
# Total GULP energy -198241.338480 kJ/mol
# GULP energy per Si atom -12390.083655 kJ/mol
# Density = 2.000649 g / cm^3
# Si number density = 20.052130 Si / 1000 Ang^3
#
#
#
# Elastic Constant Matrix: (Units=GPa)
#
#
# Indices 1 2 3 4 5 6 
#
# 1 84.5573 22.1478 10.3026 -7.4932 -4.9198 -9.1788
# 2 22.1478 89.1433 20.6779 -14.3149 -3.4103 5.3495
# 3 10.3026 20.6779 75.3698 -13.4430 -0.2711 -9.5383
# 4 -7.4932 -14.3149 -13.4430 50.2681 2.0363 8.9620
# 5 -4.9198 -3.4103 -0.2711 2.0363 13.9361 2.8199
# 6 -9.1788 5.3495 -9.5383 8.9620 2.8199 17.8602
#
#
#
# Elastic Compliance Matrix: (Units=1/GPa)
#
#
# Indices 1 2 3 4 5 6 
#
# 1 0.013835 -0.003982 0.000155 -0.000608 0.002317 0.008325
# 2 -0.003982 0.014704 -0.004146 0.004374 0.003791 -0.011458
# 3 0.000155 -0.004146 0.015840 0.001504 -0.002787 0.009466
# 4 -0.000608 0.004374 0.001504 0.023719 -0.000007 -0.012720
# 5 0.002317 0.003791 -0.002787 -0.000007 0.076171 -0.013456
# 6 0.008325 -0.011458 0.009466 -0.012720 -0.013456 0.077264
#
#
# Mechanical properties :
#
#
# Convention : Reuss Voigt Hill
#
# Bulk Modulus (GPa) = 35.17044 39.48078 37.32561
# Shear Modulus (GPa) = 20.24642 29.47570 24.86106
#
# Velocity S-wave (km/s) = 3.18101 3.83816 3.52493
# Velocity P-wave (km/s) = 5.57399 6.27485 5.93477
#
# Compressibility (1/GPa) = 0.02843297
#
# Stress axis : x y z
#
# Youngs Moduli (GPa) = 72.28061 68.00879 63.12957
#
# Poissons Ratio (x) = 0.27080 -0.00976
# Poissons Ratio (y) = 0.28781 0.26174
# Poissons Ratio (z) = -0.01118 0.28197
#
# Static dielectric constant tensor:
#      x y z
#    x 3.129690 0.196630 0.355180 
#    y 0.196630 3.730790 0.200520 
#    z 0.355180 0.200520 4.250290 
# 
# 
# High freq. dielectric constant tensor:
#      x y z
#    x 1.710110 0.023040 0.028260 
#    y 0.023040 1.793500 0.002600 
#    z 0.028260 0.002600 1.807500 
# 
# From -- ./inp_files/279215.got.cif
#   From: 2010.06.25/outbox.cif.g09.slc.cpg/sg2_140_cif.got.tgz:279215.got - 2010.06.27 13:26:56.
