data_PCOD8008014
_publ_section_title
;
Structure prediction by ZEFSAII (Michael W. Deem and Ramdas Pophale) SiO2 
 PCOD8008014
Probable space group: P -1
;
_chemical_formula_sum "Si O2"
_cell_formula_units_Z 16
_cell_length_a 18.451851
_cell_length_b 11.107187
_cell_length_c 13.049208
_cell_angle_alpha 111.218721
_cell_angle_beta 44.909170
_cell_angle_gamma 148.550227
_cell_volume 742.078946
_symmetry_space_group_name_H-M "P -1"
_symmetry_group_IT_number 2
_symmetry_cell_setting 'triclinic'
loop_
_space_group_symop_operation_xyz
x,y,z
-x,-y,-z
loop_
_atom_site_type_symbol
_atom_site_label
_atom_site_fract_x
_atom_site_fract_y
_atom_site_fract_z
Si Si1 0.554820 0.430338 0.862780
Si Si2 0.432455 0.726609 0.019739
Si Si3 0.063485 0.920017 0.121621
Si Si4 0.330613 0.628460 0.783190
Si Si5 0.815605 0.363297 0.896304
Si Si6 0.375321 0.989172 0.582116
Si Si7 0.669971 0.550168 0.559753
Si Si8 0.373143 0.452967 0.836396
O O1 0.722634 0.624422 0.652388
O O2 0.500000 0.500000 0.000000
O O3 0.669111 0.453808 0.830083
O O4 0.285951 0.085472 0.986972
O O5 0.511025 0.705410 0.854823
O O6 0.686948 0.087853 0.900400
O O7 0.212238 0.564233 0.146472
O O8 0.899295 0.625608 0.140329
O O9 0.923046 0.821538 0.329748
O O10 0.149255 0.131935 0.023629
O O11 0.566691 0.909407 0.562560
O O12 0.292436 0.445545 0.818180
O O13 0.343903 0.761353 0.889411
O O14 0.083131 0.644996 0.761253
O O15 0.472043 0.212333 0.628819
O O16 0.500000 0.000000 0.500000
O O17 0.554048 0.552654 0.640371
#
# Coordination Sequence:
#
# PCOD8008014 Si02
#       8
#     2   2   2   2   2   2   2   2
#     4  11  21  41  59  92 130 161 210 256 308 382
#     4  10  22  41  64  92 124 172 213 249 311 379
#     4  10  21  37  62  94 123 160 204 259 319 370
#     4  10  23  41  66  96 121 166 211 260 323 368
#     4  10  23  44  66  86 128 171 209 261 312 364
#     4  11  26  44  63  98 127 162 218 262 310 380
#     4  10  23  40  63  96 124 165 205 260 326 360
#     4  10  20  42  63  93 129 156 213 262 307 385
#
# _framework density 21.561048
#
# number of rings (size 3 to 8) (size 9 to 14) (size 15 to 20)
#    0.000    1.750    2.500    1.875    5.250    6.000 
#    0.000    8.125    0.000    0.000    0.000    0.000 
#    0.000    0.000    0.000    0.000    0.000    0.000 
#
# Total GULP energy -198231.244935 kJ/mol
# GULP energy per Si atom -12389.452808 kJ/mol
# Density = 2.151197 g / cm^3
# Si number density = 21.561048 Si / 1000 Ang^3
#
#
#
# Elastic Constant Matrix: (Units=GPa)
#
#
# Indices 1 2 3 4 5 6 
#
# 1 108.7119 17.9613 29.5273 5.7135 1.3284 7.4868
# 2 17.9613 71.2344 6.0291 21.4272 0.5521 -12.4154
# 3 29.5273 6.0291 90.0090 9.1641 13.8250 1.5851
# 4 5.7135 21.4272 9.1641 27.7346 2.7606 0.7082
# 5 1.3284 0.5521 13.8250 2.7606 33.5089 7.1028
# 6 7.4868 -12.4154 1.5851 0.7082 7.1028 27.4711
#
#
#
# Elastic Compliance Matrix: (Units=1/GPa)
#
#
# Indices 1 2 3 4 5 6 
#
# 1 0.011129 -0.004008 -0.003822 0.001987 0.002147 -0.005230
# 2 -0.004008 0.022084 0.001656 -0.016886 -0.002027 0.011937
# 3 -0.003822 0.001656 0.013528 -0.004467 -0.005636 0.002582
# 4 0.001987 -0.016886 -0.004467 0.050419 -0.000167 -0.009172
# 5 0.002147 -0.002027 -0.005636 -0.000167 0.034256 -0.010029
# 6 -0.005230 0.011937 0.002582 -0.009172 -0.010029 0.045903
#
#
# Mechanical properties :
#
#
# Convention : Reuss Voigt Hill
#
# Bulk Modulus (GPa) = 29.07662 41.88788 35.48225
# Shear Modulus (GPa) = 24.85929 32.17209 28.51569
#
# Velocity S-wave (km/s) = 3.39923 3.86701 3.64064
# Velocity P-wave (km/s) = 5.37786 6.27759 5.84506
#
# Compressibility (1/GPa) = 0.03439190
#
# Stress axis : x y z
#
# Youngs Moduli (GPa) = 89.85898 45.28106 73.92099
#
# Poissons Ratio (x) = 0.18150 0.28254
# Poissons Ratio (y) = 0.36019 -0.12242
# Poissons Ratio (z) = 0.34345 -0.07499
#
# Static dielectric constant tensor:
#      x y z
#    x 4.131500 0.133420 0.149720 
#    y 0.133420 4.026450 0.165510 
#    z 0.149720 0.165510 3.752530 
# 
# 
# High freq. dielectric constant tensor:
#      x y z
#    x 1.850740 0.008340 0.010430 
#    y 0.008340 1.858670 0.015420 
#    z 0.010430 0.015420 1.827180 
# 
# From -- ./inp_files/464674.got.cif
#   From: 2010.06.25/outbox.cif.g09.slc.cpg/sg2_233_cif.got.tgz:464674.got - 2010.06.27 13:26:56.
