data_PCOD8008232
_publ_section_title
;
Structure prediction by ZEFSAII (Michael W. Deem and Ramdas Pophale) SiO2 
 PCOD8008232
Probable space group: P -1
;
_chemical_formula_sum "Si O2"
_cell_formula_units_Z 16
_cell_length_a 18.397845
_cell_length_b 22.523561
_cell_length_c 5.274092
_cell_angle_alpha 68.060303
_cell_angle_beta 58.886899
_cell_angle_gamma 27.590529
_cell_volume 846.779290
_symmetry_space_group_name_H-M "P -1"
_symmetry_group_IT_number 2
_symmetry_cell_setting 'triclinic'
loop_
_space_group_symop_operation_xyz
x,y,z
-x,-y,-z
loop_
_atom_site_type_symbol
_atom_site_label
_atom_site_fract_x
_atom_site_fract_y
_atom_site_fract_z
Si Si1 0.499527 0.056518 0.213752
Si Si2 0.706638 0.353879 0.847781
Si Si3 0.369030 0.272141 0.110915
Si Si4 0.176740 0.581148 0.459193
Si Si5 0.376382 0.410318 0.864816
Si Si6 0.635971 0.352369 0.477586
Si Si7 0.814449 0.642082 0.207273
Si Si8 0.789459 0.793416 0.859147
O O1 0.507764 0.125251 0.183107
O O2 0.309846 0.175754 0.239895
O O3 0.500000 0.000000 0.500000
O O4 0.670190 0.932075 0.934234
O O5 0.808866 0.352534 0.635447
O O6 0.750282 0.280211 0.644033
O O7 0.500000 0.500000 0.000000
O O8 0.762037 0.280458 0.122540
O O9 0.218111 0.370326 0.442397
O O10 0.450280 0.289638 0.945727
O O11 0.317046 0.294179 0.877564
O O12 0.246559 0.500344 0.714968
O O13 0.975777 0.696675 0.593087
O O14 0.280368 0.492259 0.165617
O O15 0.540821 0.347514 0.625864
O O16 0.500000 0.500000 0.500000
O O17 0.807659 0.723521 0.141726
O O18 0.000000 0.500000 0.000000
#
# Coordination Sequence:
#
# PCOD8008232 Si02
#       8
#     2   2   2   2   2   2   2   2
#     4  10  21  43  57  69 103 144 199 224 262 306
#     4  10  16  31  49  75 111 145 167 200 257 331
#     4  11  23  35  55  77 101 146 179 221 260 311
#     4  12  22  33  54  86 116 135 178 217 269 328
#     4  12  21  33  52  85 118 136 174 216 265 335
#     4  10  16  31  49  71 112 148 165 195 260 326
#     4  11  21  37  52  77 113 137 169 211 281 326
#     4  10  23  36  58  78 100 149 181 231 263 306
#
# _framework density 18.895123000000002
#
# number of rings (size 3 to 8) (size 9 to 14) (size 15 to 20)
#    0.000    1.250    6.250    2.625    1.750    1.000 
#    0.000    0.000    0.000    0.000    0.000    1.750 
#    0.000    0.000    0.000    0.000    0.000    0.000 
#
# Total GULP energy -198231.913465 kJ/mol
# GULP energy per Si atom -12389.494592 kJ/mol
# Density = 1.885212 g / cm^3
# Si number density = 18.895123 Si / 1000 Ang^3
#
#
#
# Elastic Constant Matrix: (Units=GPa)
#
#
# Indices 1 2 3 4 5 6 
#
# 1 74.1266 38.2338 48.4103 -9.7552 -4.5823 15.1794
# 2 38.2338 66.6140 22.9049 -15.2882 -13.5797 19.1655
# 3 48.4103 22.9049 98.2002 -20.8082 3.8266 8.7119
# 4 -9.7552 -15.2882 -20.8082 17.3378 5.4150 -3.7438
# 5 -4.5823 -13.5797 3.8266 5.4150 51.2771 -10.3452
# 6 15.1794 19.1655 8.7119 -3.7438 -10.3452 23.0991
#
#
#
# Elastic Compliance Matrix: (Units=1/GPa)
#
#
# Indices 1 2 3 4 5 6 
#
# 1 0.028088 -0.013137 -0.013063 -0.012558 0.000429 -0.004474
# 2 -0.013137 0.030147 0.005364 0.022175 0.001187 -0.014277
# 3 -0.013063 0.005364 0.020539 0.022924 -0.004045 -0.001708
# 4 -0.012558 0.022175 0.022924 0.098971 -0.008758 -0.006673
# 5 0.000429 0.001187 -0.004045 -0.008758 0.022918 0.009103
# 6 -0.004474 -0.014277 -0.001708 -0.006673 0.009103 0.061717
#
#
# Mechanical properties :
#
#
# Convention : Reuss Voigt Hill
#
# Bulk Modulus (GPa) = 26.95433 50.89318 38.92376
# Shear Modulus (GPa) = 15.80185 26.96895 21.38540
#
# Velocity S-wave (km/s) = 2.89501 3.78206 3.36787
# Velocity P-wave (km/s) = 5.04688 6.78712 5.98063
#
# Compressibility (1/GPa) = 0.03709979
#
# Stress axis : x y z
#
# Youngs Moduli (GPa) = 35.60287 33.17134 48.68855
#
# Poissons Ratio (x) = 0.43577 0.63603
# Poissons Ratio (y) = 0.46771 -0.26115
# Poissons Ratio (z) = 0.46509 -0.17792
#
# Static dielectric constant tensor:
#      x y z
#    x 5.296570 -0.228020 2.550790 
#    y -0.228020 5.543290 -2.310630 
#    z 2.550790 -2.310630 8.187690 
# 
# 
# High freq. dielectric constant tensor:
#      x y z
#    x 1.738800 0.018830 0.013590 
#    y 0.018830 1.683350 -0.024260 
#    z 0.013590 -0.024260 1.748480 
# 
# From -- ./inp_files/78081.got.cif
#   From: 2010.06.25/outbox.cif.g09.slc.cpg/sg2_40_cif.got.tgz:78081.got - 2010.06.27 13:26:56.
