data_PCOD8008915
_publ_section_title
;
Structure prediction by ZEFSAII (Michael W. Deem and Ramdas Pophale) SiO2 
 PCOD8008915
Probable space group: P -1
;
_chemical_formula_sum "Si O2"
_cell_formula_units_Z 16
_cell_length_a 8.033877
_cell_length_b 18.787131
_cell_length_c 10.694918
_cell_angle_alpha 33.880025
_cell_angle_beta 116.752285
_cell_angle_gamma 119.984115
_cell_volume 777.346236
_symmetry_space_group_name_H-M "P -1"
_symmetry_group_IT_number 2
_symmetry_cell_setting 'triclinic'
loop_
_space_group_symop_operation_xyz
x,y,z
-x,-y,-z
loop_
_atom_site_type_symbol
_atom_site_label
_atom_site_fract_x
_atom_site_fract_y
_atom_site_fract_z
Si Si1 0.933296 0.591577 0.087837
Si Si2 0.715534 0.374913 0.697652
Si Si3 0.710007 0.406017 0.923348
Si Si4 0.514970 0.137989 0.368528
Si Si5 0.443670 0.567359 0.693518
Si Si6 0.081849 0.132402 0.257808
Si Si7 0.248524 0.888425 0.999061
Si Si8 0.451759 0.852133 0.351886
O O1 0.714025 0.506152 0.150392
O O2 0.943985 0.745603 0.845430
O O3 0.050734 0.577446 0.276368
O O4 0.054017 0.547176 0.078052
O O5 0.619937 0.403003 0.756260
O O6 0.648835 0.449900 0.450620
O O7 0.656686 0.216597 0.885856
O O8 0.626305 0.502322 0.845103
O O9 0.658210 0.256876 0.172787
O O10 0.304944 0.162324 0.260234
O O11 0.599069 0.134671 0.540833
O O12 0.500000 0.000000 0.500000
O O13 0.514940 0.717117 0.544010
O O14 0.000000 0.000000 0.500000
O O15 0.971062 0.126454 0.096103
O O16 0.264737 0.861497 0.192822
O O17 0.364335 0.034648 0.790096
#
# Coordination Sequence:
#
# PCOD8008915 Si02
#       8
#     2   2   2   2   2   2   2   2
#     4   9  20  36  57  90 122 158 207 251 295 369
#     4   8  18  34  62  85 121 156 207 254 296 355
#     4  10  21  35  58  92 120 157 210 253 293 371
#     4  12  23  40  62  91 120 162 213 259 307 367
#     4  11  19  37  58  90 123 168 195 251 316 367
#     4  11  19  37  66  91 118 159 208 252 302 359
#     4   9  18  39  61  93 119 162 208 255 307 362
#     4  10  22  37  62  87 130 164 200 253 320 365
#
# _framework density 20.582849
#
# number of rings (size 3 to 8) (size 9 to 14) (size 15 to 20)
#    0.750    1.250    2.500    2.250    0.000    0.500 
#    0.000    2.500    0.000    0.000    0.000    0.000 
#    0.000    0.000    0.000    0.000    0.000    0.000 
#
# Total GULP energy -198243.881563 kJ/mol
# GULP energy per Si atom -12390.242598 kJ/mol
# Density = 2.053600 g / cm^3
# Si number density = 20.582849 Si / 1000 Ang^3
#
#
#
# Elastic Constant Matrix: (Units=GPa)
#
#
# Indices 1 2 3 4 5 6 
#
# 1 131.3756 29.2972 40.6882 -8.0952 2.2748 -3.5098
# 2 29.2972 54.8633 8.0054 1.4655 -1.8334 -11.1844
# 3 40.6882 8.0054 70.1970 -8.0033 -4.1343 -4.9289
# 4 -8.0952 1.4655 -8.0033 42.3186 -2.0862 -1.0240
# 5 2.2748 -1.8334 -4.1343 -2.0862 30.5327 1.0644
# 6 -3.5098 -11.1844 -4.9289 -1.0240 1.0644 27.0082
#
#
#
# Elastic Compliance Matrix: (Units=1/GPa)
#
#
# Indices 1 2 3 4 5 6 
#
# 1 0.010578 -0.005263 -0.005640 0.001012 -0.001738 -0.001727
# 2 -0.005263 0.022774 0.001011 -0.001317 0.001499 0.008823
# 3 -0.005640 0.001011 0.018071 0.002523 0.002997 0.002961
# 4 0.001012 -0.001317 0.002523 0.024458 0.001827 0.000902
# 5 -0.001738 0.001499 0.002997 0.001827 0.033513 -0.000310
# 6 -0.001727 0.008823 0.002961 0.000902 -0.000310 0.041042
#
#
# Mechanical properties :
#
#
# Convention : Reuss Voigt Hill
#
# Bulk Modulus (GPa) = 31.60526 45.82416 38.71471
# Shear Modulus (GPa) = 27.65993 31.86824 29.76408
#
# Velocity S-wave (km/s) = 3.66981 3.93910 3.80684
# Velocity P-wave (km/s) = 5.77453 6.55746 6.17841
#
# Compressibility (1/GPa) = 0.03164030
#
# Stress axis : x y z
#
# Youngs Moduli (GPa) = 94.53192 43.90970 55.33627
#
# Poissons Ratio (x) = 0.23111 0.31208
# Poissons Ratio (y) = 0.49754 -0.05595
# Poissons Ratio (z) = 0.53313 -0.04440
#
# Static dielectric constant tensor:
#      x y z
#    x 3.900920 -0.214680 0.341310 
#    y -0.214680 3.878430 -0.017150 
#    z 0.341310 -0.017150 3.982580 
# 
# 
# High freq. dielectric constant tensor:
#      x y z
#    x 1.774780 -0.000870 0.003110 
#    y -0.000870 1.805410 -0.000900 
#    z 0.003110 -0.000900 1.816440 
# 
# From -- ./inp_files/404096.got.cif
#   From: 2010.06.25/outbox.cif.g09.slc.cpg/sg2_203_cif.got.tgz:404096.got - 2010.06.27 13:26:56.
