data_PCOD8008257
_publ_section_title
;
Structure prediction by ZEFSAII (Michael W. Deem and Ramdas Pophale) SiO2 
 PCOD8008257
Probable space group: P -1
;
_chemical_formula_sum "Si O2"
_cell_formula_units_Z 16
_cell_length_a 11.407726
_cell_length_b 9.144999
_cell_length_c 12.783618
_cell_angle_alpha 56.382278
_cell_angle_beta 86.565385
_cell_angle_gamma 123.175948
_cell_volume 793.642944
_symmetry_space_group_name_H-M "P -1"
_symmetry_group_IT_number 2
_symmetry_cell_setting 'triclinic'
loop_
_space_group_symop_operation_xyz
x,y,z
-x,-y,-z
loop_
_atom_site_type_symbol
_atom_site_label
_atom_site_fract_x
_atom_site_fract_y
_atom_site_fract_z
Si Si1 0.343041 0.235702 0.575082
Si Si2 0.290149 0.389106 0.129142
Si Si3 0.416121 0.916703 0.647418
Si Si4 0.030910 0.808284 0.861879
Si Si5 0.897124 0.417473 0.644537
Si Si6 0.049435 0.506372 0.825598
Si Si7 0.400373 0.123246 0.183749
Si Si8 0.830767 0.727135 0.595861
O O1 0.500000 0.500000 0.500000
O O2 0.289113 0.259431 0.458089
O O3 0.396963 0.092188 0.620625
O O4 0.191036 0.096982 0.720415
O O5 0.321810 0.215005 0.201112
O O6 0.247771 0.415198 0.235254
O O7 0.138832 0.260769 0.107948
O O8 0.449763 0.667561 0.981388
O O9 0.238013 0.641151 0.761751
O O10 0.536325 0.934203 0.706387
O O11 0.500000 0.000000 0.500000
O O12 0.026655 0.666788 0.822033
O O13 0.049584 0.741078 0.002487
O O14 0.852594 0.576564 0.584399
O O15 0.000000 0.500000 0.500000
O O16 0.995453 0.465516 0.724578
O O17 0.736151 0.128304 0.771781
O O18 0.000000 0.000000 0.500000
#
# Coordination Sequence:
#
# PCOD8008257 Si02
#       8
#     2   2   2   2   2   2   2   2
#     4  11  24  38  63  96 125 161 210 267 318 375
#     4  11  22  44  67  92 127 176 222 261 317 394
#     4  11  21  41  62  89 126 167 211 257 316 386
#     4  10  20  42  69  89 125 168 221 263 310 397
#     4  12  25  41  63 101 134 164 212 276 326 375
#     4  10  21  40  68  93 118 173 215 259 328 377
#     4  11  25  40  66  95 132 168 216 274 321 379
#     4  12  22  41  68  92 127 178 217 255 323 393
#
# _framework density 20.1602
#
# number of rings (size 3 to 8) (size 9 to 14) (size 15 to 20)
#    0.000    1.000    3.750    3.750    0.000    1.500 
#    0.000    0.625    0.000    0.000    0.000    0.000 
#    0.000    0.000    0.000    0.000    0.000    0.000 
#
# Total GULP energy -198412.922166 kJ/mol
# GULP energy per Si atom -12400.807635 kJ/mol
# Density = 2.011431 g / cm^3
# Si number density = 20.160200 Si / 1000 Ang^3
#
#
#
# Elastic Constant Matrix: (Units=GPa)
#
#
# Indices 1 2 3 4 5 6 
#
# 1 114.7972 41.3081 44.7346 0.1196 6.1516 5.2925
# 2 41.3081 106.5776 63.3078 -9.4174 -1.3315 13.9869
# 3 44.7346 63.3078 130.7971 1.0171 -3.1387 3.8086
# 4 0.1196 -9.4174 1.0171 46.2757 8.5107 -0.1568
# 5 6.1516 -1.3315 -3.1387 8.5107 40.3631 2.8135
# 6 5.2925 13.9869 3.8086 -0.1568 2.8135 38.0289
#
#
#
# Elastic Compliance Matrix: (Units=1/GPa)
#
#
# Indices 1 2 3 4 5 6 
#
# 1 0.010740 -0.002786 -0.002365 -0.000200 -0.001864 -0.000096
# 2 -0.002786 0.015025 -0.006211 0.003171 0.000083 -0.004509
# 3 -0.002365 -0.006211 0.011466 -0.001748 0.001321 0.001360
# 4 -0.000200 0.003171 -0.001748 0.023185 -0.004854 -0.000509
# 5 -0.001864 0.000083 0.001321 -0.004854 0.026318 -0.001871
# 6 -0.000096 -0.004509 0.001360 -0.000509 -0.001871 0.027968
#
#
# Mechanical properties :
#
#
# Convention : Reuss Voigt Hill
#
# Bulk Modulus (GPa) = 68.93240 72.31922 70.62581
# Shear Modulus (GPa) = 35.14662 38.45497 36.80079
#
# Velocity S-wave (km/s) = 4.17989 4.37220 4.27713
# Velocity P-wave (km/s) = 7.58696 7.83826 7.71363
#
# Compressibility (1/GPa) = 0.01450697
#
# Stress axis : x y z
#
# Youngs Moduli (GPa) = 93.11280 66.55586 87.21374
#
# Poissons Ratio (x) = 0.18543 0.20626
# Poissons Ratio (y) = 0.25942 0.54166
# Poissons Ratio (z) = 0.22021 0.41336
#
# Static dielectric constant tensor:
#      x y z
#    x 3.944880 0.094050 -0.092210 
#    y 0.094050 3.478830 -0.147210 
#    z -0.092210 -0.147210 3.844480 
# 
# 
# High freq. dielectric constant tensor:
#      x y z
#    x 1.804080 0.011390 0.001910 
#    y 0.011390 1.766580 -0.003870 
#    z 0.001910 -0.003870 1.807410 
# 
# From -- ./inp_files/320272.got.cif
#   From: 2010.06.25/outbox.cif.g09.slc.cpg/sg2_161_cif.got.tgz:320272.got - 2010.06.27 13:26:56.
