data_PCOD8008627
_publ_section_title
;
Structure prediction by ZEFSAII (Michael W. Deem and Ramdas Pophale) SiO2 
 PCOD8008627
Probable space group: P -1
;
_chemical_formula_sum "Si O2"
_cell_formula_units_Z 14
_cell_length_a 13.484197
_cell_length_b 4.704238
_cell_length_c 16.759443
_cell_angle_alpha 105.358157
_cell_angle_beta 33.798776
_cell_angle_gamma 119.327720
_cell_volume 492.931322
_symmetry_space_group_name_H-M "P -1"
_symmetry_group_IT_number 2
_symmetry_cell_setting 'triclinic'
loop_
_space_group_symop_operation_xyz
x,y,z
-x,-y,-z
loop_
_atom_site_type_symbol
_atom_site_label
_atom_site_fract_x
_atom_site_fract_y
_atom_site_fract_z
Si Si1 0.448870 0.812063 0.236039
Si Si2 0.194703 0.146555 0.172561
Si Si3 0.472219 0.721077 0.921834
Si Si4 0.084086 0.913266 0.514668
Si Si5 0.775410 0.369767 0.175708
Si Si6 0.664158 0.898211 0.349994
Si Si7 0.770495 0.653712 0.410565
O O1 0.551731 0.008256 0.097033
O O2 0.598638 0.041348 0.223445
O O3 0.434874 0.446066 0.214273
O O4 0.208539 0.716171 0.396551
O O5 0.376604 0.100925 0.088979
O O6 0.104262 0.297532 0.311980
O O7 0.261155 0.404777 0.072942
O O8 0.011352 0.765069 0.241344
O O9 0.249014 0.258824 0.477440
O O10 0.000000 0.000000 0.500000
O O11 0.716433 0.663101 0.240368
O O12 0.779912 0.267433 0.257840
O O13 0.000000 0.500000 0.000000
O O14 0.731411 0.899424 0.396045
O O15 0.410473 0.740883 0.508607
#
# Coordination Sequence:
#
# PCOD8008627 Si02
#       7
#     2   2   2   2   2   2   2
#     4  12  25  45  70 101 144 182 231 297 355 416
#     4   9  22  43  70 103 139 188 236 282 354 424
#     4  11  25  45  68 104 144 186 228 291 356 429
#     4  10  20  45  69 105 134 183 232 286 347 415
#     4  12  27  42  72 102 139 181 234 291 358 414
#     4  11  24  48  66 104 136 186 239 286 345 419
#     4   9  22  43  73  96 143 186 233 294 344 420
#
# _framework density 28.401520999999999
#
# number of rings (size 3 to 8) (size 9 to 14) (size 15 to 20)
#    0.857    0.571    2.857    1.286    4.000    5.143 
#    0.000   10.000    0.000    0.000    0.000    0.000 
#    0.000    0.000    0.000    0.000    0.000    0.000 
#
# Total GULP energy -173555.695195 kJ/mol
# GULP energy per Si atom -12396.835371 kJ/mol
# Density = 2.833688 g / cm^3
# Si number density = 28.401521 Si / 1000 Ang^3
#
#
#
# Elastic Constant Matrix: (Units=GPa)
#
#
# Indices 1 2 3 4 5 6 
#
# 1 141.3873 21.8829 39.3338 -1.7612 3.2049 3.7403
# 2 21.8829 80.9445 8.6360 -0.3641 -7.0469 -9.8467
# 3 39.3338 8.6360 149.8971 -12.9753 -6.4109 -6.8630
# 4 -1.7612 -0.3641 -12.9753 33.0032 -0.7820 8.4422
# 5 3.2049 -7.0469 -6.4109 -0.7820 48.9418 0.1650
# 6 3.7403 -9.8467 -6.8630 8.4422 0.1650 33.5800
#
#
#
# Elastic Compliance Matrix: (Units=1/GPa)
#
#
# Indices 1 2 3 4 5 6 
#
# 1 0.008102 -0.002308 -0.002129 0.000061 -0.001134 -0.002024
# 2 -0.002308 0.013706 0.000020 -0.001076 0.002095 0.004540
# 3 -0.002129 0.000020 0.007555 0.002596 0.001170 0.001129
# 4 0.000061 -0.001076 0.002596 0.033427 0.000743 -0.008199
# 5 -0.001134 0.002095 0.001170 0.000743 0.020971 0.000690
# 6 -0.002024 0.004540 0.001129 -0.008199 0.000690 0.033625
#
#
# Mechanical properties :
#
#
# Convention : Reuss Voigt Hill
#
# Bulk Modulus (GPa) = 48.70931 56.88157 52.79544
# Shear Modulus (GPa) = 37.57624 43.26340 40.41982
#
# Velocity S-wave (km/s) = 3.64130 3.90715 3.77657
# Velocity P-wave (km/s) = 5.90477 6.35811 6.13563
#
# Compressibility (1/GPa) = 0.02052995
#
# Stress axis : x y z
#
# Youngs Moduli (GPa) = 123.42219 72.96205 132.36002
#
# Poissons Ratio (x) = 0.16839 0.28180
# Poissons Ratio (y) = 0.28485 -0.00269
# Poissons Ratio (z) = 0.26277 -0.00148
#
# Static dielectric constant tensor:
#      x y z
#    x 5.275710 0.250230 0.015760 
#    y 0.250230 4.976560 0.193550 
#    z 0.015760 0.193550 5.460600 
# 
# 
# High freq. dielectric constant tensor:
#      x y z
#    x 2.160480 0.018390 0.010950 
#    y 0.018390 2.154340 0.015690 
#    z 0.010950 0.015690 2.177000 
# 
# From -- ./inp_files/564108.got.cif
#   From: 2010.06.25/outbox.cif.g09.slc.cpg/sg2_283_cif.got.tgz:564108.got - 2010.06.27 13:26:56.
