data_PCOD8008074
_publ_section_title
;
Structure prediction by ZEFSAII (Michael W. Deem and Ramdas Pophale) SiO2 
 PCOD8008074
Probable space group: P -1
;
_chemical_formula_sum "Si O2"
_cell_formula_units_Z 12
_cell_length_a 17.141562
_cell_length_b 9.288065
_cell_length_c 11.528473
_cell_angle_alpha 66.565832
_cell_angle_beta 158.360991
_cell_angle_gamma 118.469777
_cell_volume 589.126364
_symmetry_space_group_name_H-M "P -1"
_symmetry_group_IT_number 2
_symmetry_cell_setting 'triclinic'
loop_
_space_group_symop_operation_xyz
x,y,z
-x,-y,-z
loop_
_atom_site_type_symbol
_atom_site_label
_atom_site_fract_x
_atom_site_fract_y
_atom_site_fract_z
Si Si1 0.372726 0.841661 0.800896
Si Si2 0.861367 0.764727 0.092114
Si Si3 0.582663 0.410941 0.876494
Si Si4 0.519958 0.774082 0.439727
Si Si5 0.744204 0.410326 0.664834
Si Si6 0.536408 0.878541 0.763006
O O1 0.515744 0.843900 0.882493
O O2 0.126197 0.847835 0.428656
O O3 0.349361 0.673740 0.891190
O O4 0.500000 0.000000 0.000000
O O5 0.794174 0.566042 0.080374
O O6 0.766902 0.805725 0.824914
O O7 0.753808 0.840596 0.024847
O O8 0.495810 0.273784 0.700542
O O9 0.374859 0.473371 0.603192
O O10 0.353198 0.622654 0.329275
O O11 0.443177 0.934409 0.298062
O O12 0.687895 0.239118 0.571282
O O13 0.000000 0.500000 0.000000
#
# Coordination Sequence:
#
# PCOD8008074 Si02
#       6
#     2   2   2   2   2   2
#     4  12  25  41  62  94 127 167 210 247 310 374
#     4  10  23  41  65  88 124 166 207 258 310 355
#     4  10  22  42  61  92 126 162 205 255 310 369
#     4  10  20  42  65  89 126 160 205 260 310 361
#     4  10  22  38  66  97 118 158 211 259 308 359
#     4  10  23  42  63  91 129 162 206 255 307 371
#
# _framework density 20.369143000000001
#
# number of rings (size 3 to 8) (size 9 to 14) (size 15 to 20)
#    0.000    2.000    1.667    4.500    4.667    6.667 
#    3.000    0.000    0.000    0.000    0.000    0.000 
#    0.000    0.000    0.000    0.000    0.000    0.000 
#
# Total GULP energy -148790.145154 kJ/mol
# GULP energy per Si atom -12399.178763 kJ/mol
# Density = 2.032278 g / cm^3
# Si number density = 20.369143 Si / 1000 Ang^3
#
#
#
# Elastic Constant Matrix: (Units=GPa)
#
#
# Indices 1 2 3 4 5 6 
#
# 1 77.9644 4.5905 26.9208 -4.9509 -11.5491 -5.4772
# 2 4.5905 78.4175 26.1641 -11.2983 3.9354 -7.7864
# 3 26.9208 26.1641 109.1246 7.1454 7.7698 4.1563
# 4 -4.9509 -11.2983 7.1454 37.2660 7.8631 -7.3541
# 5 -11.5491 3.9354 7.7698 7.8631 26.1111 -6.2306
# 6 -5.4772 -7.7864 4.1563 -7.3541 -6.2306 26.9391
#
#
#
# Elastic Compliance Matrix: (Units=1/GPa)
#
#
# Indices 1 2 3 4 5 6 
#
# 1 0.016993 0.001756 -0.005850 0.003420 0.009892 0.008087
# 2 0.001756 0.016293 -0.005106 0.007837 -0.000648 0.007844
# 3 -0.005850 -0.005106 0.012860 -0.005002 -0.005899 -0.007379
# 4 0.003420 0.007837 -0.005002 0.034134 -0.005657 0.011742
# 5 0.009892 -0.000648 -0.005899 -0.005657 0.049230 0.012576
# 6 0.008087 0.007844 -0.007379 0.011742 0.012576 0.048285
#
#
# Mechanical properties :
#
#
# Convention : Reuss Voigt Hill
#
# Bulk Modulus (GPa) = 36.03779 42.31747 39.17763
# Shear Modulus (GPa) = 24.33761 31.91867 28.12814
#
# Velocity S-wave (km/s) = 3.46038 3.96284 3.72010
# Velocity P-wave (km/s) = 5.80486 6.46214 6.14230
#
# Compressibility (1/GPa) = 0.02774865
#
# Stress axis : x y z
#
# Youngs Moduli (GPa) = 58.84616 61.37468 77.76263
#
# Poissons Ratio (x) = -0.10779 0.45488
# Poissons Ratio (y) = -0.10335 0.39702
# Poissons Ratio (z) = 0.34423 0.31335
#
# Static dielectric constant tensor:
#      x y z
#    x 3.745040 -0.118360 -0.108680 
#    y -0.118360 3.874810 -0.109160 
#    z -0.108680 -0.109160 3.598510 
# 
# 
# High freq. dielectric constant tensor:
#      x y z
#    x 1.790680 -0.006330 -0.011060 
#    y -0.006330 1.810320 -0.004850 
#    z -0.011060 -0.004850 1.784080 
# 
# From -- ./inp_files/146789.got.cif
#   From: 2010.06.25/outbox.cif.g09.slc.cpg/sg2_74_cif.got.tgz:146789.got - 2010.06.27 13:26:56.
