data_PCOD8008318
_publ_section_title
;
Structure prediction by ZEFSAII (Michael W. Deem and Ramdas Pophale) SiO2 
 PCOD8008318
Probable space group: P -1
;
_chemical_formula_sum "Si O2"
_cell_formula_units_Z 16
_cell_length_a 8.570139
_cell_length_b 11.514962
_cell_length_c 9.494455
_cell_angle_alpha 50.769100
_cell_angle_beta 99.526146
_cell_angle_gamma 99.311873
_cell_volume 713.758134
_symmetry_space_group_name_H-M "P -1"
_symmetry_group_IT_number 2
_symmetry_cell_setting 'triclinic'
loop_
_space_group_symop_operation_xyz
x,y,z
-x,-y,-z
loop_
_atom_site_type_symbol
_atom_site_label
_atom_site_fract_x
_atom_site_fract_y
_atom_site_fract_z
Si Si1 0.429211 0.713833 0.895368
Si Si2 0.861594 0.479222 0.883189
Si Si3 0.315284 0.950544 0.513622
Si Si4 0.309128 0.199320 0.910101
Si Si5 0.011390 0.363748 0.716693
Si Si6 0.335840 0.270815 0.331451
Si Si7 0.223094 0.869425 0.249180
Si Si8 0.497946 0.322465 0.599180
O O1 0.301795 0.825695 0.729212
O O2 0.560356 0.670342 0.834288
O O3 0.309585 0.580309 0.034547
O O4 0.531763 0.781666 0.988348
O O5 0.817114 0.645015 0.710096
O O6 0.912106 0.391993 0.820521
O O7 0.000000 0.500000 0.000000
O O8 0.244185 0.887645 0.405237
O O9 0.500000 0.000000 0.500000
O O10 0.242982 0.106057 0.423518
O O11 0.187414 0.328878 0.823187
O O12 0.360768 0.226288 0.736461
O O13 0.236329 0.029598 0.050542
O O14 0.000000 0.500000 0.500000
O O15 0.950124 0.209359 0.748144
O O16 0.467202 0.287181 0.459206
O O17 0.336017 0.748736 0.291149
O O18 0.500000 0.500000 0.500000
#
# Coordination Sequence:
#
# PCOD8008318 Si02
#       8
#     2   2   2   2   2   2   2   2
#     4  11  22  45  73 102 133 179 234 287 345 408
#     4  12  28  44  67 104 141 180 236 284 343 418
#     4  10  20  42  73 104 133 179 228 286 350 409
#     4  12  24  45  74 102 140 183 236 292 342 417
#     4  12  29  49  68 101 146 191 227 288 363 414
#     4  11  21  44  68  98 138 177 230 280 347 413
#     4  12  23  45  74 103 142 176 242 290 349 416
#     4  12  24  40  70 108 137 182 230 285 350 417
#
# _framework density 22.416557000000001
#
# number of rings (size 3 to 8) (size 9 to 14) (size 15 to 20)
#    0.000    0.500    5.000    5.625    1.750    2.000 
#    0.000    1.875    0.000    0.000    0.000    0.000 
#    0.000    0.000    0.000    0.000    0.000    0.000 
#
# Total GULP energy -198264.116435 kJ/mol
# GULP energy per Si atom -12391.507277 kJ/mol
# Density = 2.236554 g / cm^3
# Si number density = 22.416557 Si / 1000 Ang^3
#
#
#
# Elastic Constant Matrix: (Units=GPa)
#
#
# Indices 1 2 3 4 5 6 
#
# 1 65.4048 32.6599 31.0540 -3.3247 9.6157 -3.0017
# 2 32.6599 132.8866 46.9652 1.2760 2.2549 5.9710
# 3 31.0540 46.9652 116.1341 -10.0773 9.5976 0.4590
# 4 -3.3247 1.2760 -10.0773 38.4829 -4.5474 7.1518
# 5 9.6157 2.2549 9.5976 -4.5474 24.8767 -5.4170
# 6 -3.0017 5.9710 0.4590 7.1518 -5.4170 41.1894
#
#
#
# Elastic Compliance Matrix: (Units=1/GPa)
#
#
# Indices 1 2 3 4 5 6 
#
# 1 0.019547 -0.003596 -0.003305 0.000043 -0.005680 0.001228
# 2 -0.003596 0.009546 -0.003089 -0.001053 0.001248 -0.001264
# 3 -0.003305 -0.003089 0.011171 0.002582 -0.002430 -0.000686
# 4 0.000043 -0.001053 0.002582 0.027881 0.003245 -0.004287
# 5 -0.005680 0.001248 -0.002430 0.003245 0.044849 0.004767
# 6 0.001228 -0.001264 -0.000686 -0.004287 0.004767 0.025930
#
#
# Mechanical properties :
#
#
# Convention : Reuss Voigt Hill
#
# Bulk Modulus (GPa) = 49.29245 59.53151 54.41198
# Shear Modulus (GPa) = 30.18148 34.49290 32.33719
#
# Velocity S-wave (km/s) = 3.67330 3.92691 3.80222
# Velocity P-wave (km/s) = 6.32676 6.86844 6.60316
#
# Compressibility (1/GPa) = 0.02028708
#
# Stress axis : x y z
#
# Youngs Moduli (GPa) = 51.15769 104.75304 89.51690
#
# Poissons Ratio (x) = 0.37664 0.29582
# Poissons Ratio (y) = 0.18394 0.27649
# Poissons Ratio (z) = 0.16906 0.32355
#
# Static dielectric constant tensor:
#      x y z
#    x 4.095810 -0.351000 0.431310 
#    y -0.351000 5.311220 -1.135300 
#    z 0.431310 -1.135300 5.194720 
# 
# 
# High freq. dielectric constant tensor:
#      x y z
#    x 1.870510 -0.004650 0.014160 
#    y -0.004650 1.893530 -0.003240 
#    z 0.014160 -0.003240 1.898570 
# 
# From -- ./inp_files/184390.got.cif
#   From: 2010.06.25/outbox.cif.g09.slc.cpg/sg2_93_cif.got.tgz:184390.got - 2010.06.27 13:26:56.
