data_PCOD8008562
_publ_section_title
;
Structure prediction by ZEFSAII (Michael W. Deem and Ramdas Pophale) SiO2 
 PCOD8008562
Probable space group: P -1
;
_chemical_formula_sum "Si O2"
_cell_formula_units_Z 16
_cell_length_a 9.394681
_cell_length_b 9.669552
_cell_length_c 24.295381
_cell_angle_alpha 27.541061
_cell_angle_beta 48.413748
_cell_angle_gamma 47.148793
_cell_volume 736.055185
_symmetry_space_group_name_H-M "P -1"
_symmetry_group_IT_number 2
_symmetry_cell_setting 'triclinic'
loop_
_space_group_symop_operation_xyz
x,y,z
-x,-y,-z
loop_
_atom_site_type_symbol
_atom_site_label
_atom_site_fract_x
_atom_site_fract_y
_atom_site_fract_z
Si Si1 0.357322 0.684413 0.174347
Si Si2 0.013373 0.998121 0.432048
Si Si3 0.404539 0.049368 0.448687
Si Si4 0.282233 0.406173 0.184893
Si Si5 0.731329 0.103885 0.185398
Si Si6 0.906578 0.232769 0.989971
Si Si7 0.788819 0.655376 0.044259
Si Si8 0.328725 0.392039 0.552297
O O1 0.332058 0.404704 0.318747
O O2 0.274597 0.677101 0.135714
O O3 0.586051 0.671745 0.121798
O O4 0.230209 0.034959 0.098615
O O5 0.155050 0.692134 0.474512
O O6 0.788061 0.065137 0.448416
O O7 0.098452 0.275006 0.292643
O O8 0.000000 0.000000 0.500000
O O9 0.500000 0.000000 0.500000
O O10 0.566693 0.830969 0.444829
O O11 0.494774 0.174089 0.223017
O O12 0.260976 0.506567 0.090962
O O13 0.830708 0.363418 0.094532
O O14 0.794978 0.786153 0.314696
O O15 0.800505 0.051746 0.123320
O O16 0.053423 0.387647 0.931515
O O17 0.000000 0.000000 0.000000
O O18 0.500000 0.500000 0.500000
#
# Coordination Sequence:
#
# PCOD8008562 Si02
#       8
#     2   2   2   2   2   2   2   2
#     4  10  20  44  67  92 139 185 217 276 356 414
#     4  12  24  43  76 103 135 191 237 284 357 423
#     4  12  27  47  72 108 143 183 238 299 350 418
#     4  11  22  44  66 101 140 172 231 287 341 417
#     4  11  24  46  69  94 144 184 224 286 354 422
#     4  12  26  39  68 107 132 175 238 288 336 407
#     4  10  22  43  67  93 135 186 224 275 350 414
#     4  12  23  47  75 103 138 188 238 285 361 426
#
# _framework density 21.737500000000001
#
# number of rings (size 3 to 8) (size 9 to 14) (size 15 to 20)
#    0.000    0.750    7.500    0.750    5.250    0.500 
#    2.250    0.000    0.000    0.000    0.000    0.000 
#    0.000    0.000    0.000    0.000    0.000    0.000 
#
# Total GULP energy -198249.839329 kJ/mol
# GULP energy per Si atom -12390.614958 kJ/mol
# Density = 2.168802 g / cm^3
# Si number density = 21.737500 Si / 1000 Ang^3
#
#
#
# Elastic Constant Matrix: (Units=GPa)
#
#
# Indices 1 2 3 4 5 6 
#
# 1 140.0871 23.8969 37.6709 11.3659 -0.0278 13.9090
# 2 23.8969 87.6435 34.7250 8.1149 1.4382 9.6612
# 3 37.6709 34.7250 84.7310 10.4855 -13.0486 16.6036
# 4 11.3659 8.1149 10.4855 34.7523 -2.5090 3.2060
# 5 -0.0278 1.4382 -13.0486 -2.5090 30.8326 5.4906
# 6 13.9090 9.6612 16.6036 3.2060 5.4906 27.2852
#
#
#
# Elastic Compliance Matrix: (Units=1/GPa)
#
#
# Indices 1 2 3 4 5 6 
#
# 1 0.008385 -0.000717 -0.003060 -0.001566 -0.001068 -0.001759
# 2 -0.000717 0.014087 -0.005674 -0.001535 -0.003119 -0.000361
# 3 -0.003060 -0.005674 0.019196 -0.001830 0.010002 -0.009910
# 4 -0.001566 -0.001535 -0.001830 0.030488 0.002051 -0.001539
# 5 -0.001068 -0.003119 0.010002 0.002051 0.039216 -0.012570
# 6 -0.001759 -0.000361 -0.009910 -0.001539 -0.012570 0.046416
#
#
# Mechanical properties :
#
#
# Convention : Reuss Voigt Hill
#
# Bulk Modulus (GPa) = 43.92472 56.11636 50.02054
# Shear Modulus (GPa) = 27.13280 32.98526 30.05903
#
# Velocity S-wave (km/s) = 3.53682 3.89965 3.72266
# Velocity P-wave (km/s) = 6.07697 6.79323 6.44506
#
# Compressibility (1/GPa) = 0.02276623
#
# Stress axis : x y z
#
# Youngs Moduli (GPa) = 119.25767 70.98959 52.09292
#
# Poissons Ratio (x) = 0.05093 0.15940
# Poissons Ratio (y) = 0.08556 0.29556
# Poissons Ratio (z) = 0.36491 0.40277
#
# Static dielectric constant tensor:
#      x y z
#    x 4.324270 -0.004030 0.045080 
#    y -0.004030 4.130000 -0.071120 
#    z 0.045080 -0.071120 4.517780 
# 
# 
# High freq. dielectric constant tensor:
#      x y z
#    x 1.855720 -0.015040 -0.013620 
#    y -0.015040 1.854570 -0.000170 
#    z -0.013620 -0.000170 1.860260 
# 
# From -- ./inp_files/606546.got.cif
#   From: 2010.06.25/outbox.cif.g09.slc.cpg/sg2_304_cif.got.tgz:606546.got - 2010.06.27 13:26:56.
