data_PCOD8008521
_publ_section_title
;
Structure prediction by ZEFSAII (Michael W. Deem and Ramdas Pophale) SiO2 
 PCOD8008521
Probable space group: P -1
;
_chemical_formula_sum "Si O2"
_cell_formula_units_Z 14
_cell_length_a 13.987793
_cell_length_b 10.211142
_cell_length_c 13.362942
_cell_angle_alpha 140.450037
_cell_angle_beta 29.382498
_cell_angle_gamma 127.590745
_cell_volume 584.479869
_symmetry_space_group_name_H-M "P -1"
_symmetry_group_IT_number 2
_symmetry_cell_setting 'triclinic'
loop_
_space_group_symop_operation_xyz
x,y,z
-x,-y,-z
loop_
_atom_site_type_symbol
_atom_site_label
_atom_site_fract_x
_atom_site_fract_y
_atom_site_fract_z
Si Si1 0.212076 0.710086 0.072076
Si Si2 0.665314 0.630079 0.394837
Si Si3 0.014120 0.153112 0.462784
Si Si4 0.047126 0.260788 0.288540
Si Si5 0.548352 0.952418 0.275359
Si Si6 0.655381 0.655719 0.637950
Si Si7 0.705997 0.223715 0.446464
O O1 0.157855 0.683325 0.223203
O O2 0.194266 0.511325 0.899815
O O3 0.426555 0.776810 0.906694
O O4 0.037528 0.908237 0.322730
O O5 0.500000 0.500000 0.500000
O O6 0.766546 0.648520 0.422648
O O7 0.582420 0.858496 0.557850
O O8 0.956276 0.150502 0.398129
O O9 0.223253 0.230043 0.329160
O O10 0.000000 0.500000 0.500000
O O11 0.936039 0.212872 0.260191
O O12 0.284827 0.185579 0.026901
O O13 0.418150 0.796217 0.350437
O O14 0.680232 0.032009 0.287800
O O15 0.628815 0.431739 0.574442
#
# Coordination Sequence:
#
# PCOD8008521 Si02
#       7
#     2   2   2   2   2   2   2
#     4  10  23  43  67  94 135 166 224 276 324 394
#     4  10  20  43  73  94 125 175 224 276 327 381
#     4  11  25  41  65 100 134 175 214 270 335 392
#     4  12  26  43  66  97 138 179 217 267 330 406
#     4  11  25  46  69  97 136 173 225 278 326 391
#     4  11  22  42  70  97 129 175 219 275 330 386
#     4  11  25  44  69 100 131 179 222 273 333 387
#
# _framework density 23.952922000000001
#
# number of rings (size 3 to 8) (size 9 to 14) (size 15 to 20)
#    0.000    1.143    4.286    2.571    2.000    4.571 
#    2.571    0.000    0.000    0.000    0.000    0.000 
#    0.000    0.000    0.000    0.000    0.000    0.000 
#
# Total GULP energy -173472.751735 kJ/mol
# GULP energy per Si atom -12390.910838 kJ/mol
# Density = 2.389840 g / cm^3
# Si number density = 23.952922 Si / 1000 Ang^3
#
#
#
# Elastic Constant Matrix: (Units=GPa)
#
#
# Indices 1 2 3 4 5 6 
#
# 1 93.9399 20.1121 27.6269 3.8150 1.9909 -18.9621
# 2 20.1121 94.5403 41.5797 5.6658 -0.2370 -22.1096
# 3 27.6269 41.5797 143.1958 10.4332 20.4631 -26.6605
# 4 3.8150 5.6658 10.4332 28.3454 -4.5889 4.8692
# 5 1.9909 -0.2370 20.4631 -4.5889 21.3263 -8.4009
# 6 -18.9621 -22.1096 -26.6605 4.8692 -8.4009 43.5476
#
#
#
# Elastic Compliance Matrix: (Units=1/GPa)
#
#
# Indices 1 2 3 4 5 6 
#
# 1 0.012167 -0.000828 -0.001398 -0.001463 0.001656 0.004505
# 2 -0.000828 0.013698 -0.003427 -0.001464 0.005453 0.005712
# 3 -0.001398 -0.003427 0.010573 -0.005122 -0.010070 0.002754
# 4 -0.001463 -0.001464 -0.005122 0.040633 0.011049 -0.006928
# 5 0.001656 0.005453 -0.010070 0.011049 0.062008 0.008051
# 6 0.004505 0.005712 0.002754 -0.006928 0.008051 0.031839
#
#
# Mechanical properties :
#
#
# Convention : Reuss Voigt Hill
#
# Bulk Modulus (GPa) = 39.79028 56.70152 48.24590
# Shear Modulus (GPa) = 26.23268 34.80102 30.51685
#
# Velocity S-wave (km/s) = 3.31294 3.81582 3.57323
# Velocity P-wave (km/s) = 5.59303 6.56791 6.09998
#
# Compressibility (1/GPa) = 0.02513177
#
# Stress axis : x y z
#
# Youngs Moduli (GPa) = 82.18797 73.00358 94.57737
#
# Poissons Ratio (x) = 0.06045 0.13226
# Poissons Ratio (y) = 0.06806 0.32411
# Poissons Ratio (z) = 0.11493 0.25017
#
# Static dielectric constant tensor:
#      x y z
#    x 3.751940 0.422300 -0.028700 
#    y 0.422300 3.679180 0.146020 
#    z -0.028700 0.146020 4.123620 
# 
# 
# High freq. dielectric constant tensor:
#      x y z
#    x 1.958690 -0.009600 0.009470 
#    y -0.009600 1.946880 -0.002700 
#    z 0.009470 -0.002700 1.939960 
# 
# From -- ./inp_files/532697.got.cif
#   From: 2010.06.25/outbox.cif.g09.slc.cpg/sg2_267_cif.got.tgz:532697.got - 2010.06.27 13:26:56.
