data_PCOD8008480
_publ_section_title
;
Structure prediction by ZEFSAII (Michael W. Deem and Ramdas Pophale) SiO2 
 PCOD8008480
Probable space group: P -1
;
_chemical_formula_sum "Si O2"
_cell_formula_units_Z 16
_cell_length_a 9.141825
_cell_length_b 9.211414
_cell_length_c 23.441642
_cell_angle_alpha 30.508640
_cell_angle_beta 52.009038
_cell_angle_gamma 49.173265
_cell_volume 751.253030
_symmetry_space_group_name_H-M "P -1"
_symmetry_group_IT_number 2
_symmetry_cell_setting 'triclinic'
loop_
_space_group_symop_operation_xyz
x,y,z
-x,-y,-z
loop_
_atom_site_type_symbol
_atom_site_label
_atom_site_fract_x
_atom_site_fract_y
_atom_site_fract_z
Si Si1 0.032469 0.411206 0.245557
Si Si2 0.639504 0.548778 0.158556
Si Si3 0.725478 0.569494 0.587662
Si Si4 0.181242 0.213818 0.063592
Si Si5 0.408244 0.289720 0.759947
Si Si6 0.238441 0.533067 0.262062
Si Si7 0.654020 0.673666 0.893706
Si Si8 0.921537 0.980137 0.343188
O O1 0.116562 0.401529 0.291707
O O2 0.178509 0.489228 0.137440
O O3 0.818561 0.652986 0.217652
O O4 0.996560 0.099644 0.342255
O O5 0.563451 0.758557 0.161800
O O6 0.458361 0.447577 0.213780
O O7 0.824457 0.257048 0.229457
O O8 0.673727 0.765795 0.028669
O O9 0.506898 0.552459 0.632585
O O10 0.748391 0.653902 0.619200
O O11 0.762483 0.815386 0.453213
O O12 0.886530 0.243948 0.653891
O O13 0.249549 0.264102 0.092835
O O14 0.141753 0.893282 0.173823
O O15 0.000000 0.500000 0.000000
O O16 0.523685 0.002109 0.792233
O O17 0.500000 0.500000 0.000000
#
# Coordination Sequence:
#
# PCOD8008480 Si02
#       8
#     2   2   2   2   2   2   2   2
#     4  11  24  41  61  97 130 164 211 263 315 377
#     4  10  21  38  62  90 120 168 212 257 308 378
#     4  10  20  43  70  91 123 169 213 264 313 379
#     4  12  23  39  61  88 129 166 210 258 310 378
#     4  10  22  41  63  90 128 165 216 253 315 381
#     4  11  23  39  61  92 129 162 208 263 316 373
#     4  12  25  41  62  92 130 174 208 257 314 378
#     4  10  21  42  69  93 123 165 219 259 315 382
#
# _framework density 21.297751000000002
#
# number of rings (size 3 to 8) (size 9 to 14) (size 15 to 20)
#    0.000    1.250    3.750    3.375    3.500    5.500 
#    2.250    0.000    0.000    3.000    0.000    0.000 
#    0.000    0.000    0.000    0.000    0.000    0.000 
#
# Total GULP energy -198242.985366 kJ/mol
# GULP energy per Si atom -12390.186585 kJ/mol
# Density = 2.124928 g / cm^3
# Si number density = 21.297751 Si / 1000 Ang^3
#
#
#
# Elastic Constant Matrix: (Units=GPa)
#
#
# Indices 1 2 3 4 5 6 
#
# 1 110.4513 30.7036 11.4075 0.8135 -20.9400 -2.4811
# 2 30.7036 70.1381 12.7208 6.2303 -6.7020 -14.7933
# 3 11.4075 12.7208 53.3327 5.7368 -2.8066 -5.8919
# 4 0.8135 6.2303 5.7368 28.6608 -0.1632 -7.5384
# 5 -20.9400 -6.7020 -2.8066 -0.1632 25.8787 4.7929
# 6 -2.4811 -14.7933 -5.8919 -7.5384 4.7929 33.6316
#
#
#
# Elastic Compliance Matrix: (Units=1/GPa)
#
#
# Indices 1 2 3 4 5 6 
#
# 1 0.012163 -0.004821 -0.001309 0.000317 0.008945 -0.002656
# 2 -0.004821 0.018365 -0.002445 -0.001514 -0.000727 0.007058
# 3 -0.001309 -0.002445 0.020130 -0.003025 0.000166 0.001653
# 4 0.000317 -0.001514 -0.003025 0.037787 -0.001620 0.007528
# 5 0.008945 -0.000727 0.000166 -0.001620 0.046937 -0.006683
# 6 -0.002656 0.007058 0.001653 0.007528 -0.006683 0.035572
#
#
# Mechanical properties :
#
#
# Convention : Reuss Voigt Hill
#
# Bulk Modulus (GPa) = 29.84211 38.17618 34.00914
# Shear Modulus (GPa) = 25.09122 29.57357 27.33240
#
# Velocity S-wave (km/s) = 3.43609 3.73040 3.58627
# Velocity P-wave (km/s) = 5.45753 6.04305 5.75774
#
# Compressibility (1/GPa) = 0.03350970
#
# Stress axis : x y z
#
# Youngs Moduli (GPa) = 82.21734 54.45109 49.67710
#
# Poissons Ratio (x) = 0.26249 0.06500
# Poissons Ratio (y) = 0.39635 0.12146
# Poissons Ratio (z) = 0.10758 0.13313
#
# Static dielectric constant tensor:
#      x y z
#    x 8.147830 -1.209990 4.643430 
#    y -1.209990 4.619510 -0.937720 
#    z 4.643430 -0.937720 8.991150 
# 
# 
# High freq. dielectric constant tensor:
#      x y z
#    x 1.826750 -0.019190 -0.011030 
#    y -0.019190 1.851390 0.010140 
#    z -0.011030 0.010140 1.821850 
# 
# From -- ./inp_files/223054.got.cif
#   From: 2010.06.25/outbox.cif.g09.slc.cpg/sg2_112_cif.got.tgz:223054.got - 2010.06.27 13:26:56.
