data_PCOD8008185
_publ_section_title
;
Structure prediction by ZEFSAII (Michael W. Deem and Ramdas Pophale) SiO2 
 PCOD8008185
Probable space group: P -1
;
_chemical_formula_sum "Si O2"
_cell_formula_units_Z 16
_cell_length_a 14.735536
_cell_length_b 8.387563
_cell_length_c 13.534460
_cell_angle_alpha 31.588474
_cell_angle_beta 59.518146
_cell_angle_gamma 53.363298
_cell_volume 703.119156
_symmetry_space_group_name_H-M "P -1"
_symmetry_group_IT_number 2
_symmetry_cell_setting 'triclinic'
loop_
_space_group_symop_operation_xyz
x,y,z
-x,-y,-z
loop_
_atom_site_type_symbol
_atom_site_label
_atom_site_fract_x
_atom_site_fract_y
_atom_site_fract_z
Si Si1 0.201435 0.746729 0.673495
Si Si2 0.408465 0.261204 0.478347
Si Si3 0.975471 0.368087 0.295264
Si Si4 0.585983 0.143331 0.113789
Si Si5 0.122259 0.383915 0.041150
Si Si6 0.460328 0.390389 0.677905
Si Si7 0.237241 0.764540 0.178670
Si Si8 0.059998 0.492051 0.369061
O O1 0.332155 0.627756 0.641138
O O2 0.141454 0.528649 0.758187
O O3 0.148528 0.131540 0.483741
O O4 0.180385 0.653044 0.847498
O O5 0.457298 0.553471 0.314805
O O6 0.298730 0.424707 0.383988
O O7 0.500000 0.000000 0.500000
O O8 0.381924 0.093246 0.681550
O O9 0.092115 0.368323 0.180352
O O10 0.964112 0.583781 0.287167
O O11 0.000000 0.000000 0.500000
O O12 0.529022 0.985054 0.144666
O O13 0.500000 0.500000 0.000000
O O14 0.694371 0.176383 0.983781
O O15 0.206877 0.040599 0.133288
O O16 0.000000 0.500000 0.000000
O O17 0.500000 0.500000 0.500000
O O18 0.123037 0.748597 0.202086
O O19 0.000000 0.500000 0.500000
#
# Coordination Sequence:
#
# PCOD8008185 Si02
#       8
#     2   2   2   2   2   2   2   2
#     4  10  20  42  67  93 133 173 226 283 339 410
#     4  11  24  45  69 101 143 184 232 286 347 418
#     4   9  20  39  66  92 128 171 221 274 339 409
#     4  11  24  46  69 101 142 179 235 297 343 421
#     4  10  21  43  68  96 134 171 230 289 333 419
#     4  10  23  41  69  98 133 182 229 278 347 419
#     4  12  24  46  69  98 144 183 223 292 356 402
#     4  11  24  42  65  98 136 177 226 283 350 415
#
# _framework density 22.755745000000001
#
# number of rings (size 3 to 8) (size 9 to 14) (size 15 to 20)
#    0.000    1.500    2.500    3.000    1.750    6.500 
#    4.500    3.125    0.000    0.000    0.000    0.000 
#    0.000    0.000    0.000    0.000    0.000    0.000 
#
# Total GULP energy -198213.255360 kJ/mol
# GULP energy per Si atom -12388.328460 kJ/mol
# Density = 2.270395 g / cm^3
# Si number density = 22.755745 Si / 1000 Ang^3
#
#
#
# Elastic Constant Matrix: (Units=GPa)
#
#
# Indices 1 2 3 4 5 6 
#
# 1 76.9830 14.1933 18.3560 14.8607 -11.3094 10.1194
# 2 14.1933 94.7224 17.1238 23.2458 1.2719 0.4009
# 3 18.3560 17.1238 104.8614 30.7684 -5.1941 0.6961
# 4 14.8607 23.2458 30.7684 53.2351 -3.9921 -3.3097
# 5 -11.3094 1.2719 -5.1941 -3.9921 39.9665 -3.1610
# 6 10.1194 0.4009 0.6961 -3.3097 -3.1610 39.6855
#
#
#
# Elastic Compliance Matrix: (Units=1/GPa)
#
#
# Indices 1 2 3 4 5 6 
#
# 1 0.015133 -0.001362 -0.001409 -0.002782 0.003567 -0.003768
# 2 -0.001362 0.012018 -0.000392 -0.004757 -0.001315 -0.000269
# 3 -0.001409 -0.000392 0.011684 -0.006172 0.000491 -0.000317
# 4 -0.002782 -0.004757 -0.006172 0.025500 0.001354 0.003100
# 5 0.003567 -0.001315 0.000491 0.001354 0.026375 0.001309
# 6 -0.003768 -0.000269 -0.000317 0.003100 0.001309 0.026530
#
#
# Mechanical properties :
#
#
# Convention : Reuss Voigt Hill
#
# Bulk Modulus (GPa) = 30.75893 41.76812 36.26352
# Shear Modulus (GPa) = 37.20180 41.70368 39.45274
#
# Velocity S-wave (km/s) = 4.04769 4.28561 4.16835
# Velocity P-wave (km/s) = 5.94907 6.54854 6.25599
#
# Compressibility (1/GPa) = 0.03251089
#
# Stress axis : x y z
#
# Youngs Moduli (GPa) = 66.07950 83.20723 85.58494
#
# Poissons Ratio (x) = 0.11333 0.12055
# Poissons Ratio (y) = 0.09000 0.03354
# Poissons Ratio (z) = 0.09308 0.03260
#
# Static dielectric constant tensor:
#      x y z
#    x 3.300800 0.001710 0.993610 
#    y 0.001710 4.325830 0.600110 
#    z 0.993610 0.600110 3.841710 
# 
# 
# High freq. dielectric constant tensor:
#      x y z
#    x 1.877270 0.003680 -0.008940 
#    y 0.003680 1.905420 0.012630 
#    z -0.008940 0.012630 1.911680 
# 
# From -- ./inp_files/529219.got.cif
#   From: 2010.06.25/outbox.cif.g09.slc.cpg/sg2_265_cif.got.tgz:529219.got - 2010.06.27 13:26:56.
