data_PCOD8008786
_publ_section_title
;
Structure prediction by ZEFSAII (Michael W. Deem and Ramdas Pophale) SiO2 
 PCOD8008786
Probable space group: P -1
;
_chemical_formula_sum "Si O2"
_cell_formula_units_Z 16
_cell_length_a 12.240540
_cell_length_b 18.771028
_cell_length_c 6.279207
_cell_angle_alpha 87.702350
_cell_angle_beta 89.631599
_cell_angle_gamma 145.240904
_cell_volume 819.929373
_symmetry_space_group_name_H-M "P -1"
_symmetry_group_IT_number 2
_symmetry_cell_setting 'triclinic'
loop_
_space_group_symop_operation_xyz
x,y,z
-x,-y,-z
loop_
_atom_site_type_symbol
_atom_site_label
_atom_site_fract_x
_atom_site_fract_y
_atom_site_fract_z
Si Si1 0.289432 0.444132 0.420667
Si Si2 0.428950 0.888486 0.916557
Si Si3 0.991318 0.144184 0.892218
Si Si4 0.402819 0.299141 0.863928
Si Si5 0.283920 0.981792 0.466106
Si Si6 0.078986 0.769827 0.798506
Si Si7 0.347471 0.105508 0.832693
Si Si8 0.500103 0.444068 0.198826
O O1 0.443363 0.581928 0.307297
O O2 0.338982 0.387865 0.369850
O O3 0.300827 0.455604 0.678630
O O4 0.080523 0.349881 0.340909
O O5 0.196564 0.768306 0.909505
O O6 0.524970 0.929968 0.679816
O O7 0.484588 0.853737 0.075776
O O8 0.500000 0.000000 0.000000
O O9 0.902877 0.116068 0.668920
O O10 0.192845 0.216723 0.828506
O O11 0.016822 0.228853 0.026486
O O12 0.852315 0.013206 0.025917
O O13 0.415261 0.222338 0.838931
O O14 0.451115 0.341523 0.107789
O O15 0.244383 0.899209 0.648995
O O16 0.316182 0.072165 0.587088
O O17 0.500000 0.500000 0.000000
#
# Coordination Sequence:
#
# PCOD8008786 Si02
#       8
#     2   2   2   2   2   2   2   2
#     4  10  22  35  58  90 113 157 196 232 290 345
#     4  11  20  40  60  87 113 148 196 251 293 337
#     4  10  21  35  58  88 120 153 190 238 294 345
#     4  11  22  38  58  82 129 158 189 237 285 352
#     4  10  21  34  59  88 113 148 193 244 301 337
#     4  11  21  35  60  90 116 144 199 243 291 343
#     4  10  23  38  56  88 117 161 196 231 297 346
#     4   9  20  37  56  80 117 152 192 232 280 334
#
# _framework density 19.513877000000001
#
# number of rings (size 3 to 8) (size 9 to 14) (size 15 to 20)
#    0.000    1.750    5.000    0.750    5.250    2.500 
#    0.000    0.625    0.000    1.500    0.000    0.000 
#    0.000    0.000    0.000    0.000    0.000    0.000 
#
# Total GULP energy -198315.055032 kJ/mol
# GULP energy per Si atom -12394.690940 kJ/mol
# Density = 1.946946 g / cm^3
# Si number density = 19.513877 Si / 1000 Ang^3
#
#
#
# Elastic Constant Matrix: (Units=GPa)
#
#
# Indices 1 2 3 4 5 6 
#
# 1 112.4049 54.5332 37.2416 18.8213 13.2432 5.0754
# 2 54.5332 91.2534 39.7400 23.7485 8.1039 0.8970
# 3 37.2416 39.7400 106.5661 27.3046 6.7959 -5.2742
# 4 18.8213 23.7485 27.3046 36.2426 7.2202 5.5595
# 5 13.2432 8.1039 6.7959 7.2202 24.5720 13.4416
# 6 5.0754 0.8970 -5.2742 5.5595 13.4416 30.7472
#
#
#
# Elastic Compliance Matrix: (Units=1/GPa)
#
#
# Indices 1 2 3 4 5 6 
#
# 1 0.013315 -0.006723 -0.001850 -0.000221 -0.004121 -0.000478
# 2 -0.006723 0.017769 -0.002536 -0.006377 -0.000497 0.001527
# 3 -0.001850 -0.002536 0.013370 -0.007760 -0.002384 0.005118
# 4 -0.000221 -0.006377 -0.007760 0.039469 -0.003573 -0.006683
# 5 -0.004121 -0.000497 -0.002384 -0.003573 0.058199 -0.024511
# 6 -0.000478 0.001527 0.005118 -0.006683 -0.024511 0.045359
#
#
# Mechanical properties :
#
#
# Convention : Reuss Voigt Hill
#
# Bulk Modulus (GPa) = 44.97231 63.69488 54.33360
# Shear Modulus (GPa) = 23.02966 30.22636 26.62801
#
# Velocity S-wave (km/s) = 3.43908 3.93996 3.69801
# Velocity P-wave (km/s) = 6.23427 7.30817 6.79248
#
# Compressibility (1/GPa) = 0.02223590
#
# Stress axis : x y z
#
# Youngs Moduli (GPa) = 75.10136 56.27678 74.79585
#
# Poissons Ratio (x) = 0.37836 0.13839
# Poissons Ratio (y) = 0.50493 0.18966
# Poissons Ratio (z) = 0.13896 0.14270
#
# Static dielectric constant tensor:
#      x y z
#    x 3.533200 0.103090 -0.029790 
#    y 0.103090 3.471140 0.374460 
#    z -0.029790 0.374460 4.054510 
# 
# 
# High freq. dielectric constant tensor:
#      x y z
#    x 1.738450 0.016310 0.003350 
#    y 0.016310 1.737610 0.019620 
#    z 0.003350 0.019620 1.778920 
# 
# From -- ./inp_files/80590.got.cif
#   From: 2010.06.25/outbox.cif.g09.slc.cpg/sg2_41_cif.got.tgz:80590.got - 2010.06.27 13:26:56.
