data_PCOD8008282
_publ_section_title
;
Structure prediction by ZEFSAII (Michael W. Deem and Ramdas Pophale) SiO2 
 PCOD8008282
Probable space group: P -1
;
_chemical_formula_sum "Si O2"
_cell_formula_units_Z 16
_cell_length_a 8.272561
_cell_length_b 11.858776
_cell_length_c 14.468552
_cell_angle_alpha 38.686057
_cell_angle_beta 113.696536
_cell_angle_gamma 101.144077
_cell_volume 794.209080
_symmetry_space_group_name_H-M "P -1"
_symmetry_group_IT_number 2
_symmetry_cell_setting 'triclinic'
loop_
_space_group_symop_operation_xyz
x,y,z
-x,-y,-z
loop_
_atom_site_type_symbol
_atom_site_label
_atom_site_fract_x
_atom_site_fract_y
_atom_site_fract_z
Si Si1 0.435427 0.176853 0.174499
Si Si2 0.535062 0.791430 0.173407
Si Si3 0.576779 0.568350 0.157720
Si Si4 0.047957 0.945757 0.678406
Si Si5 0.755471 0.207940 0.349766
Si Si6 0.349296 0.181168 0.615551
Si Si7 0.972940 0.653692 0.974781
Si Si8 0.708870 0.466614 0.752849
O O1 0.558546 0.182070 0.289580
O O2 0.232631 0.268078 0.095002
O O3 0.469014 0.964832 0.281493
O O4 0.500747 0.294657 0.031644
O O5 0.652350 0.675182 0.191569
O O6 0.642467 0.762288 0.312232
O O7 0.349958 0.712880 0.192161
O O8 0.500000 0.000000 0.000000
O O9 0.739468 0.408521 0.262585
O O10 0.410391 0.482270 0.213350
O O11 0.108904 0.805078 0.697375
O O12 0.052860 0.827974 0.847407
O O13 0.177381 0.089993 0.621426
O O14 0.841722 0.053485 0.543558
O O15 0.327579 0.364107 0.433666
O O16 0.000000 0.500000 0.000000
O O17 0.081485 0.578658 0.140531
#
# Coordination Sequence:
#
# PCOD8008282 Si02
#       8
#     2   2   2   2   2   2   2   2
#     4  11  23  37  68  89 133 163 211 254 317 382
#     4  10  20  42  70  87 123 168 215 259 316 369
#     4  10  21  39  66  90 123 164 209 257 311 378
#     4  10  24  40  65  89 139 164 206 260 317 375
#     4  10  21  40  62  95 123 171 206 257 314 376
#     4  11  22  44  65  95 122 172 214 256 315 371
#     4  12  25  39  61  98 130 168 207 258 318 374
#     4  10  24  39  67  94 124 166 212 260 311 377
#
# _framework density 20.145828999999999
#
# number of rings (size 3 to 8) (size 9 to 14) (size 15 to 20)
#    0.750    0.750    1.250    4.500    8.750    0.500 
#    0.000    1.250    0.000    0.000    0.000    0.000 
#    0.000    0.000    0.000    0.000    0.000    0.000 
#
# Total GULP energy -198319.056217 kJ/mol
# GULP energy per Si atom -12394.941014 kJ/mol
# Density = 2.009998 g / cm^3
# Si number density = 20.145829 Si / 1000 Ang^3
#
#
#
# Elastic Constant Matrix: (Units=GPa)
#
#
# Indices 1 2 3 4 5 6 
#
# 1 84.2390 41.4791 60.7950 -3.4131 3.6275 10.0267
# 2 41.4791 139.5136 66.3575 -4.5276 10.2154 -6.0273
# 3 60.7950 66.3575 165.6839 -1.5831 -1.3220 3.5577
# 4 -3.4131 -4.5276 -1.5831 32.7910 1.1967 0.2857
# 5 3.6275 10.2154 -1.3220 1.1967 42.2333 -8.4427
# 6 10.0267 -6.0273 3.5577 0.2857 -8.4427 18.1060
#
#
#
# Elastic Compliance Matrix: (Units=1/GPa)
#
#
# Indices 1 2 3 4 5 6 
#
# 1 0.019095 -0.003321 -0.005427 0.001502 -0.003502 -0.012270
# 2 -0.003321 0.009838 -0.002832 0.000875 -0.001188 0.005103
# 3 -0.005427 -0.002832 0.009146 -0.000584 0.001664 0.001050
# 4 0.001502 0.000875 -0.000584 0.030816 -0.001560 -0.001639
# 5 -0.003502 -0.001188 0.001664 -0.001560 0.027140 0.013897
# 6 -0.012270 0.005103 0.001050 -0.001639 0.013897 0.070023
#
#
# Mechanical properties :
#
#
# Convention : Reuss Voigt Hill
#
# Bulk Modulus (GPa) = 67.02694 80.74441 73.88567
# Shear Modulus (GPa) = 25.74772 33.34638 29.54705
#
# Velocity S-wave (km/s) = 3.57888 4.07289 3.83385
# Velocity P-wave (km/s) = 7.10077 7.89208 7.50686
#
# Compressibility (1/GPa) = 0.01491937
#
# Stress axis : x y z
#
# Youngs Moduli (GPa) = 52.37075 101.64569 109.33405
#
# Poissons Ratio (x) = 0.33756 0.59330
# Poissons Ratio (y) = 0.17392 0.30967
# Poissons Ratio (z) = 0.28419 0.28790
#
# Static dielectric constant tensor:
#      x y z
#    x 3.419910 -0.096940 -0.041430 
#    y -0.096940 3.713010 -0.019070 
#    z -0.041430 -0.019070 3.825570 
# 
# 
# High freq. dielectric constant tensor:
#      x y z
#    x 1.765170 -0.001570 -0.006370 
#    y -0.001570 1.780120 -0.002650 
#    z -0.006370 -0.002650 1.803250 
# 
# From -- ./inp_files/499919.got.cif
#   From: 2010.06.25/outbox.cif.g09.slc.cpg/sg2_250_cif.got.tgz:499919.got - 2010.06.27 13:26:56.
