data_PCOD8008549
_publ_section_title
;
Structure prediction by ZEFSAII (Michael W. Deem and Ramdas Pophale) SiO2 
 PCOD8008549
Probable space group: P -1
;
_chemical_formula_sum "Si O2"
_cell_formula_units_Z 16
_cell_length_a 16.618076
_cell_length_b 9.396482
_cell_length_c 8.910511
_cell_angle_alpha 64.720003
_cell_angle_beta 74.344259
_cell_angle_gamma 36.407376
_cell_volume 739.632877
_symmetry_space_group_name_H-M "P -1"
_symmetry_group_IT_number 2
_symmetry_cell_setting 'triclinic'
loop_
_space_group_symop_operation_xyz
x,y,z
-x,-y,-z
loop_
_atom_site_type_symbol
_atom_site_label
_atom_site_fract_x
_atom_site_fract_y
_atom_site_fract_z
Si Si1 0.390040 0.831032 0.850719
Si Si2 0.387179 0.499585 0.899032
Si Si3 0.066037 0.623029 0.802691
Si Si4 0.075673 0.923063 0.842054
Si Si5 0.629884 0.913468 0.506922
Si Si6 0.550120 0.260877 0.647515
Si Si7 0.790089 0.875767 0.923239
Si Si8 0.933802 0.425793 0.533014
O O1 0.429659 0.620820 0.826511
O O2 0.325873 0.056453 0.675632
O O3 0.523468 0.711356 0.917175
O O4 0.278679 0.941893 0.979044
O O5 0.231126 0.701235 0.915653
O O6 0.435860 0.363996 0.773446
O O7 0.065662 0.804220 0.773258
O O8 0.071302 0.601128 0.630022
O O9 0.929654 0.752954 0.877838
O O10 0.188624 0.341904 0.948685
O O11 0.031127 0.154022 0.687069
O O12 0.000000 0.000000 0.000000
O O13 0.782543 0.618604 0.598593
O O14 0.500000 0.000000 0.500000
O O15 0.566006 0.115248 0.574349
O O16 0.500000 0.500000 0.500000
O O17 0.696957 0.048174 0.748903
O O18 0.000000 0.500000 0.500000
#
# Coordination Sequence:
#
# PCOD8008549 Si02
#       8
#     2   2   2   2   2   2   2   2
#     4  10  20  44  66 100 134 183 228 287 348 431
#     4  10  23  41  70  97 135 179 233 281 350 421
#     4  11  25  45  72 101 143 185 241 298 358 421
#     4  12  29  45  72 109 145 182 238 301 365 417
#     4  12  27  42  69 102 141 178 234 292 359 405
#     4  11  24  42  69 100 135 183 234 286 344 425
#     4  10  23  42  73 101 140 187 239 285 358 430
#     4  12  28  50  76 102 146 194 243 294 359 442
#
# _framework density 21.632352000000001
#
# number of rings (size 3 to 8) (size 9 to 14) (size 15 to 20)
#    0.000    1.000    2.500    2.625   10.500    1.000 
#    0.000    2.500    0.000    0.000    0.000    0.000 
#    0.000    0.000    0.000    0.000    0.000    0.000 
#
# Total GULP energy -198284.197248 kJ/mol
# GULP energy per Si atom -12392.762328 kJ/mol
# Density = 2.158312 g / cm^3
# Si number density = 21.632352 Si / 1000 Ang^3
#
#
#
# Elastic Constant Matrix: (Units=GPa)
#
#
# Indices 1 2 3 4 5 6 
#
# 1 89.5976 56.0901 37.6294 22.8020 11.4696 5.2862
# 2 56.0901 131.8447 41.5765 11.0325 11.2581 -5.0443
# 3 37.6294 41.5765 108.5091 2.5927 13.4326 10.9277
# 4 22.8020 11.0325 2.5927 36.5878 7.1406 -0.9716
# 5 11.4696 11.2581 13.4326 7.1406 23.4230 2.1385
# 6 5.2862 -5.0443 10.9277 -0.9716 2.1385 47.7293
#
#
#
# Elastic Compliance Matrix: (Units=1/GPa)
#
#
# Indices 1 2 3 4 5 6 
#
# 1 0.019398 -0.006232 -0.003748 -0.009769 -0.001185 -0.002095
# 2 -0.006232 0.011052 -0.002150 0.001077 -0.001579 0.002443
# 3 -0.003748 -0.002150 0.012090 0.002997 -0.004768 -0.002306
# 4 -0.009769 0.001077 0.002997 0.034508 -0.008116 0.001576
# 5 -0.001185 -0.001579 -0.004768 -0.008116 0.049361 -0.001321
# 6 -0.002095 0.002443 -0.002306 0.001576 -0.001321 0.022061
#
#
# Mechanical properties :
#
#
# Convention : Reuss Voigt Hill
#
# Bulk Modulus (GPa) = 54.70395 66.72706 60.71550
# Shear Modulus (GPa) = 27.96056 34.52504 31.24280
#
# Velocity S-wave (km/s) = 3.59908 3.99932 3.80447
# Velocity P-wave (km/s) = 6.52795 7.22765 6.88669
#
# Compressibility (1/GPa) = 0.01828022
#
# Stress axis : x y z
#
# Youngs Moduli (GPa) = 51.55246 90.48081 82.71206
#
# Poissons Ratio (x) = 0.56387 0.31001
# Poissons Ratio (y) = 0.32127 0.17782
# Poissons Ratio (z) = 0.19322 0.19452
#
# Static dielectric constant tensor:
#      x y z
#    x 3.969130 0.070170 0.234000 
#    y 0.070170 4.291920 -0.076580 
#    z 0.234000 -0.076580 4.196420 
# 
# 
# High freq. dielectric constant tensor:
#      x y z
#    x 1.832240 -0.004320 0.013810 
#    y -0.004320 1.877930 0.001500 
#    z 0.013810 0.001500 1.862320 
# 
# From -- ./inp_files/297863.got.cif
#   From: 2010.06.25/outbox.cif.g09.slc.cpg/sg2_149_cif.got.tgz:297863.got - 2010.06.27 13:26:56.
