data_PCOD8008368
_publ_section_title
;
Structure prediction by ZEFSAII (Michael W. Deem and Ramdas Pophale) SiO2 
 PCOD8008368
Probable space group: P -1
;
_chemical_formula_sum "Si O2"
_cell_formula_units_Z 16
_cell_length_a 15.279701
_cell_length_b 6.892459
_cell_length_c 13.880047
_cell_angle_alpha 77.826900
_cell_angle_beta 43.271278
_cell_angle_gamma 53.989212
_cell_volume 745.718257
_symmetry_space_group_name_H-M "P -1"
_symmetry_group_IT_number 2
_symmetry_cell_setting 'triclinic'
loop_
_space_group_symop_operation_xyz
x,y,z
-x,-y,-z
loop_
_atom_site_type_symbol
_atom_site_label
_atom_site_fract_x
_atom_site_fract_y
_atom_site_fract_z
Si Si1 0.076274 0.397751 0.588482
Si Si2 0.107359 0.696309 0.128701
Si Si3 0.725075 0.827512 0.737251
Si Si4 0.355716 0.969747 0.709180
Si Si5 0.718534 0.597293 0.419976
Si Si6 0.441194 0.368198 0.002958
Si Si7 0.829994 0.210888 0.214347
Si Si8 0.155643 0.411365 0.946700
O O1 0.229165 0.216668 0.408566
O O2 0.139423 0.480934 0.611972
O O3 0.023141 0.233486 0.689148
O O4 0.907135 0.671705 0.656459
O O5 0.288769 0.584630 0.031512
O O6 0.126207 0.467906 0.078029
O O7 0.025724 0.950414 0.099843
O O8 0.631616 0.719131 0.854272
O O9 0.598675 0.131547 0.837701
O O10 0.547509 0.724788 0.599609
O O11 0.268175 0.878686 0.735407
O O12 0.317349 0.199611 0.651352
O O13 0.291232 0.100227 0.853464
O O14 0.769399 0.341903 0.354220
O O15 0.500000 0.500000 0.000000
O O16 0.795965 0.416499 0.143605
O O17 0.000000 0.500000 0.000000
#
# Coordination Sequence:
#
# PCOD8008368 Si02
#       8
#     2   2   2   2   2   2   2   2
#     4  10  20  43  65  89 121 162 207 245 311 363
#     4  11  22  39  65  91 122 167 205 250 305 369
#     4   9  22  44  67  89 123 157 196 265 304 359
#     4  10  21  38  56  86 125 160 202 253 297 352
#     4  10  21  36  61  86 121 163 201 245 306 364
#     4  10  23  45  65  93 125 153 204 257 312 361
#     4  11  21  39  58  89 125 162 206 252 298 360
#     4  11  22  39  60  87 122 167 209 251 299 362
#
# _framework density 21.455825000000001
#
# number of rings (size 3 to 8) (size 9 to 14) (size 15 to 20)
#    0.000    1.750    2.500    1.500    3.500    0.000 
#    6.750    1.875    0.000    0.000    0.000    0.000 
#    0.000    0.000    0.000    0.000    0.000    0.000 
#
# Total GULP energy -198267.173899 kJ/mol
# GULP energy per Si atom -12391.698369 kJ/mol
# Density = 2.140699 g / cm^3
# Si number density = 21.455825 Si / 1000 Ang^3
#
#
#
# Elastic Constant Matrix: (Units=GPa)
#
#
# Indices 1 2 3 4 5 6 
#
# 1 109.3987 34.6122 32.7688 15.1386 -15.5264 19.4654
# 2 34.6122 73.2816 26.3453 18.9187 -10.6693 28.7342
# 3 32.7688 26.3453 121.4577 29.6081 -5.6677 18.9976
# 4 15.1386 18.9187 29.6081 25.4440 -3.0965 11.6258
# 5 -15.5264 -10.6693 -5.6677 -3.0965 34.1504 6.0796
# 6 19.4654 28.7342 18.9976 11.6258 6.0796 26.8793
#
#
#
# Elastic Compliance Matrix: (Units=1/GPa)
#
#
# Indices 1 2 3 4 5 6 
#
# 1 0.012307 -0.001158 -0.001436 -0.000391 0.006372 -0.007932
# 2 -0.001158 0.030544 0.001107 -0.006419 0.014511 -0.033101
# 3 -0.001436 0.001107 0.011948 -0.012052 0.001233 -0.003654
# 4 -0.000391 -0.006419 -0.012052 0.064923 0.004078 -0.013340
# 5 0.006372 0.014511 0.001233 0.004078 0.043074 -0.032505
# 6 -0.007932 -0.033101 -0.003654 -0.013340 -0.032505 0.094037
#
#
# Mechanical properties :
#
#
# Convention : Reuss Voigt Hill
#
# Bulk Modulus (GPa) = 19.29590 54.62118 36.95854
# Shear Modulus (GPa) = 18.04521 31.32218 24.68369
#
# Velocity S-wave (km/s) = 2.90322 3.82494 3.39550
# Velocity P-wave (km/s) = 4.50012 6.70967 5.71273
#
# Compressibility (1/GPa) = 0.05182448
#
# Stress axis : x y z
#
# Youngs Moduli (GPa) = 81.25380 32.73960 83.69823
#
# Poissons Ratio (x) = 0.03790 0.12019
# Poissons Ratio (y) = 0.09407 -0.09261
# Poissons Ratio (z) = 0.11668 -0.03623
#
# Static dielectric constant tensor:
#      x y z
#    x 3.854180 0.110870 0.042990 
#    y 0.110870 3.630150 0.673290 
#    z 0.042990 0.673290 4.365310 
# 
# 
# High freq. dielectric constant tensor:
#      x y z
#    x 1.842490 0.011590 -0.001200 
#    y 0.011590 1.823720 0.016510 
#    z -0.001200 0.016510 1.856380 
# 
# From -- ./inp_files/37387.got.cif
#   From: 2010.06.25/outbox.cif.g09.slc.cpg/sg2_19_cif.got.tgz:37387.got - 2010.06.27 13:26:56.
