data_PCOD8008849
_publ_section_title
;
Structure prediction by ZEFSAII (Michael W. Deem and Ramdas Pophale) SiO2 
 PCOD8008849
Probable space group: P -1
;
_chemical_formula_sum "Si O2"
_cell_formula_units_Z 16
_cell_length_a 8.082722
_cell_length_b 20.587929
_cell_length_c 20.721240
_cell_angle_alpha 19.892422
_cell_angle_beta 40.815891
_cell_angle_gamma 41.863771
_cell_volume 758.343748
_symmetry_space_group_name_H-M "P -1"
_symmetry_group_IT_number 2
_symmetry_cell_setting 'triclinic'
loop_
_space_group_symop_operation_xyz
x,y,z
-x,-y,-z
loop_
_atom_site_type_symbol
_atom_site_label
_atom_site_fract_x
_atom_site_fract_y
_atom_site_fract_z
Si Si1 0.704830 0.569484 0.517418
Si Si2 0.535379 0.754589 0.163389
Si Si3 0.178956 0.257219 0.038009
Si Si4 0.223905 0.147539 0.867806
Si Si5 0.825725 0.634148 0.799578
Si Si6 0.459055 0.430485 0.179187
Si Si7 0.750102 0.050504 0.416120
Si Si8 0.658486 0.361579 0.849609
O O1 0.572517 0.445058 0.621281
O O2 0.661385 0.783382 0.298696
O O3 0.595769 0.534838 0.653094
O O4 0.000000 0.500000 0.500000
O O5 0.640217 0.767096 0.191963
O O6 0.759837 0.766774 0.033562
O O7 0.292086 0.917471 0.065975
O O8 0.972823 0.113946 0.245836
O O9 0.437479 0.223489 0.037007
O O10 0.072453 0.477527 0.884416
O O11 0.921167 0.218483 0.894256
O O12 0.760635 0.624414 0.751701
O O13 0.873761 0.852036 0.600447
O O14 0.593930 0.590255 0.953591
O O15 0.656488 0.232718 0.320749
O O16 0.331918 0.528970 0.188293
O O17 0.500000 0.000000 0.500000
#
# Coordination Sequence:
#
# PCOD8008849 Si02
#       8
#     2   2   2   2   2   2   2   2
#     4   9  20  37  56  81 115 149 183 232 287 335
#     4  10  21  38  62  87 111 151 198 239 283 336
#     4  10  21  35  55  84 116 149 187 232 286 342
#     4  10  21  39  61  84 115 152 196 241 282 335
#     4   9  18  35  58  79 109 148 187 237 282 328
#     4   9  18  36  57  80 111 146 189 234 280 337
#     4   9  19  36  58  83 110 144 188 235 281 333
#     4  10  21  37  57  84 121 157 187 232 291 344
#
# _framework density 21.098611999999999
#
# number of rings (size 3 to 8) (size 9 to 14) (size 15 to 20)
#    0.000    2.500    0.000    1.875    0.000    8.500 
#    0.000   18.750    0.000    0.000    0.000    0.000 
#    0.000    0.000    0.000    0.000    0.000    0.000 
#
# Total GULP energy -198210.473546 kJ/mol
# GULP energy per Si atom -12388.154597 kJ/mol
# Density = 2.105059 g / cm^3
# Si number density = 21.098612 Si / 1000 Ang^3
#
#
#
# Elastic Constant Matrix: (Units=GPa)
#
#
# Indices 1 2 3 4 5 6 
#
# 1 64.6495 10.6372 27.0967 9.6090 0.7937 -12.0835
# 2 10.6372 66.5828 31.2024 5.3897 -4.8223 -10.5746
# 3 27.0967 31.2024 106.3112 -2.2815 -3.6582 -14.8681
# 4 9.6090 5.3897 -2.2815 24.6199 -7.8310 0.4834
# 5 0.7937 -4.8223 -3.6582 -7.8310 24.9979 2.1281
# 6 -12.0835 -10.5746 -14.8681 0.4834 2.1281 31.9220
#
#
#
# Elastic Compliance Matrix: (Units=1/GPa)
#
#
# Indices 1 2 3 4 5 6 
#
# 1 0.020081 0.000451 -0.004797 -0.010062 -0.004915 0.005996
# 2 0.000451 0.018350 -0.005011 -0.004389 0.001084 0.003910
# 3 -0.004797 -0.005011 0.012586 0.004844 0.002362 0.002156
# 4 -0.010062 -0.004389 0.004844 0.051358 0.016687 -0.004897
# 5 -0.004915 0.001084 0.002362 0.016687 0.046260 -0.003738
# 6 0.005996 0.003910 0.002156 -0.004897 -0.003738 0.036219
#
#
# Mechanical properties :
#
#
# Convention : Reuss Voigt Hill
#
# Bulk Modulus (GPa) = 30.95653 41.71289 36.33471
# Shear Modulus (GPa) = 23.32786 27.54845 25.43816
#
# Velocity S-wave (km/s) = 3.32875 3.61737 3.47606
# Velocity P-wave (km/s) = 5.42939 6.10414 5.77662
#
# Compressibility (1/GPa) = 0.03230336
#
# Stress axis : x y z
#
# Youngs Moduli (GPa) = 49.79809 54.49660 79.45105
#
# Poissons Ratio (x) = -0.02456 0.38113
# Poissons Ratio (y) = -0.02245 0.39810
# Poissons Ratio (z) = 0.23888 0.27306
#
# Static dielectric constant tensor:
#      x y z
#    x 3.708890 -0.106740 0.115280 
#    y -0.106740 3.825430 -0.093530 
#    z 0.115280 -0.093530 4.195990 
# 
# 
# High freq. dielectric constant tensor:
#      x y z
#    x 1.819650 -0.011310 -0.003400 
#    y -0.011310 1.820630 -0.001250 
#    z -0.003400 -0.001250 1.824560 
# 
# From -- ./inp_files/349723.got.cif
#   From: 2010.06.25/outbox.cif.g09.slc.cpg/sg2_175_cif.got.tgz:349723.got - 2010.06.27 13:26:56.
