data_PCOD8008197
_publ_section_title
;
Structure prediction by ZEFSAII (Michael W. Deem and Ramdas Pophale) SiO2 
 PCOD8008197
Probable space group: P -1
;
_chemical_formula_sum "Si O2"
_cell_formula_units_Z 16
_cell_length_a 25.286953
_cell_length_b 8.181703
_cell_length_c 19.403771
_cell_angle_alpha 134.826307
_cell_angle_beta 161.179981
_cell_angle_gamma 36.053930
_cell_volume 722.760370
_symmetry_space_group_name_H-M "P -1"
_symmetry_group_IT_number 2
_symmetry_cell_setting 'triclinic'
loop_
_space_group_symop_operation_xyz
x,y,z
-x,-y,-z
loop_
_atom_site_type_symbol
_atom_site_label
_atom_site_fract_x
_atom_site_fract_y
_atom_site_fract_z
Si Si1 0.724477 0.331530 0.263646
Si Si2 0.153904 0.882690 0.791334
Si Si3 0.366814 0.215884 0.460991
Si Si4 0.386839 0.106346 0.198809
Si Si5 0.001868 0.268794 0.092187
Si Si6 0.774316 0.176572 0.511681
Si Si7 0.485915 0.742479 0.903347
Si Si8 0.791481 0.795508 0.532570
O O1 0.894704 0.103773 0.347366
O O2 0.704749 0.183967 0.261995
O O3 0.781161 0.540385 0.419654
O O4 0.500000 0.500000 0.000000
O O5 0.289333 0.549344 0.885126
O O6 0.948454 0.083186 0.642256
O O7 0.283478 0.003527 0.993441
O O8 0.173440 0.216167 0.236019
O O9 0.279374 0.543425 0.430119
O O10 0.500000 0.000000 0.500000
O O11 0.511675 0.111238 0.675709
O O12 0.566735 0.072646 0.365978
O O13 0.224125 0.440067 0.122012
O O14 0.040975 0.317364 0.233370
O O15 0.000000 0.000000 0.000000
O O16 0.566600 0.275773 0.245612
O O17 0.855917 0.907871 0.583418
O O18 0.500000 0.000000 0.000000
#
# Coordination Sequence:
#
# PCOD8008197 Si02
#       8
#     2   2   2   2   2   2   2   2
#     4  10  20  42  67  96 134 185 224 268 340 404
#     4  11  23  43  68  97 139 181 224 281 338 405
#     4  11  26  45  72 100 134 177 226 290 351 402
#     4  11  23  47  71  95 138 182 223 282 347 409
#     4  11  27  47  70 102 134 181 233 281 346 411
#     4  12  25  43  66 106 135 171 233 287 336 408
#     4  11  23  41  66 100 141 179 228 278 337 402
#     4  11  25  44  70 100 139 181 229 277 340 412
#
# _framework density 22.137350000000001
#
# number of rings (size 3 to 8) (size 9 to 14) (size 15 to 20)
#    0.000    1.000    5.000    2.250    3.500    6.000 
#    0.000    0.000    0.000    0.000    0.000    0.000 
#    0.000    0.000    0.000    0.000    0.000    0.000 
#
# Total GULP energy -198443.231471 kJ/mol
# GULP energy per Si atom -12402.701967 kJ/mol
# Density = 2.208696 g / cm^3
# Si number density = 22.137350 Si / 1000 Ang^3
#
#
#
# Elastic Constant Matrix: (Units=GPa)
#
#
# Indices 1 2 3 4 5 6 
#
# 1 94.5088 23.3018 12.3191 4.0303 15.2641 -7.2601
# 2 23.3018 149.3510 25.7277 14.4894 19.3100 0.8718
# 3 12.3191 25.7277 59.0035 10.0378 8.0345 -4.4372
# 4 4.0303 14.4894 10.0378 42.6030 -3.3408 5.6851
# 5 15.2641 19.3100 8.0345 -3.3408 26.4006 -0.4911
# 6 -7.2601 0.8718 -4.4372 5.6851 -0.4911 44.5612
#
#
#
# Elastic Compliance Matrix: (Units=1/GPa)
#
#
# Indices 1 2 3 4 5 6 
#
# 1 0.012129 -0.000792 -0.000938 -0.001419 -0.006290 0.002010
# 2 -0.000792 0.008117 -0.002268 -0.002519 -0.005112 -0.000249
# 3 -0.000938 -0.002268 0.019648 -0.004421 -0.004294 0.002365
# 4 -0.001419 -0.002519 -0.004421 0.026603 0.007301 -0.003936
# 5 -0.006290 -0.005112 -0.004294 0.007301 0.047452 -0.001761
# 6 0.002010 -0.000249 0.002365 -0.003936 -0.001761 0.023492
#
#
# Mechanical properties :
#
#
# Convention : Reuss Voigt Hill
#
# Bulk Modulus (GPa) = 31.34983 47.28451 39.31717
# Shear Modulus (GPa) = 32.03730 38.81392 35.42561
#
# Velocity S-wave (km/s) = 3.80834 4.19181 4.00467
# Velocity P-wave (km/s) = 5.79053 6.69585 6.25958
#
# Compressibility (1/GPa) = 0.03189810
#
# Stress axis : x y z
#
# Youngs Moduli (GPa) = 82.44456 123.20402 50.89687
#
# Poissons Ratio (x) = 0.09753 0.04775
# Poissons Ratio (y) = 0.06526 0.11543
# Poissons Ratio (z) = 0.07735 0.27942
#
# Static dielectric constant tensor:
#      x y z
#    x 4.232910 -0.098110 -0.154610 
#    y -0.098110 3.827880 0.263880 
#    z -0.154610 0.263880 3.392990 
# 
# 
# High freq. dielectric constant tensor:
#      x y z
#    x 1.872920 -0.003200 -0.003480 
#    y -0.003200 1.876320 -0.001150 
#    z -0.003480 -0.001150 1.881400 
# 
# From -- ./inp_files/602310.got.cif
#   From: 2010.06.25/outbox.cif.g09.slc.cpg/sg2_302_cif.got.tgz:602310.got - 2010.06.27 13:26:56.
