data_PCOD8008620
_publ_section_title
;
Structure prediction by ZEFSAII (Michael W. Deem and Ramdas Pophale) SiO2 
 PCOD8008620
Probable space group: P -1
;
_chemical_formula_sum "Si O2"
_cell_formula_units_Z 16
_cell_length_a 10.152790
_cell_length_b 19.363873
_cell_length_c 22.160563
_cell_angle_alpha 18.070482
_cell_angle_beta 35.900559
_cell_angle_gamma 34.061345
_cell_volume 750.536645
_symmetry_space_group_name_H-M "P -1"
_symmetry_group_IT_number 2
_symmetry_cell_setting 'triclinic'
loop_
_space_group_symop_operation_xyz
x,y,z
-x,-y,-z
loop_
_atom_site_type_symbol
_atom_site_label
_atom_site_fract_x
_atom_site_fract_y
_atom_site_fract_z
Si Si1 0.704270 0.775228 0.633650
Si Si2 0.241583 0.208319 0.262245
Si Si3 0.333336 0.688122 0.028421
Si Si4 0.233973 0.723337 0.477203
Si Si5 0.753476 0.428537 0.711716
Si Si6 0.986994 0.812138 0.297412
Si Si7 0.433107 0.787602 0.229446
Si Si8 0.276095 0.725784 0.595581
O O1 0.676404 0.753014 0.733610
O O2 0.681023 0.544428 0.803734
O O3 0.955311 0.805132 0.498507
O O4 0.500000 0.000000 0.500000
O O5 0.960810 0.343759 0.245696
O O6 0.288554 0.932934 0.462661
O O7 0.394900 0.311300 0.074590
O O8 0.253109 0.704746 0.113437
O O9 0.161611 0.913651 0.869646
O O10 0.361616 0.837875 0.284739
O O11 0.336046 0.440434 0.671317
O O12 0.280794 0.808421 0.455645
O O13 0.943949 0.249761 0.746495
O O14 0.498341 0.497960 0.716072
O O15 0.824208 0.661150 0.505824
O O16 0.216270 0.744522 0.310626
O O17 0.500000 0.000000 0.000000
#
# Coordination Sequence:
#
# PCOD8008620 Si02
#       8
#     2   2   2   2   2   2   2   2
#     4  11  24  44  67  93 131 173 217 270 327 378
#     4  10  23  40  67  94 126 172 219 264 321 376
#     4  12  24  41  68  98 130 167 223 268 319 391
#     4  10  23  43  66  92 130 172 208 265 326 380
#     4  11  23  42  68  95 133 171 213 266 330 378
#     4  11  24  42  67  98 132 170 215 266 325 390
#     4  11  23  41  66  97 128 168 213 262 323 387
#     4  10  20  45  65  90 135 170 213 268 317 384
#
# _framework density 21.318080999999999
#
# number of rings (size 3 to 8) (size 9 to 14) (size 15 to 20)
#    0.000    1.250    2.500    3.000    1.750    2.500 
#    4.500    0.000    0.000    0.000    0.000    0.000 
#    0.000    0.000    0.000    0.000    0.000    0.000 
#
# Total GULP energy -198478.283916 kJ/mol
# GULP energy per Si atom -12404.892745 kJ/mol
# Density = 2.126956 g / cm^3
# Si number density = 21.318081 Si / 1000 Ang^3
#
#
#
# Elastic Constant Matrix: (Units=GPa)
#
#
# Indices 1 2 3 4 5 6 
#
# 1 81.1564 27.6939 18.0253 3.8052 -2.0686 -9.7739
# 2 27.6939 101.7245 33.6124 7.6090 5.7888 -9.6793
# 3 18.0253 33.6124 76.8950 6.6121 12.1162 -2.5837
# 4 3.8052 7.6090 6.6121 40.4459 4.4447 5.3367
# 5 -2.0686 5.7888 12.1162 4.4447 23.7085 -0.5965
# 6 -9.7739 -9.6793 -2.5837 5.3367 -0.5965 43.1978
#
#
#
# Elastic Compliance Matrix: (Units=1/GPa)
#
#
# Indices 1 2 3 4 5 6 
#
# 1 0.014330 -0.002964 -0.002429 -0.001123 0.003492 0.002620
# 2 -0.002964 0.012452 -0.004439 -0.001530 -0.000692 0.002033
# 3 -0.002429 -0.004439 0.016753 -0.000772 -0.007559 -0.000551
# 4 -0.001123 -0.001530 -0.000772 0.026243 -0.004349 -0.003945
# 5 0.003492 -0.000692 -0.007559 -0.004349 0.047366 0.001374
# 6 0.002620 0.002033 -0.000551 -0.003945 0.001374 0.024671
#
#
# Mechanical properties :
#
#
# Convention : Reuss Voigt Hill
#
# Bulk Modulus (GPa) = 41.89257 46.49324 44.19291
# Shear Modulus (GPa) = 29.50972 33.50005 31.50488
#
# Velocity S-wave (km/s) = 3.72460 3.96844 3.84845
# Velocity P-wave (km/s) = 6.17986 6.54635 6.36574
#
# Compressibility (1/GPa) = 0.02387058
#
# Stress axis : x y z
#
# Youngs Moduli (GPa) = 69.78350 80.31160 59.68907
#
# Poissons Ratio (x) = 0.23805 0.14499
# Poissons Ratio (y) = 0.20684 0.26496
# Poissons Ratio (z) = 0.16952 0.35650
#
# Static dielectric constant tensor:
#      x y z
#    x 3.965790 -0.026040 -0.024320 
#    y -0.026040 4.185570 0.180190 
#    z -0.024320 0.180190 3.584620 
# 
# 
# High freq. dielectric constant tensor:
#      x y z
#    x 1.842510 0.000250 -0.003050 
#    y 0.000250 1.860070 0.008280 
#    z -0.003050 0.008280 1.815590 
# 
# From -- ./inp_files/456019.got.cif
#   From: 2010.06.25/outbox.cif.g09.slc.cpg/sg2_229_cif.got.tgz:456019.got - 2010.06.27 13:26:56.
