data_PCOD8008094
_publ_section_title
;
Structure prediction by ZEFSAII (Michael W. Deem and Ramdas Pophale) SiO2 
 PCOD8008094
Probable space group: P -1
;
_chemical_formula_sum "Si O2"
_cell_formula_units_Z 16
_cell_length_a 12.076846
_cell_length_b 14.511114
_cell_length_c 15.735372
_cell_angle_alpha 151.242714
_cell_angle_beta 143.704539
_cell_angle_gamma 55.320467
_cell_volume 687.599825
_symmetry_space_group_name_H-M "P -1"
_symmetry_group_IT_number 2
_symmetry_cell_setting 'triclinic'
loop_
_space_group_symop_operation_xyz
x,y,z
-x,-y,-z
loop_
_atom_site_type_symbol
_atom_site_label
_atom_site_fract_x
_atom_site_fract_y
_atom_site_fract_z
Si Si1 0.012366 0.030339 0.788348
Si Si2 0.033748 0.363466 0.659775
Si Si3 0.689958 0.210164 0.750513
Si Si4 0.092104 0.841878 0.849108
Si Si5 0.778126 0.428323 0.410553
Si Si6 0.535452 0.198376 0.468424
Si Si7 0.330785 0.332843 0.108598
Si Si8 0.052831 0.717870 0.262664
O O1 0.880153 0.160163 0.800974
O O2 0.909287 0.809752 0.489066
O O3 0.016307 0.967838 0.838435
O O4 0.254546 0.194538 0.037708
O O5 0.855771 0.389261 0.517465
O O6 0.955709 0.308811 0.663495
O O7 0.242574 0.602305 0.984699
O O8 0.603247 0.285285 0.676819
O O9 0.500000 0.000000 0.500000
O O10 0.175041 0.697839 0.735886
O O11 0.897115 0.687178 0.666816
O O12 0.289015 0.016700 0.167796
O O13 0.523658 0.318326 0.170800
O O14 0.583105 0.410212 0.612129
O O15 0.697579 0.109960 0.464614
O O16 0.120288 0.211433 0.818824
O O17 0.000000 0.500000 0.000000
#
# Coordination Sequence:
#
# PCOD8008094 Si02
#       8
#     2   2   2   2   2   2   2   2
#     4  11  27  44  70 107 138 183 238 281 353 411
#     4  11  24  45  70 101 143 179 232 295 339 417
#     4  12  25  46  71 100 142 188 234 289 345 415
#     4  10  25  46  66  98 141 182 232 289 338 425
#     4  10  25  45  67  99 139 183 233 284 353 404
#     4  11  23  43  66 100 140 178 230 291 345 412
#     4  11  23  42  65 103 133 177 233 282 346 409
#     4  10  20  42  65  97 142 171 226 281 345 407
#
# _framework density 23.269348000000001
#
# number of rings (size 3 to 8) (size 9 to 14) (size 15 to 20)
#    0.000    1.250    3.750    1.500    7.000    4.000 
#    0.000    0.000    0.000    0.000    0.000    0.000 
#    0.000    0.000    0.000    0.000    0.000    0.000 
#
# Total GULP energy -198318.270577 kJ/mol
# GULP energy per Si atom -12394.891911 kJ/mol
# Density = 2.321639 g / cm^3
# Si number density = 23.269348 Si / 1000 Ang^3
#
#
#
# Elastic Constant Matrix: (Units=GPa)
#
#
# Indices 1 2 3 4 5 6 
#
# 1 73.5086 13.7345 25.8586 -4.1329 8.5151 3.1992
# 2 13.7345 88.4879 29.8294 0.6608 -9.8868 11.7387
# 3 25.8586 29.8294 114.5425 5.5447 -3.6008 -9.9679
# 4 -4.1329 0.6608 5.5447 30.5379 15.8780 3.7266
# 5 8.5151 -9.8868 -3.6008 15.8780 34.2744 2.0515
# 6 3.1992 11.7387 -9.9679 3.7266 2.0515 19.6707
#
#
#
# Elastic Compliance Matrix: (Units=1/GPa)
#
#
# Indices 1 2 3 4 5 6 
#
# 1 0.017201 -0.001515 -0.004594 0.008351 -0.008769 -0.004889
# 2 -0.001515 0.015134 -0.004352 -0.001238 0.005537 -0.011333
# 3 -0.004594 -0.004352 0.012164 -0.005629 0.003158 0.010245
# 4 0.008351 -0.001238 -0.005629 0.049296 -0.025251 -0.010177
# 5 -0.008769 0.005537 0.003158 -0.025251 0.044993 -0.000186
# 6 -0.004889 -0.011333 0.010245 -0.010177 -0.000186 0.065534
#
#
# Mechanical properties :
#
#
# Convention : Reuss Voigt Hill
#
# Bulk Modulus (GPa) = 42.41144 46.15379 44.28261
# Shear Modulus (GPa) = 21.44974 30.70438 26.07706
#
# Velocity S-wave (km/s) = 3.03941 3.63646 3.35126
# Velocity P-wave (km/s) = 5.53021 6.12450 5.83493
#
# Compressibility (1/GPa) = 0.02357854
#
# Stress axis : x y z
#
# Youngs Moduli (GPa) = 58.13601 66.07496 82.20915
#
# Poissons Ratio (x) = 0.10008 0.37768
# Poissons Ratio (y) = 0.08806 0.35774
# Poissons Ratio (z) = 0.26709 0.28753
#
# Static dielectric constant tensor:
#      x y z
#    x 4.658550 0.012700 0.106330 
#    y 0.012700 4.111820 -0.005530 
#    z 0.106330 -0.005530 4.489300 
# 
# 
# High freq. dielectric constant tensor:
#      x y z
#    x 1.918390 0.010820 0.010110 
#    y 0.010820 1.924250 0.000690 
#    z 0.010110 0.000690 1.916310 
# 
# From -- ./inp_files/522700.got.cif
#   From: 2010.06.25/outbox.cif.g09.slc.cpg/sg2_262_cif.got.tgz:522700.got - 2010.06.27 13:26:56.
