data_PCOD8008646
_publ_section_title
;
Structure prediction by ZEFSAII (Michael W. Deem and Ramdas Pophale) SiO2 
 PCOD8008646
Probable space group: P -1
;
_chemical_formula_sum "Si O2"
_cell_formula_units_Z 16
_cell_length_a 10.786230
_cell_length_b 8.550184
_cell_length_c 19.314747
_cell_angle_alpha 44.058658
_cell_angle_beta 137.260748
_cell_angle_gamma 103.951417
_cell_volume 667.758690
_symmetry_space_group_name_H-M "P -1"
_symmetry_group_IT_number 2
_symmetry_cell_setting 'triclinic'
loop_
_space_group_symop_operation_xyz
x,y,z
-x,-y,-z
loop_
_atom_site_type_symbol
_atom_site_label
_atom_site_fract_x
_atom_site_fract_y
_atom_site_fract_z
Si Si1 0.738159 0.667900 0.826987
Si Si2 0.193640 0.028094 0.658007
Si Si3 0.482447 0.594290 0.188726
Si Si4 0.843444 0.095242 0.586789
Si Si5 0.818483 0.443738 0.266822
Si Si6 0.330025 0.109150 0.051998
Si Si7 0.465996 0.725825 0.465297
Si Si8 0.876861 0.562570 0.769720
O O1 0.679949 0.464863 0.899471
O O2 0.706427 0.674474 0.729287
O O3 0.597418 0.993537 0.690330
O O4 0.000000 0.500000 0.000000
O O5 0.231004 0.757791 0.725252
O O6 0.436529 0.963979 0.796835
O O7 0.056225 0.105378 0.651033
O O8 0.052249 0.277429 0.462470
O O9 0.657107 0.288193 0.391357
O O10 0.605885 0.657827 0.163021
O O11 0.368209 0.831515 0.125990
O O12 0.736168 0.193104 0.588671
O O13 0.931680 0.780651 0.705589
O O14 0.803869 0.649188 0.138951
O O15 0.127294 0.252444 0.981536
O O16 0.500000 0.500000 0.500000
O O17 0.724193 0.558340 0.651098
#
# Coordination Sequence:
#
# PCOD8008646 Si02
#       8
#     2   2   2   2   2   2   2   2
#     4  11  25  44  69 100 136 184 228 281 357 414
#     4  10  23  44  73 101 134 189 232 281 352 409
#     4  11  24  44  67 100 142 179 226 293 339 412
#     4  10  20  46  70  93 138 183 221 284 348 409
#     4  10  23  44  69 103 138 182 238 281 345 414
#     4  12  26  43  69 106 142 180 232 291 340 411
#     4  11  24  45  72 103 131 182 233 287 348 412
#     4  11  23  46  70  98 140 180 228 285 349 417
#
# _framework density 23.960751999999999
#
# number of rings (size 3 to 8) (size 9 to 14) (size 15 to 20)
#    0.000    1.250    3.750    1.500    3.500    4.500 
#    4.500    0.000    0.000    0.000    0.000    0.000 
#    0.000    0.000    0.000    0.000    0.000    0.000 
#
# Total GULP energy -198211.604761 kJ/mol
# GULP energy per Si atom -12388.225298 kJ/mol
# Density = 2.390622 g / cm^3
# Si number density = 23.960752 Si / 1000 Ang^3
#
#
#
# Elastic Constant Matrix: (Units=GPa)
#
#
# Indices 1 2 3 4 5 6 
#
# 1 63.1917 22.9353 25.2999 -2.3235 18.9209 -2.4127
# 2 22.9353 139.5490 54.2845 -5.4181 22.2122 -1.5392
# 3 25.2999 54.2845 105.2419 12.1696 24.2413 9.7779
# 4 -2.3235 -5.4181 12.1696 30.3918 -3.0476 8.8264
# 5 18.9209 22.2122 24.2413 -3.0476 42.3238 -0.2005
# 6 -2.4127 -1.5392 9.7779 8.8264 -0.2005 28.2177
#
#
#
# Elastic Compliance Matrix: (Units=1/GPa)
#
#
# Indices 1 2 3 4 5 6 
#
# 1 0.019422 -0.000904 -0.003101 0.001280 -0.006329 0.002241
# 2 -0.000904 0.009577 -0.004804 0.003066 -0.001644 0.001139
# 3 -0.003101 -0.004804 0.015023 -0.006548 -0.005186 -0.003721
# 4 0.001280 0.003066 -0.006548 0.039442 0.004363 -0.009761
# 5 -0.006329 -0.001644 -0.005186 0.004363 0.030604 0.000019
# 6 0.002241 0.001139 -0.003721 -0.009761 0.000019 0.040035
#
#
# Mechanical properties :
#
#
# Convention : Reuss Voigt Hill
#
# Bulk Modulus (GPa) = 37.87361 57.00247 47.43804
# Shear Modulus (GPa) = 27.69728 33.88419 30.79073
#
# Velocity S-wave (km/s) = 3.40361 3.76460 3.58865
# Velocity P-wave (km/s) = 5.59347 6.53742 6.08378
#
# Compressibility (1/GPa) = 0.02640361
#
# Stress axis : x y z
#
# Youngs Moduli (GPa) = 51.48728 104.42147 66.56510
#
# Poissons Ratio (x) = 0.09439 0.20643
# Poissons Ratio (y) = 0.04654 0.31978
# Poissons Ratio (z) = 0.15967 0.50165
#
# Static dielectric constant tensor:
#      x y z
#    x 4.543010 0.240570 0.226960 
#    y 0.240570 3.774700 -0.155600 
#    z 0.226960 -0.155600 4.254880 
# 
# 
# High freq. dielectric constant tensor:
#      x y z
#    x 1.960010 -0.003670 0.013890 
#    y -0.003670 1.937300 -0.002770 
#    z 0.013890 -0.002770 1.952170 
# 
# From -- ./inp_files/346194.got.cif
#   From: 2010.06.25/outbox.cif.g09.slc.cpg/sg2_174_cif.got.tgz:346194.got - 2010.06.27 13:26:56.
