data_PCOD8008644
_publ_section_title
;
Structure prediction by ZEFSAII (Michael W. Deem and Ramdas Pophale) SiO2 
 PCOD8008644
Probable space group: P -1
;
_chemical_formula_sum "Si O2"
_cell_formula_units_Z 16
_cell_length_a 14.835104
_cell_length_b 9.057967
_cell_length_c 9.216981
_cell_angle_alpha 132.985142
_cell_angle_beta 126.361249
_cell_angle_gamma 46.615698
_cell_volume 640.145154
_symmetry_space_group_name_H-M "P -1"
_symmetry_group_IT_number 2
_symmetry_cell_setting 'triclinic'
loop_
_space_group_symop_operation_xyz
x,y,z
-x,-y,-z
loop_
_atom_site_type_symbol
_atom_site_label
_atom_site_fract_x
_atom_site_fract_y
_atom_site_fract_z
Si Si1 0.767559 0.630546 0.489874
Si Si2 0.931730 0.158325 0.677647
Si Si3 0.618218 0.040304 0.101832
Si Si4 0.585023 0.495462 0.769630
Si Si5 0.812365 0.309896 0.072879
Si Si6 0.303383 0.362894 0.282898
Si Si7 0.732483 0.018726 0.496081
Si Si8 0.933569 0.798357 0.901936
O O1 0.801644 0.390152 0.284368
O O2 0.655456 0.682065 0.536194
O O3 0.876079 0.627342 0.700374
O O4 0.743182 0.807298 0.456210
O O5 0.834790 0.413394 0.705531
O O6 0.857248 0.057979 0.642608
O O7 0.000000 0.000000 0.500000
O O8 0.041526 0.171403 0.885959
O O9 0.556701 0.313934 0.183528
O O10 0.714451 0.975922 0.283374
O O11 0.500000 0.000000 0.000000
O O12 0.697593 0.869442 0.931816
O O13 0.600395 0.588012 0.687978
O O14 0.607053 0.239813 0.590146
O O15 0.687904 0.482193 0.977715
O O16 0.932588 0.322278 0.132928
O O17 0.833653 0.050347 0.911664
#
# Coordination Sequence:
#
# PCOD8008644 Si02
#       8
#     2   2   2   2   2   2   2   2
#     4  12  24  38  66  97 134 176 213 272 334 391
#     4  11  24  43  66  98 136 176 216 275 324 394
#     4  10  22  42  70  94 126 174 224 279 325 386
#     4  10  20  46  68  91 128 175 223 274 325 394
#     4  11  21  42  63  94 131 174 218 269 320 401
#     4  10  23  42  58  99 133 161 224 274 320 387
#     4  11  22  42  69  96 131 175 223 260 342 394
#     4  11  22  40  64  92 136 172 222 259 333 392
#
# _framework density 24.994332
#
# number of rings (size 3 to 8) (size 9 to 14) (size 15 to 20)
#    0.000    1.250    3.750    3.750    1.750    1.500 
#    0.000    6.250    0.000    0.000    0.000    0.000 
#    0.000    0.000    0.000    0.000    0.000    0.000 
#
# Total GULP energy -198272.668100 kJ/mol
# GULP energy per Si atom -12392.041756 kJ/mol
# Density = 2.493744 g / cm^3
# Si number density = 24.994332 Si / 1000 Ang^3
#
#
#
# Elastic Constant Matrix: (Units=GPa)
#
#
# Indices 1 2 3 4 5 6 
#
# 1 40.6619 30.0250 25.7846 -1.0126 -17.5380 0.5597
# 2 30.0250 96.4298 13.2089 -0.4768 -25.4006 -10.0469
# 3 25.7846 13.2089 136.3641 -3.2892 -40.3791 -8.7142
# 4 -1.0126 -0.4768 -3.2892 41.2480 -7.8987 -8.1997
# 5 -17.5380 -25.4006 -40.3791 -7.8987 47.7900 6.9823
# 6 0.5597 -10.0469 -8.7142 -8.1997 6.9823 28.9991
#
#
#
# Elastic Compliance Matrix: (Units=1/GPa)
#
#
# Indices 1 2 3 4 5 6 
#
# 1 0.037855 -0.010507 -0.005110 -0.000055 0.005023 -0.007131
# 2 -0.010507 0.015524 0.002774 0.002466 0.006330 0.005588
# 3 -0.005110 0.002774 0.010939 0.003096 0.008903 0.003078
# 4 -0.000055 0.002466 0.003096 0.027466 0.007307 0.007792
# 5 0.005023 0.006330 0.008903 0.007307 0.035099 -0.001613
# 6 -0.007131 0.005588 0.003078 0.007792 -0.001613 0.040074
#
#
# Mechanical properties :
#
#
# Convention : Reuss Voigt Hill
#
# Bulk Modulus (GPa) = 25.88580 45.72142 35.80361
# Shear Modulus (GPa) = 24.32868 37.23658 30.78263
#
# Velocity S-wave (km/s) = 3.12327 3.86398 3.51320
# Velocity P-wave (km/s) = 4.83586 6.18381 5.55091
#
# Compressibility (1/GPa) = 0.03863122
#
# Stress axis : x y z
#
# Youngs Moduli (GPa) = 26.41663 64.41843 91.41931
#
# Poissons Ratio (x) = 0.67685 0.46714
# Poissons Ratio (y) = 0.27756 -0.25359
# Poissons Ratio (z) = 0.13498 -0.17869
#
# Static dielectric constant tensor:
#      x y z
#    x 4.392130 -0.232860 -0.397640 
#    y -0.232860 4.837780 0.369190 
#    z -0.397640 0.369190 5.017900 
# 
# 
# High freq. dielectric constant tensor:
#      x y z
#    x 1.963600 -0.000970 -0.015060 
#    y -0.000970 1.994500 0.007050 
#    z -0.015060 0.007050 2.022100 
# 
# From -- ./inp_files/328111.got.cif
#   From: 2010.06.25/outbox.cif.g09.slc.cpg/sg2_165_cif.got.tgz:328111.got - 2010.06.27 13:26:56.
