data_PCOD8008274
_publ_section_title
;
Structure prediction by ZEFSAII (Michael W. Deem and Ramdas Pophale) SiO2 
 PCOD8008274
Probable space group: P -1
;
_chemical_formula_sum "Si O2"
_cell_formula_units_Z 16
_cell_length_a 14.221287
_cell_length_b 9.007123
_cell_length_c 11.551096
_cell_angle_alpha 69.734467
_cell_angle_beta 90.654888
_cell_angle_gamma 142.571221
_cell_volume 748.008556
_symmetry_space_group_name_H-M "P -1"
_symmetry_group_IT_number 2
_symmetry_cell_setting 'triclinic'
loop_
_space_group_symop_operation_xyz
x,y,z
-x,-y,-z
loop_
_atom_site_type_symbol
_atom_site_label
_atom_site_fract_x
_atom_site_fract_y
_atom_site_fract_z
Si Si1 0.796501 0.163552 0.601459
Si Si2 0.844437 0.635201 0.312274
Si Si3 0.734029 0.156854 0.359235
Si Si4 0.828140 0.164862 0.117594
Si Si5 0.475250 0.800449 0.119117
Si Si6 0.765637 0.798335 0.839741
Si Si7 0.370764 0.752506 0.375191
Si Si8 0.173483 0.157901 0.919458
O O1 0.718373 0.024551 0.508557
O O2 0.688946 0.151139 0.664693
O O3 0.000000 0.500000 0.500000
O O4 0.751402 0.945090 0.734243
O O5 0.868227 0.488938 0.304565
O O6 0.761513 0.527359 0.467097
O O7 0.730458 0.575993 0.233367
O O8 0.037096 0.983891 0.232620
O O9 0.797656 0.134916 0.262991
O O10 0.558882 0.003913 0.369024
O O11 0.667208 0.007676 0.088071
O O12 0.864107 0.038119 0.115086
O O13 0.000000 0.500000 0.000000
O O14 0.368461 0.521630 0.120562
O O15 0.368833 0.672146 0.270964
O O16 0.500000 0.000000 0.000000
O O17 0.720881 0.750426 0.990184
O O18 0.000000 0.000000 0.000000
#
# Coordination Sequence:
#
# PCOD8008274 Si02
#       8
#     2   2   2   2   2   2   2   2
#     4  11  21  41  70 106 134 173 225 280 334 407
#     4  10  20  42  69  99 131 185 224 270 340 408
#     4  10  22  42  69  99 136 175 224 277 336 403
#     4  11  25  44  68  95 130 182 231 273 336 410
#     4  11  29  45  64 102 142 180 222 291 347 392
#     4  11  24  43  65 102 141 171 227 284 344 398
#     4  10  23  43  69  97 139 181 227 272 341 408
#     4  10  24  41  68 100 134 175 229 274 334 413
#
# _framework density 21.390129000000002
#
# number of rings (size 3 to 8) (size 9 to 14) (size 15 to 20)
#    0.000    1.500    2.500    3.000    8.750    4.000 
#    0.000    2.500    0.000    0.000    0.000    0.000 
#    0.000    0.000    0.000    0.000    0.000    0.000 
#
# Total GULP energy -198293.189059 kJ/mol
# GULP energy per Si atom -12393.324316 kJ/mol
# Density = 2.134144 g / cm^3
# Si number density = 21.390129 Si / 1000 Ang^3
#
#
#
# Elastic Constant Matrix: (Units=GPa)
#
#
# Indices 1 2 3 4 5 6 
#
# 1 122.9337 45.0764 65.8469 11.0903 5.6866 -14.5027
# 2 45.0764 120.6491 61.0602 7.9367 -0.6045 -10.6161
# 3 65.8469 61.0602 155.7534 14.2499 27.5005 -16.7139
# 4 11.0903 7.9367 14.2499 34.7716 -1.4074 -3.1619
# 5 5.6866 -0.6045 27.5005 -1.4074 51.5707 0.2733
# 6 -14.5027 -10.6161 -16.7139 -3.1619 0.2733 32.0042
#
#
#
# Elastic Compliance Matrix: (Units=1/GPa)
#
#
# Indices 1 2 3 4 5 6 
#
# 1 0.011223 -0.002026 -0.003690 -0.001365 0.000657 0.002346
# 2 -0.002026 0.011057 -0.003805 -0.000156 0.002374 0.000727
# 3 -0.003690 -0.003805 0.010955 -0.002433 -0.005560 0.002594
# 4 -0.001365 -0.000156 -0.002433 0.030414 0.002271 0.001044
# 5 0.000657 0.002374 -0.005560 0.002271 0.022382 -0.001785
# 6 0.002346 0.000727 0.002594 0.001044 -0.001785 0.034023
#
#
# Mechanical properties :
#
#
# Convention : Reuss Voigt Hill
#
# Bulk Modulus (GPa) = 70.45681 82.58925 76.52303
# Shear Modulus (GPa) = 34.76367 38.82617 36.79492
#
# Velocity S-wave (km/s) = 4.03578 4.26507 4.15201
# Velocity P-wave (km/s) = 7.39778 7.93405 7.67060
#
# Compressibility (1/GPa) = 0.01419309
#
# Stress axis : x y z
#
# Youngs Moduli (GPa) = 89.10000 90.43686 91.28614
#
# Poissons Ratio (x) = 0.18325 0.33682
# Poissons Ratio (y) = 0.18055 0.34735
# Poissons Ratio (z) = 0.32875 0.34412
#
# Static dielectric constant tensor:
#      x y z
#    x 3.268200 0.361190 0.713130 
#    y 0.361190 3.750700 0.134820 
#    z 0.713130 0.134820 3.911370 
# 
# 
# High freq. dielectric constant tensor:
#      x y z
#    x 1.843230 0.008380 0.007890 
#    y 0.008380 1.829740 0.012450 
#    z 0.007890 0.012450 1.856970 
# 
# From -- ./inp_files/447165.got.cif
#   From: 2010.06.25/outbox.cif.g09.slc.cpg/sg2_224_cif.got.tgz:447165.got - 2010.06.27 13:26:56.
