data_PCOD8008481
_publ_section_title
;
Structure prediction by ZEFSAII (Michael W. Deem and Ramdas Pophale) SiO2 
 PCOD8008481
Probable space group: P -1
;
_chemical_formula_sum "Si O2"
_cell_formula_units_Z 14
_cell_length_a 9.294931
_cell_length_b 10.133125
_cell_length_c 13.596340
_cell_angle_alpha 50.840110
_cell_angle_beta 135.896494
_cell_angle_gamma 120.859591
_cell_volume 686.844328
_symmetry_space_group_name_H-M "P -1"
_symmetry_group_IT_number 2
_symmetry_cell_setting 'triclinic'
loop_
_space_group_symop_operation_xyz
x,y,z
-x,-y,-z
loop_
_atom_site_type_symbol
_atom_site_label
_atom_site_fract_x
_atom_site_fract_y
_atom_site_fract_z
Si Si1 0.531242 0.638354 0.090064
Si Si2 0.418957 0.724330 0.779251
Si Si3 0.610338 0.054182 0.630055
Si Si4 0.630424 0.153433 0.931298
Si Si5 0.918329 0.896896 0.212287
Si Si6 0.022012 0.157538 0.509110
Si Si7 0.439363 0.300739 0.576009
O O1 0.539721 0.435508 0.193200
O O2 0.373519 0.679966 0.080029
O O3 0.762117 0.738909 0.167665
O O4 0.426081 0.685680 0.915376
O O5 0.190688 0.762838 0.619620
O O6 0.588960 0.885518 0.766918
O O7 0.490743 0.204824 0.546264
O O8 0.851844 0.123089 0.704038
O O9 0.500000 0.000000 0.500000
O O10 0.548896 0.202246 0.762241
O O11 0.500000 0.000000 0.000000
O O12 0.853900 0.082833 0.058172
O O13 0.901730 0.896725 0.321763
O O14 0.194976 0.293018 0.481470
O O15 0.000000 0.000000 0.500000
O O16 0.500000 0.500000 0.500000
#
# Coordination Sequence:
#
# PCOD8008481 Si02
#       7
#     2   2   2   2   2   2   2
#     4  10  23  42  68  96 129 179 228 274 328 408
#     4  11  24  41  67  97 138 172 224 279 337 396
#     4  12  25  43  64 100 141 171 216 285 338 388
#     4  10  20  43  70  92 128 175 230 267 326 403
#     4  11  23  41  74  92 126 185 225 266 336 409
#     4  12  22  43  68  95 129 183 221 267 343 405
#     4  12  27  42  68 103 137 170 230 284 325 396
#
# _framework density 20.383077
#
# number of rings (size 3 to 8) (size 9 to 14) (size 15 to 20)
#    0.000    0.857    5.714    2.571    4.000    2.857 
#    2.571    0.714    0.000    0.000    0.000    0.000 
#    0.000    0.000    0.000    0.000    0.000    0.000 
#
# Total GULP energy -173574.066069 kJ/mol
# GULP energy per Si atom -12398.147576 kJ/mol
# Density = 2.033668 g / cm^3
# Si number density = 20.383077 Si / 1000 Ang^3
#
#
#
# Elastic Constant Matrix: (Units=GPa)
#
#
# Indices 1 2 3 4 5 6 
#
# 1 86.2613 31.6142 10.9617 -5.9315 4.0139 2.8479
# 2 31.6142 131.0657 32.5890 -12.3274 -5.1228 -9.4697
# 3 10.9617 32.5890 85.3755 -1.4878 -2.5403 -2.0293
# 4 -5.9315 -12.3274 -1.4878 33.4224 0.4449 -2.0229
# 5 4.0139 -5.1228 -2.5403 0.4449 26.6285 6.0167
# 6 2.8479 -9.4697 -2.0293 -2.0229 6.0167 42.6412
#
#
#
# Elastic Compliance Matrix: (Units=1/GPa)
#
#
# Indices 1 2 3 4 5 6 
#
# 1 0.013017 -0.003070 -0.000579 0.001111 -0.002357 -0.001193
# 2 -0.003070 0.009643 -0.003140 0.002981 0.001488 0.002129
# 3 -0.000579 -0.003140 0.012992 -0.000704 0.000776 -0.000183
# 4 0.001111 0.002981 -0.000704 0.031324 -0.000667 0.002134
# 5 -0.002357 0.001488 0.000776 -0.000667 0.039426 -0.005070
# 6 -0.001193 0.002129 -0.000183 0.002134 -0.005070 0.024812
#
#
# Mechanical properties :
#
#
# Convention : Reuss Voigt Hill
#
# Bulk Modulus (GPa) = 45.29890 50.33690 47.81790
# Shear Modulus (GPa) = 32.86251 35.70757 34.28504
#
# Velocity S-wave (km/s) = 4.01963 4.19002 4.10571
# Velocity P-wave (km/s) = 6.61931 6.93955 6.78132
#
# Compressibility (1/GPa) = 0.02207559
#
# Stress axis : x y z
#
# Youngs Moduli (GPa) = 76.82427 103.69893 76.96856
#
# Poissons Ratio (x) = 0.31832 0.04454
# Poissons Ratio (y) = 0.23583 0.24168
# Poissons Ratio (z) = 0.04445 0.32562
#
# Static dielectric constant tensor:
#      x y z
#    x 4.088180 -0.028130 0.737940 
#    y -0.028130 3.845060 0.032570 
#    z 0.737940 0.032570 5.509310 
# 
# 
# High freq. dielectric constant tensor:
#      x y z
#    x 1.797220 -0.017970 -0.000090 
#    y -0.017970 1.798760 0.003010 
#    z -0.000090 0.003010 1.806410 
# 
# From -- ./inp_files/157411.got.cif
#   From: 2010.06.25/outbox.cif.g09.slc.cpg/sg2_79_cif.got.tgz:157411.got - 2010.06.27 13:26:56.
