data_PCOD8008656
_publ_section_title
;
Structure prediction by ZEFSAII (Michael W. Deem and Ramdas Pophale) SiO2 
 PCOD8008656
Probable space group: P -1
;
_chemical_formula_sum "Si O2"
_cell_formula_units_Z 16
_cell_length_a 18.603394
_cell_length_b 13.854686
_cell_length_c 14.774404
_cell_angle_alpha 19.855698
_cell_angle_beta 133.731491
_cell_angle_gamma 123.948351
_cell_volume 866.850582
_symmetry_space_group_name_H-M "P -1"
_symmetry_group_IT_number 2
_symmetry_cell_setting 'triclinic'
loop_
_space_group_symop_operation_xyz
x,y,z
-x,-y,-z
loop_
_atom_site_type_symbol
_atom_site_label
_atom_site_fract_x
_atom_site_fract_y
_atom_site_fract_z
Si Si1 0.661849 0.819829 0.207158
Si Si2 0.431261 0.780364 0.532323
Si Si3 0.282576 0.220087 0.143395
Si Si4 0.874689 0.681917 0.229741
Si Si5 0.543022 0.902333 0.342394
Si Si6 0.379437 0.536335 0.350508
Si Si7 0.634651 0.290713 0.186342
Si Si8 0.228995 0.630999 0.445017
O O1 0.652429 0.665494 0.427902
O O2 0.760360 0.585001 0.442190
O O3 0.550726 0.918239 0.967877
O O4 0.693537 0.107986 0.008889
O O5 0.491575 0.827736 0.453825
O O6 0.347240 0.623481 0.574439
O O7 0.371475 0.107990 0.239122
O O8 0.518064 0.549651 0.879478
O O9 0.308896 0.934359 0.484817
O O10 0.166490 0.292629 0.932745
O O11 0.288313 0.519142 0.935001
O O12 0.814493 0.503288 0.390824
O O13 0.000000 0.500000 0.500000
O O14 0.850000 0.019949 0.951417
O O15 0.626403 0.590432 0.643932
O O16 0.615138 0.103427 0.249300
O O17 0.500000 0.500000 0.500000
#
# Coordination Sequence:
#
# PCOD8008656 Si02
#       8
#     2   2   2   2   2   2   2   2
#     4  11  20  34  50  74 106 143 186 220 249 307
#     4  11  22  34  51  75 114 149 185 211 246 306
#     4  11  24  35  51  76 103 144 185 218 257 309
#     4  11  24  42  60  78 106 135 174 230 281 318
#     4  11  22  32  49  74 112 156 185 211 257 293
#     4  10  21  31  48  69 106 149 189 216 249 295
#     4  12  23  33  50  75 113 145 189 207 247 310
#     4  11  21  36  59  81 105 141 181 218 266 317
#
# _framework density 18.457621
#
# number of rings (size 3 to 8) (size 9 to 14) (size 15 to 20)
#    0.000    1.000    2.500    7.875    3.500    0.000 
#    0.000    0.000    0.000    0.000    0.000    0.000 
#    0.000   20.000    0.000    0.000    0.000    0.000 
#
# Total GULP energy -198283.919280 kJ/mol
# GULP energy per Si atom -12392.744955 kJ/mol
# Density = 1.841561 g / cm^3
# Si number density = 18.457621 Si / 1000 Ang^3
#
#
#
# Elastic Constant Matrix: (Units=GPa)
#
#
# Indices 1 2 3 4 5 6 
#
# 1 33.5031 14.0700 29.3322 -3.3005 -8.2821 -2.1859
# 2 14.0700 95.4906 45.6784 -25.0514 12.6719 -6.1765
# 3 29.3322 45.6784 114.2765 -11.2890 -1.5843 9.8187
# 4 -3.3005 -25.0514 -11.2890 36.3028 2.1270 2.2073
# 5 -8.2821 12.6719 -1.5843 2.1270 33.6137 -1.9427
# 6 -2.1859 -6.1765 9.8187 2.2073 -1.9427 16.1610
#
#
#
# Elastic Compliance Matrix: (Units=1/GPa)
#
#
# Indices 1 2 3 4 5 6 
#
# 1 0.045042 -0.002406 -0.011942 -0.002879 0.012452 0.014318
# 2 -0.002406 0.018198 -0.006453 0.010300 -0.007936 0.008190
# 3 -0.011942 -0.006453 0.015575 0.000168 -0.000574 -0.013636
# 4 -0.002879 0.010300 0.000168 0.034981 -0.006923 -0.002165
# 5 0.012452 -0.007936 -0.000574 -0.006923 0.036471 0.004330
# 6 0.014318 0.008190 -0.013636 -0.002165 0.004330 0.076045
#
#
# Mechanical properties :
#
#
# Convention : Reuss Voigt Hill
#
# Bulk Modulus (GPa) = 26.87074 46.82571 36.84822
# Shear Modulus (GPa) = 17.83689 27.49481 22.66585
#
# Velocity S-wave (km/s) = 3.11202 3.86374 3.50808
# Velocity P-wave (km/s) = 5.24429 6.73269 6.03455
#
# Compressibility (1/GPa) = 0.03721520
#
# Stress axis : x y z
#
# Youngs Moduli (GPa) = 22.20153 54.94984 64.20384
#
# Poissons Ratio (x) = 0.13220 0.76669
# Poissons Ratio (y) = 0.05341 0.41430
# Poissons Ratio (z) = 0.26512 0.35459
#
# Static dielectric constant tensor:
#      x y z
#    x 3.170540 -0.280650 -0.071190 
#    y -0.280650 4.023110 -0.486990 
#    z -0.071190 -0.486990 3.683240 
# 
# 
# High freq. dielectric constant tensor:
#      x y z
#    x 1.676760 -0.015290 -0.031130 
#    y -0.015290 1.712340 -0.034080 
#    z -0.031130 -0.034080 1.717780 
# 
# From -- ./inp_files/538796.got.cif
#   From: 2010.06.25/outbox.cif.g09.slc.cpg/sg2_270_cif.got.tgz:538796.got - 2010.06.27 13:26:56.
