data_PCOD8008629
_publ_section_title
;
Structure prediction by ZEFSAII (Michael W. Deem and Ramdas Pophale) SiO2 
 PCOD8008629
Probable space group: P -1
;
_chemical_formula_sum "Si O2"
_cell_formula_units_Z 16
_cell_length_a 16.487481
_cell_length_b 17.258512
_cell_length_c 6.935179
_cell_angle_alpha 47.143897
_cell_angle_beta 59.372837
_cell_angle_gamma 31.115982
_cell_volume 733.624388
_symmetry_space_group_name_H-M "P -1"
_symmetry_group_IT_number 2
_symmetry_cell_setting 'triclinic'
loop_
_space_group_symop_operation_xyz
x,y,z
-x,-y,-z
loop_
_atom_site_type_symbol
_atom_site_label
_atom_site_fract_x
_atom_site_fract_y
_atom_site_fract_z
Si Si1 0.140360 0.815730 0.533207
Si Si2 0.624811 0.305010 0.257825
Si Si3 0.845051 0.429408 0.182746
Si Si4 0.487308 0.749375 0.201965
Si Si5 0.364366 0.079272 0.668681
Si Si6 0.761898 0.119484 0.005008
Si Si7 0.147131 0.443513 0.410791
Si Si8 0.054085 0.256104 0.574665
O O1 0.293062 0.696975 0.679594
O O2 0.101580 0.728016 0.713517
O O3 0.170422 0.835298 0.249849
O O4 0.000000 0.000000 0.500000
O O5 0.554741 0.265048 0.517224
O O6 0.734768 0.163556 0.189827
O O7 0.500000 0.500000 0.000000
O O8 0.677050 0.567272 0.261163
O O9 0.990953 0.333235 0.305108
O O10 0.824163 0.538060 0.867082
O O11 0.401513 0.769203 0.091568
O O12 0.429196 0.923962 0.981940
O O13 0.305844 0.228628 0.627893
O O14 0.210003 0.186166 0.545555
O O15 0.500000 0.000000 0.500000
O O16 0.899955 0.907234 0.171428
O O17 0.000000 0.500000 0.500000
O O18 0.103044 0.577055 0.385611
#
# Coordination Sequence:
#
# PCOD8008629 Si02
#       8
#     2   2   2   2   2   2   2   2
#     4  11  24  39  64  94 130 172 217 264 322 385
#     4  11  23  41  65  97 132 170 219 266 322 384
#     4  12  23  40  64  95 129 165 219 267 319 389
#     4  10  23  41  65  95 130 170 215 265 330 381
#     4  10  20  45  69  90 128 173 211 271 329 378
#     4  10  22  42  63  92 136 173 212 271 319 385
#     4  10  23  42  66  90 129 165 211 270 325 380
#     4  10  24  40  67  94 127 171 213 259 331 384
#
# _framework density 21.809524
#
# number of rings (size 3 to 8) (size 9 to 14) (size 15 to 20)
#    0.000    1.500    1.250    3.000    0.000   14.000 
#    0.000    1.875    0.000    0.000    0.000    0.000 
#    0.000    0.000    0.000    0.000    0.000    0.000 
#
# Total GULP energy -198351.743458 kJ/mol
# GULP energy per Si atom -12396.983966 kJ/mol
# Density = 2.175989 g / cm^3
# Si number density = 21.809524 Si / 1000 Ang^3
#
#
#
# Elastic Constant Matrix: (Units=GPa)
#
#
# Indices 1 2 3 4 5 6 
#
# 1 55.1583 33.5926 38.3121 -2.2295 -0.6516 7.0761
# 2 33.5926 143.8591 47.5375 -7.5755 -6.7742 20.8028
# 3 38.3121 47.5375 136.4270 4.9921 -15.0974 11.4861
# 4 -2.2295 -7.5755 4.9921 46.1132 3.3597 -5.6923
# 5 -0.6516 -6.7742 -15.0974 3.3597 27.1738 0.1139
# 6 7.0761 20.8028 11.4861 -5.6923 0.1139 34.7807
#
#
#
# Elastic Compliance Matrix: (Units=1/GPa)
#
#
# Indices 1 2 3 4 5 6 
#
# 1 0.024736 -0.003808 -0.006062 0.001449 -0.003901 -0.000503
# 2 -0.003808 0.009063 -0.001662 0.000913 0.001148 -0.003951
# 3 -0.006062 -0.001662 0.010444 -0.002300 0.005534 -0.001616
# 4 0.001449 0.000913 -0.002300 0.022890 -0.003861 0.003677
# 5 -0.003901 0.001148 0.005534 -0.003861 0.040555 -0.002485
# 6 -0.000503 -0.003951 -0.001616 0.003677 -0.002485 0.032361
#
#
# Mechanical properties :
#
#
# Convention : Reuss Voigt Hill
#
# Bulk Modulus (GPa) = 47.21600 63.81432 55.51516
# Shear Modulus (GPa) = 29.38167 36.01369 32.69768
#
# Velocity S-wave (km/s) = 3.67440 4.06801 3.87620
# Velocity P-wave (km/s) = 6.30062 7.16856 6.74856
#
# Compressibility (1/GPa) = 0.02117926
#
# Stress axis : x y z
#
# Youngs Moduli (GPa) = 40.42651 110.33527 95.74694
#
# Poissons Ratio (x) = 0.42011 0.58043
# Poissons Ratio (y) = 0.15393 0.15918
# Poissons Ratio (z) = 0.24507 0.18343
#
# Static dielectric constant tensor:
#      x y z
#    x 3.800110 0.329150 -0.048860 
#    y 0.329150 4.510180 -0.148050 
#    z -0.048860 -0.148050 3.970940 
# 
# 
# High freq. dielectric constant tensor:
#      x y z
#    x 1.846850 0.003750 -0.011450 
#    y 0.003750 1.874420 -0.011820 
#    z -0.011450 -0.011820 1.862230 
# 
# From -- ./inp_files/111581.got.cif
#   From: 2010.06.25/outbox.cif.g09.slc.cpg/sg2_56_cif.got.tgz:111581.got - 2010.06.27 13:26:56.
