data_PCOD8008546
_publ_section_title
;
Structure prediction by ZEFSAII (Michael W. Deem and Ramdas Pophale) SiO2 
 PCOD8008546
Probable space group: P -1
;
_chemical_formula_sum "Si O2"
_cell_formula_units_Z 16
_cell_length_a 16.103206
_cell_length_b 8.678736
_cell_length_c 8.281983
_cell_angle_alpha 54.642107
_cell_angle_beta 93.739836
_cell_angle_gamma 62.840275
_cell_volume 748.368159
_symmetry_space_group_name_H-M "P -1"
_symmetry_group_IT_number 2
_symmetry_cell_setting 'triclinic'
loop_
_space_group_symop_operation_xyz
x,y,z
-x,-y,-z
loop_
_atom_site_type_symbol
_atom_site_label
_atom_site_fract_x
_atom_site_fract_y
_atom_site_fract_z
Si Si1 0.905430 0.763140 0.996652
Si Si2 0.248193 0.707663 0.404670
Si Si3 0.397886 0.761963 0.589255
Si Si4 0.714496 0.010846 0.246828
Si Si5 0.234852 0.347917 0.782438
Si Si6 0.675246 0.748578 0.813317
Si Si7 0.130848 0.362598 0.266556
Si Si8 0.628838 0.464725 0.786214
O O1 0.899755 0.737412 0.819616
O O2 0.840920 0.044165 0.844912
O O3 0.859051 0.653061 0.161502
O O4 0.026708 0.620274 0.151686
O O5 0.310294 0.735212 0.535285
O O6 0.193968 0.593821 0.538752
O O7 0.332476 0.529422 0.389077
O O8 0.514997 0.520019 0.726330
O O9 0.378650 0.846363 0.721614
O O10 0.386396 0.969249 0.358887
O O11 0.694572 0.869763 0.201853
O O12 0.825528 0.819538 0.466510
O O13 0.715318 0.206673 0.031470
O O14 0.303819 0.328769 0.951090
O O15 0.781346 0.614124 0.800795
O O16 0.608549 0.674253 0.769764
#
# Coordination Sequence:
#
# PCOD8008546 Si02
#       8
#     2   2   2   2   2   2   2   2
#     4  10  20  44  65  93 126 166 204 260 316 370
#     4  12  22  42  65  95 128 165 210 260 311 375
#     4  11  22  42  64  89 130 167 210 263 314 367
#     4  11  21  41  60  93 129 163 211 262 307 371
#     4  11  23  40  65  91 132 166 207 258 311 368
#     4  10  21  42  61  92 130 164 211 263 307 371
#     4   9  20  40  68  87 127 166 201 261 318 365
#     4  12  24  39  64  94 127 170 211 258 315 373
#
# _framework density 21.379850000000001
#
# number of rings (size 3 to 8) (size 9 to 14) (size 15 to 20)
#    0.000    1.250    5.000    3.375    0.000    0.500 
#    2.250    5.000    0.000    0.000    0.000    0.000 
#    0.000    0.000    0.000    0.000    0.000    0.000 
#
# Total GULP energy -198357.204487 kJ/mol
# GULP energy per Si atom -12397.325280 kJ/mol
# Density = 2.133119 g / cm^3
# Si number density = 21.379850 Si / 1000 Ang^3
#
#
#
# Elastic Constant Matrix: (Units=GPa)
#
#
# Indices 1 2 3 4 5 6 
#
# 1 63.1382 28.4528 55.1434 -9.1678 -1.1041 -5.7057
# 2 28.4528 103.7377 39.2135 3.8690 1.2267 -4.6355
# 3 55.1434 39.2135 125.3936 -5.7612 -14.6421 -8.6934
# 4 -9.1678 3.8690 -5.7612 30.2350 2.9633 -5.0013
# 5 -1.1041 1.2267 -14.6421 2.9633 32.0920 -8.7223
# 6 -5.7057 -4.6355 -8.6934 -5.0013 -8.7223 29.4544
#
#
#
# Elastic Compliance Matrix: (Units=1/GPa)
#
#
# Indices 1 2 3 4 5 6 
#
# 1 0.028773 -0.003688 -0.011553 0.007690 -0.004421 0.001580
# 2 -0.003688 0.011656 -0.002377 -0.003003 -0.001528 -0.000544
# 3 -0.011553 -0.002377 0.014947 -0.000440 0.007637 0.003986
# 4 0.007690 -0.003003 -0.000440 0.036960 -0.001400 0.006748
# 5 -0.004421 -0.001528 0.007637 -0.001400 0.037988 0.012169
# 6 0.001580 -0.000544 0.003986 0.006748 0.012169 0.040097
#
#
# Mechanical properties :
#
#
# Convention : Reuss Voigt Hill
#
# Bulk Modulus (GPa) = 49.65740 59.76543 54.71141
# Shear Modulus (GPa) = 23.54389 29.65359 26.59874
#
# Velocity S-wave (km/s) = 3.32206 3.72827 3.53101
# Velocity P-wave (km/s) = 6.16372 6.82262 6.50152
#
# Compressibility (1/GPa) = 0.02013799
#
# Stress axis : x y z
#
# Youngs Moduli (GPa) = 34.75530 85.79533 66.90422
#
# Poissons Ratio (x) = 0.31645 0.77295
# Poissons Ratio (y) = 0.12819 0.15903
# Poissons Ratio (z) = 0.40153 0.20394
#
# Static dielectric constant tensor:
#      x y z
#    x 3.535760 -0.034530 0.084260 
#    y -0.034530 3.907640 0.082830 
#    z 0.084260 0.082830 4.026370 
# 
# 
# High freq. dielectric constant tensor:
#      x y z
#    x 1.805980 -0.002050 -0.002000 
#    y -0.002050 1.844100 0.007840 
#    z -0.002000 0.007840 1.846520 
# 
# From -- ./inp_files/214837.got.cif
#   From: 2010.06.25/outbox.cif.g09.slc.cpg/sg2_108_cif.got.tgz:214837.got - 2010.06.27 13:26:56.
