data_PCOD8008787
_publ_section_title
;
Structure prediction by ZEFSAII (Michael W. Deem and Ramdas Pophale) SiO2 
 PCOD8008787
Probable space group: P -1
;
_chemical_formula_sum "Si O2"
_cell_formula_units_Z 14
_cell_length_a 12.626988
_cell_length_b 23.707323
_cell_length_c 23.150171
_cell_angle_alpha 167.253756
_cell_angle_beta 156.882783
_cell_angle_gamma 20.829659
_cell_volume 540.797486
_symmetry_space_group_name_H-M "P -1"
_symmetry_group_IT_number 2
_symmetry_cell_setting 'triclinic'
loop_
_space_group_symop_operation_xyz
x,y,z
-x,-y,-z
loop_
_atom_site_type_symbol
_atom_site_label
_atom_site_fract_x
_atom_site_fract_y
_atom_site_fract_z
Si Si1 0.236262 0.539952 0.501359
Si Si2 0.660295 0.706590 0.445482
Si Si3 0.106562 0.205803 0.793219
Si Si4 0.164492 0.205502 0.556023
Si Si5 0.778703 0.158195 0.997143
Si Si6 0.361776 0.987003 0.058311
Si Si7 0.844179 0.269498 0.853438
O O1 0.008465 0.620415 0.522208
O O2 0.060271 0.631876 0.445510
O O3 0.438363 0.200316 0.269139
O O4 0.453127 0.694947 0.775958
O O5 0.492803 0.698274 0.294621
O O6 0.541622 0.026227 0.732255
O O7 0.603912 0.500951 0.259389
O O8 0.468583 0.075173 0.855659
O O9 0.000340 0.233798 0.834302
O O10 0.000000 0.000000 0.500000
O O11 0.000000 0.500000 0.000000
O O12 0.500000 0.000000 0.500000
O O13 0.016164 0.015551 0.322211
O O14 0.174361 0.448726 0.844761
O O15 0.000000 0.000000 0.000000
O O16 0.999292 0.127230 0.022455
#
# Coordination Sequence:
#
# PCOD8008787 Si02
#       7
#     2   2   2   2   2   2   2
#     4  10  21  41  66  96 135 173 207 280 348 398
#     4  10  21  35  58  93 131 164 206 277 331 402
#     4  12  28  49  72  94 137 192 234 283 329 393
#     4  12  24  42  72 106 141 176 216 283 359 410
#     4  10  21  34  59  88 127 165 222 272 340 386
#     4  10  23  42  63  94 132 177 228 272 333 406
#     4  12  26  42  68 103 139 173 242 270 335 417
#
# _framework density 25.887694
#
# number of rings (size 3 to 8) (size 9 to 14) (size 15 to 20)
#    0.000    1.143    1.429    4.286    8.000    0.000 
#    0.000    4.286    0.000    0.000    0.000    0.000 
#    0.000    0.000    0.000    0.000    0.000    0.000 
#
# Total GULP energy -173468.097551 kJ/mol
# GULP energy per Si atom -12390.578396 kJ/mol
# Density = 2.582877 g / cm^3
# Si number density = 25.887694 Si / 1000 Ang^3
#
#
#
# Elastic Constant Matrix: (Units=GPa)
#
#
# Indices 1 2 3 4 5 6 
#
# 1 69.9516 3.7856 50.8373 11.3194 -1.3965 29.9060
# 2 3.7856 95.6468 53.6197 2.4967 3.2846 46.1886
# 3 50.8373 53.6197 263.8218 24.1767 -10.7614 27.0904
# 4 11.3194 2.4967 24.1767 47.4862 22.2689 15.8638
# 5 -1.3965 3.2846 -10.7614 22.2689 42.2939 0.1159
# 6 29.9060 46.1886 27.0904 15.8638 0.1159 44.0079
#
#
#
# Elastic Compliance Matrix: (Units=1/GPa)
#
#
# Indices 1 2 3 4 5 6 
#
# 1 0.068344 0.066069 -0.019686 0.044900 -0.031196 -0.119772
# 2 0.066069 0.094331 -0.023854 0.062640 -0.043780 -0.151684
# 3 -0.019686 -0.023854 0.010764 -0.018872 0.013772 0.038554
# 4 0.044900 0.062640 -0.018872 0.076815 -0.048322 -0.112202
# 5 -0.031196 -0.043780 0.013772 -0.048322 0.054753 0.075946
# 6 -0.119772 -0.151684 0.038554 -0.112202 0.075946 0.279830
#
#
# Mechanical properties :
#
#
# Convention : Reuss Voigt Hill
#
# Bulk Modulus (GPa) = 4.57670 71.76725 38.17197
# Shear Modulus (GPa) = 8.16179 48.16943 28.16561
#
# Velocity S-wave (km/s) = 1.77753 4.31827 3.30205
# Velocity P-wave (km/s) = 2.44634 7.25576 5.41436
#
# Compressibility (1/GPa) = 0.21849827
#
# Stress axis : x y z
#
# Youngs Moduli (GPa) = 14.63181 10.60100 92.89985
#
# Poissons Ratio (x) = -0.70040 1.82884
# Poissons Ratio (y) = -0.96672 2.21601
# Poissons Ratio (z) = 0.28804 0.25287
#
# Static dielectric constant tensor:
#      x y z
#    x 4.730250 -0.237420 0.425660 
#    y -0.237420 5.299540 -0.158800 
#    z 0.425660 -0.158800 5.756930 
# 
# 
# High freq. dielectric constant tensor:
#      x y z
#    x 2.019120 0.013710 0.017440 
#    y 0.013710 2.032600 0.002820 
#    z 0.017440 0.002820 2.071840 
# 
# From -- ./inp_files/620003.got.cif
#   From: 2010.06.25/outbox.cif.g09.slc.cpg/sg2_311_cif.got.tgz:620003.got - 2010.06.27 13:26:56.
