data_PCOD8008367
_publ_section_title
;
Structure prediction by ZEFSAII (Michael W. Deem and Ramdas Pophale) SiO2 
 PCOD8008367
Probable space group: P -1
;
_chemical_formula_sum "Si O2"
_cell_formula_units_Z 16
_cell_length_a 13.519484
_cell_length_b 12.380530
_cell_length_c 9.000400
_cell_angle_alpha 72.371928
_cell_angle_beta 75.625312
_cell_angle_gamma 135.601697
_cell_volume 720.465054
_symmetry_space_group_name_H-M "P -1"
_symmetry_group_IT_number 2
_symmetry_cell_setting 'triclinic'
loop_
_space_group_symop_operation_xyz
x,y,z
-x,-y,-z
loop_
_atom_site_type_symbol
_atom_site_label
_atom_site_fract_x
_atom_site_fract_y
_atom_site_fract_z
Si Si1 0.493216 0.824333 0.352696
Si Si2 0.500292 0.590897 0.593176
Si Si3 0.129270 0.414461 0.460786
Si Si4 0.065330 0.410978 0.158341
Si Si5 0.766968 0.306288 0.275014
Si Si6 0.097572 0.778108 0.097875
Si Si7 0.923378 0.790711 0.956515
Si Si8 0.874694 0.852766 0.463940
O O1 0.544131 0.755811 0.442529
O O2 0.314843 0.642619 0.381331
O O3 0.435957 0.864059 0.485653
O O4 0.680322 0.046728 0.098500
O O5 0.500000 0.500000 0.500000
O O6 0.297690 0.397281 0.835714
O O7 0.664548 0.717046 0.602788
O O8 0.105219 0.458763 0.298193
O O9 0.166898 0.318710 0.460364
O O10 0.931236 0.244149 0.703819
O O11 0.843013 0.248368 0.272809
O O12 0.236859 0.645665 0.910652
O O13 0.068470 0.283993 0.158908
O O14 0.945885 0.544737 0.185448
O O15 0.045715 0.853241 0.020692
O O16 0.014759 0.997779 0.788176
O O17 0.000000 0.000000 0.500000
#
# Coordination Sequence:
#
# PCOD8008367 Si02
#       8
#     2   2   2   2   2   2   2   2
#     4  11  21  40  63  96 122 165 219 257 305 386
#     4  12  23  40  65  90 126 174 212 254 311 379
#     4  11  23  40  60  94 129 163 209 263 319 369
#     4  10  20  43  65  87 128 165 201 268 328 365
#     4   9  21  43  68  87 120 168 211 260 322 374
#     4  10  21  39  64  92 121 164 214 257 303 382
#     4  11  22  41  64  88 126 166 212 252 310 383
#     4  12  25  39  61  94 130 166 208 261 316 369
#
# _framework density 22.207877
#
# number of rings (size 3 to 8) (size 9 to 14) (size 15 to 20)
#    0.000    1.250    7.500    0.000    1.750    3.500 
#    2.250   11.875    0.000    0.000    0.000    0.000 
#    0.000    0.000    0.000    0.000    0.000    0.000 
#
# Total GULP energy -198399.151729 kJ/mol
# GULP energy per Si atom -12399.946983 kJ/mol
# Density = 2.215733 g / cm^3
# Si number density = 22.207877 Si / 1000 Ang^3
#
#
#
# Elastic Constant Matrix: (Units=GPa)
#
#
# Indices 1 2 3 4 5 6 
#
# 1 85.5846 21.4219 49.4454 13.2872 -15.4373 8.0051
# 2 21.4219 57.0051 29.9761 25.9032 -5.1959 14.6426
# 3 49.4454 29.9761 171.5416 18.3522 -25.5982 23.4008
# 4 13.2872 25.9032 18.3522 33.9687 7.0805 -1.5596
# 5 -15.4373 -5.1959 -25.5982 7.0805 45.3934 1.1657
# 6 8.0051 14.6426 23.4008 -1.5596 1.1657 29.4275
#
#
#
# Elastic Compliance Matrix: (Units=1/GPa)
#
#
# Indices 1 2 3 4 5 6 
#
# 1 0.015251 -0.001629 -0.002875 -0.004080 0.004052 -0.001428
# 2 -0.001629 0.039333 0.001957 -0.033738 0.010903 -0.022905
# 3 -0.002875 0.001957 0.008933 -0.006708 0.005532 -0.007870
# 4 -0.004080 -0.033738 -0.006708 0.065820 -0.020005 0.027513
# 5 0.004052 0.010903 0.005532 -0.020005 0.031235 -0.013224
# 6 -0.001428 -0.022905 -0.007870 0.027513 -0.013224 0.054007
#
#
# Mechanical properties :
#
#
# Convention : Reuss Voigt Hill
#
# Bulk Modulus (GPa) = 17.11652 57.31312 37.21482
# Shear Modulus (GPa) = 20.90749 35.97713 28.44231
#
# Velocity S-wave (km/s) = 3.07163 4.02931 3.58261
# Velocity P-wave (km/s) = 4.50600 6.89280 5.82300
#
# Compressibility (1/GPa) = 0.05842309
#
# Stress axis : x y z
#
# Youngs Moduli (GPa) = 65.56871 25.42382 111.94330
#
# Poissons Ratio (x) = 0.04141 0.32188
# Poissons Ratio (y) = 0.10681 -0.21909
# Poissons Ratio (z) = 0.18853 -0.04976
#
# Static dielectric constant tensor:
#      x y z
#    x 4.241520 -0.065490 -0.123330 
#    y -0.065490 4.125730 0.272960 
#    z -0.123330 0.272960 4.392820 
# 
# 
# High freq. dielectric constant tensor:
#      x y z
#    x 1.876360 -0.011970 -0.007350 
#    y -0.011970 1.866450 0.004950 
#    z -0.007350 0.004950 1.881990 
# 
# From -- ./inp_files/215637.got.cif
#   From: 2010.06.25/outbox.cif.g09.slc.cpg/sg2_108_cif.got.tgz:215637.got - 2010.06.27 13:26:56.
