data_PCOD8008240
_publ_section_title
;
Structure prediction by ZEFSAII (Michael W. Deem and Ramdas Pophale) SiO2 
 PCOD8008240
Probable space group: P -1
;
_chemical_formula_sum "Si O2"
_cell_formula_units_Z 12
_cell_length_a 11.153152
_cell_length_b 9.036460
_cell_length_c 9.748904
_cell_angle_alpha 81.922672
_cell_angle_beta 136.077190
_cell_angle_gamma 127.109093
_cell_volume 460.403021
_symmetry_space_group_name_H-M "P -1"
_symmetry_group_IT_number 2
_symmetry_cell_setting 'triclinic'
loop_
_space_group_symop_operation_xyz
x,y,z
-x,-y,-z
loop_
_atom_site_type_symbol
_atom_site_label
_atom_site_fract_x
_atom_site_fract_y
_atom_site_fract_z
Si Si1 0.692227 0.313597 0.507262
Si Si2 0.195335 0.447573 0.928978
Si Si3 0.473972 0.323104 0.568995
Si Si4 0.915010 0.903532 0.260634
Si Si5 0.599210 0.197620 0.150512
Si Si6 0.994017 0.239546 0.399433
O O1 0.510012 0.210678 0.503110
O O2 0.520676 0.171641 0.248962
O O3 0.807038 0.556003 0.563743
O O4 0.908630 0.326793 0.707665
O O5 0.370189 0.626943 0.928647
O O6 0.197160 0.267062 0.932136
O O7 0.308797 0.558767 0.154243
O O8 0.500000 0.500000 0.500000
O O9 0.206126 0.129269 0.446566
O O10 0.871792 0.789536 0.382461
O O11 0.797763 0.001901 0.174434
O O12 0.881707 0.303097 0.387702
O O13 0.500000 0.000000 0.000000
#
# Coordination Sequence:
#
# PCOD8008240 Si02
#       6
#     2   2   2   2   2   2
#     4  11  22  47  69 100 141 173 222 290 333 404
#     4  11  24  44  73 100 135 182 228 275 340 401
#     4  12  27  45  66 103 141 179 226 278 344 403
#     4  11  22  43  71  97 137 176 224 278 336 400
#     4  11  22  43  73 104 131 180 232 278 334 406
#     4  10  20  42  68  97 134 176 218 281 333 397
#
# _framework density 26.064119999999999
#
# number of rings (size 3 to 8) (size 9 to 14) (size 15 to 20)
#    0.000    1.000    5.000    2.500    0.000    2.667 
#    6.000    3.333    0.000    0.000    0.000    0.000 
#    0.000    0.000    0.000    0.000    0.000    0.000 
#
# Total GULP energy -148681.684830 kJ/mol
# GULP energy per Si atom -12390.140403 kJ/mol
# Density = 2.600480 g / cm^3
# Si number density = 26.064120 Si / 1000 Ang^3
#
#
#
# Elastic Constant Matrix: (Units=GPa)
#
#
# Indices 1 2 3 4 5 6 
#
# 1 149.8317 43.4062 55.7868 1.5576 -33.6779 -23.4522
# 2 43.4062 98.1218 29.8732 9.4319 -3.5555 -28.6901
# 3 55.7868 29.8732 130.6873 -2.9083 -37.3626 -14.9403
# 4 1.5576 9.4319 -2.9083 39.4294 -6.0142 -10.3099
# 5 -33.6779 -3.5555 -37.3626 -6.0142 44.9795 4.9777
# 6 -23.4522 -28.6901 -14.9403 -10.3099 4.9777 44.7696
#
#
#
# Elastic Compliance Matrix: (Units=1/GPa)
#
#
# Indices 1 2 3 4 5 6 
#
# 1 0.009804 -0.003146 -0.001488 0.001768 0.005829 0.002382
# 2 -0.003146 0.014356 -0.002470 -0.002413 -0.004332 0.006653
# 3 -0.001488 -0.002470 0.011500 0.003124 0.008523 0.001247
# 4 0.001768 -0.002413 0.003124 0.028793 0.006882 0.006288
# 5 0.005829 -0.004332 0.008523 0.006882 0.034154 0.000909
# 6 0.002382 0.006653 0.001247 0.006288 0.000909 0.029611
#
#
# Mechanical properties :
#
#
# Convention : Reuss Voigt Hill
#
# Bulk Modulus (GPa) = 46.61532 70.75257 58.68394
# Shear Modulus (GPa) = 33.42750 42.47400 37.95075
#
# Velocity S-wave (km/s) = 3.58510 4.04121 3.81997
# Velocity P-wave (km/s) = 5.92123 6.99855 6.48231
#
# Compressibility (1/GPa) = 0.02145218
#
# Stress axis : x y z
#
# Youngs Moduli (GPa) = 101.99634 69.65965 86.95309
#
# Poissons Ratio (x) = 0.21917 0.12937
# Poissons Ratio (y) = 0.32092 0.21476
# Poissons Ratio (z) = 0.15176 0.17205
#
# Static dielectric constant tensor:
#      x y z
#    x 8.567090 -0.805700 1.973080 
#    y -0.805700 4.974690 -0.257030 
#    z 1.973080 -0.257030 6.211820 
# 
# 
# High freq. dielectric constant tensor:
#      x y z
#    x 2.073590 -0.025140 -0.000100 
#    y -0.025140 2.041650 0.012950 
#    z -0.000100 0.012950 2.049060 
# 
# From -- ./inp_files/150569.got.cif
#   From: 2010.06.25/outbox.cif.g09.slc.cpg/sg2_76_cif.got.tgz:150569.got - 2010.06.27 13:26:56.
