data_PCOD8008140
_publ_section_title
;
Structure prediction by ZEFSAII (Michael W. Deem and Ramdas Pophale) SiO2 
 PCOD8008140
Probable space group: P -1
;
_chemical_formula_sum "Si O2"
_cell_formula_units_Z 14
_cell_length_a 7.691131
_cell_length_b 12.520463
_cell_length_c 15.851264
_cell_angle_alpha 27.971911
_cell_angle_beta 58.489088
_cell_angle_gamma 50.508440
_cell_volume 549.294384
_symmetry_space_group_name_H-M "P -1"
_symmetry_group_IT_number 2
_symmetry_cell_setting 'triclinic'
loop_
_space_group_symop_operation_xyz
x,y,z
-x,-y,-z
loop_
_atom_site_type_symbol
_atom_site_label
_atom_site_fract_x
_atom_site_fract_y
_atom_site_fract_z
Si Si1 0.881724 0.065955 0.839926
Si Si2 0.532964 0.250338 0.304435
Si Si3 0.037210 0.512588 0.218931
Si Si4 0.125658 0.273595 0.188265
Si Si5 0.646932 0.031492 0.260215
Si Si6 0.179110 0.782317 0.440534
Si Si7 0.545431 0.576345 0.626077
O O1 0.786528 0.162891 0.702921
O O2 0.728684 0.284208 0.791609
O O3 0.144707 0.010220 0.824498
O O4 0.861457 0.808242 0.047779
O O5 0.289058 0.487679 0.184728
O O6 0.683129 0.185839 0.225493
O O7 0.619730 0.334841 0.309446
O O8 0.500000 0.000000 0.500000
O O9 0.029053 0.357968 0.246571
O O10 0.970675 0.374686 0.408228
O O11 0.398309 0.189834 0.171934
O O12 0.063737 0.046874 0.335588
O O13 0.000000 0.500000 0.000000
O O14 0.676395 0.752750 0.471625
O O15 0.413922 0.608905 0.549063
#
# Coordination Sequence:
#
# PCOD8008140 Si02
#       7
#     2   2   2   2   2   2   2
#     4  12  24  42  66  98 136 170 222 268 321 402
#     4   9  19  41  64  92 130 163 224 266 321 389
#     4  11  24  40  64  98 132 171 216 268 337 379
#     4  10  20  42  66  97 129 166 221 267 328 385
#     4   9  21  39  67  96 127 172 216 273 324 378
#     4  11  23  42  66  92 135 176 213 275 323 386
#     4  10  22  42  67  95 130 181 218 264 331 385
#
# _framework density 25.487242999999999
#
# number of rings (size 3 to 8) (size 9 to 14) (size 15 to 20)
#    0.000    1.714    1.429    3.857    0.000    4.571 
#    5.143    0.000    0.000    0.000    0.000    0.000 
#    0.000    0.000    0.000    0.000    0.000    0.000 
#
# Total GULP energy -173490.448670 kJ/mol
# GULP energy per Si atom -12392.174905 kJ/mol
# Density = 2.542923 g / cm^3
# Si number density = 25.487243 Si / 1000 Ang^3
#
#
#
# Elastic Constant Matrix: (Units=GPa)
#
#
# Indices 1 2 3 4 5 6 
#
# 1 73.8244 3.8653 13.4463 -12.0742 9.8698 10.4324
# 2 3.8653 91.3452 30.8376 -39.1924 1.7395 3.7729
# 3 13.4463 30.8376 116.0869 -33.5344 11.0511 -4.9065
# 4 -12.0742 -39.1924 -33.5344 42.2090 -1.0000 8.9996
# 5 9.8698 1.7395 11.0511 -1.0000 31.4162 0.5135
# 6 10.4324 3.7729 -4.9065 8.9996 0.5135 25.0154
#
#
#
# Elastic Compliance Matrix: (Units=1/GPa)
#
#
# Indices 1 2 3 4 5 6 
#
# 1 0.017812 0.005250 0.000179 0.012680 -0.005339 -0.012637
# 2 0.005250 0.022146 0.000441 0.025474 -0.001982 -0.014567
# 3 0.000179 0.000441 0.011648 0.009910 -0.003841 -0.001343
# 4 0.012680 0.025474 0.009910 0.065202 -0.006306 -0.030514
# 5 -0.005339 -0.001982 -0.003841 -0.006306 0.034714 0.003328
# 6 -0.012637 -0.014567 -0.001343 -0.030514 0.003328 0.058089
#
#
# Mechanical properties :
#
#
# Convention : Reuss Voigt Hill
#
# Bulk Modulus (GPa) = 15.78640 41.95055 28.86848
# Shear Modulus (GPa) = 22.83261 35.26860 29.05060
#
# Velocity S-wave (km/s) = 2.99631 3.72395 3.37977
# Velocity P-wave (km/s) = 4.26355 5.91486 5.15574
#
# Compressibility (1/GPa) = 0.06334565
#
# Stress axis : x y z
#
# Youngs Moduli (GPa) = 56.14302 45.15548 85.85186
#
# Poissons Ratio (x) = -0.23707 -0.01541
# Poissons Ratio (y) = -0.29475 -0.03784
# Poissons Ratio (z) = -0.01008 -0.01990
#
# Static dielectric constant tensor:
#      x y z
#    x 4.567540 0.318850 0.380360 
#    y 0.318850 4.875980 -0.056660 
#    z 0.380360 -0.056660 4.641040 
# 
# 
# High freq. dielectric constant tensor:
#      x y z
#    x 2.010620 0.009420 0.020720 
#    y 0.009420 2.004980 -0.020510 
#    z 0.020720 -0.020510 2.017530 
# 
# From -- ./inp_files/281366.got.cif
#   From: 2010.06.25/outbox.cif.g09.slc.cpg/sg2_141_cif.got.tgz:281366.got - 2010.06.27 13:26:56.
