data_PCOD8008015
_publ_section_title
;
Structure prediction by ZEFSAII (Michael W. Deem and Ramdas Pophale) SiO2 
 PCOD8008015
Probable space group: P -1
;
_chemical_formula_sum "Si O2"
_cell_formula_units_Z 16
_cell_length_a 13.332118
_cell_length_b 8.871466
_cell_length_c 18.767741
_cell_angle_alpha 77.696911
_cell_angle_beta 143.278310
_cell_angle_gamma 129.996663
_cell_volume 764.295965
_symmetry_space_group_name_H-M "P -1"
_symmetry_group_IT_number 2
_symmetry_cell_setting 'triclinic'
loop_
_space_group_symop_operation_xyz
x,y,z
-x,-y,-z
loop_
_atom_site_type_symbol
_atom_site_label
_atom_site_fract_x
_atom_site_fract_y
_atom_site_fract_z
Si Si1 0.188463 0.137571 0.405916
Si Si2 0.252487 0.094161 0.599349
Si Si3 0.193011 0.685343 0.789324
Si Si4 0.322776 0.093507 0.207507
Si Si5 0.588577 0.816738 0.103634
Si Si6 0.739862 0.242430 0.336103
Si Si7 0.325908 0.429748 0.119367
Si Si8 0.419130 0.641751 0.518407
O O1 0.195456 0.030680 0.489105
O O2 0.344511 0.406132 0.497380
O O3 0.350652 0.164885 0.433187
O O4 0.872552 0.950464 0.217519
O O5 0.558503 0.400783 0.760114
O O6 0.233536 0.918477 0.645975
O O7 0.000000 0.000000 0.500000
O O8 0.251871 0.669493 0.744747
O O9 0.858907 0.457448 0.642111
O O10 0.348081 0.964964 0.854719
O O11 0.331284 0.650514 0.918214
O O12 0.465379 0.065111 0.246016
O O13 0.374614 0.283744 0.170260
O O14 0.444083 0.209127 0.343780
O O15 0.005171 0.793467 0.060672
O O16 0.496733 0.629693 0.131023
O O17 0.000000 0.500000 0.500000
#
# Coordination Sequence:
#
# PCOD8008015 Si02
#       8
#     2   2   2   2   2   2   2   2
#     4  10  21  37  71  95 118 175 222 260 320 398
#     4  12  21  42  72  93 124 171 228 263 318 402
#     4  10  21  41  66  93 130 168 213 273 328 385
#     4  11  25  42  64  97 134 168 217 282 330 375
#     4  10  21  40  66  95 124 169 220 269 320 391
#     4  12  24  41  68  97 129 170 218 271 332 390
#     4  11  23  43  67  92 133 174 215 276 323 386
#     4  10  20  42  63  93 133 164 215 269 325 387
#
# _framework density 20.934297000000001
#
# number of rings (size 3 to 8) (size 9 to 14) (size 15 to 20)
#    0.000    1.250    5.000    1.500    0.000    3.500 
#    6.750    2.500    0.000    0.000    0.000    0.000 
#    0.000    0.000    0.000    0.000    0.000    0.000 
#
# Total GULP energy -198320.412071 kJ/mol
# GULP energy per Si atom -12395.025754 kJ/mol
# Density = 2.088665 g / cm^3
# Si number density = 20.934297 Si / 1000 Ang^3
#
#
#
# Elastic Constant Matrix: (Units=GPa)
#
#
# Indices 1 2 3 4 5 6 
#
# 1 136.7731 22.1601 65.0796 -8.0756 12.1921 27.1006
# 2 22.1601 66.0684 35.1973 -1.2763 7.6698 12.8256
# 3 65.0796 35.1973 165.3914 -4.1704 4.0843 13.0317
# 4 -8.0756 -1.2763 -4.1704 32.4700 7.2757 -9.1657
# 5 12.1921 7.6698 4.0843 7.2757 22.4915 1.9455
# 6 27.1006 12.8256 13.0317 -9.1657 1.9455 35.2501
#
#
#
# Elastic Compliance Matrix: (Units=1/GPa)
#
#
# Indices 1 2 3 4 5 6 
#
# 1 0.010828 0.000171 -0.003628 0.001621 -0.005246 -0.006335
# 2 0.000171 0.018579 -0.003470 0.000028 -0.005348 -0.005306
# 3 -0.003628 -0.003470 0.008095 -0.000098 0.001630 0.000943
# 4 0.001621 0.000028 -0.000098 0.036795 -0.013560 0.009096
# 5 -0.005246 -0.005348 0.001630 -0.013560 0.053313 -0.001092
# 6 -0.006335 -0.005306 0.000943 0.009096 -0.001092 0.037246
#
#
# Mechanical properties :
#
#
# Convention : Reuss Voigt Hill
#
# Bulk Modulus (GPa) = 42.28684 68.12299 55.20492
# Shear Modulus (GPa) = 26.79620 34.42872 30.61246
#
# Velocity S-wave (km/s) = 3.58161 4.05978 3.82817
# Velocity P-wave (km/s) = 6.11126 7.38835 6.77994
#
# Compressibility (1/GPa) = 0.02364802
#
# Stress axis : x y z
#
# Youngs Moduli (GPa) = 92.35022 53.82544 123.53145
#
# Poissons Ratio (x) = -0.00919 0.44812
# Poissons Ratio (y) = -0.01576 0.42866
# Poissons Ratio (z) = 0.33501 0.18678
#
# Static dielectric constant tensor:
#      x y z
#    x 3.627860 0.185750 -0.146640 
#    y 0.185750 3.680220 -0.035410 
#    z -0.146640 -0.035410 4.101570 
# 
# 
# High freq. dielectric constant tensor:
#      x y z
#    x 1.812090 0.008260 -0.002450 
#    y 0.008260 1.812940 -0.002680 
#    z -0.002450 -0.002680 1.834370 
# 
# From -- ./inp_files/297944.got.cif
#   From: 2010.06.25/outbox.cif.g09.slc.cpg/sg2_149_cif.got.tgz:297944.got - 2010.06.27 13:26:56.
