data_PCOD8008603
_publ_section_title
;
Structure prediction by ZEFSAII (Michael W. Deem and Ramdas Pophale) SiO2 
 PCOD8008603
Probable space group: P -1
;
_chemical_formula_sum "Si O2"
_cell_formula_units_Z 16
_cell_length_a 10.826677
_cell_length_b 7.496423
_cell_length_c 14.874878
_cell_angle_alpha 38.638275
_cell_angle_beta 122.568653
_cell_angle_gamma 108.687188
_cell_volume 623.683913
_symmetry_space_group_name_H-M "P -1"
_symmetry_group_IT_number 2
_symmetry_cell_setting 'triclinic'
loop_
_space_group_symop_operation_xyz
x,y,z
-x,-y,-z
loop_
_atom_site_type_symbol
_atom_site_label
_atom_site_fract_x
_atom_site_fract_y
_atom_site_fract_z
Si Si1 0.155019 0.377880 0.154983
Si Si2 0.163139 0.761298 0.473337
Si Si3 0.587519 0.368732 0.921091
Si Si4 0.082329 0.214641 0.501770
Si Si5 0.575175 0.177154 0.673583
Si Si6 0.392783 0.212566 0.754928
Si Si7 0.881778 0.276583 0.812388
Si Si8 0.638346 0.155673 0.313807
O O1 0.279188 0.452669 0.106633
O O2 0.171813 0.516825 0.205058
O O3 0.167403 0.029197 0.302804
O O4 0.000000 0.500000 0.000000
O O5 0.245090 0.462339 0.572238
O O6 0.249380 0.811327 0.577035
O O7 0.994898 0.738306 0.448225
O O8 0.502746 0.374433 0.790961
O O9 0.456434 0.526836 0.877365
O O10 0.658746 0.042837 0.107322
O O11 0.058987 0.526398 0.318074
O O12 0.258240 0.043051 0.645179
O O13 0.000000 0.000000 0.500000
O O14 0.500000 0.500000 0.500000
O O15 0.498759 0.063398 0.775912
O O16 0.751458 0.135046 0.771287
O O17 0.498827 0.995514 0.640921
O O18 0.000000 0.000000 0.000000
#
# Coordination Sequence:
#
# PCOD8008603 Si02
#       8
#     2   2   2   2   2   2   2   2
#     4  12  26  45  66  99 138 182 232 275 348 417
#     4  10  23  45  74  97 136 184 226 287 341 415
#     4  10  24  45  67 101 135 176 226 280 344 403
#     4  10  20  44  70  98 134 180 232 272 353 403
#     4  12  24  43  70 103 137 174 238 282 339 409
#     4  10  24  44  72  98 137 176 222 286 347 400
#     4  12  27  44  69 101 144 184 226 294 346 408
#     4  10  22  41  73  99 132 178 230 282 337 412
#
# _framework density 25.654021
#
# number of rings (size 3 to 8) (size 9 to 14) (size 15 to 20)
#    0.000    1.250    5.000    0.000    5.250    4.500 
#    0.000    1.250    0.000    0.000    0.000    0.000 
#    0.000    0.000    0.000    0.000    0.000    0.000 
#
# Total GULP energy -198222.529566 kJ/mol
# GULP energy per Si atom -12388.908098 kJ/mol
# Density = 2.559563 g / cm^3
# Si number density = 25.654021 Si / 1000 Ang^3
#
#
#
# Elastic Constant Matrix: (Units=GPa)
#
#
# Indices 1 2 3 4 5 6 
#
# 1 136.8307 43.9701 70.5910 -15.7977 7.4912 25.5383
# 2 43.9701 61.5253 18.3025 -14.5372 15.4393 18.9667
# 3 70.5910 18.3025 163.4794 -28.7267 22.4115 22.4595
# 4 -15.7977 -14.5372 -28.7267 37.7456 -0.7373 5.7511
# 5 7.4912 15.4393 22.4115 -0.7373 45.1957 -2.8849
# 6 25.5383 18.9667 22.4595 5.7511 -2.8849 50.2790
#
#
#
# Elastic Compliance Matrix: (Units=1/GPa)
#
#
# Indices 1 2 3 4 5 6 
#
# 1 0.012335 -0.008443 -0.005106 -0.001850 0.003316 -0.000398
# 2 -0.008443 0.031097 0.006303 0.014923 -0.012917 -0.012706
# 3 -0.005106 0.006303 0.011127 0.009573 -0.007067 -0.006255
# 4 -0.001850 0.014923 0.009573 0.040723 -0.009780 -0.014185
# 5 0.003316 -0.012917 -0.007067 -0.009780 0.029920 0.009180
# 6 -0.000398 -0.012706 -0.006255 -0.014185 0.009180 0.029827
#
#
# Mechanical properties :
#
#
# Convention : Reuss Voigt Hill
#
# Bulk Modulus (GPa) = 24.95894 69.72918 47.34406
# Shear Modulus (GPa) = 27.34111 41.90886 34.62499
#
# Velocity S-wave (km/s) = 3.26814 4.04619 3.67780
# Velocity P-wave (km/s) = 4.89808 7.00489 6.04399
#
# Compressibility (1/GPa) = 0.04006580
#
# Stress axis : x y z
#
# Youngs Moduli (GPa) = 81.07254 32.15784 89.87535
#
# Poissons Ratio (x) = 0.27151 0.45890
# Poissons Ratio (y) = 0.68449 -0.56647
# Poissons Ratio (z) = 0.41395 -0.20269
#
# Static dielectric constant tensor:
#      x y z
#    x 5.005990 0.223470 0.408440 
#    y 0.223470 4.986600 -0.197550 
#    z 0.408440 -0.197550 4.612700 
# 
# 
# High freq. dielectric constant tensor:
#      x y z
#    x 2.022750 0.010030 0.020030 
#    y 0.010030 2.070160 -0.007090 
#    z 0.020030 -0.007090 2.017850 
# 
# From -- ./inp_files/566378.got.cif
#   From: 2010.06.25/outbox.cif.g09.slc.cpg/sg2_284_cif.got.tgz:566378.got - 2010.06.27 13:26:56.
