data_PCOD8008491
_publ_section_title
;
Structure prediction by ZEFSAII (Michael W. Deem and Ramdas Pophale) SiO2 
 PCOD8008491
Probable space group: P -1
;
_chemical_formula_sum "Si O2"
_cell_formula_units_Z 14
_cell_length_a 9.121132
_cell_length_b 9.296391
_cell_length_c 18.540775
_cell_angle_alpha 59.867643
_cell_angle_beta 30.148347
_cell_angle_gamma 73.967542
_cell_volume 636.168904
_symmetry_space_group_name_H-M "P -1"
_symmetry_group_IT_number 2
_symmetry_cell_setting 'triclinic'
loop_
_space_group_symop_operation_xyz
x,y,z
-x,-y,-z
loop_
_atom_site_type_symbol
_atom_site_label
_atom_site_fract_x
_atom_site_fract_y
_atom_site_fract_z
Si Si1 0.733319 0.407190 0.950181
Si Si2 0.326911 0.476565 0.378452
Si Si3 0.567200 0.381241 0.437009
Si Si4 0.317436 0.658427 0.844987
Si Si5 0.328837 0.937915 0.014831
Si Si6 0.651891 0.957948 0.299657
Si Si7 0.641147 0.867519 0.176758
O O1 0.704662 0.261337 0.938227
O O2 0.089761 0.540759 0.763310
O O3 0.500000 0.500000 0.000000
O O4 0.644216 0.322181 0.089576
O O5 0.318189 0.362640 0.483192
O O6 0.395734 0.386426 0.299676
O O7 0.612775 0.666633 0.221813
O O8 0.000000 0.500000 0.500000
O O9 0.500000 0.500000 0.500000
O O10 0.535046 0.180798 0.524382
O O11 0.333599 0.840131 0.751995
O O12 0.000000 0.500000 0.000000
O O13 0.999727 0.960082 0.153729
O O14 0.500000 0.000000 0.000000
O O15 0.523531 0.064916 0.834942
O O16 0.473979 0.872692 0.322176
O O17 0.000000 0.000000 0.000000
#
# Coordination Sequence:
#
# PCOD8008491 Si02
#       7
#     2   2   2   2   2   2   2
#     4  12  28  47  73 109 147 192 247 303 363 435
#     4  12  28  45  75 109 148 190 246 305 376 438
#     4  12  24  48  73 104 150 193 236 303 370 434
#     4  12  26  50  74 105 146 197 247 304 360 443
#     4  11  24  40  71 109 141 188 252 298 351 441
#     4  11  24  44  77  98 145 197 239 292 377 428
#     4  10  20  43  70  99 137 195 242 285 360 441
#
# _framework density 22.006734999999999
#
# number of rings (size 3 to 8) (size 9 to 14) (size 15 to 20)
#    0.000    0.571    5.714    2.571    8.000    0.571 
#    2.571    1.429    0.000    0.000    0.000    0.000 
#    0.000    0.000    0.000    0.000    0.000    0.000 
#
# Total GULP energy -173532.866818 kJ/mol
# GULP energy per Si atom -12395.204773 kJ/mol
# Density = 2.195665 g / cm^3
# Si number density = 22.006735 Si / 1000 Ang^3
#
#
#
# Elastic Constant Matrix: (Units=GPa)
#
#
# Indices 1 2 3 4 5 6 
#
# 1 168.0718 54.3877 58.9535 -1.1021 18.7617 -5.7221
# 2 54.3877 165.3673 63.5266 -9.0263 -0.8127 -10.7718
# 3 58.9535 63.5266 99.1394 2.6769 17.9451 -11.9435
# 4 -1.1021 -9.0263 2.6769 48.7834 -12.3832 4.1329
# 5 18.7617 -0.8127 17.9451 -12.3832 28.4623 -2.3526
# 6 -5.7221 -10.7718 -11.9435 4.1329 -2.3526 42.1133
#
#
#
# Elastic Compliance Matrix: (Units=1/GPa)
#
#
# Indices 1 2 3 4 5 6 
#
# 1 0.007917 -0.001502 -0.003089 -0.000844 -0.003707 -0.000309
# 2 -0.001502 0.009236 -0.006330 0.003743 0.006904 0.000381
# 3 -0.003089 -0.006330 0.018703 -0.005609 -0.012117 0.003139
# 4 -0.000844 0.003743 -0.005609 0.025518 0.015103 -0.002409
# 5 -0.003707 0.006904 -0.012117 0.015103 0.051923 -0.000756
# 6 -0.000309 0.000381 0.003139 -0.002409 -0.000756 0.024885
#
#
# Mechanical properties :
#
#
# Convention : Reuss Voigt Hill
#
# Bulk Modulus (GPa) = 71.35618 87.36823 79.36221
# Shear Modulus (GPa) = 30.35918 40.91918 35.63918
#
# Velocity S-wave (km/s) = 3.71825 4.31675 4.02863
# Velocity P-wave (km/s) = 7.13645 8.03944 7.60136
#
# Compressibility (1/GPa) = 0.01401420
#
# Stress axis : x y z
#
# Youngs Moduli (GPa) = 126.30997 108.27473 53.46758
#
# Poissons Ratio (x) = 0.16258 0.16517
# Poissons Ratio (y) = 0.18966 0.33845
# Poissons Ratio (z) = 0.39019 0.68539
#
# Static dielectric constant tensor:
#      x y z
#    x 5.000870 -0.339010 0.945710 
#    y -0.339010 4.238900 -0.332600 
#    z 0.945710 -0.332600 4.379870 
# 
# 
# High freq. dielectric constant tensor:
#      x y z
#    x 1.877270 -0.003820 0.021960 
#    y -0.003820 1.872190 -0.009780 
#    z 0.021960 -0.009780 1.853180 
# 
# From -- ./inp_files/216988.got.cif
#   From: 2010.06.25/outbox.cif.g09.slc.cpg/sg2_109_cif.got.tgz:216988.got - 2010.06.27 13:26:56.
