data_PCOD8008112
_publ_section_title
;
Structure prediction by ZEFSAII (Michael W. Deem and Ramdas Pophale) SiO2 
 PCOD8008112
Probable space group: P -1
;
_chemical_formula_sum "Si O2"
_cell_formula_units_Z 16
_cell_length_a 10.894137
_cell_length_b 19.554094
_cell_length_c 8.939741
_cell_angle_alpha 95.946429
_cell_angle_beta 50.534944
_cell_angle_gamma 135.941793
_cell_volume 769.988258
_symmetry_space_group_name_H-M "P -1"
_symmetry_group_IT_number 2
_symmetry_cell_setting 'triclinic'
loop_
_space_group_symop_operation_xyz
x,y,z
-x,-y,-z
loop_
_atom_site_type_symbol
_atom_site_label
_atom_site_fract_x
_atom_site_fract_y
_atom_site_fract_z
Si Si1 0.807890 0.324955 0.577555
Si Si2 0.121195 0.218974 0.212576
Si Si3 0.941517 0.158167 0.652710
Si Si4 0.583684 0.943075 0.083089
Si Si5 0.365147 0.590747 0.347513
Si Si6 0.265314 0.358132 0.707288
Si Si7 0.847395 0.241959 0.277326
Si Si8 0.173782 0.999099 0.795943
O O1 0.555362 0.184876 0.824556
O O2 0.657778 0.335524 0.617298
O O3 0.976468 0.346064 0.317981
O O4 0.041916 0.434557 0.549277
O O5 0.170264 0.228877 0.355060
O O6 0.864263 0.177047 0.343460
O O7 0.044321 0.116280 0.180470
O O8 0.443213 0.362871 0.934533
O O9 0.663820 0.090933 0.766887
O O10 0.076656 0.259784 0.692511
O O11 0.837768 0.047065 0.780273
O O12 0.750469 0.023376 0.127864
O O13 0.540224 0.632329 0.370396
O O14 0.500000 0.500000 0.500000
O O15 0.036439 0.309103 0.992619
O O16 0.496123 0.133684 0.495659
O O17 0.000000 0.000000 0.000000
#
# Coordination Sequence:
#
# PCOD8008112 Si02
#       8
#     2   2   2   2   2   2   2   2
#     4  10  20  42  66  91 120 168 215 263 307 382
#     4  11  21  37  65  94 122 164 213 262 308 375
#     4  11  23  36  61  96 133 156 204 266 320 370
#     4  10  21  38  62  88 129 159 202 260 318 363
#     4  10  23  40  68  88 126 164 217 259 319 374
#     4  11  25  41  64  95 131 166 210 264 321 373
#     4  10  22  37  66  91 122 164 219 256 310 375
#     4  11  22  40  64  90 126 164 214 256 314 378
#
# _framework density 20.779540000000001
#
# number of rings (size 3 to 8) (size 9 to 14) (size 15 to 20)
#    0.000    1.500    2.500    4.125    5.250    1.000 
#    0.000    3.125    8.250    0.000    0.000    0.000 
#    0.000    0.000    0.000    0.000    0.000    0.000 
#
# Total GULP energy -198255.449518 kJ/mol
# GULP energy per Si atom -12390.965595 kJ/mol
# Density = 2.073224 g / cm^3
# Si number density = 20.779540 Si / 1000 Ang^3
#
#
#
# Elastic Constant Matrix: (Units=GPa)
#
#
# Indices 1 2 3 4 5 6 
#
# 1 91.0965 38.6251 53.2852 9.1890 10.2379 -1.6214
# 2 38.6251 102.3822 48.0488 8.9175 15.3902 -7.1414
# 3 53.2852 48.0488 127.6957 4.7312 24.5451 -3.8282
# 4 9.1890 8.9175 4.7312 34.2015 -2.5029 5.2071
# 5 10.2379 15.3902 24.5451 -2.5029 42.8799 3.1740
# 6 -1.6214 -7.1414 -3.8282 5.2071 3.1740 32.9774
#
#
#
# Elastic Compliance Matrix: (Units=1/GPa)
#
#
# Indices 1 2 3 4 5 6 
#
# 1 0.015674 -0.003270 -0.005281 -0.002578 0.000316 -0.000174
# 2 -0.003270 0.013228 -0.002896 -0.002836 -0.002702 0.003075
# 3 -0.005281 -0.002896 0.012049 0.000020 -0.004667 0.000958
# 4 -0.002578 -0.002836 0.000020 0.031893 0.003939 -0.006154
# 5 0.000316 -0.002702 -0.004667 0.003939 0.027440 -0.004374
# 6 -0.000174 0.003075 0.000958 -0.006154 -0.004374 0.032485
#
#
# Mechanical properties :
#
#
# Convention : Reuss Voigt Hill
#
# Bulk Modulus (GPa) = 55.37770 66.78805 61.08287
# Shear Modulus (GPa) = 30.92475 34.09280 32.50878
#
# Velocity S-wave (km/s) = 3.86194 4.05494 3.95962
# Velocity P-wave (km/s) = 6.82599 7.35761 7.09678
#
# Compressibility (1/GPa) = 0.01805781
#
# Stress axis : x y z
#
# Youngs Moduli (GPa) = 63.79945 75.59768 82.99214
#
# Poissons Ratio (x) = 0.24722 0.43824
# Poissons Ratio (y) = 0.20864 0.24035
# Poissons Ratio (z) = 0.33690 0.21894
#
# Static dielectric constant tensor:
#      x y z
#    x 3.903600 0.078410 0.090170 
#    y 0.078410 3.629420 -0.053310 
#    z 0.090170 -0.053310 4.040870 
# 
# 
# High freq. dielectric constant tensor:
#      x y z
#    x 1.807100 0.004400 -0.000020 
#    y 0.004400 1.809240 -0.009150 
#    z -0.000020 -0.009150 1.812730 
# 
# From -- ./inp_files/282000.got.cif
#   From: 2010.06.25/outbox.cif.g09.slc.cpg/sg2_141_cif.got.tgz:282000.got - 2010.06.27 13:26:56.
