data_PCOD8008324
_publ_section_title
;
Structure prediction by ZEFSAII (Michael W. Deem and Ramdas Pophale) SiO2 
 PCOD8008324
Probable space group: P -1
;
_chemical_formula_sum "Si O2"
_cell_formula_units_Z 14
_cell_length_a 8.316680
_cell_length_b 14.565937
_cell_length_c 8.813385
_cell_angle_alpha 128.286291
_cell_angle_beta 84.941669
_cell_angle_gamma 130.922847
_cell_volume 534.704141
_symmetry_space_group_name_H-M "P -1"
_symmetry_group_IT_number 2
_symmetry_cell_setting 'triclinic'
loop_
_space_group_symop_operation_xyz
x,y,z
-x,-y,-z
loop_
_atom_site_type_symbol
_atom_site_label
_atom_site_fract_x
_atom_site_fract_y
_atom_site_fract_z
Si Si1 0.385028 0.168331 0.252324
Si Si2 0.625867 0.973270 0.608092
Si Si3 0.910004 0.559680 0.660946
Si Si4 0.140489 0.278914 0.724363
Si Si5 0.770727 0.678978 0.593503
Si Si6 0.387386 0.795329 0.031842
Si Si7 0.449318 0.664149 0.150554
O O1 0.270108 0.014232 0.225329
O O2 0.613435 0.370436 0.523108
O O3 0.178344 0.153562 0.213598
O O4 0.469756 0.138707 0.071762
O O5 0.497988 0.966621 0.296552
O O6 0.412133 0.762841 0.352565
O O7 0.846984 0.099233 0.594753
O O8 0.959732 0.704833 0.704684
O O9 0.000000 0.500000 0.500000
O O10 0.090116 0.663044 0.899904
O O11 0.196758 0.332188 0.597700
O O12 0.239543 0.448882 0.981651
O O13 0.278346 0.240003 0.737460
O O14 0.500000 0.500000 0.500000
O O15 0.427482 0.694104 0.008370
#
# Coordination Sequence:
#
# PCOD8008324 Si02
#       7
#     2   2   2   2   2   2   2
#     4  10  22  44  72 101 145 182 243 293 340 422
#     4  12  26  46  71 107 145 185 236 293 357 418
#     4   9  20  41  72 102 138 183 239 282 353 413
#     4  11  25  46  76 105 137 187 237 293 360 416
#     4  10  20  42  76 103 136 186 237 294 344 417
#     4  11  25  47  68 106 143 192 235 288 357 418
#     4  11  25  48  72 101 148 180 235 293 356 423
#
# _framework density 26.182703
#
# number of rings (size 3 to 8) (size 9 to 14) (size 15 to 20)
#    0.000    1.429    1.429    3.857    2.000    2.857 
#   15.429    1.429    0.000    0.000    0.000    0.000 
#    0.000    0.000    0.000    0.000    0.000    0.000 
#
# Total GULP energy -173511.820890 kJ/mol
# GULP energy per Si atom -12393.701492 kJ/mol
# Density = 2.612311 g / cm^3
# Si number density = 26.182703 Si / 1000 Ang^3
#
#
#
# Elastic Constant Matrix: (Units=GPa)
#
#
# Indices 1 2 3 4 5 6 
#
# 1 127.6840 43.2173 31.5178 -7.2527 -4.8285 -32.7426
# 2 43.2173 121.6057 20.6671 -28.0631 3.7323 -9.7568
# 3 31.5178 20.6671 95.4385 -0.3159 -6.7630 0.3872
# 4 -7.2527 -28.0631 -0.3159 31.8148 -18.6222 -2.1096
# 5 -4.8285 3.7323 -6.7630 -18.6222 47.1735 -15.8454
# 6 -32.7426 -9.7568 0.3872 -2.1096 -15.8454 42.7691
#
#
#
# Elastic Compliance Matrix: (Units=1/GPa)
#
#
# Indices 1 2 3 4 5 6 
#
# 1 0.013445 -0.001653 -0.003514 0.007403 0.008440 0.013440
# 2 -0.001653 0.012616 -0.001747 0.014411 0.005776 0.004479
# 3 -0.003514 -0.001747 0.011955 -0.003019 -0.000940 -0.003694
# 4 0.007403 0.014411 -0.003019 0.067489 0.034221 0.024990
# 5 0.008440 0.005776 -0.000940 0.034221 0.043586 0.025624
# 6 0.013440 0.004479 -0.003694 0.024990 0.025624 0.045451
#
#
# Mechanical properties :
#
#
# Convention : Reuss Voigt Hill
#
# Bulk Modulus (GPa) = 41.34474 59.50362 50.42418
# Shear Modulus (GPa) = 23.10182 40.97321 32.03752
#
# Velocity S-wave (km/s) = 2.97363 3.96017 3.50181
# Velocity P-wave (km/s) = 5.25501 6.60956 5.97082
#
# Compressibility (1/GPa) = 0.02418687
#
# Stress axis : x y z
#
# Youngs Moduli (GPa) = 74.37773 79.26718 83.64597
#
# Poissons Ratio (x) = 0.13105 0.29393
# Poissons Ratio (y) = 0.12296 0.14614
# Poissons Ratio (z) = 0.26136 0.13849
#
# Static dielectric constant tensor:
#      x y z
#    x 5.359670 -0.462620 0.574130 
#    y -0.462620 4.732320 0.170200 
#    z 0.574130 0.170200 5.838390 
# 
# 
# High freq. dielectric constant tensor:
#      x y z
#    x 2.060310 -0.029170 -0.008290 
#    y -0.029170 2.041950 -0.014300 
#    z -0.008290 -0.014300 2.044360 
# 
# From -- ./inp_files/208401.got.cif
#   From: 2010.06.25/outbox.cif.g09.slc.cpg/sg2_105_cif.got.tgz:208401.got - 2010.06.27 13:26:56.
