data_PCOD8008380
_publ_section_title
;
Structure prediction by ZEFSAII (Michael W. Deem and Ramdas Pophale) SiO2 
 PCOD8008380
Probable space group: P -1
;
_chemical_formula_sum "Si O2"
_cell_formula_units_Z 14
_cell_length_a 12.106303
_cell_length_b 11.437960
_cell_length_c 9.324807
_cell_angle_alpha 119.097536
_cell_angle_beta 36.042219
_cell_angle_gamma 115.172662
_cell_volume 662.548056
_symmetry_space_group_name_H-M "P -1"
_symmetry_group_IT_number 2
_symmetry_cell_setting 'triclinic'
loop_
_space_group_symop_operation_xyz
x,y,z
-x,-y,-z
loop_
_atom_site_type_symbol
_atom_site_label
_atom_site_fract_x
_atom_site_fract_y
_atom_site_fract_z
Si Si1 0.125062 0.031888 0.751483
Si Si2 0.239073 0.624847 0.533433
Si Si3 0.179422 0.338864 0.492562
Si Si4 0.838957 0.242590 0.601147
Si Si5 0.488393 0.840447 0.897383
Si Si6 0.086190 0.313237 0.883556
Si Si7 0.544036 0.779336 0.487158
O O1 0.126253 0.906141 0.573126
O O2 0.033836 0.152216 0.832798
O O3 0.339460 0.082532 0.602690
O O4 0.000000 0.000000 0.000000
O O5 0.301689 0.472657 0.390957
O O6 0.209327 0.662355 0.422885
O O7 0.392752 0.733044 0.499850
O O8 0.045028 0.621903 0.824194
O O9 0.070212 0.371831 0.775154
O O10 0.029690 0.302701 0.505766
O O11 0.311808 0.216186 0.303752
O O12 0.670298 0.236292 0.887005
O O13 0.440088 0.804790 0.761839
O O14 0.500000 0.000000 0.000000
O O15 0.304526 0.335177 0.720429
#
# Coordination Sequence:
#
# PCOD8008380 Si02
#       7
#     2   2   2   2   2   2   2
#     4  10  20  43  65  96 122 159 217 271 317 366
#     4  12  24  41  65  95 131 177 211 258 323 375
#     4  11  26  42  64  96 131 172 217 259 314 394
#     4  12  24  41  65  95 135 170 210 264 323 380
#     4  11  23  45  66  98 126 168 214 270 327 372
#     4   9  21  42  65  94 122 169 216 269 317 363
#     4   9  22  41  65  95 123 166 219 264 309 385
#
# _framework density 21.130542999999999
#
# number of rings (size 3 to 8) (size 9 to 14) (size 15 to 20)
#    0.857    0.571    2.857    1.714    0.000   10.286 
#    0.000    0.000    0.000    0.000    0.000    0.000 
#    0.000    0.000    0.000    0.000    0.000    0.000 
#
# Total GULP energy -173538.372589 kJ/mol
# GULP energy per Si atom -12395.598042 kJ/mol
# Density = 2.108245 g / cm^3
# Si number density = 21.130543 Si / 1000 Ang^3
#
#
#
# Elastic Constant Matrix: (Units=GPa)
#
#
# Indices 1 2 3 4 5 6 
#
# 1 105.1741 28.7068 29.1728 -16.4106 11.1886 0.7442
# 2 28.7068 106.1141 28.4593 -16.5504 10.3617 -13.6086
# 3 29.1728 28.4593 107.7697 -23.4111 6.5556 1.1066
# 4 -16.4106 -16.5504 -23.4111 33.6083 -10.3357 -0.1804
# 5 11.1886 10.3617 6.5556 -10.3357 15.1163 -0.8100
# 6 0.7442 -13.6086 1.1066 -0.1804 -0.8100 34.9111
#
#
#
# Elastic Compliance Matrix: (Units=1/GPa)
#
#
# Indices 1 2 3 4 5 6 
#
# 1 0.011381 -0.001941 -0.001873 0.001699 -0.005175 -0.001051
# 2 -0.001941 0.011803 -0.001886 0.002352 -0.003981 0.004622
# 3 -0.001873 -0.001886 0.011673 0.007007 0.002356 -0.000974
# 4 0.001699 0.002352 0.007007 0.044114 0.024332 0.001451
# 5 -0.005175 -0.003981 0.002356 0.024332 0.088363 0.000660
# 6 -0.001051 0.004622 -0.000974 0.001451 0.000660 0.030522
#
#
# Mechanical properties :
#
#
# Convention : Reuss Voigt Hill
#
# Bulk Modulus (GPa) = 42.63293 54.63732 48.63513
# Shear Modulus (GPa) = 23.03357 32.24175 27.63766
#
# Velocity S-wave (km/s) = 3.30519 3.91043 3.62048
# Velocity P-wave (km/s) = 5.89792 6.80454 6.36739
#
# Compressibility (1/GPa) = 0.02345604
#
# Stress axis : x y z
#
# Youngs Moduli (GPa) = 87.86955 84.72553 85.66719
#
# Poissons Ratio (x) = 0.16443 0.16050
# Poissons Ratio (y) = 0.17053 0.16157
# Poissons Ratio (z) = 0.16462 0.15979
#
# Static dielectric constant tensor:
#      x y z
#    x 3.530650 -0.145870 -0.011760 
#    y -0.145870 3.910130 -0.152190 
#    z -0.011760 -0.152190 3.690690 
# 
# 
# High freq. dielectric constant tensor:
#      x y z
#    x 1.812550 -0.008450 0.005130 
#    y -0.008450 1.836920 -0.006760 
#    z 0.005130 -0.006760 1.834120 
# 
# From -- ./inp_files/259762.got.cif
#   From: 2010.06.25/outbox.cif.g09.slc.cpg/sg2_130_cif.got.tgz:259762.got - 2010.06.27 13:26:56.
