data_PCOD8008066
_publ_section_title
;
Structure prediction by ZEFSAII (Michael W. Deem and Ramdas Pophale) SiO2 
 PCOD8008066
Probable space group: P -1
;
_chemical_formula_sum "Si O2"
_cell_formula_units_Z 14
_cell_length_a 9.361033
_cell_length_b 20.599708
_cell_length_c 16.911857
_cell_angle_alpha 20.583729
_cell_angle_beta 126.854010
_cell_angle_gamma 138.453504
_cell_volume 685.608185
_symmetry_space_group_name_H-M "P -1"
_symmetry_group_IT_number 2
_symmetry_cell_setting 'triclinic'
loop_
_space_group_symop_operation_xyz
x,y,z
-x,-y,-z
loop_
_atom_site_type_symbol
_atom_site_label
_atom_site_fract_x
_atom_site_fract_y
_atom_site_fract_z
Si Si1 0.138689 0.970578 0.640726
Si Si2 0.504980 0.976473 0.904094
Si Si3 0.307992 0.230497 0.707766
Si Si4 0.806185 0.864567 0.920864
Si Si5 0.048783 0.339711 0.924098
Si Si6 0.453096 0.338172 0.463963
Si Si7 0.409032 0.925083 0.355219
O O1 0.290461 0.203014 0.486169
O O2 0.325026 0.967213 0.658732
O O3 0.000000 0.000000 0.500000
O O4 0.949188 0.719463 0.915051
O O5 0.602996 0.253555 0.627950
O O6 0.576611 0.967194 0.849403
O O7 0.623859 0.930908 0.061773
O O8 0.219612 0.780503 0.048070
O O9 0.500000 0.500000 0.500000
O O10 0.289225 0.256508 0.578590
O O11 0.029616 0.069087 0.820263
O O12 0.677008 0.970242 0.733534
O O13 0.874726 0.786890 0.956936
O O14 0.627132 0.628517 0.185302
O O15 0.227544 0.628998 0.636808
#
# Coordination Sequence:
#
# PCOD8008066 Si02
#       7
#     2   2   2   2   2   2   2
#     4  10  22  45  70  90 121 163 205 259 322 377
#     4  10  21  39  58  87 127 168 213 247 302 364
#     4  12  24  37  59  93 128 172 215 250 300 368
#     4  12  22  39  65  89 131 164 206 260 309 358
#     4  10  20  42  65  87 127 167 200 262 309 365
#     4  10  22  40  61  88 126 164 207 259 308 368
#     4  10  22  40  62  96 122 162 209 257 311 373
#
# _framework density 20.419826
#
# number of rings (size 3 to 8) (size 9 to 14) (size 15 to 20)
#    0.000    1.714    5.714    2.143    0.000    5.714 
#    0.000    1.429    0.000    0.000    0.000    0.000 
#    0.000    0.000    0.000    0.000    0.000    0.000 
#
# Total GULP energy -173432.855166 kJ/mol
# GULP energy per Si atom -12388.061083 kJ/mol
# Density = 2.037335 g / cm^3
# Si number density = 20.419826 Si / 1000 Ang^3
#
#
#
# Elastic Constant Matrix: (Units=GPa)
#
#
# Indices 1 2 3 4 5 6 
#
# 1 122.0570 44.2869 64.1646 6.3467 10.1171 18.8828
# 2 44.2869 96.8698 59.8731 19.7162 2.7358 16.8370
# 3 64.1646 59.8731 141.0053 -6.7729 1.6893 14.1037
# 4 6.3467 19.7162 -6.7729 29.1815 -3.8167 5.7917
# 5 10.1171 2.7358 1.6893 -3.8167 36.2862 0.7637
# 6 18.8828 16.8370 14.1037 5.7917 0.7637 23.8423
#
#
#
# Elastic Compliance Matrix: (Units=1/GPa)
#
#
# Indices 1 2 3 4 5 6 
#
# 1 0.012293 -0.001322 -0.004550 -0.002171 -0.003229 -0.005480
# 2 -0.001322 0.019528 -0.007883 -0.014103 -0.002124 -0.004586
# 3 -0.004550 -0.007883 0.013057 0.009851 0.002313 -0.001021
# 4 -0.002171 -0.014103 0.009851 0.048624 0.006454 -0.006167
# 5 -0.003229 -0.002124 0.002313 0.006454 0.029186 0.000186
# 6 -0.005480 -0.004586 -0.001021 -0.006167 0.000186 0.051616
#
#
# Mechanical properties :
#
#
# Convention : Reuss Voigt Hill
#
# Bulk Modulus (GPa) = 57.58161 77.39792 67.48976
# Shear Modulus (GPa) = 24.08428 30.63584 27.36006
#
# Velocity S-wave (km/s) = 3.43805 3.87757 3.66440
# Velocity P-wave (km/s) = 6.63478 7.61794 7.14329
#
# Compressibility (1/GPa) = 0.01736666
#
# Stress axis : x y z
#
# Youngs Moduli (GPa) = 81.34867 51.20914 76.58555
#
# Poissons Ratio (x) = 0.06772 0.34845
# Poissons Ratio (y) = 0.10758 0.60375
# Poissons Ratio (z) = 0.37012 0.40370
#
# Static dielectric constant tensor:
#      x y z
#    x 4.004680 0.004600 -0.119480 
#    y 0.004600 3.393530 -0.046380 
#    z -0.119480 -0.046380 3.939790 
# 
# 
# High freq. dielectric constant tensor:
#      x y z
#    x 1.811640 0.006650 -0.010490 
#    y 0.006650 1.751830 -0.002210 
#    z -0.010490 -0.002210 1.813910 
# 
# From -- ./inp_files/562341.got.cif
#   From: 2010.06.25/outbox.cif.g09.slc.cpg/sg2_282_cif.got.tgz:562341.got - 2010.06.27 13:26:56.
