data_PCOD8008243
_publ_section_title
;
Structure prediction by ZEFSAII (Michael W. Deem and Ramdas Pophale) SiO2 
 PCOD8008243
Probable space group: P -1
;
_chemical_formula_sum "Si O2"
_cell_formula_units_Z 16
_cell_length_a 9.582521
_cell_length_b 27.926937
_cell_length_c 9.325820
_cell_angle_alpha 131.362034
_cell_angle_beta 99.424751
_cell_angle_gamma 39.304647
_cell_volume 809.553822
_symmetry_space_group_name_H-M "P -1"
_symmetry_group_IT_number 2
_symmetry_cell_setting 'triclinic'
loop_
_space_group_symop_operation_xyz
x,y,z
-x,-y,-z
loop_
_atom_site_type_symbol
_atom_site_label
_atom_site_fract_x
_atom_site_fract_y
_atom_site_fract_z
Si Si1 0.292374 0.088969 0.996689
Si Si2 0.317243 0.722152 0.599033
Si Si3 0.193342 0.467583 0.071149
Si Si4 0.245145 0.549861 0.021505
Si Si5 0.199190 0.377592 0.401806
Si Si6 0.574182 0.854380 0.072735
Si Si7 0.901345 0.171958 0.542234
Si Si8 0.243222 0.163860 0.631737
O O1 0.304778 0.156140 0.069044
O O2 0.433156 0.983919 0.693193
O O3 0.924551 0.217540 0.217479
O O4 0.500000 0.000000 0.000000
O O5 0.616042 0.555336 0.280535
O O6 0.463062 0.725111 0.707156
O O7 0.131461 0.819316 0.617623
O O8 0.032721 0.536860 0.333777
O O9 0.178950 0.543151 0.148445
O O10 0.563150 0.292344 0.800518
O O11 0.000000 0.500000 0.000000
O O12 0.500000 0.500000 0.000000
O O13 0.913664 0.711375 0.223594
O O14 0.000000 0.500000 0.500000
O O15 0.278991 0.275494 0.151501
O O16 0.679319 0.852437 0.223849
O O17 0.182352 0.008933 0.312501
O O18 0.995290 0.205711 0.667977
#
# Coordination Sequence:
#
# PCOD8008243 Si02
#       8
#     2   2   2   2   2   2   2   2
#     4  11  21  41  69 101 128 165 225 274 325 385
#     4  11  22  42  64  99 133 166 216 285 311 384
#     4  11  23  43  71  93 129 180 219 269 328 384
#     4  11  20  39  70  97 125 165 223 270 324 381
#     4  12  28  47  62  96 142 173 221 272 326 396
#     4  11  26  42  67  97 135 179 210 269 346 391
#     4  10  20  42  68  98 128 163 223 272 323 387
#     4  11  22  41  67  98 136 163 213 279 330 385
#
# _framework density 19.763973
#
# number of rings (size 3 to 8) (size 9 to 14) (size 15 to 20)
#    0.000    1.000    7.500    2.250    3.500    2.500 
#    2.250    3.125    0.000    0.000    0.000    0.000 
#    0.000    0.000    0.000    0.000    0.000    0.000 
#
# Total GULP energy -198411.914096 kJ/mol
# GULP energy per Si atom -12400.744631 kJ/mol
# Density = 1.971899 g / cm^3
# Si number density = 19.763973 Si / 1000 Ang^3
#
#
#
# Elastic Constant Matrix: (Units=GPa)
#
#
# Indices 1 2 3 4 5 6 
#
# 1 109.4807 54.5034 50.6130 -1.5318 -4.0667 1.1120
# 2 54.5034 124.7321 46.1239 1.9937 9.1314 1.7042
# 3 50.6130 46.1239 112.3747 4.6890 -4.6732 6.7871
# 4 -1.5318 1.9937 4.6890 37.5904 -4.2887 7.1583
# 5 -4.0667 9.1314 -4.6732 -4.2887 39.7331 4.9242
# 6 1.1120 1.7042 6.7871 7.1583 4.9242 37.0541
#
#
#
# Elastic Compliance Matrix: (Units=1/GPa)
#
#
# Indices 1 2 3 4 5 6 
#
# 1 0.013394 -0.004488 -0.004168 0.001542 0.002079 -0.000006
# 2 -0.004488 0.011265 -0.002757 -0.000995 -0.003578 0.000789
# 3 -0.004168 -0.002757 0.012144 -0.000949 0.001784 -0.002026
# 4 0.001542 -0.000995 -0.000949 0.028416 0.004068 -0.005857
# 5 0.002079 -0.003578 0.001784 0.004068 0.027429 -0.004656
# 6 -0.000006 0.000789 -0.002026 -0.005857 -0.004656 0.029073
#
#
# Mechanical properties :
#
#
# Convention : Reuss Voigt Hill
#
# Bulk Modulus (GPa) = 71.54990 72.11869 71.83430
# Shear Modulus (GPa) = 33.51068 35.89867 34.70468
#
# Velocity S-wave (km/s) = 4.12217 4.26651 4.19496
# Velocity P-wave (km/s) = 7.67705 7.80000 7.73877
#
# Compressibility (1/GPa) = 0.01397626
#
# Stress axis : x y z
#
# Youngs Moduli (GPa) = 74.65907 88.77056 82.34631
#
# Poissons Ratio (x) = 0.39843 0.34322
# Poissons Ratio (y) = 0.33510 0.22704
# Poissons Ratio (z) = 0.31118 0.24475
#
# Static dielectric constant tensor:
#      x y z
#    x 3.834800 0.050560 0.117870 
#    y 0.050560 3.776520 0.238470 
#    z 0.117870 0.238470 3.666110 
# 
# 
# High freq. dielectric constant tensor:
#      x y z
#    x 1.767380 -0.003120 -0.003040 
#    y -0.003120 1.776850 0.003340 
#    z -0.003040 0.003340 1.772540 
# 
# From -- ./inp_files/179272.got.cif
#   From: 2010.06.25/outbox.cif.g09.slc.cpg/sg2_90_cif.got.tgz:179272.got - 2010.06.27 13:26:56.
