data_PCOD8008275
_publ_section_title
;
Structure prediction by ZEFSAII (Michael W. Deem and Ramdas Pophale) SiO2 
 PCOD8008275
Probable space group: P -1
;
_chemical_formula_sum "Si O2"
_cell_formula_units_Z 16
_cell_length_a 11.386500
_cell_length_b 20.382030
_cell_length_c 11.170237
_cell_angle_alpha 41.208547
_cell_angle_beta 120.451107
_cell_angle_gamma 151.505307
_cell_volume 709.723784
_symmetry_space_group_name_H-M "P -1"
_symmetry_group_IT_number 2
_symmetry_cell_setting 'triclinic'
loop_
_space_group_symop_operation_xyz
x,y,z
-x,-y,-z
loop_
_atom_site_type_symbol
_atom_site_label
_atom_site_fract_x
_atom_site_fract_y
_atom_site_fract_z
Si Si1 0.347992 0.391490 0.442097
Si Si2 0.189939 0.794874 0.068202
Si Si3 0.523487 0.160738 0.206450
Si Si4 0.869236 0.029879 0.314198
Si Si5 0.938110 0.296365 0.363381
Si Si6 0.731845 0.352940 0.807583
Si Si7 0.858904 0.972719 0.650450
Si Si8 0.635445 0.407246 0.452366
O O1 0.500000 0.500000 0.500000
O O2 0.570360 0.482853 0.340132
O O3 0.223793 0.420234 0.299090
O O4 0.082436 0.144029 0.636877
O O5 0.117407 0.852575 0.893202
O O6 0.180419 0.704677 0.086256
O O7 0.960631 0.613392 0.297186
O O8 0.500000 0.000000 0.000000
O O9 0.820220 0.293460 0.202514
O O10 0.286692 0.925054 0.399706
O O11 0.447680 0.191725 0.230351
O O12 0.535765 0.228849 0.995288
O O13 0.574684 0.778601 0.496903
O O14 0.114613 0.126381 0.236559
O O15 0.929871 0.079963 0.418244
O O16 0.998920 0.405006 0.359880
O O17 0.577104 0.301586 0.684291
#
# Coordination Sequence:
#
# PCOD8008275 Si02
#       8
#     2   2   2   2   2   2   2   2
#     4  10  20  42  69  99 134 178 220 279 348 400
#     4  12  28  41  67 101 135 186 233 276 342 414
#     4  10  24  42  70 102 133 179 222 283 352 400
#     4  10  23  48  67  99 138 182 237 274 341 408
#     4  10  23  42  66 100 138 172 220 285 338 406
#     4  12  25  40  66 100 136 178 228 275 346 400
#     4   9  22  44  74  98 139 183 222 290 338 405
#     4  11  25  45  67  97 137 186 226 289 337 402
#
# _framework density 22.543983000000001
#
# number of rings (size 3 to 8) (size 9 to 14) (size 15 to 20)
#    0.000    1.500    2.500    0.750    8.750    1.000 
#    0.000    8.750    0.000    0.000    0.000    0.000 
#    0.000    0.000    0.000    0.000    0.000    0.000 
#
# Total GULP energy -198221.817945 kJ/mol
# GULP energy per Si atom -12388.863622 kJ/mol
# Density = 2.249267 g / cm^3
# Si number density = 22.543983 Si / 1000 Ang^3
#
#
#
# Elastic Constant Matrix: (Units=GPa)
#
#
# Indices 1 2 3 4 5 6 
#
# 1 181.5672 47.1925 62.3969 9.6012 10.9606 4.6984
# 2 47.1925 93.4565 33.3612 10.2993 4.2267 -0.2406
# 3 62.3969 33.3612 85.7611 18.8434 8.6508 12.2620
# 4 9.6012 10.2993 18.8434 28.7816 -0.3201 5.1792
# 5 10.9606 4.2267 8.6508 -0.3201 35.2861 -0.3663
# 6 4.6984 -0.2406 12.2620 5.1792 -0.3663 36.4095
#
#
#
# Elastic Compliance Matrix: (Units=1/GPa)
#
#
# Indices 1 2 3 4 5 6 
#
# 1 0.007809 -0.002238 -0.005108 0.001443 -0.000887 0.000484
# 2 -0.002238 0.013255 -0.003302 -0.002159 -0.000084 0.001795
# 3 -0.005108 -0.003302 0.019647 -0.009163 -0.002966 -0.004706
# 4 0.001443 -0.002159 -0.009163 0.041603 0.002403 -0.003008
# 5 -0.000887 -0.000084 -0.002966 0.002403 0.029386 0.001067
# 6 0.000484 0.001795 -0.004706 -0.003008 0.001067 0.029438
#
#
# Mechanical properties :
#
#
# Convention : Reuss Voigt Hill
#
# Bulk Modulus (GPa) = 51.50469 71.85400 61.67935
# Shear Modulus (GPa) = 29.60238 34.61772 32.11005
#
# Velocity S-wave (km/s) = 3.62760 3.92288 3.77812
# Velocity P-wave (km/s) = 6.35939 7.24297 6.81551
#
# Compressibility (1/GPa) = 0.01941571
#
# Stress axis : x y z
#
# Youngs Moduli (GPa) = 128.05085 75.44211 50.89933
#
# Poissons Ratio (x) = 0.16882 0.26000
# Poissons Ratio (y) = 0.28654 0.16807
# Poissons Ratio (z) = 0.65409 0.24911
#
# Static dielectric constant tensor:
#      x y z
#    x 4.628400 0.148050 0.280480 
#    y 0.148050 4.276890 -0.019920 
#    z 0.280480 -0.019920 3.727770 
# 
# 
# High freq. dielectric constant tensor:
#      x y z
#    x 1.911110 -0.001030 0.021160 
#    y -0.001030 1.893420 -0.000810 
#    z 0.021160 -0.000810 1.857120 
# 
# From -- ./inp_files/438404.got.cif
#   From: 2010.06.25/outbox.cif.g09.slc.cpg/sg2_220_cif.got.tgz:438404.got - 2010.06.27 13:26:56.
