data_PCOD8008304
_publ_section_title
;
Structure prediction by ZEFSAII (Michael W. Deem and Ramdas Pophale) SiO2 
 PCOD8008304
Probable space group: P -1
;
_chemical_formula_sum "Si O2"
_cell_formula_units_Z 16
_cell_length_a 8.736539
_cell_length_b 11.668837
_cell_length_c 25.850297
_cell_angle_alpha 31.742095
_cell_angle_beta 148.087404
_cell_angle_gamma 139.031835
_cell_volume 727.664918
_symmetry_space_group_name_H-M "P -1"
_symmetry_group_IT_number 2
_symmetry_cell_setting 'triclinic'
loop_
_space_group_symop_operation_xyz
x,y,z
-x,-y,-z
loop_
_atom_site_type_symbol
_atom_site_label
_atom_site_fract_x
_atom_site_fract_y
_atom_site_fract_z
Si Si1 0.974053 0.923602 0.963757
Si Si2 0.602024 0.178039 0.221239
Si Si3 0.447405 0.583797 0.707005
Si Si4 0.138162 0.238923 0.514400
Si Si5 0.105172 0.150808 0.816964
Si Si6 0.118089 0.504445 0.211639
Si Si7 0.825592 0.706428 0.862890
Si Si8 0.303207 0.567440 0.355387
O O1 0.643509 0.938339 0.843402
O O2 0.198451 0.060719 0.935058
O O3 0.054125 0.677494 0.082695
O O4 0.000000 0.000000 0.000000
O O5 0.444418 0.313370 0.166836
O O6 0.827882 0.336410 0.192001
O O7 0.795352 0.010169 0.368751
O O8 0.348266 0.331058 0.793459
O O9 0.591999 0.592121 0.688219
O O10 0.695352 0.699825 0.771012
O O11 0.188249 0.734881 0.571682
O O12 0.191909 0.322934 0.438203
O O13 0.347762 0.386451 0.558552
O O14 0.815513 0.266359 0.700828
O O15 0.027754 0.940068 0.838382
O O16 0.181111 0.602522 0.249604
O O17 0.000000 0.500000 0.000000
#
# Coordination Sequence:
#
# PCOD8008304 Si02
#       8
#     2   2   2   2   2   2   2   2
#     4  11  21  39  69  96 126 172 228 280 335 397
#     4  11  23  44  68  99 134 178 225 280 341 405
#     4  11  26  44  66 104 141 179 227 281 341 403
#     4  10  21  43  72  96 129 180 231 276 334 411
#     4  10  21  46  68  98 134 182 227 274 344 401
#     4  12  25  42  63 103 141 176 223 282 344 405
#     4  11  24  43  68  98 133 176 230 278 333 407
#     4  10  20  42  71  99 127 173 238 276 333 409
#
# _framework density 21.988142
#
# number of rings (size 3 to 8) (size 9 to 14) (size 15 to 20)
#    0.000    1.250    3.750    3.375    0.000    5.000 
#    4.500    0.000    0.000    0.000    0.000    0.000 
#    0.000    0.000    0.000    0.000    0.000    0.000 
#
# Total GULP energy -198329.110395 kJ/mol
# GULP energy per Si atom -12395.569400 kJ/mol
# Density = 2.193810 g / cm^3
# Si number density = 21.988142 Si / 1000 Ang^3
#
#
#
# Elastic Constant Matrix: (Units=GPa)
#
#
# Indices 1 2 3 4 5 6 
#
# 1 93.2835 36.0136 26.4428 -9.8908 10.3908 7.7826
# 2 36.0136 83.2289 16.4238 -0.2574 4.1662 -15.7265
# 3 26.4428 16.4238 132.4198 -11.8032 9.2543 -2.9891
# 4 -9.8908 -0.2574 -11.8032 28.5228 -0.7833 -0.0378
# 5 10.3908 4.1662 9.2543 -0.7833 38.0886 -0.1156
# 6 7.7826 -15.7265 -2.9891 -0.0378 -0.1156 28.8728
#
#
#
# Elastic Compliance Matrix: (Units=1/GPa)
#
#
# Indices 1 2 3 4 5 6 
#
# 1 0.015874 -0.008030 -0.001756 0.004613 -0.002958 -0.008840
# 2 -0.008030 0.017815 -0.000620 -0.002855 0.000370 0.011802
# 3 -0.001756 -0.000620 0.008351 0.002804 -0.001422 0.000998
# 4 0.004613 -0.002855 0.002804 0.037767 -0.000858 -0.002462
# 5 -0.002958 0.000370 -0.001422 -0.000858 0.027352 0.000960
# 6 -0.008840 0.011802 0.000998 -0.002462 0.000960 0.043550
#
#
# Mechanical properties :
#
#
# Convention : Reuss Voigt Hill
#
# Bulk Modulus (GPa) = 47.10751 51.85474 49.48112
# Shear Modulus (GPa) = 27.99621 34.43364 31.21493
#
# Velocity S-wave (km/s) = 3.57212 3.96158 3.77188
# Velocity P-wave (km/s) = 6.20354 6.67531 6.44374
#
# Compressibility (1/GPa) = 0.02122804
#
# Stress axis : x y z
#
# Youngs Moduli (GPa) = 62.99607 56.13313 119.74657
#
# Poissons Ratio (x) = 0.45077 0.21022
# Poissons Ratio (y) = 0.50589 0.07423
# Poissons Ratio (z) = 0.11059 0.03479
#
# Static dielectric constant tensor:
#      x y z
#    x 3.870130 0.131870 -0.110340 
#    y 0.131870 3.920730 -0.195260 
#    z -0.110340 -0.195260 4.374750 
# 
# 
# High freq. dielectric constant tensor:
#      x y z
#    x 1.847280 0.003700 -0.000340 
#    y 0.003700 1.861780 -0.005270 
#    z -0.000340 -0.005270 1.879810 
# 
# From -- ./inp_files/617040.got.cif
#   From: 2010.06.25/outbox.cif.g09.slc.cpg/sg2_309_cif.got.tgz:617040.got - 2010.06.27 13:26:56.
