data_PCOD8008928
_publ_section_title
;
Structure prediction by ZEFSAII (Michael W. Deem and Ramdas Pophale) SiO2 
 PCOD8008928
Probable space group: P -1
;
_chemical_formula_sum "Si O2"
_cell_formula_units_Z 14
_cell_length_a 11.315838
_cell_length_b 8.519552
_cell_length_c 15.586471
_cell_angle_alpha 76.023703
_cell_angle_beta 146.488438
_cell_angle_gamma 81.821013
_cell_volume 617.635158
_symmetry_space_group_name_H-M "P -1"
_symmetry_group_IT_number 2
_symmetry_cell_setting 'triclinic'
loop_
_space_group_symop_operation_xyz
x,y,z
-x,-y,-z
loop_
_atom_site_type_symbol
_atom_site_label
_atom_site_fract_x
_atom_site_fract_y
_atom_site_fract_z
Si Si1 0.614216 0.805334 0.390917
Si Si2 0.306523 0.926917 0.489010
Si Si3 0.235217 0.412355 0.824365
Si Si4 0.674346 0.254383 0.645473
Si Si5 0.759443 0.848469 0.008953
Si Si6 0.273528 0.678221 0.944755
Si Si7 0.226407 0.436875 0.075395
O O1 0.394839 0.779935 0.297003
O O2 0.913199 0.583211 0.579708
O O3 0.620271 0.926586 0.458433
O O4 0.514432 0.934198 0.224766
O O5 0.414846 0.828362 0.472590
O O6 0.457412 0.735529 0.674167
O O7 0.968850 0.082454 0.266174
O O8 0.316956 0.502884 0.933743
O O9 0.293121 0.201355 0.921660
O O10 0.443128 0.350627 0.878409
O O11 0.500000 0.500000 0.500000
O O12 0.000609 0.133069 0.848335
O O13 0.849733 0.651107 0.033718
O O14 0.202977 0.634357 0.001626
O O15 0.000000 0.500000 0.000000
#
# Coordination Sequence:
#
# PCOD8008928 Si02
#       7
#     2   2   2   2   2   2   2
#     4  10  21  37  61  85 116 154 195 239 285 346
#     4  10  23  37  59  88 116 152 194 237 287 347
#     4   9  18  38  59  85 116 152 196 240 284 338
#     4  12  22  37  58  87 124 152 188 242 300 339
#     4  10  21  36  57  87 115 153 193 238 291 345
#     4   9  20  36  60  86 117 153 193 240 285 338
#     4  10  21  35  59  90 118 147 193 242 286 342
#
# _framework density 22.667103999999998
#
# number of rings (size 3 to 8) (size 9 to 14) (size 15 to 20)
#    0.000    2.000    1.429    1.714    8.000    1.143 
#    2.571    6.429    0.000    1.714    0.000    0.000 
#    0.000    0.000    0.000    0.000    0.000    0.000 
#
# Total GULP energy -173482.674936 kJ/mol
# GULP energy per Si atom -12391.619638 kJ/mol
# Density = 2.261551 g / cm^3
# Si number density = 22.667104 Si / 1000 Ang^3
#
#
#
# Elastic Constant Matrix: (Units=GPa)
#
#
# Indices 1 2 3 4 5 6 
#
# 1 125.6884 28.8184 64.6507 -4.7647 14.0633 45.2631
# 2 28.8184 42.4260 39.0855 -10.7663 -4.1720 16.2623
# 3 64.6507 39.0855 136.4950 -9.7643 1.8064 31.4046
# 4 -4.7647 -10.7663 -9.7643 22.3567 7.8401 -4.4421
# 5 14.0633 -4.1720 1.8064 7.8401 32.6516 4.7906
# 6 45.2631 16.2623 31.4046 -4.4421 4.7906 33.2557
#
#
#
# Elastic Compliance Matrix: (Units=1/GPa)
#
#
# Indices 1 2 3 4 5 6 
#
# 1 0.017517 -0.002268 -0.003256 -0.000961 -0.004618 -0.019122
# 2 -0.002268 0.038234 -0.007306 0.011553 0.004642 -0.007836
# 3 -0.003256 -0.007306 0.011667 0.000208 0.000216 -0.003016
# 4 -0.000961 0.011553 0.000208 0.055328 -0.012080 0.004592
# 5 -0.004618 0.004642 0.000216 -0.012080 0.036547 -0.003066
# 6 -0.019122 -0.007836 -0.003016 0.004592 -0.003066 0.063831
#
#
# Mechanical properties :
#
#
# Convention : Reuss Voigt Hill
#
# Bulk Modulus (GPa) = 23.94756 63.30207 43.62482
# Shear Modulus (GPa) = 19.03292 29.12310 24.07801
#
# Velocity S-wave (km/s) = 2.90085 3.58832 3.26275
# Velocity P-wave (km/s) = 4.66988 6.71979 5.78633
#
# Compressibility (1/GPa) = 0.04175791
#
# Stress axis : x y z
#
# Youngs Moduli (GPa) = 57.08654 26.15493 85.71527
#
# Poissons Ratio (x) = 0.05931 0.27907
# Poissons Ratio (y) = 0.12946 0.62625
# Poissons Ratio (z) = 0.18586 0.19109
#
# Static dielectric constant tensor:
#      x y z
#    x 4.159290 0.268750 0.002140 
#    y 0.268750 4.028820 0.071030 
#    z 0.002140 0.071030 4.383310 
# 
# 
# High freq. dielectric constant tensor:
#      x y z
#    x 1.876380 0.015650 -0.001910 
#    y 0.015650 1.880400 -0.009970 
#    z -0.001910 -0.009970 1.894930 
# 
# From -- ./inp_files/184640.got.cif
#   From: 2010.06.25/outbox.cif.g09.slc.cpg/sg2_93_cif.got.tgz:184640.got - 2010.06.27 13:26:56.
