data_PCOD8008108
_publ_section_title
;
Structure prediction by ZEFSAII (Michael W. Deem and Ramdas Pophale) SiO2 
 PCOD8008108
Probable space group: P -1
;
_chemical_formula_sum "Si O2"
_cell_formula_units_Z 16
_cell_length_a 11.846340
_cell_length_b 8.081295
_cell_length_c 20.276215
_cell_angle_alpha 89.227670
_cell_angle_beta 138.204523
_cell_angle_gamma 124.265661
_cell_volume 721.923021
_symmetry_space_group_name_H-M "P -1"
_symmetry_group_IT_number 2
_symmetry_cell_setting 'triclinic'
loop_
_space_group_symop_operation_xyz
x,y,z
-x,-y,-z
loop_
_atom_site_type_symbol
_atom_site_label
_atom_site_fract_x
_atom_site_fract_y
_atom_site_fract_z
Si Si1 0.949948 0.653941 0.413263
Si Si2 0.303933 0.166802 0.102370
Si Si3 0.132653 0.779343 0.635894
Si Si4 0.875149 0.721047 0.718431
Si Si5 0.466457 0.327859 0.035314
Si Si6 0.198821 0.183034 0.451468
Si Si7 0.178408 0.655580 0.867620
Si Si8 0.782677 0.275066 0.965783
O O1 0.587963 0.385664 0.275935
O O2 0.977153 0.495756 0.389666
O O3 0.159250 0.812040 0.568064
O O4 0.060621 0.896168 0.415461
O O5 0.226747 0.929553 0.037332
O O6 0.446755 0.382748 0.101065
O O7 0.000000 0.000000 0.000000
O O8 0.904971 0.740376 0.554813
O O9 0.451323 0.081136 0.807335
O O10 0.557442 0.472524 0.618713
O O11 0.883460 0.855448 0.660661
O O12 0.926759 0.567956 0.722587
O O13 0.146298 0.977189 0.885263
O O14 0.500000 0.500000 0.000000
O O15 0.774536 0.471262 0.154830
O O16 0.104860 0.565582 0.914546
O O17 0.500000 0.000000 0.000000
O O18 0.000000 0.500000 0.000000
#
# Coordination Sequence:
#
# PCOD8008108 Si02
#       8
#     2   2   2   2   2   2   2   2
#     4  10  24  42  62  92 126 176 213 256 332 389
#     4  11  25  40  62  96 132 160 217 276 312 388
#     4  10  23  42  64  88 133 168 214 264 323 393
#     4  10  23  41  64  97 120 165 222 262 319 394
#     4  11  23  41  67  94 131 171 212 267 332 384
#     4  11  23  42  67  89 131 169 214 268 323 390
#     4  10  20  42  66  89 130 167 212 265 324 385
#     4  11  24  39  67  98 123 169 216 270 327 387
#
# _framework density 22.163027
#
# number of rings (size 3 to 8) (size 9 to 14) (size 15 to 20)
#    0.000    1.500    2.500    2.625    8.750    0.000 
#    2.250    1.250    0.000    0.000    0.000    0.000 
#    0.000    0.000    0.000    0.000    0.000    0.000 
#
# Total GULP energy -198212.676634 kJ/mol
# GULP energy per Si atom -12388.292290 kJ/mol
# Density = 2.211258 g / cm^3
# Si number density = 22.163027 Si / 1000 Ang^3
#
#
#
# Elastic Constant Matrix: (Units=GPa)
#
#
# Indices 1 2 3 4 5 6 
#
# 1 99.0734 44.0941 32.8065 -4.2036 28.6669 4.6089
# 2 44.0941 135.6402 36.4526 -13.6212 19.3429 1.4372
# 3 32.8065 36.4526 95.6116 -15.0643 22.6745 -7.2001
# 4 -4.2036 -13.6212 -15.0643 27.8073 -2.4716 3.9702
# 5 28.6669 19.3429 22.6745 -2.4716 40.5415 -6.6247
# 6 4.6089 1.4372 -7.2001 3.9702 -6.6247 34.1171
#
#
#
# Elastic Compliance Matrix: (Units=1/GPa)
#
#
# Indices 1 2 3 4 5 6 
#
# 1 0.014790 -0.003010 -0.002340 -0.000694 -0.008395 -0.003914
# 2 -0.003010 0.009348 -0.001798 0.003176 -0.001294 -0.000987
# 3 -0.002340 -0.001798 0.014109 0.005733 -0.004737 0.001782
# 4 -0.000694 0.003176 0.005733 0.040884 -0.002401 -0.004054
# 5 -0.008395 -0.001294 -0.004737 -0.002401 0.034906 0.007246
# 6 -0.003914 -0.000987 0.001782 -0.004054 0.007246 0.032136
#
#
# Mechanical properties :
#
#
# Convention : Reuss Voigt Hill
#
# Bulk Modulus (GPa) = 41.75560 61.89239 51.82400
# Shear Modulus (GPa) = 29.68179 34.95798 32.31989
#
# Velocity S-wave (km/s) = 3.66354 3.97585 3.82289
# Velocity P-wave (km/s) = 6.06436 7.00450 6.55132
#
# Compressibility (1/GPa) = 0.02394888
#
# Stress axis : x y z
#
# Youngs Moduli (GPa) = 67.61391 106.97332 70.87877
#
# Poissons Ratio (x) = 0.32199 0.16588
# Poissons Ratio (y) = 0.20352 0.12747
# Poissons Ratio (z) = 0.15824 0.19239
#
# Static dielectric constant tensor:
#      x y z
#    x 10.981890 -3.848550 2.651260 
#    y -3.848550 5.984460 -1.571250 
#    z 2.651260 -1.571250 4.423160 
# 
# 
# High freq. dielectric constant tensor:
#      x y z
#    x 1.861840 0.000030 0.009810 
#    y 0.000030 1.873510 -0.025000 
#    z 0.009810 -0.025000 1.875220 
# 
# From -- ./inp_files/594119.got.cif
#   From: 2010.06.25/outbox.cif.g09.slc.cpg/sg2_298_cif.got.tgz:594119.got - 2010.06.27 13:26:56.
