data_PCOD8008495
_publ_section_title
;
Structure prediction by ZEFSAII (Michael W. Deem and Ramdas Pophale) SiO2 
 PCOD8008495
Probable space group: P -1
;
_chemical_formula_sum "Si O2"
_cell_formula_units_Z 14
_cell_length_a 9.656775
_cell_length_b 20.636184
_cell_length_c 5.468994
_cell_angle_alpha 67.083843
_cell_angle_beta 141.442025
_cell_angle_gamma 128.350484
_cell_volume 522.404608
_symmetry_space_group_name_H-M "P -1"
_symmetry_group_IT_number 2
_symmetry_cell_setting 'triclinic'
loop_
_space_group_symop_operation_xyz
x,y,z
-x,-y,-z
loop_
_atom_site_type_symbol
_atom_site_label
_atom_site_fract_x
_atom_site_fract_y
_atom_site_fract_z
Si Si1 0.655569 0.710782 0.458581
Si Si2 0.148310 0.005507 0.446484
Si Si3 0.979715 0.162944 0.622918
Si Si4 0.551729 0.814981 0.462063
Si Si5 0.107517 0.728637 0.370558
Si Si6 0.708770 0.477472 0.703574
Si Si7 0.168375 0.459668 0.719390
O O1 0.829347 0.757404 0.397428
O O2 0.499632 0.756639 0.239537
O O3 0.441617 0.614200 0.249271
O O4 0.833260 0.715003 0.920695
O O5 0.428856 0.098002 0.700409
O O6 0.000000 0.000000 0.500000
O O7 0.190052 0.927729 0.617208
O O8 0.000000 0.000000 0.000000
O O9 0.785515 0.192113 0.409621
O O10 0.154497 0.154660 0.081427
O O11 0.323592 0.756657 0.420392
O O12 0.029768 0.637749 0.496623
O O13 0.620999 0.490596 0.291369
O O14 0.702672 0.535867 0.835211
O O15 0.000000 0.500000 0.000000
O O16 0.000000 0.500000 0.500000
#
# Coordination Sequence:
#
# PCOD8008495 Si02
#       7
#     2   2   2   2   2   2   2
#     4  11  24  42  67  99 137 176 227 292 339 408
#     4  10  20  43  71 102 136 183 228 274 342 409
#     4  10  24  42  68  99 140 175 227 286 341 406
#     4  10  22  43  71  95 136 186 224 276 346 412
#     4  11  26  42  67 103 134 178 234 284 344 407
#     4  10  23  40  67  92 128 176 227 275 338 402
#     4  10  23  43  64  94 131 176 228 278 336 406
#
# _framework density 26.799151999999999
#
# number of rings (size 3 to 8) (size 9 to 14) (size 15 to 20)
#    0.000    1.714    1.429    1.714   10.000    2.857 
#    0.000    0.714    0.000    0.000    0.000    0.000 
#    0.000    0.000    0.000    0.000    0.000    0.000 
#
# Total GULP energy -173450.532022 kJ/mol
# GULP energy per Si atom -12389.323716 kJ/mol
# Density = 2.673816 g / cm^3
# Si number density = 26.799152 Si / 1000 Ang^3
#
#
#
# Elastic Constant Matrix: (Units=GPa)
#
#
# Indices 1 2 3 4 5 6 
#
# 1 133.8283 23.2624 9.2831 -4.3409 -36.9690 -9.3723
# 2 23.2624 190.6357 20.9924 17.0957 -6.7643 -11.2891
# 3 9.2831 20.9924 38.0033 -12.8001 -16.6339 -13.6805
# 4 -4.3409 17.0957 -12.8001 35.8267 -5.2129 -1.4296
# 5 -36.9690 -6.7643 -16.6339 -5.2129 36.3628 -3.9732
# 6 -9.3723 -11.2891 -13.6805 -1.4296 -3.9732 62.9470
#
#
#
# Elastic Compliance Matrix: (Units=1/GPa)
#
#
# Indices 1 2 3 4 5 6 
#
# 1 0.014284 -0.003286 0.015004 0.012304 0.023253 0.006546
# 2 -0.003286 0.007196 -0.010695 -0.008969 -0.008427 -0.002259
# 3 0.015004 -0.010695 0.075110 0.042758 0.056064 0.021150
# 4 0.012304 -0.008969 0.042758 0.055277 0.039776 0.013282
# 5 0.023253 -0.008427 0.056064 0.039776 0.083139 0.020287
# 6 0.006546 -0.002259 0.021150 0.013282 0.020287 0.022635
#
#
# Mechanical properties :
#
#
# Convention : Reuss Voigt Hill
#
# Bulk Modulus (GPa) = 10.13812 52.17143 31.15478
# Shear Modulus (GPa) = 17.33270 47.62258 32.47764
#
# Velocity S-wave (km/s) = 2.54591 4.22004 3.48500
# Velocity P-wave (km/s) = 3.52611 6.57684 5.27675
#
# Compressibility (1/GPa) = 0.09863762
#
# Stress axis : x y z
#
# Youngs Moduli (GPa) = 70.01010 138.97006 13.31373
#
# Poissons Ratio (x) = 0.45664 -0.19976
# Poissons Ratio (y) = 0.23005 0.14238
# Poissons Ratio (z) = -1.05046 1.48623
#
# Static dielectric constant tensor:
#      x y z
#    x 5.538970 0.012520 -1.035670 
#    y 0.012520 6.075170 -0.732140 
#    z -1.035670 -0.732140 6.641600 
# 
# 
# High freq. dielectric constant tensor:
#      x y z
#    x 2.090810 -0.017640 -0.003050 
#    y -0.017640 2.098660 -0.010730 
#    z -0.003050 -0.010730 2.090320 
# 
# From -- ./inp_files/39125.got.cif
#   From: 2010.06.25/outbox.cif.g09.slc.cpg/sg2_20_cif.got.tgz:39125.got - 2010.06.27 13:26:56.
