data_PCOD8008586
_publ_section_title
;
Structure prediction by ZEFSAII (Michael W. Deem and Ramdas Pophale) SiO2 
 PCOD8008586
Probable space group: P -1
;
_chemical_formula_sum "Si O2"
_cell_formula_units_Z 14
_cell_length_a 13.970085
_cell_length_b 6.250215
_cell_length_c 18.578179
_cell_angle_alpha 98.760551
_cell_angle_beta 22.507613
_cell_angle_gamma 98.323534
_cell_volume 613.697868
_symmetry_space_group_name_H-M "P -1"
_symmetry_group_IT_number 2
_symmetry_cell_setting 'triclinic'
loop_
_space_group_symop_operation_xyz
x,y,z
-x,-y,-z
loop_
_atom_site_type_symbol
_atom_site_label
_atom_site_fract_x
_atom_site_fract_y
_atom_site_fract_z
Si Si1 0.514928 0.440951 0.070602
Si Si2 0.563299 0.536292 0.614782
Si Si3 0.360774 0.895448 0.523821
Si Si4 0.982738 0.169405 0.720043
Si Si5 0.269954 0.938003 0.835245
Si Si6 0.066463 0.120676 0.386473
Si Si7 0.522350 0.257063 0.762001
O O1 0.277777 0.304507 0.257809
O O2 0.516195 0.665161 0.125428
O O3 0.500000 0.500000 0.000000
O O4 0.770978 0.321527 0.908071
O O5 0.647348 0.368539 0.483529
O O6 0.323584 0.686019 0.769007
O O7 0.465292 0.446484 0.754394
O O8 0.801118 0.696005 0.464584
O O9 0.500000 0.000000 0.500000
O O10 0.537914 0.916031 0.334371
O O11 0.098844 0.016449 0.695165
O O12 0.839306 0.036365 0.750354
O O13 0.339365 0.041411 0.870955
O O14 0.000000 0.000000 0.000000
O O15 0.810304 0.216831 0.540538
O O16 0.000000 0.000000 0.500000
#
# Coordination Sequence:
#
# PCOD8008586 Si02
#       7
#     2   2   2   2   2   2   2
#     4  12  27  41  68 107 140 181 238 297 354 407
#     4  10  20  44  69  88 140 179 226 277 351 413
#     4  10  23  41  66  97 134 182 224 284 359 414
#     4  11  23  43  65 100 137 175 227 296 343 412
#     4  10  23  41  67  99 129 176 236 283 338 422
#     4  12  23  46  70  93 139 188 234 281 351 420
#     4  11  23  44  67  96 133 187 226 281 353 418
#
# _framework density 22.812526999999999
#
# number of rings (size 3 to 8) (size 9 to 14) (size 15 to 20)
#    0.000    1.143    4.286    3.429    0.000    8.000 
#    0.000    0.000    0.000    0.000    0.000    0.000 
#    0.000    0.000    0.000    0.000    0.000    0.000 
#
# Total GULP energy -173447.005190 kJ/mol
# GULP energy per Si atom -12389.071799 kJ/mol
# Density = 2.276060 g / cm^3
# Si number density = 22.812527 Si / 1000 Ang^3
#
#
#
# Elastic Constant Matrix: (Units=GPa)
#
#
# Indices 1 2 3 4 5 6 
#
# 1 110.4478 49.4888 27.1803 2.7054 -7.1168 20.6460
# 2 49.4888 122.6079 36.8013 17.1382 -10.3301 10.4249
# 3 27.1803 36.8013 104.4639 15.9146 -27.3707 -9.6964
# 4 2.7054 17.1382 15.9146 28.4821 -6.7543 1.3655
# 5 -7.1168 -10.3301 -27.3707 -6.7543 36.9443 6.8716
# 6 20.6460 10.4249 -9.6964 1.3655 6.8716 42.8238
#
#
#
# Elastic Compliance Matrix: (Units=1/GPa)
#
#
# Indices 1 2 3 4 5 6 
#
# 1 0.012677 -0.004205 -0.002598 0.003313 0.001054 -0.005951
# 2 -0.004205 0.011325 -0.002220 -0.005130 -0.000028 -0.001064
# 3 -0.002598 -0.002220 0.014140 -0.004661 0.007778 0.003895
# 4 0.003313 -0.005130 -0.004661 0.041592 0.003982 -0.003369
# 5 0.001054 -0.000028 0.007778 0.003982 0.034575 -0.004415
# 6 -0.005951 -0.001064 0.003895 -0.003369 -0.004415 0.028177
#
#
# Mechanical properties :
#
#
# Convention : Reuss Voigt Hill
#
# Bulk Modulus (GPa) = 49.76204 62.71784 56.23994
# Shear Modulus (GPa) = 29.89871 36.58664 33.24267
#
# Velocity S-wave (km/s) = 3.62419 4.00909 3.82149
# Velocity P-wave (km/s) = 6.27485 6.99877 6.64667
#
# Compressibility (1/GPa) = 0.02009564
#
# Stress axis : x y z
#
# Youngs Moduli (GPa) = 78.88391 88.29942 70.72010
#
# Poissons Ratio (x) = 0.37133 0.18372
# Poissons Ratio (y) = 0.33174 0.15701
# Poissons Ratio (z) = 0.20492 0.19603
#
# Static dielectric constant tensor:
#      x y z
#    x 3.784100 0.050190 -0.011120 
#    y 0.050190 4.464680 0.287280 
#    z -0.011120 0.287280 3.936060 
# 
# 
# High freq. dielectric constant tensor:
#      x y z
#    x 1.893580 0.011300 -0.008670 
#    y 0.011300 1.914800 0.015160 
#    z -0.008670 0.015160 1.891790 
# 
# From -- ./inp_files/27493.got.cif
#   From: 2010.06.25/outbox.cif.g09.slc.cpg/sg2_14_cif.got.tgz:27493.got - 2010.06.27 13:26:56.
