data_PCOD8008772
_publ_section_title
;
Structure prediction by ZEFSAII (Michael W. Deem and Ramdas Pophale) SiO2 
 PCOD8008772
Probable space group: P -1
;
_chemical_formula_sum "Si O2"
_cell_formula_units_Z 14
_cell_length_a 10.146084
_cell_length_b 13.262476
_cell_length_c 7.414581
_cell_angle_alpha 127.464490
_cell_angle_beta 106.155621
_cell_angle_gamma 94.611816
_cell_volume 718.709772
_symmetry_space_group_name_H-M "P -1"
_symmetry_group_IT_number 2
_symmetry_cell_setting 'triclinic'
loop_
_space_group_symop_operation_xyz
x,y,z
-x,-y,-z
loop_
_atom_site_type_symbol
_atom_site_label
_atom_site_fract_x
_atom_site_fract_y
_atom_site_fract_z
Si Si1 0.113639 0.240343 0.546627
Si Si2 0.252409 0.125559 0.762334
Si Si3 0.711327 0.819486 0.774866
Si Si4 0.308397 0.510392 0.060736
Si Si5 0.476122 0.646720 0.949133
Si Si6 0.214115 0.901467 0.760233
Si Si7 0.616569 0.299941 0.404840
O O1 0.130947 0.129918 0.576318
O O2 0.208387 0.243267 0.407656
O O3 0.946739 0.202859 0.389245
O O4 0.166887 0.387152 0.817115
O O5 0.234037 0.972195 0.645192
O O6 0.243206 0.208514 0.033625
O O7 0.411942 0.200926 0.819707
O O8 0.539069 0.752660 0.611860
O O9 0.756280 0.982434 0.948388
O O10 0.437598 0.458958 0.121137
O O11 0.271972 0.592609 0.303562
O O12 0.357263 0.614110 0.026021
O O13 0.391395 0.627853 0.707683
O O14 0.329533 0.825813 0.748103
#
# Coordination Sequence:
#
# PCOD8008772 Si02
#       7
#     2   2   2   2   2   2   2
#     4  11  20  39  57  81 113 149 184 225 263 337
#     4   8  19  34  58  83 105 144 186 226 273 315
#     4   9  20  35  59  80 107 143 188 224 268 323
#     4  10  21  34  58  83 108 147 190 218 272 329
#     4   9  18  36  58  82 108 142 190 233 261 320
#     4  10  22  37  56  84 118 141 179 227 285 328
#     4  11  20  38  56  86 114 141 178 238 277 317
#
# _framework density 19.479348999999999
#
# number of rings (size 3 to 8) (size 9 to 14) (size 15 to 20)
#    0.857    1.429    0.000    4.286    0.000    2.857 
#    2.571    2.143    0.000    0.000    0.000    0.000 
#    0.000    0.000    0.000    0.000    0.000    0.000 
#
# Total GULP energy -173522.561720 kJ/mol
# GULP energy per Si atom -12394.468694 kJ/mol
# Density = 1.943501 g / cm^3
# Si number density = 19.479349 Si / 1000 Ang^3
#
#
#
# Elastic Constant Matrix: (Units=GPa)
#
#
# Indices 1 2 3 4 5 6 
#
# 1 57.7402 30.7152 17.8995 1.4850 9.4955 9.8568
# 2 30.7152 87.9631 25.4227 -3.6941 4.5872 12.8443
# 3 17.8995 25.4227 90.0953 4.2796 4.8201 4.8519
# 4 1.4850 -3.6941 4.2796 25.6167 2.5661 -0.0087
# 5 9.4955 4.5872 4.8201 2.5661 18.5842 3.5630
# 6 9.8568 12.8443 4.8519 -0.0087 3.5630 12.8599
#
#
#
# Elastic Compliance Matrix: (Units=1/GPa)
#
#
# Indices 1 2 3 4 5 6 
#
# 1 0.024212 -0.006093 -0.002086 -0.001098 -0.008379 -0.009364
# 2 -0.006093 0.015933 -0.002941 0.002983 0.001557 -0.010562
# 3 -0.002086 -0.002941 0.012507 -0.002276 -0.001164 0.000139
# 4 -0.001098 0.002983 -0.002276 0.040432 -0.005205 0.000190
# 5 -0.008379 0.001557 -0.001164 -0.005205 0.060947 -0.011583
# 6 -0.009364 -0.010562 0.000139 0.000190 -0.011583 0.098645
#
#
# Mechanical properties :
#
#
# Convention : Reuss Voigt Hill
#
# Bulk Modulus (GPa) = 32.88446 42.65258 37.76852
# Shear Modulus (GPa) = 17.54060 22.19625 19.86842
#
# Velocity S-wave (km/s) = 3.00404 3.37927 3.19717
# Velocity P-wave (km/s) = 5.38059 6.09671 5.74981
#
# Compressibility (1/GPa) = 0.03040950
#
# Stress axis : x y z
#
# Youngs Moduli (GPa) = 41.30247 62.76467 79.95706
#
# Poissons Ratio (x) = 0.38243 0.16681
# Poissons Ratio (y) = 0.25166 0.23518
# Poissons Ratio (z) = 0.08616 0.18461
#
# Static dielectric constant tensor:
#      x y z
#    x 3.078980 0.124870 0.088770 
#    y 0.124870 3.584140 -0.017980 
#    z 0.088770 -0.017980 3.480800 
# 
# 
# High freq. dielectric constant tensor:
#      x y z
#    x 1.714590 0.014560 0.011730 
#    y 0.014560 1.758730 -0.000750 
#    z 0.011730 -0.000750 1.759580 
# 
# From -- ./inp_files/204315.got.cif
#   From: 2010.06.25/outbox.cif.g09.slc.cpg/sg2_103_cif.got.tgz:204315.got - 2010.06.27 13:26:56.
