data_PCOD8008010
_publ_section_title
;
Structure prediction by ZEFSAII (Michael W. Deem and Ramdas Pophale) SiO2 
 PCOD8008010
Probable space group: P -1
;
_chemical_formula_sum "Si O2"
_cell_formula_units_Z 16
_cell_length_a 13.848764
_cell_length_b 14.504264
_cell_length_c 14.167874
_cell_angle_alpha 147.926201
_cell_angle_beta 148.677213
_cell_angle_gamma 45.133403
_cell_volume 783.850279
_symmetry_space_group_name_H-M "P -1"
_symmetry_group_IT_number 2
_symmetry_cell_setting 'triclinic'
loop_
_space_group_symop_operation_xyz
x,y,z
-x,-y,-z
loop_
_atom_site_type_symbol
_atom_site_label
_atom_site_fract_x
_atom_site_fract_y
_atom_site_fract_z
Si Si1 0.269982 0.779918 0.253086
Si Si2 0.175441 0.077270 0.310169
Si Si3 0.485634 0.959783 0.752014
Si Si4 0.168266 0.148750 0.759022
Si Si5 0.985361 0.506419 0.105863
Si Si6 0.531265 0.310259 0.835767
Si Si7 0.779030 0.115596 0.002240
Si Si8 0.654358 0.652010 0.738397
O O1 0.377826 0.915308 0.528279
O O2 0.414881 0.690847 0.229805
O O3 0.141258 0.892198 0.175902
O O4 0.165562 0.635368 0.104386
O O5 0.351346 0.181941 0.593860
O O6 0.212774 0.050130 0.205898
O O7 0.990812 0.180020 0.261736
O O8 0.552312 0.786505 0.705552
O O9 0.349182 0.068049 0.795687
O O10 0.669617 0.075654 0.974086
O O11 0.079305 0.300898 0.753812
O O12 0.246800 0.236792 0.997452
O O13 0.000000 0.000000 0.500000
O O14 0.183402 0.453609 0.268495
O O15 0.000000 0.500000 0.000000
O O16 0.693479 0.267199 0.004623
O O17 0.500000 0.500000 0.000000
O O18 0.500000 0.500000 0.500000
#
# Coordination Sequence:
#
# PCOD8008010 Si02
#       8
#     2   2   2   2   2   2   2   2
#     4  11  21  40  67  90 126 179 212 269 338 394
#     4  10  20  42  63  91 130 164 222 267 333 398
#     4  12  21  37  69  95 126 169 226 273 334 397
#     4  11  24  42  65  92 133 176 222 279 335 399
#     4  10  22  40  61  92 128 171 218 265 331 397
#     4  11  23  41  63  92 136 169 216 274 332 397
#     4  10  21  38  65  93 120 169 215 272 325 399
#     4  11  23  43  62  94 133 173 219 279 333 395
#
# _framework density 20.412063
#
# number of rings (size 3 to 8) (size 9 to 14) (size 15 to 20)
#    0.000    1.250    2.500    5.625    1.750    0.500 
#    0.000    1.250    0.000    0.000    0.000    0.000 
#    0.000    0.000    0.000    0.000    0.000    0.000 
#
# Total GULP energy -198244.712418 kJ/mol
# GULP energy per Si atom -12390.294526 kJ/mol
# Density = 2.036560 g / cm^3
# Si number density = 20.412063 Si / 1000 Ang^3
#
#
#
# Elastic Constant Matrix: (Units=GPa)
#
#
# Indices 1 2 3 4 5 6 
#
# 1 107.1091 57.9426 35.6200 2.9443 28.0315 0.8174
# 2 57.9426 150.7681 33.1000 -3.3150 12.6104 -22.2431
# 3 35.6200 33.1000 77.3231 -1.2822 10.9193 -3.8176
# 4 2.9443 -3.3150 -1.2822 29.3428 1.1296 5.6093
# 5 28.0315 12.6104 10.9193 1.1296 29.6281 -4.0268
# 6 0.8174 -22.2431 -3.8176 5.6093 -4.0268 35.4434
#
#
#
# Elastic Compliance Matrix: (Units=1/GPa)
#
#
# Indices 1 2 3 4 5 6 
#
# 1 0.017114 -0.005448 -0.003989 -0.000934 -0.013126 -0.005587
# 2 -0.005448 0.009845 -0.001733 0.000274 0.002456 0.006353
# 3 -0.003989 -0.001733 0.015725 0.000860 -0.001259 0.000419
# 4 -0.000934 0.000274 0.000860 0.035356 -0.001645 -0.005496
# 5 -0.013126 0.002456 -0.001259 -0.001645 0.046640 0.007268
# 6 -0.005587 0.006353 0.000419 -0.005496 0.007268 0.034070
#
#
# Mechanical properties :
#
#
# Convention : Reuss Voigt Hill
#
# Bulk Modulus (GPa) = 49.15768 65.39172 57.27470
# Shear Modulus (GPa) = 26.61380 32.78537 29.69959
#
# Velocity S-wave (km/s) = 3.61477 4.01206 3.81859
# Velocity P-wave (km/s) = 6.44648 7.31899 6.89654
#
# Compressibility (1/GPa) = 0.02034270
#
# Stress axis : x y z
#
# Youngs Moduli (GPa) = 58.43240 101.57532 63.59249
#
# Poissons Ratio (x) = 0.55340 0.25368
# Poissons Ratio (y) = 0.31835 0.11022
# Poissons Ratio (z) = 0.23310 0.17605
#
# Static dielectric constant tensor:
#      x y z
#    x 3.773270 -0.198390 -0.026300 
#    y -0.198390 3.871300 0.446560 
#    z -0.026300 0.446560 2.469290 
# 
# 
# High freq. dielectric constant tensor:
#      x y z
#    x 1.798220 -0.006030 0.016520 
#    y -0.006030 1.817510 -0.009140 
#    z 0.016520 -0.009140 1.781410 
# 
# From -- ./inp_files/533946.got.cif
#   From: 2010.06.25/outbox.cif.g09.slc.cpg/sg2_267_cif.got.tgz:533946.got - 2010.06.27 13:26:56.
