data_PCOD8008229
_publ_section_title
;
Structure prediction by ZEFSAII (Michael W. Deem and Ramdas Pophale) SiO2 
 PCOD8008229
Probable space group: P -1
;
_chemical_formula_sum "Si O2"
_cell_formula_units_Z 16
_cell_length_a 11.807366
_cell_length_b 12.565520
_cell_length_c 9.629997
_cell_angle_alpha 41.518569
_cell_angle_beta 127.421646
_cell_angle_gamma 122.370708
_cell_volume 743.326489
_symmetry_space_group_name_H-M "P -1"
_symmetry_group_IT_number 2
_symmetry_cell_setting 'triclinic'
loop_
_space_group_symop_operation_xyz
x,y,z
-x,-y,-z
loop_
_atom_site_type_symbol
_atom_site_label
_atom_site_fract_x
_atom_site_fract_y
_atom_site_fract_z
Si Si1 0.421612 0.150013 0.833884
Si Si2 0.049585 0.689958 0.846741
Si Si3 0.649351 0.332254 0.026804
Si Si4 0.105650 0.156952 0.659772
Si Si5 0.403327 0.627340 0.753284
Si Si6 0.629058 0.707996 0.630305
Si Si7 0.917416 0.830308 0.857486
Si Si8 0.872415 0.601468 0.310995
O O1 0.504820 0.253668 0.918564
O O2 0.257790 0.091297 0.818535
O O3 0.420896 0.265384 0.588121
O O4 0.500000 0.000000 0.000000
O O5 0.944621 0.777787 0.587188
O O6 0.037087 0.757237 0.926914
O O7 0.213953 0.731970 0.877022
O O8 0.000000 0.500000 0.000000
O O9 0.668309 0.526930 0.845886
O O10 0.641529 0.276559 0.238066
O O11 0.123559 0.305505 0.633008
O O12 0.985874 0.013374 0.769443
O O13 0.498831 0.742848 0.600834
O O14 0.268598 0.531612 0.665895
O O15 0.500000 0.500000 0.000000
O O16 0.771200 0.831816 0.658599
O O17 0.877725 0.726759 0.066552
O O18 0.000000 0.500000 0.500000
#
# Coordination Sequence:
#
# PCOD8008229 Si02
#       8
#     2   2   2   2   2   2   2   2
#     4  12  27  44  64 103 138 178 229 281 338 404
#     4  12  22  42  70 103 132 180 232 279 340 408
#     4  11  22  42  71  97 132 172 231 281 339 400
#     4  12  26  43  69  99 144 183 218 286 349 404
#     4  10  20  42  68  94 128 173 221 275 331 394
#     4  11  23  43  70  98 132 182 224 284 335 404
#     4  12  24  43  67  99 142 179 223 272 356 405
#     4  12  25  45  71 104 134 173 237 286 336 407
#
# _framework density 21.524863
#
# number of rings (size 3 to 8) (size 9 to 14) (size 15 to 20)
#    0.000    0.500    5.000    4.875    1.750    3.000 
#    0.000    1.875    0.000    0.000    0.000    0.000 
#    0.000    0.000    0.000    0.000    0.000    0.000 
#
# Total GULP energy -198453.225716 kJ/mol
# GULP energy per Si atom -12403.326607 kJ/mol
# Density = 2.147587 g / cm^3
# Si number density = 21.524863 Si / 1000 Ang^3
#
#
#
# Elastic Constant Matrix: (Units=GPa)
#
#
# Indices 1 2 3 4 5 6 
#
# 1 126.2019 37.8181 13.2747 1.1467 6.5238 14.7572
# 2 37.8181 96.9276 27.0159 18.2083 5.5355 21.2090
# 3 13.2747 27.0159 53.1856 4.4287 9.1878 9.3575
# 4 1.1467 18.2083 4.4287 24.7696 -3.5485 6.4858
# 5 6.5238 5.5355 9.1878 -3.5485 42.0209 7.8439
# 6 14.7572 21.2090 9.3575 6.4858 7.8439 36.4153
#
#
#
# Elastic Compliance Matrix: (Units=1/GPa)
#
#
# Indices 1 2 3 4 5 6 
#
# 1 0.009256 -0.003583 -0.000315 0.002747 -0.000289 -0.002010
# 2 -0.003583 0.016114 -0.005624 -0.009467 -0.000250 -0.004748
# 3 -0.000315 -0.005624 0.022690 -0.000049 -0.003880 -0.001583
# 4 0.002747 -0.009467 -0.000049 0.049585 0.006088 -0.005730
# 5 -0.000289 -0.000250 -0.003880 0.006088 0.026261 -0.005481
# 6 -0.002010 -0.004748 -0.001583 -0.005730 -0.005481 0.033649
#
#
# Mechanical properties :
#
#
# Convention : Reuss Voigt Hill
#
# Bulk Modulus (GPa) = 34.46459 48.05916 41.26188
# Shear Modulus (GPa) = 26.84245 33.85494 30.34870
#
# Velocity S-wave (km/s) = 3.53518 3.97019 3.75899
# Velocity P-wave (km/s) = 5.71923 6.58729 6.16855
#
# Compressibility (1/GPa) = 0.02901529
#
# Stress axis : x y z
#
# Youngs Moduli (GPa) = 108.04148 62.05737 44.07141
#
# Poissons Ratio (x) = 0.22236 0.01389
# Poissons Ratio (y) = 0.38712 0.24786
# Poissons Ratio (z) = 0.03406 0.34902
#
# Static dielectric constant tensor:
#      x y z
#    x 4.536940 -0.037550 -0.041970 
#    y -0.037550 3.963520 0.244810 
#    z -0.041970 0.244810 3.876350 
# 
# 
# High freq. dielectric constant tensor:
#      x y z
#    x 1.867470 0.001970 -0.000330 
#    y 0.001970 1.845120 0.017610 
#    z -0.000330 0.017610 1.835850 
# 
# From -- ./inp_files/184284.got.cif
#   From: 2010.06.25/outbox.cif.g09.slc.cpg/sg2_93_cif.got.tgz:184284.got - 2010.06.27 13:26:56.
