data_PCOD8008410
_publ_section_title
;
Structure prediction by ZEFSAII (Michael W. Deem and Ramdas Pophale) SiO2 
 PCOD8008410
Probable space group: P -1
;
_chemical_formula_sum "Si O2"
_cell_formula_units_Z 16
_cell_length_a 17.371276
_cell_length_b 8.855729
_cell_length_c 12.676586
_cell_angle_alpha 103.782191
_cell_angle_beta 38.250038
_cell_angle_gamma 73.740730
_cell_volume 738.391485
_symmetry_space_group_name_H-M "P -1"
_symmetry_group_IT_number 2
_symmetry_cell_setting 'triclinic'
loop_
_space_group_symop_operation_xyz
x,y,z
-x,-y,-z
loop_
_atom_site_type_symbol
_atom_site_label
_atom_site_fract_x
_atom_site_fract_y
_atom_site_fract_z
Si Si1 0.421745 0.680387 0.468161
Si Si2 0.719556 0.721338 0.504418
Si Si3 0.129040 0.872809 0.482655
Si Si4 0.710322 0.745877 0.920482
Si Si5 0.929966 0.411808 0.429477
Si Si6 0.142139 0.086486 0.679061
Si Si7 0.282395 0.523599 0.710730
Si Si8 0.271207 0.613471 0.082468
O O1 0.297855 0.654965 0.638458
O O2 0.531514 0.662396 0.441786
O O3 0.268850 0.951567 0.627411
O O4 0.577636 0.463837 0.178162
O O5 0.831434 0.513067 0.437721
O O6 0.839272 0.763477 0.367100
O O7 0.722206 0.629401 0.375766
O O8 0.497118 0.967000 0.821392
O O9 0.041141 0.795020 0.604087
O O10 0.290368 0.686447 0.185631
O O11 0.230755 0.870490 0.467209
O O12 0.953626 0.151350 0.674306
O O13 0.791849 0.637221 0.697742
O O14 0.681287 0.614955 0.994255
O O15 0.855393 0.717385 0.825007
O O16 0.914268 0.269226 0.974332
#
# Coordination Sequence:
#
# PCOD8008410 Si02
#       8
#     2   2   2   2   2   2   2   2
#     4  11  24  45  69  91 129 169 220 275 316 383
#     4  12  25  42  66  98 130 178 215 263 321 390
#     4  10  22  40  71  99 131 170 210 268 330 385
#     4  10  22  43  65  98 136 171 213 261 331 386
#     4  10  23  41  67  98 137 170 208 272 322 389
#     4  12  24  44  67  95 132 170 215 272 320 383
#     4  11  27  44  64  94 129 172 224 266 320 377
#     4  10  20  43  67 100 129 167 214 264 330 385
#
# _framework density 21.668723
#
# number of rings (size 3 to 8) (size 9 to 14) (size 15 to 20)
#    0.000    1.250    2.500    2.625    1.750    3.000 
#    2.250    0.000    0.000    0.000    0.000    0.000 
#    0.000    0.000    0.000    0.000    0.000    0.000 
#
# Total GULP energy -198509.578985 kJ/mol
# GULP energy per Si atom -12406.848687 kJ/mol
# Density = 2.161940 g / cm^3
# Si number density = 21.668723 Si / 1000 Ang^3
#
#
#
# Elastic Constant Matrix: (Units=GPa)
#
#
# Indices 1 2 3 4 5 6 
#
# 1 122.6223 33.6101 25.5476 -3.9613 11.5858 7.9030
# 2 33.6101 64.4980 13.4172 -4.5940 5.1309 -6.6750
# 3 25.5476 13.4172 74.0190 -21.2846 -0.2328 10.3060
# 4 -3.9613 -4.5940 -21.2846 29.6655 -2.2211 -2.5215
# 5 11.5858 5.1309 -0.2328 -2.2211 29.7766 6.0079
# 6 7.9030 -6.6750 10.3060 -2.5215 6.0079 34.5865
#
#
#
# Elastic Compliance Matrix: (Units=1/GPa)
#
#
# Indices 1 2 3 4 5 6 
#
# 1 0.010491 -0.004961 -0.002991 -0.001913 -0.002972 -0.002087
# 2 -0.004961 0.019503 -0.002412 0.000953 -0.002617 0.006140
# 3 -0.002991 -0.002412 0.019476 0.013033 0.003771 -0.005290
# 4 -0.001913 0.000953 0.013033 0.043188 0.004069 -0.000821
# 5 -0.002972 -0.002617 0.003771 0.004069 0.036951 -0.007072
# 6 -0.002087 0.006140 -0.005290 -0.000821 -0.007072 0.033320
#
#
# Mechanical properties :
#
#
# Convention : Reuss Voigt Hill
#
# Bulk Modulus (GPa) = 34.79139 45.14325 39.96732
# Shear Modulus (GPa) = 25.87502 31.37667 28.62584
#
# Velocity S-wave (km/s) = 3.45935 3.80941 3.63859
# Velocity P-wave (km/s) = 5.66101 6.34251 6.01142
#
# Compressibility (1/GPa) = 0.02874274
#
# Stress axis : x y z
#
# Youngs Moduli (GPa) = 95.31538 51.27480 51.34556
#
# Poissons Ratio (x) = 0.25436 0.15357
# Poissons Ratio (y) = 0.47283 0.12385
# Poissons Ratio (z) = 0.28507 0.12368
#
# Static dielectric constant tensor:
#      x y z
#    x 3.933880 -0.086690 0.090190 
#    y -0.086690 3.802230 -0.110510 
#    z 0.090190 -0.110510 3.874750 
# 
# 
# High freq. dielectric constant tensor:
#      x y z
#    x 1.857290 -0.008050 0.000340 
#    y -0.008050 1.852740 -0.005840 
#    z 0.000340 -0.005840 1.852340 
# 
# From -- ./inp_files/307726.got.cif
#   From: 2010.06.25/outbox.cif.g09.slc.cpg/sg2_154_cif.got.tgz:307726.got - 2010.06.27 13:26:56.
