data_PCOD8008136
_publ_section_title
;
Structure prediction by ZEFSAII (Michael W. Deem and Ramdas Pophale) SiO2 
 PCOD8008136
Probable space group: P -1
;
_chemical_formula_sum "Si O2"
_cell_formula_units_Z 14
_cell_length_a 9.246531
_cell_length_b 9.105792
_cell_length_c 12.885065
_cell_angle_alpha 123.228463
_cell_angle_beta 119.769673
_cell_angle_gamma 49.236316
_cell_volume 670.669141
_symmetry_space_group_name_H-M "P -1"
_symmetry_group_IT_number 2
_symmetry_cell_setting 'triclinic'
loop_
_space_group_symop_operation_xyz
x,y,z
-x,-y,-z
loop_
_atom_site_type_symbol
_atom_site_label
_atom_site_fract_x
_atom_site_fract_y
_atom_site_fract_z
Si Si1 0.338928 0.555958 0.050778
Si Si2 0.338573 0.921348 0.278332
Si Si3 0.053859 0.434736 0.810240
Si Si4 0.535453 0.286103 0.539660
Si Si5 0.885121 0.615842 0.604786
Si Si6 0.377853 0.394868 0.218716
Si Si7 0.377200 0.995946 0.714571
O O1 0.252598 0.790367 0.148671
O O2 0.441394 0.404731 0.127648
O O3 0.500000 0.500000 0.000000
O O4 0.160415 0.541400 0.939901
O O5 0.444465 0.826162 0.388252
O O6 0.157719 0.152442 0.320880
O O7 0.497344 0.914254 0.253864
O O8 0.022519 0.493246 0.701627
O O9 0.852436 0.518923 0.831863
O O10 0.181193 0.185957 0.767490
O O11 0.315351 0.382206 0.456388
O O12 0.582259 0.465231 0.634657
O O13 0.675192 0.117720 0.437745
O O14 0.000000 0.500000 0.500000
O O15 0.501056 0.159885 0.209114
#
# Coordination Sequence:
#
# PCOD8008136 Si02
#       7
#     2   2   2   2   2   2   2
#     4  11  25  46  69  92 131 176 227 273 323 390
#     4  10  20  42  66  96 131 177 215 271 324 384
#     4  12  24  42  68  98 133 174 221 270 325 391
#     4  10  21  41  66  95 141 167 211 276 326 393
#     4  11  22  38  68 103 134 168 219 268 330 396
#     4  11  25  45  65  96 134 173 219 276 328 386
#     4  11  21  41  67  98 131 171 216 268 337 383
#
# _framework density 20.874675
#
# number of rings (size 3 to 8) (size 9 to 14) (size 15 to 20)
#    0.000    1.143    4.286    4.286    2.000    1.714 
#    5.143    0.000    0.000    0.000    0.000    0.000 
#    0.000    0.000    0.000    0.000    0.000    0.000 
#
# Total GULP energy -173653.259925 kJ/mol
# GULP energy per Si atom -12403.804280 kJ/mol
# Density = 2.082716 g / cm^3
# Si number density = 20.874675 Si / 1000 Ang^3
#
#
#
# Elastic Constant Matrix: (Units=GPa)
#
#
# Indices 1 2 3 4 5 6 
#
# 1 46.7805 51.4442 45.4114 -0.4012 2.2012 11.9466
# 2 51.4442 157.6366 52.6191 -0.6495 -0.3591 -1.0170
# 3 45.4114 52.6191 135.4190 1.8026 14.6224 1.4035
# 4 -0.4012 -0.6495 1.8026 25.9427 5.7016 -5.6049
# 5 2.2012 -0.3591 14.6224 5.7016 43.6912 -1.6536
# 6 11.9466 -1.0170 1.4035 -5.6049 -1.6536 29.9506
#
#
#
# Elastic Compliance Matrix: (Units=1/GPa)
#
#
# Indices 1 2 3 4 5 6 
#
# 1 0.054320 -0.013624 -0.012758 -0.003633 0.001057 -0.022153
# 2 -0.013624 0.010760 0.000226 0.001181 0.000774 0.006053
# 3 -0.012758 0.000226 0.011870 0.000666 -0.003245 0.004486
# 4 -0.003633 0.001181 0.000666 0.041530 -0.005111 0.008948
# 5 0.001057 0.000774 -0.003245 -0.005111 0.024600 0.000159
# 6 -0.022153 0.006053 0.004486 0.008948 0.000159 0.043903
#
#
# Mechanical properties :
#
#
# Convention : Reuss Voigt Hill
#
# Bulk Modulus (GPa) = 40.58872 70.97617 55.78245
# Shear Modulus (GPa) = 20.20133 32.60766 26.40450
#
# Velocity S-wave (km/s) = 3.11423 3.95659 3.56041
# Velocity P-wave (km/s) = 5.69363 7.41267 6.60928
#
# Compressibility (1/GPa) = 0.02463738
#
# Stress axis : x y z
#
# Youngs Moduli (GPa) = 18.40958 92.93489 84.24507
#
# Poissons Ratio (x) = 1.26614 1.07479
# Poissons Ratio (y) = 0.25081 -0.01900
# Poissons Ratio (z) = 0.23487 -0.02096
#
# Static dielectric constant tensor:
#      x y z
#    x 3.688390 0.132140 -0.082100 
#    y 0.132140 4.029700 0.147500 
#    z -0.082100 0.147500 4.020450 
# 
# 
# High freq. dielectric constant tensor:
#      x y z
#    x 1.806510 0.017110 -0.006610 
#    y 0.017110 1.821270 0.001600 
#    z -0.006610 0.001600 1.831820 
# 
# From -- ./inp_files/185552.got.cif
#   From: 2010.06.25/outbox.cif.g09.slc.cpg/sg2_93_cif.got.tgz:185552.got - 2010.06.27 13:26:56.
