data_PCOD8008732
_publ_section_title
;
Structure prediction by ZEFSAII (Michael W. Deem and Ramdas Pophale) SiO2 
 PCOD8008732
Probable space group: P -1
;
_chemical_formula_sum "Si O2"
_cell_formula_units_Z 16
_cell_length_a 14.122472
_cell_length_b 25.724245
_cell_length_c 23.500508
_cell_angle_alpha 10.778287
_cell_angle_beta 147.606022
_cell_angle_gamma 146.012696
_cell_volume 855.349141
_symmetry_space_group_name_H-M "P -1"
_symmetry_group_IT_number 2
_symmetry_cell_setting 'triclinic'
loop_
_space_group_symop_operation_xyz
x,y,z
-x,-y,-z
loop_
_atom_site_type_symbol
_atom_site_label
_atom_site_fract_x
_atom_site_fract_y
_atom_site_fract_z
Si Si1 0.655552 0.846214 0.172942
Si Si2 0.358904 0.060410 0.510796
Si Si3 0.987416 0.206698 0.546838
Si Si4 0.230460 0.467911 0.099755
Si Si5 0.419576 0.801390 0.624979
Si Si6 0.011992 0.174659 0.148387
Si Si7 0.550085 0.622727 0.482615
Si Si8 0.147322 0.311590 0.350230
O O1 0.624191 0.737814 0.337473
O O2 0.561536 0.655513 0.283727
O O3 0.868840 0.841042 0.278482
O O4 0.579762 0.153270 0.795363
O O5 0.348088 0.278618 0.321815
O O6 0.539791 0.089515 0.535730
O O7 0.213957 0.124977 0.320087
O O8 0.334484 0.754877 0.852953
O O9 0.791501 0.211021 0.467291
O O10 0.016901 0.953396 0.790876
O O11 0.032648 0.499422 0.223986
O O12 0.211744 0.313869 0.315672
O O13 0.037116 0.517622 0.920210
O O14 0.500000 0.000000 0.500000
O O15 0.500000 0.500000 0.000000
O O16 0.882618 0.013106 0.300101
O O17 0.708959 0.551502 0.682864
#
# Coordination Sequence:
#
# PCOD8008732 Si02
#       8
#     2   2   2   2   2   2   2   2
#     4  10  22  34  50  81 108 145 182 220 273 320
#     4  11  21  37  52  80 113 142 185 232 265 323
#     4  12  21  36  51  82 112 147 176 223 267 339
#     4  10  24  37  56  82 113 146 191 226 268 329
#     4  12  22  35  57  83 106 148 188 216 283 343
#     4  11  21  31  56  76 114 148 178 212 274 318
#     4  10  21  34  54  75 110 145 183 224 262 329
#     4  10  22  38  57  82 111 156 187 219 276 325
#
# _framework density 18.705811000000001
#
# number of rings (size 3 to 8) (size 9 to 14) (size 15 to 20)
#    0.000    1.250    3.750    3.000    3.500    7.500 
#    0.000    0.000    0.000    0.000    0.000    5.250 
#    0.000    0.000    0.000    0.000    0.000    0.000 
#
# Total GULP energy -198422.664234 kJ/mol
# GULP energy per Si atom -12401.416515 kJ/mol
# Density = 1.866324 g / cm^3
# Si number density = 18.705811 Si / 1000 Ang^3
#
#
#
# Elastic Constant Matrix: (Units=GPa)
#
#
# Indices 1 2 3 4 5 6 
#
# 1 99.3464 32.5493 39.6543 -3.3769 0.9869 6.9222
# 2 32.5493 108.8551 39.3024 1.6412 8.2184 4.7509
# 3 39.6543 39.3024 69.1742 -12.7416 11.4423 4.7201
# 4 -3.3769 1.6412 -12.7416 23.8298 -7.4277 4.7931
# 5 0.9869 8.2184 11.4423 -7.4277 26.1194 -3.2106
# 6 6.9222 4.7509 4.7201 4.7931 -3.2106 28.0456
#
#
#
# Elastic Compliance Matrix: (Units=1/GPa)
#
#
# Indices 1 2 3 4 5 6 
#
# 1 0.013573 -0.001514 -0.007440 -0.000791 0.002828 -0.001383
# 2 -0.001514 0.012337 -0.006751 -0.005438 -0.002405 0.000074
# 3 -0.007440 -0.006751 0.026117 0.012339 -0.006046 -0.004217
# 4 -0.000791 -0.005438 0.012339 0.053921 0.010567 -0.008966
# 5 0.002828 -0.002405 -0.006046 0.010567 0.045091 0.004083
# 6 -0.001383 0.000074 -0.004217 -0.008966 0.004083 0.038694
#
#
# Mechanical properties :
#
#
# Convention : Reuss Voigt Hill
#
# Bulk Modulus (GPa) = 48.49956 55.59863 52.04910
# Shear Modulus (GPa) = 21.92856 26.65695 24.29276
#
# Velocity S-wave (km/s) = 3.42758 3.77910 3.60762
# Velocity P-wave (km/s) = 6.45354 6.98779 6.72598
#
# Compressibility (1/GPa) = 0.02061874
#
# Stress axis : x y z
#
# Youngs Moduli (GPa) = 73.67796 81.05881 38.28920
#
# Poissons Ratio (x) = 0.12268 0.28486
# Poissons Ratio (y) = 0.11151 0.25848
# Poissons Ratio (z) = 0.54814 0.54720
#
# Static dielectric constant tensor:
#      x y z
#    x 3.293800 0.141380 0.080860 
#    y 0.141380 3.562440 -0.169590 
#    z 0.080860 -0.169590 3.511720 
# 
# 
# High freq. dielectric constant tensor:
#      x y z
#    x 1.702700 0.000880 0.021000 
#    y 0.000880 1.722260 -0.019280 
#    z 0.021000 -0.019280 1.721530 
# 
# From -- ./inp_files/108608.got.cif
#   From: 2010.06.25/outbox.cif.g09.slc.cpg/sg2_55_cif.got.tgz:108608.got - 2010.06.27 13:26:56.
