data_PCOD8008461
_publ_section_title
;
Structure prediction by ZEFSAII (Michael W. Deem and Ramdas Pophale) SiO2 
 PCOD8008461
Probable space group: P -1
;
_chemical_formula_sum "Si O2"
_cell_formula_units_Z 14
_cell_length_a 8.261800
_cell_length_b 7.550697
_cell_length_c 18.379650
_cell_angle_alpha 73.944260
_cell_angle_beta 147.847629
_cell_angle_gamma 104.305380
_cell_volume 586.182505
_symmetry_space_group_name_H-M "P -1"
_symmetry_group_IT_number 2
_symmetry_cell_setting 'triclinic'
loop_
_space_group_symop_operation_xyz
x,y,z
-x,-y,-z
loop_
_atom_site_type_symbol
_atom_site_label
_atom_site_fract_x
_atom_site_fract_y
_atom_site_fract_z
Si Si1 0.123932 0.372236 0.693787
Si Si2 0.740787 0.202805 0.121434
Si Si3 0.666641 0.084115 0.483615
Si Si4 0.674351 0.929415 0.783306
Si Si5 0.183706 0.667028 0.017096
Si Si6 0.914036 0.822675 0.157876
Si Si7 0.893255 0.216055 0.337362
O O1 0.027424 0.343068 0.744867
O O2 0.084579 0.588460 0.634398
O O3 0.906892 0.248315 0.574078
O O4 0.475947 0.316383 0.822554
O O5 0.804990 0.350802 0.064539
O O6 0.908601 0.261047 0.252383
O O7 0.846441 0.999540 0.163589
O O8 0.380223 0.210207 0.000485
O O9 0.434665 0.160683 0.326075
O O10 0.500000 0.000000 0.500000
O O11 0.831006 0.915932 0.523491
O O12 0.414698 0.901038 0.747364
O O13 0.988709 0.844941 0.941544
O O14 0.784633 0.140826 0.781889
O O15 0.000000 0.500000 0.000000
#
# Coordination Sequence:
#
# PCOD8008461 Si02
#       7
#     2   2   2   2   2   2   2
#     4  11  23  44  75 100 138 178 236 273 347 406
#     4   9  19  37  68  94 137 179 219 270 345 396
#     4  12  25  49  72  93 140 193 223 282 343 405
#     4  11  23  42  70 103 140 178 231 281 342 404
#     4  10  20  43  69 104 138 176 223 289 336 407
#     4   9  18  40  67  94 131 184 220 270 341 404
#     4  12  25  42  70 107 136 176 232 286 333 414
#
# _framework density 23.883344999999998
#
# number of rings (size 3 to 8) (size 9 to 14) (size 15 to 20)
#    0.000    1.429    4.286    2.143    0.000    4.000 
#    0.000    0.000    0.000    0.000    0.000    0.000 
#    0.000    0.000    0.000    0.000    0.000    0.000 
#
# Total GULP energy -173471.923146 kJ/mol
# GULP energy per Si atom -12390.851653 kJ/mol
# Density = 2.382898 g / cm^3
# Si number density = 23.883345 Si / 1000 Ang^3
#
#
#
# Elastic Constant Matrix: (Units=GPa)
#
#
# Indices 1 2 3 4 5 6 
#
# 1 73.6214 19.8797 -3.3466 -1.0028 19.4162 27.1002
# 2 19.8797 92.0086 22.9606 0.3740 20.6694 16.3639
# 3 -3.3466 22.9606 61.5482 7.1769 18.3662 -6.1302
# 4 -1.0028 0.3740 7.1769 25.5364 1.4851 11.5407
# 5 19.4162 20.6694 18.3662 1.4851 40.6703 6.1187
# 6 27.1002 16.3639 -6.1302 11.5407 6.1187 41.7474
#
#
#
# Elastic Compliance Matrix: (Units=1/GPa)
#
#
# Indices 1 2 3 4 5 6 
#
# 1 0.021479 -0.000603 0.001791 0.007260 -0.008893 -0.014147
# 2 -0.000603 0.014391 -0.005516 0.004599 -0.003681 -0.006791
# 3 0.001791 -0.005516 0.023185 -0.009635 -0.009442 0.008451
# 4 0.007260 0.004599 -0.009635 0.052189 0.000006 -0.022358
# 5 -0.008893 -0.003681 -0.009442 0.000006 0.034860 0.000719
# 6 -0.014147 -0.006791 0.008451 -0.022358 0.000719 0.043115
#
#
# Mechanical properties :
#
#
# Convention : Reuss Voigt Hill
#
# Bulk Modulus (GPa) = 19.84129 34.01843 26.92986
# Shear Modulus (GPa) = 23.29089 34.10313 28.69701
#
# Velocity S-wave (km/s) = 3.12620 3.78286 3.47010
# Velocity P-wave (km/s) = 4.62130 5.77534 5.23025
#
# Compressibility (1/GPa) = 0.05039995
#
# Stress axis : x y z
#
# Youngs Moduli (GPa) = 46.55660 69.48563 43.13109
#
# Poissons Ratio (x) = 0.04193 -0.07726
# Poissons Ratio (y) = 0.02810 0.23790
# Poissons Ratio (z) = -0.08339 0.38326
#
# Static dielectric constant tensor:
#      x y z
#    x 4.268640 0.513880 0.200750 
#    y 0.513880 4.286760 -0.186170 
#    z 0.200750 -0.186170 4.584960 
# 
# 
# High freq. dielectric constant tensor:
#      x y z
#    x 1.934820 0.038260 0.010200 
#    y 0.038260 1.924230 -0.001400 
#    z 0.010200 -0.001400 1.951900 
# 
# From -- ./inp_files/586713.got.cif
#   From: 2010.06.25/outbox.cif.g09.slc.cpg/sg2_294_cif.got.tgz:586713.got - 2010.06.27 13:26:56.
