data_PCOD8008733
_publ_section_title
;
Structure prediction by ZEFSAII (Michael W. Deem and Ramdas Pophale) SiO2 
 PCOD8008733
Probable space group: P -1
;
_chemical_formula_sum "Si O2"
_cell_formula_units_Z 16
_cell_length_a 8.719541
_cell_length_b 22.332513
_cell_length_c 17.613420
_cell_angle_alpha 22.918442
_cell_angle_beta 138.641981
_cell_angle_gamma 140.919115
_cell_volume 833.109810
_symmetry_space_group_name_H-M "P -1"
_symmetry_group_IT_number 2
_symmetry_cell_setting 'triclinic'
loop_
_space_group_symop_operation_xyz
x,y,z
-x,-y,-z
loop_
_atom_site_type_symbol
_atom_site_label
_atom_site_fract_x
_atom_site_fract_y
_atom_site_fract_z
Si Si1 0.263428 0.352073 0.672404
Si Si2 0.624513 0.007501 0.357442
Si Si3 0.112960 0.100745 0.707757
Si Si4 0.276787 0.206929 0.009674
Si Si5 0.582196 0.287158 0.738324
Si Si6 0.855825 0.292828 0.474632
Si Si7 0.991048 0.950168 0.677096
Si Si8 0.891303 0.654755 0.081095
O O1 0.453237 0.290899 0.766720
O O2 0.361000 0.546814 0.481772
O O3 0.990887 0.286456 0.611770
O O4 0.240609 0.286169 0.825351
O O5 0.416810 0.832514 0.478076
O O6 0.795386 0.009423 0.490322
O O7 0.519293 0.154914 0.159035
O O8 0.773647 0.038040 0.299404
O O9 0.400724 0.145976 0.783418
O O10 0.018145 0.253198 0.513669
O O11 0.076384 0.066304 0.645637
O O12 0.958165 0.951366 0.877166
O O13 0.301038 0.339286 0.931142
O O14 0.835265 0.254860 0.888032
O O15 0.845154 0.473421 0.246248
O O16 0.860475 0.762571 0.872636
#
# Coordination Sequence:
#
# PCOD8008733 Si02
#       8
#     2   2   2   2   2   2   2   2
#     4   9  18  33  53  80 112 142 172 212 261 312
#     4  10  22  39  56  76 104 139 179 225 266 308
#     4   9  20  35  55  80 107 142 177 214 263 311
#     4  10  21  34  54  80 109 142 176 215 263 312
#     4   9  18  33  53  79 112 142 171 212 261 313
#     4   9  20  36  55  81 109 139 175 214 263 314
#     4  10  22  39  57  76 102 139 182 223 266 311
#     4  10  21  35  55  83 109 140 176 213 263 317
#
# _framework density 19.205151000000001
#
# number of rings (size 3 to 8) (size 9 to 14) (size 15 to 20)
#    0.000    2.500    0.000    1.500    0.000   16.500 
#    0.000    0.000    0.000    3.750    0.000    0.000 
#    0.000    0.000    0.000    0.000    0.000    0.000 
#
# Total GULP energy -198400.957509 kJ/mol
# GULP energy per Si atom -12400.059844 kJ/mol
# Density = 1.916144 g / cm^3
# Si number density = 19.205151 Si / 1000 Ang^3
#
#
#
# Elastic Constant Matrix: (Units=GPa)
#
#
# Indices 1 2 3 4 5 6 
#
# 1 110.7628 33.6697 45.4953 6.9164 -8.9342 -10.4513
# 2 33.6697 44.5765 11.2312 0.0125 -9.8489 0.2977
# 3 45.4953 11.2312 64.2735 2.6991 -1.5196 -20.8231
# 4 6.9164 0.0125 2.6991 21.3392 -6.8728 5.4384
# 5 -8.9342 -9.8489 -1.5196 -6.8728 31.9288 5.1029
# 6 -10.4513 0.2977 -20.8231 5.4384 5.1029 25.2867
#
#
#
# Elastic Compliance Matrix: (Units=1/GPa)
#
#
# Indices 1 2 3 4 5 6 
#
# 1 0.016207 -0.009700 -0.009768 -0.003777 0.000343 -0.000488
# 2 -0.009700 0.032945 -0.002562 0.009820 0.011178 -0.010875
# 3 -0.009768 -0.002562 0.031495 -0.010059 -0.008308 0.025768
# 4 -0.003777 0.009820 -0.010059 0.062535 0.019319 -0.027308
# 5 0.000343 0.011178 -0.008308 0.019319 0.041729 -0.019408
# 6 -0.000488 -0.010875 0.025768 -0.027308 -0.019408 0.070482
#
#
# Mechanical properties :
#
#
# Convention : Reuss Voigt Hill
#
# Bulk Modulus (GPa) = 27.33277 44.48947 35.91112
# Shear Modulus (GPa) = 16.04375 24.32538 20.18457
#
# Velocity S-wave (km/s) = 2.89344 3.56280 3.24543
# Velocity P-wave (km/s) = 5.04238 6.33565 5.72564
#
# Compressibility (1/GPa) = 0.03658611
#
# Stress axis : x y z
#
# Youngs Moduli (GPa) = 61.70353 30.35349 31.75124
#
# Poissons Ratio (x) = 0.29443 0.31015
# Poissons Ratio (y) = 0.59852 0.08135
# Poissons Ratio (z) = 0.60273 0.07777
#
# Static dielectric constant tensor:
#      x y z
#    x 3.628910 0.029740 0.174370 
#    y 0.029740 3.404370 -0.049060 
#    z 0.174370 -0.049060 3.493050 
# 
# 
# High freq. dielectric constant tensor:
#      x y z
#    x 1.752580 0.000850 0.009890 
#    y 0.000850 1.733860 -0.001990 
#    z 0.009890 -0.001990 1.748780 
# 
# From -- ./inp_files/186086.got.cif
#   From: 2010.06.25/outbox.cif.g09.slc.cpg/sg2_94_cif.got.tgz:186086.got - 2010.06.27 13:26:56.
