data_PCOD8008212
_publ_section_title
;
Structure prediction by ZEFSAII (Michael W. Deem and Ramdas Pophale) SiO2 
 PCOD8008212
Probable space group: P -1
;
_chemical_formula_sum "Si O2"
_cell_formula_units_Z 16
_cell_length_a 15.043348
_cell_length_b 9.512380
_cell_length_c 11.751126
_cell_angle_alpha 141.804072
_cell_angle_beta 46.393373
_cell_angle_gamma 131.177961
_cell_volume 727.039989
_symmetry_space_group_name_H-M "P -1"
_symmetry_group_IT_number 2
_symmetry_cell_setting 'triclinic'
loop_
_space_group_symop_operation_xyz
x,y,z
-x,-y,-z
loop_
_atom_site_type_symbol
_atom_site_label
_atom_site_fract_x
_atom_site_fract_y
_atom_site_fract_z
Si Si1 0.647294 0.176431 0.260916
Si Si2 0.955205 0.113749 0.719396
Si Si3 0.006266 0.358849 0.289390
Si Si4 0.198507 0.624516 0.112689
Si Si5 0.726061 0.286146 0.505117
Si Si6 0.810328 0.810439 0.846306
Si Si7 0.358353 0.980425 0.363523
Si Si8 0.777222 0.618523 0.273418
O O1 0.637903 0.246215 0.445821
O O2 0.506326 0.088872 0.279827
O O3 0.719052 0.402193 0.270026
O O4 0.712784 0.962601 0.056656
O O5 0.837894 0.216908 0.854203
O O6 0.071455 0.309684 0.795117
O O7 0.903228 0.906567 0.721789
O O8 0.000000 0.000000 0.500000
O O9 0.070169 0.522594 0.232860
O O10 0.095459 0.182349 0.123505
O O11 0.000000 0.500000 0.500000
O O12 0.859721 0.240831 0.314078
O O13 0.311450 0.757082 0.179643
O O14 0.248647 0.436674 0.873875
O O15 0.734565 0.543373 0.713315
O O16 0.667284 0.095048 0.531110
O O17 0.282311 0.166437 0.509248
#
# Coordination Sequence:
#
# PCOD8008212 Si02
#       8
#     2   2   2   2   2   2   2   2
#     4  12  28  46  68 100 137 186 235 273 329 408
#     4  12  22  43  72 102 139 174 217 287 350 399
#     4  10  20  42  68 102 133 171 218 281 348 394
#     4  12  24  43  70 103 140 173 226 281 342 410
#     4  11  25  46  71 100 139 176 229 283 339 402
#     4  11  24  43  68 105 135 175 224 279 349 400
#     4  12  27  48  69  96 138 190 229 276 335 395
#     4  12  27  45  70 105 137 178 229 279 342 406
#
# _framework density 22.00704
#
# number of rings (size 3 to 8) (size 9 to 14) (size 15 to 20)
#    0.000    0.500    5.000    4.875    3.500    2.500 
#    0.000    0.000    0.000    0.000    0.000    0.000 
#    0.000    0.000    0.000    0.000    0.000    0.000 
#
# Total GULP energy -198432.793016 kJ/mol
# GULP energy per Si atom -12402.049564 kJ/mol
# Density = 2.195695 g / cm^3
# Si number density = 22.007040 Si / 1000 Ang^3
#
#
#
# Elastic Constant Matrix: (Units=GPa)
#
#
# Indices 1 2 3 4 5 6 
#
# 1 88.2152 22.8418 18.2069 -6.7769 8.5418 -0.5538
# 2 22.8418 71.8376 18.6067 13.1954 -10.0415 -13.7647
# 3 18.2069 18.6067 69.9816 3.6555 9.2034 -6.5423
# 4 -6.7769 13.1954 3.6555 14.6878 -5.7371 -2.1564
# 5 8.5418 -10.0415 9.2034 -5.7371 34.6536 -4.0326
# 6 -0.5538 -13.7647 -6.5423 -2.1564 -4.0326 34.0572
#
#
#
# Elastic Compliance Matrix: (Units=1/GPa)
#
#
# Indices 1 2 3 4 5 6 
#
# 1 0.015052 -0.007505 -0.002378 0.012483 -0.003521 -0.002872
# 2 -0.007505 0.023394 -0.003425 -0.019572 0.007263 0.008296
# 3 -0.002378 -0.003425 0.016843 -0.004219 -0.005473 0.000898
# 4 0.012483 -0.019572 -0.004219 0.095369 0.007982 -0.001534
# 5 -0.003521 0.007263 -0.005473 0.007982 0.035363 0.006520
# 6 -0.002872 0.008296 0.000898 -0.001534 0.006520 0.033516
#
#
# Mechanical properties :
#
#
# Convention : Reuss Voigt Hill
#
# Bulk Modulus (GPa) = 34.87660 38.81613 36.84636
# Shear Modulus (GPa) = 19.55338 28.03831 23.79585
#
# Velocity S-wave (km/s) = 2.98401 3.57327 3.29185
# Velocity P-wave (km/s) = 5.26828 5.89073 5.58818
#
# Compressibility (1/GPa) = 0.02867252
#
# Stress axis : x y z
#
# Youngs Moduli (GPa) = 66.43652 42.74664 59.37286
#
# Poissons Ratio (x) = 0.32083 0.14119
# Poissons Ratio (y) = 0.49863 0.20333
# Poissons Ratio (z) = 0.15798 0.14639
#
# Static dielectric constant tensor:
#      x y z
#    x 3.933390 0.554950 1.167200 
#    y 0.554950 2.956320 -1.995240 
#    z 1.167200 -1.995240 -0.116720 
# 
# 
# High freq. dielectric constant tensor:
#      x y z
#    x 1.870080 -0.012550 0.007550 
#    y -0.012550 1.869960 0.001640 
#    z 0.007550 0.001640 1.866800 
# 
# From -- ./inp_files/314599.got.cif
#   From: 2010.06.25/outbox.cif.g09.slc.cpg/sg2_158_cif.got.tgz:314599.got - 2010.06.27 13:26:56.
