data_PCOD8008369
_publ_section_title
;
Structure prediction by ZEFSAII (Michael W. Deem and Ramdas Pophale) SiO2 
 PCOD8008369
Probable space group: P -1
;
_chemical_formula_sum "Si O2"
_cell_formula_units_Z 14
_cell_length_a 8.898626
_cell_length_b 22.780226
_cell_length_c 9.303582
_cell_angle_alpha 27.149631
_cell_angle_beta 51.196382
_cell_angle_gamma 51.899925
_cell_volume 661.225043
_symmetry_space_group_name_H-M "P -1"
_symmetry_group_IT_number 2
_symmetry_cell_setting 'triclinic'
loop_
_space_group_symop_operation_xyz
x,y,z
-x,-y,-z
loop_
_atom_site_type_symbol
_atom_site_label
_atom_site_fract_x
_atom_site_fract_y
_atom_site_fract_z
Si Si1 0.325424 0.486017 0.027916
Si Si2 0.972773 0.692066 0.718054
Si Si3 0.071650 0.277317 0.658649
Si Si4 0.407299 0.394739 0.870563
Si Si5 0.715944 0.160277 0.176237
Si Si6 0.287088 0.004830 0.176690
Si Si7 0.043275 0.043864 0.721714
O O1 0.168420 0.402482 0.371022
O O2 0.500000 0.500000 0.000000
O O3 0.434748 0.414295 0.981264
O O4 0.197461 0.624923 0.756890
O O5 0.943113 0.741127 0.464548
O O6 0.907829 0.810668 0.609248
O O7 0.825313 0.588302 0.060587
O O8 0.856611 0.271065 0.865637
O O9 0.206399 0.156316 0.917317
O O10 0.500000 0.500000 0.500000
O O11 0.502806 0.246531 0.093229
O O12 0.716106 0.071579 0.507814
O O13 0.779715 0.060070 0.225044
O O14 0.152551 0.942261 0.283847
O O15 0.500000 0.000000 0.000000
O O16 0.000000 0.000000 0.000000
#
# Coordination Sequence:
#
# PCOD8008369 Si02
#       7
#     2   2   2   2   2   2   2
#     4  11  25  43  68  96 126 174 226 276 323 387
#     4  11  22  42  69  94 133 173 217 271 328 391
#     4  10  20  43  65  91 131 179 211 265 333 387
#     4  11  24  45  66  94 132 178 220 266 328 392
#     4  11  23  42  69  98 134 172 220 266 335 395
#     4  11  23  41  65  94 134 177 211 270 333 391
#     4  11  23  41  68  97 132 171 222 270 325 390
#
# _framework density 21.172822
#
# number of rings (size 3 to 8) (size 9 to 14) (size 15 to 20)
#    0.000    1.143    2.857    6.857    4.000    0.571 
#    5.143    1.429    0.000    0.000    0.000    0.000 
#    0.000    0.000    0.000    0.000    0.000    0.000 
#
# Total GULP energy -173530.265185 kJ/mol
# GULP energy per Si atom -12395.018942 kJ/mol
# Density = 2.112463 g / cm^3
# Si number density = 21.172822 Si / 1000 Ang^3
#
#
#
# Elastic Constant Matrix: (Units=GPa)
#
#
# Indices 1 2 3 4 5 6 
#
# 1 103.3927 51.5675 28.0711 -4.4587 1.9738 -2.6907
# 2 51.5675 119.4754 34.6099 0.0142 5.7687 -1.3588
# 3 28.0711 34.6099 122.9662 8.0141 5.6595 3.4703
# 4 -4.4587 0.0142 8.0141 38.4587 -3.0051 -1.8568
# 5 1.9738 5.7687 5.6595 -3.0051 33.7003 -5.8679
# 6 -2.6907 -1.3588 3.4703 -1.8568 -5.8679 35.0905
#
#
#
# Elastic Compliance Matrix: (Units=1/GPa)
#
#
# Indices 1 2 3 4 5 6 
#
# 1 0.012741 -0.005035 -0.001688 0.001949 0.000779 0.001182
# 2 -0.005035 0.011161 -0.001912 -0.000293 -0.001321 -0.000001
# 3 -0.001688 -0.001912 0.009325 -0.002338 -0.001613 -0.001519
# 4 0.001949 -0.000293 -0.002338 0.027073 0.003148 0.002328
# 5 0.000779 -0.001321 -0.001613 0.003148 0.031377 0.005582
# 6 0.001182 -0.000001 -0.001519 0.002328 0.005582 0.029795
#
#
# Mechanical properties :
#
#
# Convention : Reuss Voigt Hill
#
# Bulk Modulus (GPa) = 62.66444 63.81460 63.23952
# Shear Modulus (GPa) = 34.70749 36.88894 35.79822
#
# Velocity S-wave (km/s) = 4.05315 4.17859 4.11635
# Velocity P-wave (km/s) = 7.18088 7.31342 7.24745
#
# Compressibility (1/GPa) = 0.01595801
#
# Stress axis : x y z
#
# Youngs Moduli (GPa) = 78.48607 89.60024 107.23635
#
# Poissons Ratio (x) = 0.45112 0.18098
# Poissons Ratio (y) = 0.39516 0.20504
# Poissons Ratio (z) = 0.13246 0.17132
#
# Static dielectric constant tensor:
#      x y z
#    x 3.675800 -0.091960 -0.137110 
#    y -0.091960 4.288410 -0.097480 
#    z -0.137110 -0.097480 4.022100 
# 
# 
# High freq. dielectric constant tensor:
#      x y z
#    x 1.819560 -0.016010 -0.004450 
#    y -0.016010 1.828780 -0.005210 
#    z -0.004450 -0.005210 1.845980 
# 
# From -- ./inp_files/202839.got.cif
#   From: 2010.06.25/outbox.cif.g09.slc.cpg/sg2_102_cif.got.tgz:202839.got - 2010.06.27 13:26:56.
