data_PCOD8008826
_publ_section_title
;
Structure prediction by ZEFSAII (Michael W. Deem and Ramdas Pophale) SiO2 
 PCOD8008826
Probable space group: P -1
;
_chemical_formula_sum "Si O2"
_cell_formula_units_Z 16
_cell_length_a 14.264183
_cell_length_b 12.650506
_cell_length_c 5.143509
_cell_angle_alpha 104.044598
_cell_angle_beta 64.168041
_cell_angle_gamma 102.490993
_cell_volume 803.904682
_symmetry_space_group_name_H-M "P -1"
_symmetry_group_IT_number 2
_symmetry_cell_setting 'triclinic'
loop_
_space_group_symop_operation_xyz
x,y,z
-x,-y,-z
loop_
_atom_site_type_symbol
_atom_site_label
_atom_site_fract_x
_atom_site_fract_y
_atom_site_fract_z
Si Si1 0.726233 0.223829 0.392139
Si Si2 0.538950 0.326247 0.837514
Si Si3 0.820364 0.556900 0.146795
Si Si4 0.627466 0.990823 0.536916
Si Si5 0.158911 0.688605 0.186323
Si Si6 0.055507 0.395394 0.453027
Si Si7 0.405113 0.468347 0.783797
Si Si8 0.428786 0.104205 0.951888
O O1 0.617532 0.276840 0.507392
O O2 0.784502 0.292378 0.596020
O O3 0.706336 0.098181 0.433064
O O4 0.792467 0.227793 0.047007
O O5 0.437597 0.370002 0.860736
O O6 0.490114 0.224448 0.016818
O O7 0.609316 0.422837 0.967400
O O8 0.859485 0.582865 0.406596
O O9 0.698323 0.573244 0.280957
O O10 0.832162 0.431581 0.002362
O O11 0.884482 0.635950 0.899860
O O12 0.633579 0.899784 0.249251
O O13 0.509102 0.015408 0.750840
O O14 0.655232 0.934253 0.741574
O O15 0.035502 0.699325 0.395183
O O16 0.000000 0.500000 0.500000
O O17 0.500000 0.500000 0.500000
#
# Coordination Sequence:
#
# PCOD8008826 Si02
#       8
#     2   2   2   2   2   2   2   2
#     4  11  20  32  54  80 110 139 175 217 265 320
#     4  10  23  35  51  76 108 152 184 217 256 305
#     4  11  21  36  52  73 108 145 182 220 255 309
#     4   9  18  31  49  75 100 135 173 215 264 316
#     4  11  19  32  52  77 105 138 173 215 271 319
#     4  10  21  35  53  75 102 142 181 218 267 319
#     4  11  24  36  53  76 109 149 192 220 249 299
#     4   9  18  33  50  69 103 140 176 213 258 312
#
# _framework density 19.902854999999999
#
# number of rings (size 3 to 8) (size 9 to 14) (size 15 to 20)
#    0.000    1.750    1.250    5.250    5.250    2.000 
#    0.000    0.000    0.000    0.000    0.000    0.000 
#    0.000   20.000    0.000    0.000    0.000    0.000 
#
# Total GULP energy -198261.633242 kJ/mol
# GULP energy per Si atom -12391.352078 kJ/mol
# Density = 1.985755 g / cm^3
# Si number density = 19.902855 Si / 1000 Ang^3
#
#
#
# Elastic Constant Matrix: (Units=GPa)
#
#
# Indices 1 2 3 4 5 6 
#
# 1 103.9884 22.2419 40.5855 -7.4145 6.9917 5.4322
# 2 22.2419 68.1204 31.4177 -17.4725 -1.7910 5.4302
# 3 40.5855 31.4177 114.7991 -37.7100 8.7672 -2.3464
# 4 -7.4145 -17.4725 -37.7100 30.3942 8.9317 0.4374
# 5 6.9917 -1.7910 8.7672 8.9317 36.7720 -4.8274
# 6 5.4322 5.4302 -2.3464 0.4374 -4.8274 13.3826
#
#
#
# Elastic Compliance Matrix: (Units=1/GPa)
#
#
# Indices 1 2 3 4 5 6 
#
# 1 0.012128 -0.002355 -0.005175 -0.004526 -0.000743 -0.004995
# 2 -0.002355 0.019043 -0.001392 0.009219 -0.001567 -0.007881
# 3 -0.005175 -0.001392 0.020253 0.025976 -0.009990 0.001764
# 4 -0.004526 0.009219 0.025976 0.076698 -0.024662 -0.008752
# 5 -0.000743 -0.001567 -0.009990 -0.024662 0.037402 0.013484
# 6 -0.004995 -0.007881 0.001764 -0.008752 0.013484 0.085408
#
#
# Mechanical properties :
#
#
# Convention : Reuss Voigt Hill
#
# Bulk Modulus (GPa) = 29.78025 52.82201 41.30113
# Shear Modulus (GPa) = 17.85904 28.95394 23.40649
#
# Velocity S-wave (km/s) = 2.99876 3.81827 3.43306
# Velocity P-wave (km/s) = 5.19475 6.78502 6.04243
#
# Compressibility (1/GPa) = 0.03357930
#
# Stress axis : x y z
#
# Youngs Moduli (GPa) = 82.45216 52.51382 49.37517
#
# Poissons Ratio (x) = 0.12369 0.25552
# Poissons Ratio (y) = 0.19421 0.06872
# Poissons Ratio (z) = 0.42670 0.07309
#
# Static dielectric constant tensor:
#      x y z
#    x 6.979310 -1.609780 -0.276720 
#    y -1.609780 4.609140 -0.092830 
#    z -0.276720 -0.092830 4.145780 
# 
# 
# High freq. dielectric constant tensor:
#      x y z
#    x 1.751700 0.021840 0.023440 
#    y 0.021840 1.744870 -0.028280 
#    z 0.023440 -0.028280 1.782450 
# 
# From -- ./inp_files/95118.got.cif
#   From: 2010.06.25/outbox.cif.g09.slc.cpg/sg2_48_cif.got.tgz:95118.got - 2010.06.27 13:26:56.
