data_PCOD8008149
_publ_section_title
;
Structure prediction by ZEFSAII (Michael W. Deem and Ramdas Pophale) SiO2 
 PCOD8008149
Probable space group: P -1
;
_chemical_formula_sum "Si O2"
_cell_formula_units_Z 16
_cell_length_a 14.869098
_cell_length_b 13.419721
_cell_length_c 9.822842
_cell_angle_alpha 101.145200
_cell_angle_beta 102.908128
_cell_angle_gamma 146.845853
_cell_volume 732.137075
_symmetry_space_group_name_H-M "P -1"
_symmetry_group_IT_number 2
_symmetry_cell_setting 'triclinic'
loop_
_space_group_symop_operation_xyz
x,y,z
-x,-y,-z
loop_
_atom_site_type_symbol
_atom_site_label
_atom_site_fract_x
_atom_site_fract_y
_atom_site_fract_z
Si Si1 0.695534 0.199758 0.503340
Si Si2 0.031136 0.821414 0.140468
Si Si3 0.450643 0.857547 0.846859
Si Si4 0.478485 0.397509 0.346467
Si Si5 0.181617 0.193123 0.987901
Si Si6 0.956783 0.286794 0.133005
Si Si7 0.042021 0.739633 0.414182
Si Si8 0.023245 0.187686 0.348600
O O1 0.590442 0.147106 0.321833
O O2 0.924312 0.490074 0.714262
O O3 0.777877 0.170891 0.483193
O O4 0.500000 0.000000 0.500000
O O5 0.822876 0.695403 0.038160
O O6 0.085452 0.837237 0.312124
O O7 0.268913 0.107965 0.232517
O O8 0.956159 0.650209 0.974705
O O9 0.227276 0.568704 0.747334
O O10 0.500000 0.000000 0.000000
O O11 0.674761 0.010808 0.967867
O O12 0.500000 0.500000 0.500000
O O13 0.713598 0.571633 0.450774
O O14 0.432384 0.412053 0.192899
O O15 0.115159 0.054836 0.801013
O O16 0.000000 0.000000 0.000000
O O17 0.039574 0.275692 0.246680
O O18 0.107307 0.886375 0.592548
#
# Coordination Sequence:
#
# PCOD8008149 Si02
#       8
#     2   2   2   2   2   2   2   2
#     4  12  28  48  71 103 136 179 235 285 337 414
#     4  11  24  43  68 103 137 175 237 280 336 410
#     4  12  25  46  70  95 144 180 222 288 347 404
#     4  11  20  42  73  97 134 183 228 280 335 400
#     4  10  20  42  66  99 135 173 230 276 325 411
#     4  12  24  45  74  97 133 185 235 275 339 413
#     4  12  27  45  67 105 141 179 226 285 354 402
#     4  12  23  42  73  98 135 181 226 280 343 405
#
# _framework density 21.853832000000001
#
# number of rings (size 3 to 8) (size 9 to 14) (size 15 to 20)
#    0.000    0.500    7.500    2.625    3.500    1.500 
#    0.000    0.625    0.000    0.000    0.000    0.000 
#    0.000    0.000    0.000    0.000    0.000    0.000 
#
# Total GULP energy -198457.679878 kJ/mol
# GULP energy per Si atom -12403.604992 kJ/mol
# Density = 2.180409 g / cm^3
# Si number density = 21.853832 Si / 1000 Ang^3
#
#
#
# Elastic Constant Matrix: (Units=GPa)
#
#
# Indices 1 2 3 4 5 6 
#
# 1 138.3036 14.7080 48.5255 2.1660 -1.8804 20.8163
# 2 14.7080 33.4749 17.5045 -0.5494 -0.0517 12.0655
# 3 48.5255 17.5045 122.8612 -0.7292 1.5850 11.5405
# 4 2.1660 -0.5494 -0.7292 27.6596 13.3954 2.9904
# 5 -1.8804 -0.0517 1.5850 13.3954 58.8290 -5.8402
# 6 20.8163 12.0655 11.5405 2.9904 -5.8402 28.9865
#
#
#
# Elastic Compliance Matrix: (Units=1/GPa)
#
#
# Indices 1 2 3 4 5 6 
#
# 1 0.009130 -0.000587 -0.003044 -0.000216 -0.000083 -0.005095
# 2 -0.000587 0.037291 -0.003685 0.003238 -0.002052 -0.014381
# 3 -0.003044 -0.003685 0.009918 0.000754 -0.000582 -0.000424
# 4 -0.000216 0.003238 0.000754 0.042155 -0.010411 -0.007940
# 5 -0.000083 -0.002052 -0.000582 -0.010411 0.020001 0.006249
# 6 -0.005095 -0.014381 -0.000424 -0.007940 0.006249 0.046391
#
#
# Mechanical properties :
#
#
# Convention : Reuss Voigt Hill
#
# Bulk Modulus (GPa) = 23.97607 50.67951 37.32779
# Shear Modulus (GPa) = 25.85040 37.35514 31.60277
#
# Velocity S-wave (km/s) = 3.44303 4.13887 3.80688
# Velocity P-wave (km/s) = 5.17695 6.78829 6.03663
#
# Compressibility (1/GPa) = 0.04170825
#
# Stress axis : x y z
#
# Youngs Moduli (GPa) = 109.52887 26.81590 100.82366
#
# Poissons Ratio (x) = 0.01574 0.30691
# Poissons Ratio (y) = 0.06430 0.37150
# Poissons Ratio (z) = 0.33341 0.09881
#
# Static dielectric constant tensor:
#      x y z
#    x 4.468360 -0.000190 -0.043640 
#    y -0.000190 3.638530 -0.003950 
#    z -0.043640 -0.003950 5.210960 
# 
# 
# High freq. dielectric constant tensor:
#      x y z
#    x 1.886990 0.006510 -0.000470 
#    y 0.006510 1.822940 -0.010470 
#    z -0.000470 -0.010470 1.878700 
# 
# From -- ./inp_files/312672.got.cif
#   From: 2010.06.25/outbox.cif.g09.slc.cpg/sg2_157_cif.got.tgz:312672.got - 2010.06.27 13:26:56.
