data_PCOD8008952
_publ_section_title
;
Structure prediction by ZEFSAII (Michael W. Deem and Ramdas Pophale) SiO2 
 PCOD8008952
Probable space group: P -1
;
_chemical_formula_sum "Si O2"
_cell_formula_units_Z 16
_cell_length_a 9.831561
_cell_length_b 9.804798
_cell_length_c 13.562658
_cell_angle_alpha 78.425639
_cell_angle_beta 95.963431
_cell_angle_gamma 41.765700
_cell_volume 786.094837
_symmetry_space_group_name_H-M "P -1"
_symmetry_group_IT_number 2
_symmetry_cell_setting 'triclinic'
loop_
_space_group_symop_operation_xyz
x,y,z
-x,-y,-z
loop_
_atom_site_type_symbol
_atom_site_label
_atom_site_fract_x
_atom_site_fract_y
_atom_site_fract_z
Si Si1 0.500883 0.203279 0.035969
Si Si2 0.573154 0.030734 0.853491
Si Si3 0.228551 0.701084 0.342831
Si Si4 0.023739 0.094172 0.902154
Si Si5 0.958902 0.369022 0.008639
Si Si6 0.679147 0.714651 0.392277
Si Si7 0.923474 0.785241 0.449949
Si Si8 0.376013 0.797134 0.495683
O O1 0.475635 0.095760 0.126754
O O2 0.723854 0.110692 0.090388
O O3 0.284155 0.476146 0.991728
O O4 0.490236 0.162206 0.929391
O O5 0.833911 0.858547 0.880741
O O6 0.446562 0.206910 0.730588
O O7 0.253641 0.818228 0.393605
O O8 0.467063 0.432829 0.396707
O O9 0.151463 0.800699 0.212183
O O10 0.038768 0.757039 0.367102
O O11 0.977666 0.287737 0.911830
O O12 0.000000 0.000000 0.000000
O O13 0.000000 0.500000 0.000000
O O14 0.736440 0.830239 0.391700
O O15 0.525881 0.799304 0.461316
O O16 0.894663 0.444229 0.439503
O O17 0.813036 0.992245 0.478148
#
# Coordination Sequence:
#
# PCOD8008952 Si02
#       8
#     2   2   2   2   2   2   2   2
#     4   9  19  37  56  84 119 161 203 238 298 369
#     4   9  18  34  58  86 122 157 193 252 303 354
#     4  10  23  41  62  84 123 163 203 246 306 367
#     4  11  24  39  60  89 129 159 198 258 303 358
#     4   9  20  38  60  86 116 157 209 243 297 370
#     4  10  21  35  60  92 125 148 199 262 305 353
#     4  10  21  40  60  91 119 156 207 249 306 366
#     4  10  22  40  62  87 118 163 204 248 302 366
#
# _framework density 20.353777999999998
#
# number of rings (size 3 to 8) (size 9 to 14) (size 15 to 20)
#    0.000    2.250    0.000    2.250    3.500    4.500 
#    0.000    0.000    0.000    0.000    0.000    0.000 
#    0.000    0.000    0.000    0.000    0.000    0.000 
#
# Total GULP energy -198342.720161 kJ/mol
# GULP energy per Si atom -12396.420010 kJ/mol
# Density = 2.030745 g / cm^3
# Si number density = 20.353778 Si / 1000 Ang^3
#
#
#
# Elastic Constant Matrix: (Units=GPa)
#
#
# Indices 1 2 3 4 5 6 
#
# 1 83.9341 28.6378 23.8094 -3.8858 13.7008 -8.5731
# 2 28.6378 117.6499 44.2097 5.4718 11.0663 -12.7736
# 3 23.8094 44.2097 126.1669 -14.7788 22.9162 -3.8344
# 4 -3.8858 5.4718 -14.7788 16.6504 -3.0017 6.5354
# 5 13.7008 11.0663 22.9162 -3.0017 31.1146 -0.2954
# 6 -8.5731 -12.7736 -3.8344 6.5354 -0.2954 35.3593
#
#
#
# Elastic Compliance Matrix: (Units=1/GPa)
#
#
# Indices 1 2 3 4 5 6 
#
# 1 0.014026 -0.002639 -0.000593 0.002013 -0.004588 0.001973
# 2 -0.002639 0.012057 -0.004733 -0.010945 -0.000647 0.005220
# 3 -0.000593 -0.004733 0.012098 0.012225 -0.005813 -0.002850
# 4 0.002013 -0.010945 0.012225 0.082082 0.001757 -0.017296
# 5 -0.004588 -0.000647 -0.005813 0.001757 0.038822 -0.001977
# 6 0.001973 0.005220 -0.002850 -0.017296 -0.001977 0.033516
#
#
# Mechanical properties :
#
#
# Convention : Reuss Voigt Hill
#
# Bulk Modulus (GPa) = 44.94173 57.89606 51.41890
# Shear Modulus (GPa) = 23.15368 32.03114 27.59241
#
# Velocity S-wave (km/s) = 3.37643 3.97132 3.68590
# Velocity P-wave (km/s) = 6.10972 7.03812 6.59029
#
# Compressibility (1/GPa) = 0.02225103
#
# Stress axis : x y z
#
# Youngs Moduli (GPa) = 71.29400 82.93732 82.66081
#
# Poissons Ratio (x) = 0.21889 0.04903
# Poissons Ratio (y) = 0.18816 0.39122
# Poissons Ratio (z) = 0.04228 0.39252
#
# Static dielectric constant tensor:
#      x y z
#    x 3.888090 -0.181000 0.115660 
#    y -0.181000 3.852970 -0.084480 
#    z 0.115660 -0.084480 3.422590 
# 
# 
# High freq. dielectric constant tensor:
#      x y z
#    x 1.805510 -0.011370 0.011950 
#    y -0.011370 1.793570 -0.004650 
#    z 0.011950 -0.004650 1.775380 
# 
# From -- ./inp_files/381984.got.cif
#   From: 2010.06.25/outbox.cif.g09.slc.cpg/sg2_191_cif.got.tgz:381984.got - 2010.06.27 13:26:56.
