data_PCOD8008872
_publ_section_title
;
Structure prediction by ZEFSAII (Michael W. Deem and Ramdas Pophale) SiO2 
 PCOD8008872
Probable space group: P -1
;
_chemical_formula_sum "Si O2"
_cell_formula_units_Z 16
_cell_length_a 16.765975
_cell_length_b 12.477034
_cell_length_c 23.482231
_cell_angle_alpha 17.841482
_cell_angle_beta 30.162442
_cell_angle_gamma 37.003408
_cell_volume 746.631416
_symmetry_space_group_name_H-M "P -1"
_symmetry_group_IT_number 2
_symmetry_cell_setting 'triclinic'
loop_
_space_group_symop_operation_xyz
x,y,z
-x,-y,-z
loop_
_atom_site_type_symbol
_atom_site_label
_atom_site_fract_x
_atom_site_fract_y
_atom_site_fract_z
Si Si1 0.339140 0.818559 0.265123
Si Si2 0.762515 0.293458 0.119373
Si Si3 0.396459 0.396901 0.848268
Si Si4 0.948551 0.248783 0.246642
Si Si5 0.033849 0.319016 0.688622
Si Si6 0.255004 0.387959 0.243717
Si Si7 0.405079 0.336502 0.056187
Si Si8 0.098650 0.083046 0.125019
O O1 0.440606 0.505250 0.339979
O O2 0.152157 0.695670 0.427313
O O3 0.423624 0.166117 0.003635
O O4 0.365382 0.942235 0.251978
O O5 0.669348 0.259794 0.256663
O O6 0.647450 0.349537 0.109292
O O7 0.858522 0.970585 0.210512
O O8 0.887071 0.665665 0.860928
O O9 0.275930 0.137988 0.013033
O O10 0.970529 0.097159 0.246806
O O11 0.813264 0.987608 0.495284
O O12 0.896988 0.629202 0.074228
O O13 0.881562 0.355445 0.804402
O O14 0.963403 0.279451 0.687715
O O15 0.405881 0.573433 0.093461
O O16 0.302993 0.313116 0.188328
#
# Coordination Sequence:
#
# PCOD8008872 Si02
#       8
#     2   2   2   2   2   2   2   2
#     4  10  21  35  56  85 114 150 193 232 280 337
#     4   9  20  38  58  85 117 146 184 232 284 338
#     4   9  18  35  56  81 119 154 182 230 284 334
#     4   9  19  35  58  84 111 149 187 227 280 332
#     4  11  22  34  57  89 114 146 189 231 283 338
#     4  11  23  39  61  82 107 152 198 236 281 331
#     4  10  23  42  58  79 113 151 195 239 279 332
#     4   9  18  34  54  83 119 144 178 230 281 337
#
# _framework density 21.429583999999998
#
# number of rings (size 3 to 8) (size 9 to 14) (size 15 to 20)
#    0.000    2.250    0.000    3.750    0.000    9.000 
#    0.000    1.250    0.000    8.250    0.000    0.000 
#    0.000    0.000    0.000    0.000    0.000    0.000 
#
# Total GULP energy -198212.724794 kJ/mol
# GULP energy per Si atom -12388.295300 kJ/mol
# Density = 2.138081 g / cm^3
# Si number density = 21.429584 Si / 1000 Ang^3
#
#
#
# Elastic Constant Matrix: (Units=GPa)
#
#
# Indices 1 2 3 4 5 6 
#
# 1 103.2864 52.6677 28.2616 11.1742 -17.3798 8.3840
# 2 52.6677 143.9212 43.0049 14.7167 -11.3274 -2.4256
# 3 28.2616 43.0049 48.5302 13.8316 -12.2520 7.6392
# 4 11.1742 14.7167 13.8316 34.0315 -5.7300 -1.7560
# 5 -17.3798 -11.3274 -12.2520 -5.7300 29.7183 -4.8407
# 6 8.3840 -2.4256 7.6392 -1.7560 -4.8407 32.4167
#
#
#
# Elastic Compliance Matrix: (Units=1/GPa)
#
#
# Indices 1 2 3 4 5 6 
#
# 1 0.013390 -0.003664 -0.002668 -0.001058 0.004730 -0.002460
# 2 -0.003664 0.010712 -0.008099 -0.000098 -0.000843 0.003527
# 3 -0.002668 -0.008099 0.034803 -0.009027 0.006722 -0.007603
# 4 -0.001058 -0.000098 -0.009027 0.034187 0.002978 0.004690
# 5 0.004730 -0.000843 0.006722 0.002978 0.039970 0.003260
# 6 -0.002460 0.003527 -0.007603 0.004690 0.003260 0.034281
#
#
# Mechanical properties :
#
#
# Convention : Reuss Voigt Hill
#
# Bulk Modulus (GPa) = 33.28531 60.40068 46.84299
# Shear Modulus (GPa) = 24.24598 30.68687 27.46642
#
# Velocity S-wave (km/s) = 3.36732 3.78826 3.58398
# Velocity P-wave (km/s) = 5.53936 6.88342 6.24764
#
# Compressibility (1/GPa) = 0.03004329
#
# Stress axis : x y z
#
# Youngs Moduli (GPa) = 74.68187 93.35208 28.73299
#
# Poissons Ratio (x) = 0.34202 0.07667
# Poissons Ratio (y) = 0.27362 0.23271
# Poissons Ratio (z) = 0.19927 0.75606
#
# Static dielectric constant tensor:
#      x y z
#    x 3.825500 -0.051530 -0.296130 
#    y -0.051530 4.248290 -0.055840 
#    z -0.296130 -0.055840 3.637750 
# 
# 
# High freq. dielectric constant tensor:
#      x y z
#    x 1.834010 -0.006650 -0.027600 
#    y -0.006650 1.850510 -0.004020 
#    z -0.027600 -0.004020 1.817540 
# 
# From -- ./inp_files/613157.got.cif
#   From: 2010.06.25/outbox.cif.g09.slc.cpg/sg2_307_cif.got.tgz:613157.got - 2010.06.27 13:26:56.
