data_PCOD8008670
_publ_section_title
;
Structure prediction by ZEFSAII (Michael W. Deem and Ramdas Pophale) SiO2 
 PCOD8008670
Probable space group: P -1
;
_chemical_formula_sum "Si O2"
_cell_formula_units_Z 12
_cell_length_a 5.268182
_cell_length_b 20.121130
_cell_length_c 12.008430
_cell_angle_alpha 147.559350
_cell_angle_beta 77.868433
_cell_angle_gamma 89.682716
_cell_volume 625.662555
_symmetry_space_group_name_H-M "P -1"
_symmetry_group_IT_number 2
_symmetry_cell_setting 'triclinic'
loop_
_space_group_symop_operation_xyz
x,y,z
-x,-y,-z
loop_
_atom_site_type_symbol
_atom_site_label
_atom_site_fract_x
_atom_site_fract_y
_atom_site_fract_z
Si Si1 0.615716 0.162882 0.290797
Si Si2 0.629351 0.847435 0.237882
Si Si3 0.356303 0.445991 0.777511
Si Si4 0.840322 0.961252 0.797427
Si Si5 0.881892 0.085735 0.741606
Si Si6 0.270139 0.395184 0.965446
O O1 0.490278 0.320382 0.507322
O O2 0.379677 0.112860 0.290781
O O3 0.872641 0.131396 0.306903
O O4 0.717742 0.098128 0.069993
O O5 0.435959 0.821369 0.121751
O O6 0.934741 0.821619 0.121904
O O7 0.500000 0.000000 0.500000
O O8 0.645462 0.754136 0.210018
O O9 0.551937 0.533229 0.882771
O O10 0.054912 0.529777 0.877070
O O11 0.338908 0.387907 0.818952
O O12 0.902107 0.988959 0.705271
O O13 0.000000 0.000000 0.500000
#
# Coordination Sequence:
#
# PCOD8008670 Si02
#       6
#     2   2   2   2   2   2
#     4  10  21  36  59  80 113 154 182 238 278 323
#     4  10  21  35  53  82 109 150 175 234 281 325
#     4  10  21  35  57  79 109 157 174 240 271 330
#     4  10  21  36  55  87 115 142 193 231 279 334
#     4  10  21  32  53  83 110 148 172 231 286 323
#     4  10  21  36  53  83 114 139 196 220 283 333
#
# _framework density 19.179669000000001
#
# number of rings (size 3 to 8) (size 9 to 14) (size 15 to 20)
#    0.000    2.000    0.000    3.000    9.333    0.000 
#    0.000    0.000    0.000    6.000    0.000    0.000 
#    0.000    0.000    0.000    0.000    0.000    0.000 
#
# Total GULP energy -148784.374389 kJ/mol
# GULP energy per Si atom -12398.697866 kJ/mol
# Density = 1.913602 g / cm^3
# Si number density = 19.179669 Si / 1000 Ang^3
#
#
#
# Elastic Constant Matrix: (Units=GPa)
#
#
# Indices 1 2 3 4 5 6 
#
# 1 170.9281 28.1667 30.5392 9.4831 -5.8324 14.3323
# 2 28.1667 97.1891 30.5532 12.0438 -2.4127 4.2841
# 3 30.5392 30.5532 96.6744 17.6038 -7.6848 -0.0044
# 4 9.4831 12.0438 17.6038 30.0134 -3.1443 0.0994
# 5 -5.8324 -2.4127 -7.6848 -3.1443 13.5999 6.9859
# 6 14.3323 4.2841 -0.0044 0.0994 6.9859 23.9803
#
#
#
# Elastic Compliance Matrix: (Units=1/GPa)
#
#
# Indices 1 2 3 4 5 6 
#
# 1 0.006909 -0.001175 -0.001373 -0.000409 0.004582 -0.005253
# 2 -0.001175 0.011944 -0.002904 -0.002704 0.000093 -0.001448
# 3 -0.001373 -0.002904 0.013111 -0.005559 0.005079 -0.000115
# 4 -0.000409 -0.002704 -0.005559 0.038386 0.005630 -0.001073
# 5 0.004582 0.000093 0.005079 0.005630 0.095383 -0.030565
# 6 -0.005253 -0.001448 -0.000115 -0.001073 -0.030565 0.054008
#
#
# Mechanical properties :
#
#
# Convention : Reuss Voigt Hill
#
# Bulk Modulus (GPa) = 47.48106 60.36778 53.92442
# Shear Modulus (GPa) = 21.03807 31.88754 26.46281
#
# Velocity S-wave (km/s) = 3.31553 4.08189 3.71850
# Velocity P-wave (km/s) = 6.28225 7.33205 6.82736
#
# Compressibility (1/GPa) = 0.02106103
#
# Stress axis : x y z
#
# Youngs Moduli (GPa) = 144.74412 83.72547 76.26994
#
# Poissons Ratio (x) = 0.09836 0.10470
# Poissons Ratio (y) = 0.17004 0.22149
# Poissons Ratio (z) = 0.19869 0.24314
#
# Static dielectric constant tensor:
#      x y z
#    x 5.365200 0.347960 -0.259030 
#    y 0.347960 3.260500 0.054720 
#    z -0.259030 0.054720 3.224330 
# 
# 
# High freq. dielectric constant tensor:
#      x y z
#    x 1.786420 0.005390 0.000960 
#    y 0.005390 1.723810 0.013790 
#    z 0.000960 0.013790 1.714040 
# 
# From -- ./inp_files/23845.got.cif
#   From: 2010.06.25/outbox.cif.g09.slc.cpg/sg2_12_cif.got.tgz:23845.got - 2010.06.27 13:26:56.
