data_PCOD8008947
_publ_section_title
;
Structure prediction by ZEFSAII (Michael W. Deem and Ramdas Pophale) SiO2 
 PCOD8008947
Probable space group: P -1
;
_chemical_formula_sum "Si O2"
_cell_formula_units_Z 14
_cell_length_a 9.549103
_cell_length_b 13.680323
_cell_length_c 9.879198
_cell_angle_alpha 125.276709
_cell_angle_beta 138.898886
_cell_angle_gamma 59.355483
_cell_volume 685.906457
_symmetry_space_group_name_H-M "P -1"
_symmetry_group_IT_number 2
_symmetry_cell_setting 'triclinic'
loop_
_space_group_symop_operation_xyz
x,y,z
-x,-y,-z
loop_
_atom_site_type_symbol
_atom_site_label
_atom_site_fract_x
_atom_site_fract_y
_atom_site_fract_z
Si Si1 0.517832 0.855925 0.889376
Si Si2 0.010034 0.362670 0.357493
Si Si3 0.047070 0.241372 0.020351
Si Si4 0.611970 0.830618 0.459419
Si Si5 0.062121 0.001687 0.228792
Si Si6 0.275852 0.833701 0.442975
Si Si7 0.327630 0.801504 0.971078
O O1 0.319844 0.824597 0.626700
O O2 0.506417 0.790844 0.973970
O O3 0.734672 0.795649 0.929845
O O4 0.500000 0.000000 0.000000
O O5 0.204020 0.284501 0.517747
O O6 0.000000 0.500000 0.500000
O O7 0.780272 0.320495 0.191654
O O8 0.054449 0.350211 0.217649
O O9 0.857153 0.272495 0.793813
O O10 0.983417 0.126884 0.976051
O O11 0.725398 0.952164 0.640045
O O12 0.502296 0.825074 0.521045
O O13 0.437726 0.831248 0.214599
O O14 0.846990 0.091797 0.128105
O O15 0.124604 0.962263 0.398967
#
# Coordination Sequence:
#
# PCOD8008947 Si02
#       7
#     2   2   2   2   2   2   2
#     4  12  22  37  60  96 136 167 188 243 312 384
#     4  11  25  45  65  88 115 162 225 270 295 351
#     4  10  22  38  61  90 126 162 204 248 300 371
#     4  11  21  38  64  90 120 163 206 255 314 364
#     4   9  21  32  58  90 129 156 199 238 303 373
#     4  10  21  35  60  90 128 168 198 233 314 373
#     4  11  23  40  61  97 129 156 206 256 307 367
#
# _framework density 20.410945000000002
#
# number of rings (size 3 to 8) (size 9 to 14) (size 15 to 20)
#    0.857    0.571    4.286    1.286    0.000   11.429 
#    0.000    0.714    0.000    1.714    0.000    0.000 
#    0.000    0.000    0.000    0.000    0.000    0.000 
#
# Total GULP energy -173435.783207 kJ/mol
# GULP energy per Si atom -12388.270229 kJ/mol
# Density = 2.036449 g / cm^3
# Si number density = 20.410945 Si / 1000 Ang^3
#
#
#
# Elastic Constant Matrix: (Units=GPa)
#
#
# Indices 1 2 3 4 5 6 
#
# 1 85.2801 12.3331 36.0756 7.3516 -1.2539 -4.2831
# 2 12.3331 44.5639 24.5249 17.9962 -0.7668 -4.4392
# 3 36.0756 24.5249 101.3559 8.7040 -2.5467 -5.4939
# 4 7.3516 17.9962 8.7040 33.8807 -3.6079 -3.6080
# 5 -1.2539 -0.7668 -2.5467 -3.6079 31.3130 -3.6623
# 6 -4.2831 -4.4392 -5.4939 -3.6080 -3.6623 18.9096
#
#
#
# Elastic Compliance Matrix: (Units=1/GPa)
#
#
# Indices 1 2 3 4 5 6 
#
# 1 0.013962 -0.000638 -0.004618 -0.001330 0.000185 0.001453
# 2 -0.000638 0.032468 -0.006203 -0.015376 -0.001214 0.002507
# 3 -0.004618 -0.006203 0.013024 0.001249 0.001068 0.001727
# 4 -0.001330 -0.015376 0.001249 0.038653 0.004679 0.004733
# 5 0.000185 -0.001214 0.001068 0.004679 0.033408 0.007430
# 6 0.001453 0.002507 0.001727 0.004733 0.007430 0.056645
#
#
# Mechanical properties :
#
#
# Convention : Reuss Voigt Hill
#
# Bulk Modulus (GPa) = 27.36967 41.89634 34.63301
# Shear Modulus (GPa) = 22.39574 27.37172 24.88373
#
# Velocity S-wave (km/s) = 3.31606 3.66598 3.49540
# Velocity P-wave (km/s) = 5.30095 6.20405 5.77019
#
# Compressibility (1/GPa) = 0.03653679
#
# Stress axis : x y z
#
# Youngs Moduli (GPa) = 71.62300 30.79924 76.78123
#
# Poissons Ratio (x) = 0.01964 0.35454
# Poissons Ratio (y) = 0.04568 0.47631
# Poissons Ratio (z) = 0.33072 0.19106
#
# Static dielectric constant tensor:
#      x y z
#    x 3.794960 0.004510 0.201950 
#    y 0.004510 3.234050 -0.210150 
#    z 0.201950 -0.210150 3.983480 
# 
# 
# High freq. dielectric constant tensor:
#      x y z
#    x 1.801080 -0.008780 0.013910 
#    y -0.008780 1.736590 -0.021600 
#    z 0.013910 -0.021600 1.818130 
# 
# From -- ./inp_files/194235.got.cif
#   From: 2010.06.25/outbox.cif.g09.slc.cpg/sg2_98_cif.got.tgz:194235.got - 2010.06.27 13:26:56.
