data_PCOD8008754
_publ_section_title
;
Structure prediction by ZEFSAII (Michael W. Deem and Ramdas Pophale) SiO2 
 PCOD8008754
Probable space group: P -1
;
_chemical_formula_sum "Si O2"
_cell_formula_units_Z 16
_cell_length_a 5.289572
_cell_length_b 26.133447
_cell_length_c 14.242149
_cell_angle_alpha 31.417805
_cell_angle_beta 79.416735
_cell_angle_gamma 64.812961
_cell_volume 858.812168
_symmetry_space_group_name_H-M "P -1"
_symmetry_group_IT_number 2
_symmetry_cell_setting 'triclinic'
loop_
_space_group_symop_operation_xyz
x,y,z
-x,-y,-z
loop_
_atom_site_type_symbol
_atom_site_label
_atom_site_fract_x
_atom_site_fract_y
_atom_site_fract_z
Si Si1 0.040487 0.491093 0.861036
Si Si2 0.142916 0.175776 0.869989
Si Si3 0.669742 0.680066 0.735026
Si Si4 0.159032 0.601962 0.358867
Si Si5 0.858365 0.032986 0.061097
Si Si6 0.220604 0.661659 0.514202
Si Si7 0.153143 0.488035 0.360446
Si Si8 0.923412 0.210447 0.496665
O O1 0.215063 0.553344 0.723160
O O2 0.776865 0.573550 0.822307
O O3 0.916088 0.465103 0.815099
O O4 0.266495 0.369067 0.086461
O O5 0.939993 0.265656 0.826713
O O6 0.075860 0.239998 0.673140
O O7 0.498493 0.120883 0.946359
O O8 0.035740 0.084563 0.021104
O O9 0.308574 0.759767 0.620538
O O10 0.833866 0.751557 0.596735
O O11 0.500000 0.500000 0.500000
O O12 0.042829 0.592904 0.277660
O O13 0.008355 0.579838 0.493644
O O14 0.902702 0.925357 0.285830
O O15 0.000000 0.000000 0.000000
O O16 0.493586 0.610035 0.502006
O O17 0.274968 0.723816 0.500614
#
# Coordination Sequence:
#
# PCOD8008754 Si02
#       8
#     2   2   2   2   2   2   2   2
#     4  10  21  34  56  87 120 160 194 237 298 371
#     4  12  24  39  57  89 120 160 193 247 286 358
#     4  10  23  36  59  85 122 158 198 244 299 348
#     4  11  23  35  57  87 121 166 191 244 299 363
#     4  12  26  38  61  85 117 163 213 233 299 352
#     4  11  21  33  60  83 128 155 196 234 300 352
#     4  11  20  36  56  84 126 157 198 230 299 366
#     4  11  23  39  57  84 120 160 201 247 286 347
#
# _framework density 18.630382999999998
#
# number of rings (size 3 to 8) (size 9 to 14) (size 15 to 20)
#    0.000    1.000    5.000    1.875    7.000    1.500 
#    0.000    0.000    0.000    0.000    0.000    5.250 
#    0.000    0.000    0.000    0.000    0.000    0.000 
#
# Total GULP energy -198311.666952 kJ/mol
# GULP energy per Si atom -12394.479185 kJ/mol
# Density = 1.858798 g / cm^3
# Si number density = 18.630383 Si / 1000 Ang^3
#
#
#
# Elastic Constant Matrix: (Units=GPa)
#
#
# Indices 1 2 3 4 5 6 
#
# 1 85.9201 18.0218 35.3591 -7.0236 6.3555 1.1020
# 2 18.0218 73.2706 36.7706 -1.4466 0.5174 11.6695
# 3 35.3591 36.7706 116.8302 5.5117 2.9868 6.3078
# 4 -7.0236 -1.4466 5.5117 32.1403 3.9104 3.3881
# 5 6.3555 0.5174 2.9868 3.9104 36.6058 -4.8926
# 6 1.1020 11.6695 6.3078 3.3881 -4.8926 31.6847
#
#
#
# Elastic Compliance Matrix: (Units=1/GPa)
#
#
# Indices 1 2 3 4 5 6 
#
# 1 0.014066 -0.001381 -0.003946 0.003998 -0.002530 -0.000013
# 2 -0.001381 0.017353 -0.004815 0.001975 -0.000584 -0.005686
# 3 -0.003946 -0.004815 0.011410 -0.003052 0.000147 -0.000012
# 4 0.003998 0.001975 -0.003052 0.033652 -0.004680 -0.004580
# 5 -0.002530 -0.000584 0.000147 -0.004680 0.028954 0.005245
# 6 -0.000013 -0.005686 -0.000012 -0.004580 0.005245 0.034958
#
#
# Mechanical properties :
#
#
# Convention : Reuss Voigt Hill
#
# Bulk Modulus (GPa) = 44.35377 50.70264 47.52820
# Shear Modulus (GPa) = 29.72812 32.47745 31.10278
#
# Velocity S-wave (km/s) = 3.99893 4.17976 4.09034
# Velocity P-wave (km/s) = 6.72167 7.11111 6.91913
#
# Compressibility (1/GPa) = 0.02254600
#
# Stress axis : x y z
#
# Youngs Moduli (GPa) = 71.09216 57.62807 87.64246
#
# Poissons Ratio (x) = 0.07956 0.34583
# Poissons Ratio (y) = 0.09815 0.42199
# Poissons Ratio (z) = 0.28052 0.27748
#
# Static dielectric constant tensor:
#      x y z
#    x 3.392240 0.377940 -0.241510 
#    y 0.377940 3.304800 0.289850 
#    z -0.241510 0.289850 2.932020 
# 
# 
# High freq. dielectric constant tensor:
#      x y z
#    x 1.737970 0.010510 0.004120 
#    y 0.010510 1.699220 0.000610 
#    z 0.004120 0.000610 1.708360 
# 
# From -- ./inp_files/83204.got.cif
#   From: 2010.06.25/outbox.cif.g09.slc.cpg/sg2_42_cif.got.tgz:83204.got - 2010.06.27 13:26:56.
