data_PCOD8008965
_publ_section_title
;
Structure prediction by ZEFSAII (Michael W. Deem and Ramdas Pophale) SiO2 
 PCOD8008965
Probable space group: P -1
;
_chemical_formula_sum "Si O2"
_cell_formula_units_Z 14
_cell_length_a 12.183158
_cell_length_b 12.725364
_cell_length_c 12.252060
_cell_angle_alpha 139.283475
_cell_angle_beta 144.297128
_cell_angle_gamma 36.516998
_cell_volume 628.568736
_symmetry_space_group_name_H-M "P -1"
_symmetry_group_IT_number 2
_symmetry_cell_setting 'triclinic'
loop_
_space_group_symop_operation_xyz
x,y,z
-x,-y,-z
loop_
_atom_site_type_symbol
_atom_site_label
_atom_site_fract_x
_atom_site_fract_y
_atom_site_fract_z
Si Si1 0.030597 0.026323 0.881898
Si Si2 0.032007 0.582087 0.249966
Si Si3 0.874651 0.326585 0.831277
Si Si4 0.358723 0.345119 0.680593
Si Si5 0.254131 0.108776 0.566609
Si Si6 0.217715 0.715797 0.932056
Si Si7 0.542059 0.713578 0.527501
O O1 0.056423 0.133359 0.883035
O O2 0.233589 0.828991 0.927244
O O3 0.839634 0.981769 0.664899
O O4 0.982763 0.155151 0.051051
O O5 0.057404 0.689070 0.251581
O O6 0.270279 0.413954 0.337600
O O7 0.927961 0.733062 0.380275
O O8 0.874782 0.500155 0.027863
O O9 0.634995 0.354578 0.671572
O O10 0.367067 0.191289 0.646474
O O11 0.170046 0.553403 0.723796
O O12 0.343167 0.304807 0.510622
O O13 0.574006 0.360017 0.883136
O O14 0.430990 0.933162 0.643135
#
# Coordination Sequence:
#
# PCOD8008965 Si02
#       7
#     2   2   2   2   2   2   2
#     4  10  21  38  60  91 125 162 209 260 314 369
#     4  11  25  44  69  89 129 171 209 270 313 366
#     4  10  23  46  65  93 126 165 220 259 312 384
#     4  11  22  39  58  93 131 160 208 256 315 384
#     4  11  24  40  61  98 128 162 217 258 311 388
#     4  10  21  35  61  88 122 171 195 254 320 370
#     4  11  24  43  66  97 127 170 206 267 316 373
#
# _framework density 22.272825000000001
#
# number of rings (size 3 to 8) (size 9 to 14) (size 15 to 20)
#    0.000    1.429    2.857    2.571    4.000    5.714 
#    0.000    4.286    0.000    0.000    0.000    0.000 
#    0.000    0.000    0.000    0.000    0.000    0.000 
#
# Total GULP energy -173505.479937 kJ/mol
# GULP energy per Si atom -12393.248567 kJ/mol
# Density = 2.222213 g / cm^3
# Si number density = 22.272825 Si / 1000 Ang^3
#
#
#
# Elastic Constant Matrix: (Units=GPa)
#
#
# Indices 1 2 3 4 5 6 
#
# 1 94.3623 38.6755 35.1461 7.3339 2.9429 25.2288
# 2 38.6755 126.5245 25.2475 12.6675 -2.6773 25.6439
# 3 35.1461 25.2475 66.1928 18.0963 0.5306 3.4800
# 4 7.3339 12.6675 18.0963 34.3192 6.8388 -6.3940
# 5 2.9429 -2.6773 0.5306 6.8388 24.0928 2.4923
# 6 25.2288 25.6439 3.4800 -6.3940 2.4923 40.8522
#
#
#
# Elastic Compliance Matrix: (Units=1/GPa)
#
#
# Indices 1 2 3 4 5 6 
#
# 1 0.016424 -0.001841 -0.007522 -0.000186 -0.001133 -0.008306
# 2 -0.001841 0.010569 -0.001503 -0.004560 0.003377 -0.006289
# 3 -0.007522 -0.001503 0.022209 -0.009737 0.002820 0.002001
# 4 -0.000186 -0.004560 -0.009737 0.040612 -0.012930 0.010952
# 5 -0.001133 0.003377 0.002820 -0.012930 0.046301 -0.006509
# 6 -0.008306 -0.006289 0.002001 0.010952 -0.006509 0.035497
#
#
# Mechanical properties :
#
#
# Convention : Reuss Voigt Hill
#
# Bulk Modulus (GPa) = 36.40487 53.91308 45.15898
# Shear Modulus (GPa) = 24.69104 32.38686 28.53895
#
# Velocity S-wave (km/s) = 3.33314 3.81740 3.58346
# Velocity P-wave (km/s) = 5.58512 6.60972 6.11890
#
# Compressibility (1/GPa) = 0.02746885
#
# Stress axis : x y z
#
# Youngs Moduli (GPa) = 60.88525 94.61547 45.02683
#
# Poissons Ratio (x) = 0.17423 0.33869
# Poissons Ratio (y) = 0.11212 0.06770
# Poissons Ratio (z) = 0.45797 0.14225
#
# Static dielectric constant tensor:
#      x y z
#    x 3.770430 0.252780 -0.111360 
#    y 0.252780 4.565320 0.172250 
#    z -0.111360 0.172250 4.025490 
# 
# 
# High freq. dielectric constant tensor:
#      x y z
#    x 1.850670 0.021580 -0.001500 
#    y 0.021580 1.892610 0.010190 
#    z -0.001500 0.010190 1.878360 
# 
# From -- ./inp_files/177144.got.cif
#   From: 2010.06.25/outbox.cif.g09.slc.cpg/sg2_89_cif.got.tgz:177144.got - 2010.06.27 13:26:56.
