data_PCOD8008271
_publ_section_title
;
Structure prediction by ZEFSAII (Michael W. Deem and Ramdas Pophale) SiO2 
 PCOD8008271
Probable space group: P -1
;
_chemical_formula_sum "Si O2"
_cell_formula_units_Z 16
_cell_length_a 21.521151
_cell_length_b 6.837068
_cell_length_c 11.759850
_cell_angle_alpha 63.736869
_cell_angle_beta 42.485879
_cell_angle_gamma 96.603962
_cell_volume 717.825236
_symmetry_space_group_name_H-M "P -1"
_symmetry_group_IT_number 2
_symmetry_cell_setting 'triclinic'
loop_
_space_group_symop_operation_xyz
x,y,z
-x,-y,-z
loop_
_atom_site_type_symbol
_atom_site_label
_atom_site_fract_x
_atom_site_fract_y
_atom_site_fract_z
Si Si1 0.754023 0.484848 0.779112
Si Si2 0.308131 0.421211 0.934646
Si Si3 0.433667 0.355896 0.248191
Si Si4 0.962288 0.186808 0.657601
Si Si5 0.176737 0.155134 0.627290
Si Si6 0.107769 0.221807 0.941882
Si Si7 0.549820 0.763649 0.199046
Si Si8 0.634204 0.219862 0.438180
O O1 0.746280 0.579683 0.642321
O O2 0.902044 0.713639 0.573505
O O3 0.677962 0.503431 0.969578
O O4 0.684373 0.133604 0.941262
O O5 0.412226 0.410528 0.761286
O O6 0.354171 0.718769 0.728593
O O7 0.155584 0.091341 0.195454
O O8 0.271274 0.108409 0.529712
O O9 0.505155 0.657389 0.155129
O O10 0.454584 0.145389 0.320461
O O11 0.500000 0.500000 0.000000
O O12 0.000000 0.500000 0.500000
O O13 0.921493 0.056417 0.877728
O O14 0.167305 0.276181 0.724106
O O15 0.023853 0.849180 0.871172
O O16 0.215784 0.553901 0.775906
O O17 0.426773 0.664872 0.454797
#
# Coordination Sequence:
#
# PCOD8008271 Si02
#       8
#     2   2   2   2   2   2   2   2
#     4  11  24  41  68  99 132 173 215 276 326 388
#     4  11  24  43  67  99 130 169 222 265 336 393
#     4  12  27  43  66  99 132 176 226 264 328 392
#     4  10  20  42  69  98 130 169 215 273 331 392
#     4  10  21  44  66  94 133 165 226 269 321 393
#     4   9  21  41  70  96 124 175 217 268 333 380
#     4  12  24  42  66  94 132 178 215 268 333 386
#     4  11  25  43  66  96 133 170 218 274 323 390
#
# _framework density 22.289549999999998
#
# number of rings (size 3 to 8) (size 9 to 14) (size 15 to 20)
#    0.000    1.250    2.500    3.000    1.750    5.500 
#    0.000    0.000    0.000    0.000    0.000    0.000 
#    0.000    0.000    0.000    0.000    0.000    0.000 
#
# Total GULP energy -198288.686541 kJ/mol
# GULP energy per Si atom -12393.042909 kJ/mol
# Density = 2.223882 g / cm^3
# Si number density = 22.289550 Si / 1000 Ang^3
#
#
#
# Elastic Constant Matrix: (Units=GPa)
#
#
# Indices 1 2 3 4 5 6 
#
# 1 101.4063 44.3005 51.0735 -0.5442 -5.3535 4.6110
# 2 44.3005 102.8158 49.8569 2.9610 8.5690 2.7779
# 3 51.0735 49.8569 106.4450 1.8678 3.3881 7.0892
# 4 -0.5442 2.9610 1.8678 32.4945 -0.9758 1.1607
# 5 -5.3535 8.5690 3.3881 -0.9758 55.9706 5.9281
# 6 4.6110 2.7779 7.0892 1.1607 5.9281 35.9693
#
#
#
# Elastic Compliance Matrix: (Units=1/GPa)
#
#
# Indices 1 2 3 4 5 6 
#
# 1 0.014290 -0.003907 -0.005056 0.000992 0.002390 -0.000960
# 2 -0.003907 0.013825 -0.004557 -0.001160 -0.002314 0.000750
# 3 -0.005056 -0.004557 0.014089 -0.000433 -0.000468 -0.001686
# 4 0.000992 -0.001160 -0.000433 0.030990 0.000956 -0.001110
# 5 0.002390 -0.002314 -0.000468 0.000956 0.018830 -0.003170
# 6 -0.000960 0.000750 -0.001686 -0.001110 -0.003170 0.028757
#
#
# Mechanical properties :
#
#
# Convention : Reuss Voigt Hill
#
# Bulk Modulus (GPa) = 65.94215 66.79210 66.36712
# Shear Modulus (GPa) = 32.70621 35.91597 34.31109
#
# Velocity S-wave (km/s) = 3.83474 4.01850 3.92769
# Velocity P-wave (km/s) = 7.01823 7.18066 7.09991
#
# Compressibility (1/GPa) = 0.01516481
#
# Stress axis : x y z
#
# Youngs Moduli (GPa) = 69.98012 72.33131 70.97520
#
# Poissons Ratio (x) = 0.28262 0.35884
# Poissons Ratio (y) = 0.27343 0.32341
# Poissons Ratio (z) = 0.35381 0.32959
#
# Static dielectric constant tensor:
#      x y z
#    x 4.349520 0.029710 -0.220620 
#    y 0.029710 3.608730 0.096980 
#    z -0.220620 0.096980 4.111120 
# 
# 
# High freq. dielectric constant tensor:
#      x y z
#    x 1.903390 0.008150 -0.018760 
#    y 0.008150 1.848030 0.007160 
#    z -0.018760 0.007160 1.890180 
# 
# From -- ./inp_files/123636.got.cif
#   From: 2010.06.25/outbox.cif.g09.slc.cpg/sg2_62_cif.got.tgz:123636.got - 2010.06.27 13:26:56.
