data_PCOD8008839
_publ_section_title
;
Structure prediction by ZEFSAII (Michael W. Deem and Ramdas Pophale) SiO2 
 PCOD8008839
Probable space group: P -1
;
_chemical_formula_sum "Si O2"
_cell_formula_units_Z 16
_cell_length_a 11.481915
_cell_length_b 28.787631
_cell_length_c 14.604049
_cell_angle_alpha 158.763176
_cell_angle_beta 149.969609
_cell_angle_gamma 28.612204
_cell_volume 805.330030
_symmetry_space_group_name_H-M "P -1"
_symmetry_group_IT_number 2
_symmetry_cell_setting 'triclinic'
loop_
_space_group_symop_operation_xyz
x,y,z
-x,-y,-z
loop_
_atom_site_type_symbol
_atom_site_label
_atom_site_fract_x
_atom_site_fract_y
_atom_site_fract_z
Si Si1 0.776472 0.453447 0.646840
Si Si2 0.630713 0.369988 0.060708
Si Si3 0.061282 0.915030 0.293031
Si Si4 0.159101 0.807142 0.443709
Si Si5 0.212381 0.579781 0.925161
Si Si6 0.884121 0.391432 0.805927
Si Si7 0.001533 0.366231 0.455489
Si Si8 0.647583 0.838120 0.809536
O O1 0.500000 0.500000 0.500000
O O2 0.809462 0.369046 0.609608
O O3 0.969446 0.356276 0.523985
O O4 0.854941 0.583683 0.964544
O O5 0.337456 0.474550 0.052145
O O6 0.746644 0.370566 0.240766
O O7 0.790616 0.416596 0.180377
O O8 0.660128 0.209513 0.759593
O O9 0.998713 0.026405 0.371358
O O10 0.889331 0.821355 0.004873
O O11 0.000000 0.000000 0.500000
O O12 0.117186 0.733342 0.187625
O O13 0.069166 0.750417 0.368122
O O14 0.458523 0.771949 0.599456
O O15 0.500000 0.500000 0.000000
O O16 0.032612 0.508060 0.709897
O O17 0.249706 0.233284 0.350103
O O18 0.500000 0.000000 0.000000
#
# Coordination Sequence:
#
# PCOD8008839 Si02
#       8
#     2   2   2   2   2   2   2   2
#     4  11  23  41  60  89 118 157 211 259 297 346
#     4  11  21  35  57  90 121 156 195 242 311 371
#     4  10  21  35  54  85 128 162 189 229 299 377
#     4  11  20  37  56  90 128 153 197 244 303 366
#     4  12  19  30  56  89 121 150 191 247 308 366
#     4  11  23  39  64  89 116 161 204 258 301 346
#     4  11  20  35  56  89 119 156 196 255 297 351
#     4   9  20  34  56  85 122 158 186 234 301 370
#
# _framework density 19.867632
#
# number of rings (size 3 to 8) (size 9 to 14) (size 15 to 20)
#    0.000    1.250    6.250    0.375    0.000    1.000 
#    2.250    0.000    0.000    9.750    0.000    0.000 
#    0.000    0.000    0.000    0.000    0.000    0.000 
#
# Total GULP energy -198226.673581 kJ/mol
# GULP energy per Si atom -12389.167099 kJ/mol
# Density = 1.982241 g / cm^3
# Si number density = 19.867632 Si / 1000 Ang^3
#
#
#
# Elastic Constant Matrix: (Units=GPa)
#
#
# Indices 1 2 3 4 5 6 
#
# 1 114.4023 24.1492 31.9688 -0.2060 -6.6265 20.8894
# 2 24.1492 70.7153 24.2043 8.1088 6.8562 5.9376
# 3 31.9688 24.2043 93.0507 0.7787 -2.5170 1.6432
# 4 -0.2060 8.1088 0.7787 34.3285 1.4129 -3.7392
# 5 -6.6265 6.8562 -2.5170 1.4129 30.1374 -4.8301
# 6 20.8894 5.9376 1.6432 -3.7392 -4.8301 26.6039
#
#
#
# Elastic Compliance Matrix: (Units=1/GPa)
#
#
# Indices 1 2 3 4 5 6 
#
# 1 0.011731 -0.002322 -0.003237 -0.000269 0.001527 -0.008253
# 2 -0.002322 0.017501 -0.003799 -0.004217 -0.005153 -0.003376
# 3 -0.003237 -0.003799 0.012832 0.000847 0.001668 0.003019
# 4 -0.000269 -0.004217 0.000847 0.030687 0.000412 0.005488
# 5 0.001527 -0.005153 0.001668 0.000412 0.035837 0.006412
# 6 -0.008253 -0.003376 0.003019 0.005488 0.006412 0.046572
#
#
# Mechanical properties :
#
#
# Convention : Reuss Voigt Hill
#
# Bulk Modulus (GPa) = 42.83115 48.75698 45.79406
# Shear Modulus (GPa) = 27.52420 31.40368 29.46394
#
# Velocity S-wave (km/s) = 3.72611 3.98005 3.85517
# Velocity P-wave (km/s) = 6.33379 6.76130 6.55103
#
# Compressibility (1/GPa) = 0.02334750
#
# Stress axis : x y z
#
# Youngs Moduli (GPa) = 85.24532 57.13863 77.93113
#
# Poissons Ratio (x) = 0.13269 0.25225
# Poissons Ratio (y) = 0.19797 0.29606
# Poissons Ratio (z) = 0.27593 0.21707
#
# Static dielectric constant tensor:
#      x y z
#    x 3.751610 -0.099280 0.038580 
#    y -0.099280 0.142800 0.085120 
#    z 0.038580 0.085120 4.094380 
# 
# 
# High freq. dielectric constant tensor:
#      x y z
#    x 1.757470 0.004560 -0.009280 
#    y 0.004560 1.767180 -0.009370 
#    z -0.009280 -0.009370 1.777100 
# 
# From -- ./inp_files/396327.got.cif
#   From: 2010.06.25/outbox.cif.g09.slc.cpg/sg2_199_cif.got.tgz:396327.got - 2010.06.27 13:26:56.
