data_PCOD8008572
_publ_section_title
;
Structure prediction by ZEFSAII (Michael W. Deem and Ramdas Pophale) SiO2 
 PCOD8008572
Probable space group: P -1
;
_chemical_formula_sum "Si O2"
_cell_formula_units_Z 12
_cell_length_a 9.732184
_cell_length_b 10.278920
_cell_length_c 12.145553
_cell_angle_alpha 66.547660
_cell_angle_beta 47.313885
_cell_angle_gamma 39.912883
_cell_volume 553.528367
_symmetry_space_group_name_H-M "P -1"
_symmetry_group_IT_number 2
_symmetry_cell_setting 'triclinic'
loop_
_space_group_symop_operation_xyz
x,y,z
-x,-y,-z
loop_
_atom_site_type_symbol
_atom_site_label
_atom_site_fract_x
_atom_site_fract_y
_atom_site_fract_z
Si Si1 0.897590 0.778370 0.291633
Si Si2 0.840446 0.442836 0.994007
Si Si3 0.218420 0.743561 0.556508
Si Si4 0.700256 0.376547 0.681469
Si Si5 0.179707 0.218218 0.098887
Si Si6 0.473790 0.787337 0.565748
O O1 0.746857 0.710301 0.395851
O O2 0.064778 0.703511 0.337768
O O3 0.670930 0.030436 0.326928
O O4 0.091737 0.680802 0.112521
O O5 0.521382 0.598568 0.145876
O O6 0.047967 0.267097 0.033515
O O7 0.878693 0.587501 0.901465
O O8 0.500000 0.500000 0.500000
O O9 0.170372 0.786741 0.436181
O O10 0.263333 0.869460 0.551072
O O11 0.963181 0.802211 0.727307
O O12 0.545864 0.602551 0.648793
O O13 0.500000 0.000000 0.000000
#
# Coordination Sequence:
#
# PCOD8008572 Si02
#       6
#     2   2   2   2   2   2
#     4  11  25  40  64  96 132 170 211 258 328 388
#     4  11  24  42  64  96 135 164 212 273 321 379
#     4  10  20  44  68  90 129 169 215 269 312 373
#     4  11  23  41  69  92 128 173 210 267 321 376
#     4  11  25  42  68  99 126 171 217 268 323 376
#     4  10  23  42  63  93 128 172 216 262 314 381
#
# _framework density 21.679106999999998
#
# number of rings (size 3 to 8) (size 9 to 14) (size 15 to 20)
#    0.000    1.333    3.333    3.000    4.667    5.333 
#    0.000    0.000    0.000    0.000    0.000    0.000 
#    0.000    0.000    0.000    0.000    0.000    0.000 
#
# Total GULP energy -148829.265254 kJ/mol
# GULP energy per Si atom -12402.438771 kJ/mol
# Density = 2.162976 g / cm^3
# Si number density = 21.679107 Si / 1000 Ang^3
#
#
#
# Elastic Constant Matrix: (Units=GPa)
#
#
# Indices 1 2 3 4 5 6 
#
# 1 121.8107 24.4083 76.6992 -13.0404 0.0212 13.5415
# 2 24.4083 18.9420 13.4221 4.3462 4.8266 2.9207
# 3 76.6992 13.4221 168.1511 7.0801 0.9021 9.6722
# 4 -13.0404 4.3462 7.0801 26.7421 4.4374 -2.3899
# 5 0.0212 4.8266 0.9021 4.4374 49.0143 3.3133
# 6 13.5415 2.9207 9.6722 -2.3899 3.3133 33.7950
#
#
#
# Elastic Compliance Matrix: (Units=1/GPa)
#
#
# Indices 1 2 3 4 5 6 
#
# 1 0.019411 -0.022982 -0.007489 0.014733 0.001243 -0.002728
# 2 -0.022982 0.086644 0.004725 -0.025578 -0.006238 -0.000829
# 3 -0.007489 0.004725 0.009311 -0.006941 0.000033 -0.000566
# 4 0.014733 -0.025578 -0.006941 0.051116 -0.002131 0.002117
# 5 0.001243 -0.006238 0.000033 -0.002131 0.021358 -0.002213
# 6 -0.002728 -0.000829 -0.000566 0.002117 -0.002213 0.031284
#
#
# Mechanical properties :
#
#
# Convention : Reuss Voigt Hill
#
# Bulk Modulus (GPa) = 15.65610 59.77366 37.71488
# Shear Modulus (GPa) = 17.12875 34.86857 25.99866
#
# Velocity S-wave (km/s) = 2.81393 4.01483 3.46678
# Velocity P-wave (km/s) = 4.21841 7.00883 5.78441
#
# Compressibility (1/GPa) = 0.06387286
#
# Stress axis : x y z
#
# Youngs Moduli (GPa) = 51.51833 11.54144 107.40295
#
# Poissons Ratio (x) = 0.26524 0.80439
# Poissons Ratio (y) = 1.18397 -0.50745
# Poissons Ratio (z) = 0.38584 -0.05453
#
# Static dielectric constant tensor:
#      x y z
#    x 4.448620 0.089470 0.269670 
#    y 0.089470 3.838130 -0.146240 
#    z 0.269670 -0.146240 4.716410 
# 
# 
# High freq. dielectric constant tensor:
#      x y z
#    x 1.865370 0.006590 -0.003980 
#    y 0.006590 1.848690 0.007560 
#    z -0.003980 0.007560 1.856400 
# 
# From -- ./inp_files/156427.got.cif
#   From: 2010.06.25/outbox.cif.g09.slc.cpg/sg2_79_cif.got.tgz:156427.got - 2010.06.27 13:26:56.
