data_PCOD8008904
_publ_section_title
;
Structure prediction by ZEFSAII (Michael W. Deem and Ramdas Pophale) SiO2 
 PCOD8008904
Probable space group: P -1
;
_chemical_formula_sum "Si O2"
_cell_formula_units_Z 16
_cell_length_a 13.309766
_cell_length_b 14.119546
_cell_length_c 14.807926
_cell_angle_alpha 19.083663
_cell_angle_beta 132.026976
_cell_angle_gamma 129.727403
_cell_volume 675.617345
_symmetry_space_group_name_H-M "P -1"
_symmetry_group_IT_number 2
_symmetry_cell_setting 'triclinic'
loop_
_space_group_symop_operation_xyz
x,y,z
-x,-y,-z
loop_
_atom_site_type_symbol
_atom_site_label
_atom_site_fract_x
_atom_site_fract_y
_atom_site_fract_z
Si Si1 0.197399 0.216241 0.727656
Si Si2 0.155036 0.629942 0.676474
Si Si3 0.148549 0.267760 0.288454
Si Si4 0.051759 0.790333 0.141287
Si Si5 0.387852 0.341243 0.880284
Si Si6 0.758172 0.082329 0.702966
Si Si7 0.298804 0.700263 0.869162
Si Si8 0.079087 0.104588 0.585937
O O1 0.162585 0.553957 0.395236
O O2 0.204926 0.070217 0.763185
O O3 0.331342 0.172101 0.908909
O O4 0.070301 0.058522 0.842991
O O5 0.211022 0.886987 0.412897
O O6 0.272606 0.548931 0.891764
O O7 0.103277 0.345902 0.842090
O O8 0.029093 0.714392 0.586251
O O9 0.137193 0.287937 0.371390
O O10 0.257933 0.033516 0.535466
O O11 0.201898 0.570528 0.006681
O O12 0.997315 0.192703 0.225284
O O13 0.093596 0.887885 0.182477
O O14 0.547658 0.327644 0.985373
O O15 0.325836 0.207359 0.056628
O O16 0.342261 0.668500 0.551788
#
# Coordination Sequence:
#
# PCOD8008904 Si02
#       8
#     2   2   2   2   2   2   2   2
#     4   9  18  34  56  78 107 146 178 219 272 319
#     4  10  21  35  58  85 112 143 180 223 275 331
#     4  10  22  38  60  83 108 141 180 232 283 320
#     4   9  18  33  53  81 111 139 178 222 270 322
#     4  10  22  39  55  78 115 149 184 222 259 318
#     4  10  21  36  57  82 111 148 181 220 269 319
#     4  11  23  39  57  80 110 148 187 224 269 320
#     4   9  20  38  59  85 112 137 179 231 281 328
#
# _framework density 23.682043
#
# number of rings (size 3 to 8) (size 9 to 14) (size 15 to 20)
#    0.000    2.250    0.000    1.875    0.000   11.500 
#    0.000    8.750    0.000    0.000    0.000    0.000 
#    0.000    0.000    0.000    0.000    0.000    0.000 
#
# Total GULP energy -198355.571079 kJ/mol
# GULP energy per Si atom -12397.223192 kJ/mol
# Density = 2.362814 g / cm^3
# Si number density = 23.682043 Si / 1000 Ang^3
#
#
#
# Elastic Constant Matrix: (Units=GPa)
#
#
# Indices 1 2 3 4 5 6 
#
# 1 95.7841 56.9110 21.8517 23.9681 -22.5594 -1.9151
# 2 56.9110 139.9595 27.3792 34.8731 -20.7898 -2.7155
# 3 21.8517 27.3792 65.0882 13.7719 -15.2902 7.8070
# 4 23.9681 34.8731 13.7719 39.0640 -1.3356 -3.0376
# 5 -22.5594 -20.7898 -15.2902 -1.3356 40.3204 14.1560
# 6 -1.9151 -2.7155 7.8070 -3.0376 14.1560 39.5443
#
#
#
# Elastic Compliance Matrix: (Units=1/GPa)
#
#
# Indices 1 2 3 4 5 6 
#
# 1 0.016114 -0.003838 -0.000367 -0.006275 0.007609 -0.002617
# 2 -0.003838 0.011180 -0.000977 -0.007243 0.003352 -0.000982
# 3 -0.000367 -0.000977 0.020509 -0.006432 0.009699 -0.008100
# 4 -0.006275 -0.007243 -0.006432 0.038379 -0.010995 0.007353
# 5 0.007609 0.003352 0.009699 -0.010995 0.039870 -0.016434
# 6 -0.002617 -0.000982 -0.008100 0.007353 -0.016434 0.033141
#
#
# Mechanical properties :
#
#
# Convention : Reuss Voigt Hill
#
# Bulk Modulus (GPa) = 26.70880 57.01283 41.86081
# Shear Modulus (GPa) = 27.46731 36.76508 32.11619
#
# Velocity S-wave (km/s) = 3.40933 3.94438 3.68658
# Velocity P-wave (km/s) = 5.17693 6.69856 5.98629
#
# Compressibility (1/GPa) = 0.03744085
#
# Stress axis : x y z
#
# Youngs Moduli (GPa) = 62.05839 89.44446 48.75997
#
# Poissons Ratio (x) = 0.34325 0.01787
# Poissons Ratio (y) = 0.23816 0.04763
# Poissons Ratio (z) = 0.02275 0.08737
#
# Static dielectric constant tensor:
#      x y z
#    x 3.913180 -0.419070 -0.090630 
#    y -0.419070 5.008090 0.178860 
#    z -0.090630 0.178860 4.385830 
# 
# 
# High freq. dielectric constant tensor:
#      x y z
#    x 1.913950 -0.020420 -0.005850 
#    y -0.020420 1.938160 0.005920 
#    z -0.005850 0.005920 1.956610 
# 
# From -- ./inp_files/76087.got.cif
#   From: 2010.06.25/outbox.cif.g09.slc.cpg/sg2_39_cif.got.tgz:76087.got - 2010.06.27 13:26:56.
