data_PCOD8008719
_publ_section_title
;
Structure prediction by ZEFSAII (Michael W. Deem and Ramdas Pophale) SiO2 
 PCOD8008719
Probable space group: P -1
;
_chemical_formula_sum "Si O2"
_cell_formula_units_Z 16
_cell_length_a 14.420792
_cell_length_b 13.660599
_cell_length_c 10.018640
_cell_angle_alpha 95.337282
_cell_angle_beta 49.692293
_cell_angle_gamma 53.994112
_cell_volume 780.875412
_symmetry_space_group_name_H-M "P -1"
_symmetry_group_IT_number 2
_symmetry_cell_setting 'triclinic'
loop_
_space_group_symop_operation_xyz
x,y,z
-x,-y,-z
loop_
_atom_site_type_symbol
_atom_site_label
_atom_site_fract_x
_atom_site_fract_y
_atom_site_fract_z
Si Si1 0.204237 0.939497 0.177393
Si Si2 0.977896 0.783637 0.796766
Si Si3 0.731112 0.977239 0.612963
Si Si4 0.894276 0.034010 0.309844
Si Si5 0.754282 0.283394 0.264492
Si Si6 0.206364 0.280353 0.133477
Si Si7 0.393327 0.476846 0.164039
Si Si8 0.951703 0.403411 0.656534
O O1 0.184332 0.022389 0.335061
O O2 0.969569 0.036206 0.379357
O O3 0.221036 0.002016 0.041615
O O4 0.420374 0.716164 0.952585
O O5 0.864875 0.753440 0.912020
O O6 0.075035 0.747416 0.846333
O O7 0.189082 0.646243 0.476655
O O8 0.741318 0.043791 0.486554
O O9 0.480506 0.101707 0.873946
O O10 0.913027 0.762923 0.391273
O O11 0.735961 0.213058 0.387815
O O12 0.135593 0.838338 0.986654
O O13 0.500000 0.500000 0.500000
O O14 0.094413 0.460434 0.212270
O O15 0.110965 0.310751 0.367524
O O16 0.296465 0.472962 0.136668
O O17 0.500000 0.500000 0.000000
#
# Coordination Sequence:
#
# PCOD8008719 Si02
#       8
#     2   2   2   2   2   2   2   2
#     4  11  21  34  57  87 121 151 178 235 297 346
#     4  10  23  38  59  83 114 155 198 235 281 350
#     4  12  21  35  59  87 124 157 179 236 294 347
#     4  10  24  38  59  90 113 144 202 240 287 356
#     4  10  22  45  63  80 110 152 194 249 298 332
#     4  10  21  36  53  85 121 160 194 222 282 350
#     4  11  21  31  52  87 117 149 186 229 287 345
#     4  10  21  34  51  82 127 157 191 222 273 356
#
# _framework density 20.489823999999999
#
# number of rings (size 3 to 8) (size 9 to 14) (size 15 to 20)
#    0.000    1.500    3.750    2.250    3.500    1.000 
#    0.000    0.625    0.000    1.500    0.000    0.000 
#    0.000    0.000    0.000    0.000    0.000    0.000 
#
# Total GULP energy -198360.016423 kJ/mol
# GULP energy per Si atom -12397.501026 kJ/mol
# Density = 2.044319 g / cm^3
# Si number density = 20.489824 Si / 1000 Ang^3
#
#
#
# Elastic Constant Matrix: (Units=GPa)
#
#
# Indices 1 2 3 4 5 6 
#
# 1 96.9480 65.8594 27.0095 0.5322 -21.3408 18.3891
# 2 65.8594 147.9703 52.4368 23.0316 -26.2198 16.4122
# 3 27.0095 52.4368 59.0581 6.2345 -25.8488 0.6971
# 4 0.5322 23.0316 6.2345 35.5318 6.1718 -7.9284
# 5 -21.3408 -26.2198 -25.8488 6.1718 26.1062 -3.5055
# 6 18.3891 16.4122 0.6971 -7.9284 -3.5055 31.9634
#
#
#
# Elastic Compliance Matrix: (Units=1/GPa)
#
#
# Indices 1 2 3 4 5 6 
#
# 1 0.016887 -0.005999 0.001001 0.000855 0.007818 -0.005588
# 2 -0.005999 0.015339 -0.007651 -0.010742 0.004604 -0.006418
# 3 0.001001 -0.007651 0.038584 -0.006634 0.033516 0.004541
# 4 0.000855 -0.010742 -0.006634 0.043582 -0.025187 0.013217
# 5 0.007818 0.004604 0.033516 -0.025187 0.087896 -0.004201
# 6 -0.005588 -0.006418 0.004541 0.013217 -0.004201 0.040514
#
#
# Mechanical properties :
#
#
# Convention : Reuss Voigt Hill
#
# Bulk Modulus (GPa) = 21.97210 66.06529 44.01870
# Shear Modulus (GPa) = 17.65088 29.29832 23.47460
#
# Velocity S-wave (km/s) = 2.93822 3.78550 3.38845
# Velocity P-wave (km/s) = 4.71779 7.17075 6.06948
#
# Compressibility (1/GPa) = 0.04551225
#
# Stress axis : x y z
#
# Youngs Moduli (GPa) = 59.21571 65.19269 25.91758
#
# Poissons Ratio (x) = 0.39109 -0.02593
# Poissons Ratio (y) = 0.35523 0.19829
# Poissons Ratio (z) = -0.05925 0.49877
#
# Static dielectric constant tensor:
#      x y z
#    x 3.823310 0.324000 -0.150330 
#    y 0.324000 4.007380 0.128550 
#    z -0.150330 0.128550 3.409000 
# 
# 
# High freq. dielectric constant tensor:
#      x y z
#    x 1.787950 0.024580 -0.017450 
#    y 0.024580 1.815560 0.019220 
#    z -0.017450 0.019220 1.776360 
# 
# From -- ./inp_files/452342.got.cif
#   From: 2010.06.25/outbox.cif.g09.slc.cpg/sg2_227_cif.got.tgz:452342.got - 2010.06.27 13:26:56.
