data_PCOD8008511
_publ_section_title
;
Structure prediction by ZEFSAII (Michael W. Deem and Ramdas Pophale) SiO2 
 PCOD8008511
Probable space group: P -1
;
_chemical_formula_sum "Si O2"
_cell_formula_units_Z 14
_cell_length_a 24.421884
_cell_length_b 14.525781
_cell_length_c 8.917437
_cell_angle_alpha 37.044164
_cell_angle_beta 143.749794
_cell_angle_gamma 163.639816
_cell_volume 521.218566
_symmetry_space_group_name_H-M "P -1"
_symmetry_group_IT_number 2
_symmetry_cell_setting 'triclinic'
loop_
_space_group_symop_operation_xyz
x,y,z
-x,-y,-z
loop_
_atom_site_type_symbol
_atom_site_label
_atom_site_fract_x
_atom_site_fract_y
_atom_site_fract_z
Si Si1 0.482072 0.808054 0.139301
Si Si2 0.479333 0.938129 0.360775
Si Si3 0.187577 0.303037 0.383734
Si Si4 0.788254 0.017563 0.479303
Si Si5 0.166315 0.753166 0.267583
Si Si6 0.346518 0.216818 0.831738
Si Si7 0.804909 0.894427 0.972346
O O1 0.281655 0.445027 0.239308
O O2 0.671168 0.974906 0.373408
O O3 0.500000 0.000000 0.000000
O O4 0.479694 0.835014 0.918917
O O5 0.265935 0.553213 0.341457
O O6 0.500000 0.000000 0.500000
O O7 0.638675 0.051461 0.497983
O O8 0.243579 0.216256 0.682807
O O9 0.947082 0.971246 0.261615
O O10 0.831687 0.940635 0.789219
O O11 0.984839 0.369489 0.374074
O O12 0.649224 0.759230 0.370124
O O13 0.118299 0.827297 0.168111
O O14 0.217117 0.883280 0.039956
O O15 0.425030 0.469039 0.015049
#
# Coordination Sequence:
#
# PCOD8008511 Si02
#       7
#     2   2   2   2   2   2   2
#     4  10  20  43  72 106 142 184 243 299 350 429
#     4  11  23  44  72 108 145 188 244 303 357 434
#     4  11  25  47  75 105 146 194 242 298 367 434
#     4  12  25  47  77 107 146 195 248 301 358 435
#     4  12  25  47  72 105 149 195 240 300 369 433
#     4  12  27  50  70 111 154 186 242 310 363 432
#     4  12  25  48  79 104 143 198 244 296 370 433
#
# _framework density 26.860133000000001
#
# number of rings (size 3 to 8) (size 9 to 14) (size 15 to 20)
#    0.000    0.571    2.857    6.000    0.000    2.286 
#    7.714    0.000    0.000    0.000    0.000    0.000 
#    0.000    0.000    0.000    0.000    0.000    0.000 
#
# Total GULP energy -173592.322610 kJ/mol
# GULP energy per Si atom -12399.451615 kJ/mol
# Density = 2.679900 g / cm^3
# Si number density = 26.860133 Si / 1000 Ang^3
#
#
#
# Elastic Constant Matrix: (Units=GPa)
#
#
# Indices 1 2 3 4 5 6 
#
# 1 69.4141 38.7587 12.7853 12.4212 -9.5468 9.7477
# 2 38.7587 133.7654 51.1440 20.5492 7.0897 30.9650
# 3 12.7853 51.1440 91.4331 21.6548 8.8779 5.4428
# 4 12.4212 20.5492 21.6548 50.9862 6.0258 -3.4745
# 5 -9.5468 7.0897 8.8779 6.0258 45.3221 3.9104
# 6 9.7477 30.9650 5.4428 -3.4745 3.9104 36.1947
#
#
#
# Elastic Compliance Matrix: (Units=1/GPa)
#
#
# Indices 1 2 3 4 5 6 
#
# 1 0.018665 -0.004959 0.000602 -0.003542 0.005214 -0.001778
# 2 -0.004959 0.013802 -0.005777 -0.002458 -0.000905 -0.009742
# 3 0.000602 -0.005777 0.015012 -0.003847 -0.001599 0.002326
# 4 -0.003542 -0.002458 -0.003847 0.023923 -0.003331 0.006291
# 5 0.005214 -0.000905 -0.001599 -0.003331 0.024348 -0.003340
# 6 -0.001778 -0.009742 0.002326 0.006291 -0.003340 0.037056
#
#
# Mechanical properties :
#
#
# Convention : Reuss Voigt Hill
#
# Bulk Modulus (GPa) = 36.74933 55.55429 46.15181
# Shear Modulus (GPa) = 30.83663 39.29557 35.06610
#
# Velocity S-wave (km/s) = 3.39196 3.82903 3.61710
# Velocity P-wave (km/s) = 5.38998 6.34636 5.88762
#
# Compressibility (1/GPa) = 0.02721138
#
# Stress axis : x y z
#
# Youngs Moduli (GPa) = 53.57660 72.45249 66.61325
#
# Poissons Ratio (x) = 0.35931 -0.04013
# Poissons Ratio (y) = 0.26570 0.38483
# Poissons Ratio (z) = -0.03227 0.41856
#
# Static dielectric constant tensor:
#      x y z
#    x 4.798140 0.229890 -0.283300 
#    y 0.229890 4.504910 -0.148880 
#    z -0.283300 -0.148880 6.022160 
# 
# 
# High freq. dielectric constant tensor:
#      x y z
#    x 2.079590 0.016980 -0.016500 
#    y 0.016980 2.060110 -0.004440 
#    z -0.016500 -0.004440 2.105950 
# 
# From -- ./inp_files/354281.got.cif
#   From: 2010.06.25/outbox.cif.g09.slc.cpg/sg2_178_cif.got.tgz:354281.got - 2010.06.27 13:26:56.
