data_PCOD8008039
_publ_section_title
;
Structure prediction by ZEFSAII (Michael W. Deem and Ramdas Pophale) SiO2 
 PCOD8008039
Probable space group: P -1
;
_chemical_formula_sum "Si O2"
_cell_formula_units_Z 16
_cell_length_a 18.434666
_cell_length_b 9.699997
_cell_length_c 9.361118
_cell_angle_alpha 133.790907
_cell_angle_beta 139.247988
_cell_angle_gamma 55.064999
_cell_volume 784.623231
_symmetry_space_group_name_H-M "P -1"
_symmetry_group_IT_number 2
_symmetry_cell_setting 'triclinic'
loop_
_space_group_symop_operation_xyz
x,y,z
-x,-y,-z
loop_
_atom_site_type_symbol
_atom_site_label
_atom_site_fract_x
_atom_site_fract_y
_atom_site_fract_z
Si Si1 0.448591 0.266110 0.848087
Si Si2 0.909541 0.002779 0.991678
Si Si3 0.271669 0.362037 0.865359
Si Si4 0.334428 0.563882 0.691052
Si Si5 0.260825 0.592990 0.286876
Si Si6 0.700277 0.022459 0.502281
Si Si7 0.127472 0.622302 0.629320
Si Si8 0.006514 0.606590 0.937353
O O1 0.387280 0.392325 0.976661
O O2 0.399373 0.364396 0.699172
O O3 0.414295 0.047674 0.652101
O O4 0.581579 0.269068 0.058691
O O5 0.924040 0.168944 0.246649
O O6 0.922269 0.800925 0.950327
O O7 0.785198 0.039002 0.770442
O O8 0.000000 0.000000 0.000000
O O9 0.169830 0.496590 0.739237
O O10 0.248037 0.138603 0.650769
O O11 0.286652 0.414102 0.090042
O O12 0.298426 0.520973 0.446513
O O13 0.226151 0.636976 0.673066
O O14 0.326949 0.772812 0.467575
O O15 0.130029 0.665409 0.138102
O O16 0.025734 0.529341 0.336556
O O17 0.000000 0.500000 0.000000
#
# Coordination Sequence:
#
# PCOD8008039 Si02
#       8
#     2   2   2   2   2   2   2   2
#     4   8  20  41  70  82 123 168 196 250 307 374
#     4  12  23  39  65  89 120 166 209 243 297 369
#     4   9  20  39  64  90 118 162 204 247 303 360
#     4  10  20  42  64  92 124 160 201 253 314 354
#     4  12  23  37  65  92 125 155 204 262 297 354
#     4  10  21  40  61  93 118 159 208 253 291 368
#     4  11  22  40  66  85 126 165 204 244 302 371
#     4  12  25  40  58  94 126 164 197 254 305 356
#
# _framework density 20.391953999999998
#
# number of rings (size 3 to 8) (size 9 to 14) (size 15 to 20)
#    0.750    0.750    5.000    0.000    1.750    2.500 
#    2.250    0.625    2.750    0.000    0.000    0.000 
#    0.000    0.000    0.000    0.000    0.000    0.000 
#
# Total GULP energy -198370.646122 kJ/mol
# GULP energy per Si atom -12398.165383 kJ/mol
# Density = 2.034554 g / cm^3
# Si number density = 20.391954 Si / 1000 Ang^3
#
#
#
# Elastic Constant Matrix: (Units=GPa)
#
#
# Indices 1 2 3 4 5 6 
#
# 1 50.9890 13.5473 37.3641 -11.6587 2.8167 15.2427
# 2 13.5473 59.5756 38.1547 6.9952 -22.0599 4.9159
# 3 37.3641 38.1547 130.1749 3.8531 -12.5905 4.7873
# 4 -11.6587 6.9952 3.8531 37.9863 1.1606 -0.0056
# 5 2.8167 -22.0599 -12.5905 1.1606 42.2713 1.0264
# 6 15.2427 4.9159 4.7873 -0.0056 1.0264 17.3020
#
#
#
# Elastic Compliance Matrix: (Units=1/GPa)
#
#
# Indices 1 2 3 4 5 6 
#
# 1 0.042553 -0.004902 -0.010829 0.015309 -0.008248 -0.032605
# 2 -0.004902 0.026883 -0.004913 -0.006358 0.013134 -0.002741
# 3 -0.010829 -0.004913 0.012233 -0.003711 0.001722 0.007448
# 4 0.015309 -0.006358 -0.003711 0.032756 -0.006093 -0.010281
# 5 -0.008248 0.013134 0.001722 -0.006093 0.031712 0.001175
# 6 -0.032605 -0.002741 0.007448 -0.010281 0.001175 0.085166
#
#
# Mechanical properties :
#
#
# Convention : Reuss Voigt Hill
#
# Bulk Modulus (GPa) = 24.76487 46.54132 35.65309
# Shear Modulus (GPa) = 17.47949 29.62346 23.55148
#
# Velocity S-wave (km/s) = 2.93093 3.81557 3.40213
# Velocity P-wave (km/s) = 4.86052 6.50264 5.74060
#
# Compressibility (1/GPa) = 0.04037979
#
# Stress axis : x y z
#
# Youngs Moduli (GPa) = 23.50032 37.19884 81.74810
#
# Poissons Ratio (x) = 0.18236 0.88523
# Poissons Ratio (y) = 0.11520 0.40163
# Poissons Ratio (z) = 0.25448 0.18276
#
# Static dielectric constant tensor:
#      x y z
#    x 3.631150 0.131640 0.109800 
#    y 0.131640 3.482970 0.010350 
#    z 0.109800 0.010350 3.762690 
# 
# 
# High freq. dielectric constant tensor:
#      x y z
#    x 1.787820 0.013690 0.008380 
#    y 0.013690 1.778130 -0.002560 
#    z 0.008380 -0.002560 1.801690 
# 
# From -- ./inp_files/328150.got.cif
#   From: 2010.06.25/outbox.cif.g09.slc.cpg/sg2_165_cif.got.tgz:328150.got - 2010.06.27 13:26:56.
