data_PCOD8008694
_publ_section_title
;
Structure prediction by ZEFSAII (Michael W. Deem and Ramdas Pophale) SiO2 
 PCOD8008694
Probable space group: P -1
;
_chemical_formula_sum "Si O2"
_cell_formula_units_Z 12
_cell_length_a 19.863740
_cell_length_b 14.510281
_cell_length_c 5.229705
_cell_angle_alpha 113.291532
_cell_angle_beta 105.277447
_cell_angle_gamma 27.300535
_cell_volume 621.047739
_symmetry_space_group_name_H-M "P -1"
_symmetry_group_IT_number 2
_symmetry_cell_setting 'triclinic'
loop_
_space_group_symop_operation_xyz
x,y,z
-x,-y,-z
loop_
_atom_site_type_symbol
_atom_site_label
_atom_site_fract_x
_atom_site_fract_y
_atom_site_fract_z
Si Si1 0.868964 0.458259 0.817685
Si Si2 0.235051 0.722806 0.948539
Si Si3 0.724904 0.438205 0.675427
Si Si4 0.046274 0.555527 0.603617
Si Si5 0.515910 0.383799 0.567568
Si Si6 0.150329 0.039927 0.381141
O O1 0.844629 0.560719 0.657607
O O2 0.738223 0.541401 0.791766
O O3 0.030474 0.196153 0.665986
O O4 0.864092 0.532595 0.146181
O O5 0.178970 0.735710 0.651576
O O6 0.411046 0.531125 0.877887
O O7 0.213246 0.678961 0.121174
O O8 0.139529 0.945256 0.133299
O O9 0.550526 0.627847 0.668860
O O10 0.000000 0.500000 0.500000
O O11 0.896131 0.815625 0.713510
O O12 0.500000 0.500000 0.500000
O O13 0.685991 0.145121 0.547839
#
# Coordination Sequence:
#
# PCOD8008694 Si02
#       6
#     2   2   2   2   2   2
#     4  10  23  38  60  86 111 148 196 232 294 331
#     4  10  21  33  54  82 123 152 183 213 278 335
#     4  10  22  35  55  82 125 154 178 229 276 344
#     4  10  23  41  62  82 110 144 198 252 285 326
#     4  10  21  36  55  84 125 158 187 218 272 343
#     4  10  22  34  60  85 114 152 196 228 277 339
#
# _framework density 19.322185000000001
#
# number of rings (size 3 to 8) (size 9 to 14) (size 15 to 20)
#    2.000    0.000    1.667    2.000    4.667    1.333 
#    0.000    0.000    0.000    2.000    0.000    0.000 
#    0.000    0.000    0.000    0.000    0.000    0.000 
#
# Total GULP energy -148669.056384 kJ/mol
# GULP energy per Si atom -12389.088032 kJ/mol
# Density = 1.927821 g / cm^3
# Si number density = 19.322185 Si / 1000 Ang^3
#
#
#
# Elastic Constant Matrix: (Units=GPa)
#
#
# Indices 1 2 3 4 5 6 
#
# 1 149.3996 7.1198 50.5730 -20.8547 9.6984 14.8562
# 2 7.1198 18.5222 5.1909 -9.7421 -7.0531 1.3042
# 3 50.5730 5.1909 119.3218 -35.1970 -1.4123 11.0784
# 4 -20.8547 -9.7421 -35.1970 17.9675 3.7161 -3.7471
# 5 9.6984 -7.0531 -1.4123 3.7161 36.3847 -5.5884
# 6 14.8562 1.3042 11.0784 -3.7471 -5.5884 30.6195
#
#
#
# Elastic Compliance Matrix: (Units=1/GPa)
#
#
# Indices 1 2 3 4 5 6 
#
# 1 0.008788 0.000155 -0.000949 0.008457 -0.003763 -0.003579
# 2 0.000155 0.110232 0.029054 0.114774 0.010846 0.000743
# 3 -0.000949 0.029054 0.028302 0.069662 -0.000529 -0.002588
# 4 0.008457 0.114774 0.069662 0.264586 -0.004737 -0.002681
# 5 -0.003763 0.010846 -0.000529 -0.004737 0.032102 0.006834
# 6 -0.003579 0.000743 -0.002588 -0.002681 0.006834 0.036219
#
#
# Mechanical properties :
#
#
# Convention : Reuss Voigt Hill
#
# Bulk Modulus (GPa) = 4.90578 45.89014 25.39796
# Shear Modulus (GPa) = 10.16969 31.95166 21.06068
#
# Velocity S-wave (km/s) = 2.29666 4.07089 3.30506
# Velocity P-wave (km/s) = 3.09472 6.77479 5.26664
#
# Compressibility (1/GPa) = 0.20384134
#
# Stress axis : x y z
#
# Youngs Moduli (GPa) = 113.79202 9.07176 35.33369
#
# Poissons Ratio (x) = -0.00141 0.03354
# Poissons Ratio (y) = -0.01766 -1.02658
# Poissons Ratio (z) = 0.10800 -0.26357
#
# Static dielectric constant tensor:
#      x y z
#    x 3.484590 -0.013670 -0.090240 
#    y -0.013670 3.157170 -0.165030 
#    z -0.090240 -0.165030 3.518820 
# 
# 
# High freq. dielectric constant tensor:
#      x y z
#    x 1.761620 -0.003120 -0.003860 
#    y -0.003120 1.700710 -0.026030 
#    z -0.003860 -0.026030 1.754170 
# 
# From -- ./inp_files/66371.got.cif
#   From: 2010.06.25/outbox.cif.g09.slc.cpg/sg2_34_cif.got.tgz:66371.got - 2010.06.27 13:26:56.
