data_PCOD8008822
_publ_section_title
;
Structure prediction by ZEFSAII (Michael W. Deem and Ramdas Pophale) SiO2 
 PCOD8008822
Probable space group: P -1
;
_chemical_formula_sum "Si O2"
_cell_formula_units_Z 16
_cell_length_a 15.663513
_cell_length_b 9.564155
_cell_length_c 8.877032
_cell_angle_alpha 47.195539
_cell_angle_beta 92.316855
_cell_angle_gamma 73.772998
_cell_volume 885.333142
_symmetry_space_group_name_H-M "P -1"
_symmetry_group_IT_number 2
_symmetry_cell_setting 'triclinic'
loop_
_space_group_symop_operation_xyz
x,y,z
-x,-y,-z
loop_
_atom_site_type_symbol
_atom_site_label
_atom_site_fract_x
_atom_site_fract_y
_atom_site_fract_z
Si Si1 0.419398 0.880148 0.447422
Si Si2 0.623093 0.700345 0.714066
Si Si3 0.890772 0.570015 0.459940
Si Si4 0.253762 0.483500 0.690440
Si Si5 0.752309 0.033938 0.151094
Si Si6 0.677559 0.324725 0.206371
Si Si7 0.228795 0.599180 0.280121
Si Si8 0.396818 0.027747 0.018136
O O1 0.529823 0.805555 0.532049
O O2 0.390105 0.715580 0.650536
O O3 0.360897 0.115941 0.332936
O O4 0.401896 0.877673 0.269217
O O5 0.708620 0.587089 0.689680
O O6 0.616013 0.530523 0.954059
O O7 0.843493 0.546380 0.314774
O O8 0.870205 0.423974 0.690305
O O9 0.000000 0.500000 0.500000
O O10 0.839570 0.810381 0.332604
O O11 0.243493 0.638397 0.715802
O O12 0.276872 0.568994 0.471053
O O13 0.340563 0.265443 0.893969
O O14 0.729266 0.124670 0.250840
O O15 0.788059 0.175051 0.948427
O O16 0.657720 0.025853 0.083205
O O17 0.500000 0.000000 0.000000
#
# Coordination Sequence:
#
# PCOD8008822 Si02
#       8
#     2   2   2   2   2   2   2   2
#     4  11  22  32  56  76 117 157 194 221 282 310
#     4  10  21  35  51  84 112 153 188 238 264 331
#     4   9  20  39  63  84 110 142 184 232 285 347
#     4   9  20  37  56  81 114 144 185 231 275 328
#     4  10  22  37  61  83 112 153 185 230 287 327
#     4  11  21  37  55  82 114 147 191 235 273 328
#     4   9  19  37  59  80 114 140 193 223 288 325
#     4  11  22  36  55  80 117 156 197 228 269 329
#
# _framework density 18.072293999999999
#
# number of rings (size 3 to 8) (size 9 to 14) (size 15 to 20)
#    0.750    1.250    1.250    2.625    3.500    2.500 
#    0.000    5.000    0.000    3.000    0.000    0.000 
#    0.000    0.000    0.000    0.000    0.000    0.000 
#
# Total GULP energy -198306.211123 kJ/mol
# GULP energy per Si atom -12394.138195 kJ/mol
# Density = 1.803116 g / cm^3
# Si number density = 18.072294 Si / 1000 Ang^3
#
#
#
# Elastic Constant Matrix: (Units=GPa)
#
#
# Indices 1 2 3 4 5 6 
#
# 1 126.3341 47.6892 39.8276 -4.1282 0.0693 -4.6964
# 2 47.6892 109.3862 26.0246 8.2533 6.5093 11.8190
# 3 39.8276 26.0246 76.6845 6.9606 -12.9491 -6.2421
# 4 -4.1282 8.2533 6.9606 30.0356 0.6194 -3.4567
# 5 0.0693 6.5093 -12.9491 0.6194 28.7297 1.2687
# 6 -4.6964 11.8190 -6.2421 -3.4567 1.2687 16.6421
#
#
#
# Elastic Compliance Matrix: (Units=1/GPa)
#
#
# Indices 1 2 3 4 5 6 
#
# 1 0.011572 -0.004920 -0.004488 0.004718 -0.001310 0.006156
# 2 -0.004920 0.014265 -0.003619 -0.005243 -0.004136 -0.013650
# 3 -0.004488 -0.003619 0.019031 -0.003412 0.009171 0.007034
# 4 0.004718 -0.005243 -0.003412 0.037556 -0.001688 0.011704
# 5 -0.001310 -0.004136 0.009171 -0.001688 0.039802 0.002623
# 6 0.006156 -0.013650 0.007034 0.011704 0.002623 0.076389
#
#
# Mechanical properties :
#
#
# Convention : Reuss Voigt Hill
#
# Bulk Modulus (GPa) = 53.15939 59.94307 56.55123
# Shear Modulus (GPa) = 21.65066 28.33904 24.99485
#
# Velocity S-wave (km/s) = 3.46497 3.96421 3.72297
# Velocity P-wave (km/s) = 6.74439 7.36164 7.05976
#
# Compressibility (1/GPa) = 0.01881135
#
# Stress axis : x y z
#
# Youngs Moduli (GPa) = 86.41882 70.10362 52.54622
#
# Poissons Ratio (x) = 0.34492 0.23585
# Poissons Ratio (y) = 0.42520 0.19018
# Poissons Ratio (z) = 0.38789 0.25372
#
# Static dielectric constant tensor:
#      x y z
#    x 3.003750 0.141950 -0.187900 
#    y 0.141950 3.366460 0.014910 
#    z -0.187900 0.014910 3.405190 
# 
# 
# High freq. dielectric constant tensor:
#      x y z
#    x 1.669250 0.011600 -0.020130 
#    y 0.011600 1.703190 0.000520 
#    z -0.020130 0.000520 1.704960 
# 
# From -- ./inp_files/297493.got.cif
#   From: 2010.06.25/outbox.cif.g09.slc.cpg/sg2_149_cif.got.tgz:297493.got - 2010.06.27 13:26:56.
