data_PCOD8008280
_publ_section_title
;
Structure prediction by ZEFSAII (Michael W. Deem and Ramdas Pophale) SiO2 
 PCOD8008280
Probable space group: P -1
;
_chemical_formula_sum "Si O2"
_cell_formula_units_Z 16
_cell_length_a 8.539167
_cell_length_b 16.986808
_cell_length_c 14.435858
_cell_angle_alpha 43.615298
_cell_angle_beta 135.932855
_cell_angle_gamma 149.406435
_cell_volume 707.529921
_symmetry_space_group_name_H-M "P -1"
_symmetry_group_IT_number 2
_symmetry_cell_setting 'triclinic'
loop_
_space_group_symop_operation_xyz
x,y,z
-x,-y,-z
loop_
_atom_site_type_symbol
_atom_site_label
_atom_site_fract_x
_atom_site_fract_y
_atom_site_fract_z
Si Si1 0.680661 0.946785 0.634761
Si Si2 0.252444 0.830678 0.843050
Si Si3 0.068343 0.197817 0.441120
Si Si4 0.233086 0.614955 0.421111
Si Si5 0.848089 0.593270 0.028086
Si Si6 0.173121 0.824159 0.127882
Si Si7 0.242851 0.122538 0.076528
Si Si8 0.066359 0.610286 0.685289
O O1 0.816692 0.973716 0.773173
O O2 0.418932 0.754857 0.666187
O O3 0.500000 0.000000 0.500000
O O4 0.965776 0.057138 0.587134
O O5 0.405650 0.776192 0.901376
O O6 0.152076 0.882742 0.675328
O O7 0.512300 0.983436 0.891967
O O8 0.931165 0.674035 0.893288
O O9 0.417482 0.291796 0.475802
O O10 0.064080 0.320495 0.383953
O O11 0.186319 0.733493 0.289625
O O12 0.000000 0.500000 0.500000
O O13 0.170691 0.519837 0.382853
O O14 0.882136 0.468106 0.147513
O O15 0.144786 0.749560 0.081709
O O16 0.500000 0.500000 0.000000
O O17 0.834846 0.772213 0.031170
O O18 0.000000 0.000000 0.000000
#
# Coordination Sequence:
#
# PCOD8008280 Si02
#       8
#     2   2   2   2   2   2   2   2
#     4  10  20  42  70 102 138 170 230 283 348 396
#     4  11  24  43  72 106 128 182 244 282 341 419
#     4  11  25  44  73 100 133 187 236 286 342 418
#     4  11  27  44  65 101 141 186 226 285 351 418
#     4  11  25  42  67  98 144 184 219 290 359 410
#     4  10  25  45  66  99 141 182 228 289 355 407
#     4  10  21  41  72 104 133 173 230 293 330 404
#     4  10  23  44  68  96 138 182 226 283 355 409
#
# _framework density 22.613885
#
# number of rings (size 3 to 8) (size 9 to 14) (size 15 to 20)
#    0.000    1.500    2.500    1.500    5.250    9.000 
#    0.000    0.000    0.000    0.000    0.000    0.000 
#    0.000    0.000    0.000    0.000    0.000    0.000 
#
# Total GULP energy -198242.505884 kJ/mol
# GULP energy per Si atom -12390.156618 kJ/mol
# Density = 2.256241 g / cm^3
# Si number density = 22.613885 Si / 1000 Ang^3
#
#
#
# Elastic Constant Matrix: (Units=GPa)
#
#
# Indices 1 2 3 4 5 6 
#
# 1 95.1582 39.6029 61.1590 -11.9769 -3.7105 33.0159
# 2 39.6029 91.5825 46.6616 -5.1666 -0.8510 16.8732
# 3 61.1590 46.6616 145.6661 -4.1507 3.3515 15.0130
# 4 -11.9769 -5.1666 -4.1507 44.8951 3.8510 -0.9699
# 5 -3.7105 -0.8510 3.3515 3.8510 30.9505 -7.6332
# 6 33.0159 16.8732 15.0130 -0.9699 -7.6332 43.9008
#
#
#
# Elastic Compliance Matrix: (Units=1/GPa)
#
#
# Indices 1 2 3 4 5 6 
#
# 1 0.020581 -0.003268 -0.006215 0.004319 -0.000467 -0.012082
# 2 -0.003268 0.014240 -0.002961 0.000470 -0.000240 -0.002034
# 3 -0.006215 -0.002961 0.010214 -0.000897 -0.001310 0.002072
# 4 0.004319 0.000470 -0.000897 0.023594 -0.003081 -0.003136
# 5 -0.000467 -0.000240 -0.001310 -0.003081 0.034453 0.006813
# 6 -0.012082 -0.002034 0.002072 -0.003136 0.006813 0.033054
#
#
# Mechanical properties :
#
#
# Convention : Reuss Voigt Hill
#
# Bulk Modulus (GPa) = 49.63523 69.69488 59.66505
# Shear Modulus (GPa) = 29.80828 36.28149 33.04489
#
# Velocity S-wave (km/s) = 3.63456 4.00983 3.82680
# Velocity P-wave (km/s) = 6.29365 7.23358 6.77992
#
# Compressibility (1/GPa) = 0.02014698
#
# Stress axis : x y z
#
# Youngs Moduli (GPa) = 48.58919 70.22538 97.90433
#
# Poissons Ratio (x) = 0.22948 0.60849
# Poissons Ratio (y) = 0.15877 0.28989
# Poissons Ratio (z) = 0.30199 0.20793
#
# Static dielectric constant tensor:
#      x y z
#    x 9.084730 -6.361930 3.980500 
#    y -6.361930 13.792400 -5.371330 
#    z 3.980500 -5.371330 7.656620 
# 
# 
# High freq. dielectric constant tensor:
#      x y z
#    x 1.881230 -0.004790 0.003530 
#    y -0.004790 1.892510 0.005810 
#    z 0.003530 0.005810 1.905220 
# 
# From -- ./inp_files/507283.got.cif
#   From: 2010.06.25/outbox.cif.g09.slc.cpg/sg2_254_cif.got.tgz:507283.got - 2010.06.27 13:26:56.
