data_PCOD8008960
_publ_section_title
;
Structure prediction by ZEFSAII (Michael W. Deem and Ramdas Pophale) SiO2 
 PCOD8008960
Probable space group: P -1
;
_chemical_formula_sum "Si O2"
_cell_formula_units_Z 16
_cell_length_a 9.087326
_cell_length_b 14.017734
_cell_length_c 11.127246
_cell_angle_alpha 42.916147
_cell_angle_beta 74.781271
_cell_angle_gamma 66.382069
_cell_volume 883.236471
_symmetry_space_group_name_H-M "P -1"
_symmetry_group_IT_number 2
_symmetry_cell_setting 'triclinic'
loop_
_space_group_symop_operation_xyz
x,y,z
-x,-y,-z
loop_
_atom_site_type_symbol
_atom_site_label
_atom_site_fract_x
_atom_site_fract_y
_atom_site_fract_z
Si Si1 0.628757 0.347011 0.149008
Si Si2 0.454741 0.914315 0.477283
Si Si3 0.870174 0.135308 0.121640
Si Si4 0.925010 0.389679 0.181509
Si Si5 0.991661 0.290898 0.757629
Si Si6 0.098197 0.088884 0.330185
Si Si7 0.225155 0.147917 0.654905
Si Si8 0.024421 0.572811 0.603627
O O1 0.545628 0.247418 0.334112
O O2 0.711986 0.253999 0.100667
O O3 0.760898 0.387318 0.161078
O O4 0.500000 0.500000 0.000000
O O5 0.583678 0.898891 0.357267
O O6 0.500000 0.000000 0.500000
O O7 0.286676 0.003651 0.369887
O O8 0.029984 0.120488 0.179888
O O9 0.842781 0.977915 0.266398
O O10 0.895802 0.192143 0.930971
O O11 0.876621 0.432503 0.291003
O O12 0.066753 0.236099 0.278453
O O13 0.000000 0.500000 0.000000
O O14 0.167272 0.183238 0.774063
O O15 0.008694 0.411143 0.738331
O O16 0.896223 0.377081 0.579090
O O17 0.000000 0.000000 0.500000
O O18 0.148715 0.300863 0.455425
#
# Coordination Sequence:
#
# PCOD8008960 Si02
#       8
#     2   2   2   2   2   2   2   2
#     4  11  26  37  57  94 127 150 194 250 315 351
#     4  12  22  38  59  86 124 157 188 250 305 357
#     4  11  20  40  60  88 118 154 203 245 287 360
#     4  11  22  36  62  89 119 157 195 247 294 354
#     4   9  21  36  60  87 114 160 203 246 280 351
#     4  11  21  38  58  89 117 153 198 241 298 358
#     4  10  21  35  61  85 114 154 201 238 298 341
#     4   9  19  37  59  86 113 155 207 230 293 348
#
# _framework density 18.115193999999999
#
# number of rings (size 3 to 8) (size 9 to 14) (size 15 to 20)
#    0.750    0.750    3.750    3.375    5.250    0.000 
#    0.000    0.625    0.000    4.500    0.000    0.000 
#    0.000    0.000    0.000    0.000    0.000    0.000 
#
# Total GULP energy -198269.849710 kJ/mol
# GULP energy per Si atom -12391.865607 kJ/mol
# Density = 1.807396 g / cm^3
# Si number density = 18.115194 Si / 1000 Ang^3
#
#
#
# Elastic Constant Matrix: (Units=GPa)
#
#
# Indices 1 2 3 4 5 6 
#
# 1 91.8131 56.9013 39.0142 -6.4726 -8.4954 -5.2656
# 2 56.9013 131.2159 49.7366 -13.2389 -3.9320 -1.7815
# 3 39.0142 49.7366 91.0496 -2.7788 -11.0533 0.4834
# 4 -6.4726 -13.2389 -2.7788 36.9204 -4.5795 -0.9135
# 5 -8.4954 -3.9320 -11.0533 -4.5795 30.2340 -2.6781
# 6 -5.2656 -1.7815 0.4834 -0.9135 -2.6781 31.0910
#
#
#
# Elastic Compliance Matrix: (Units=1/GPa)
#
#
# Indices 1 2 3 4 5 6 
#
# 1 0.016337 -0.005473 -0.003634 0.001064 0.002959 0.002796
# 2 -0.005473 0.011820 -0.004159 0.002823 -0.001111 -0.000198
# 3 -0.003634 -0.004159 0.015271 -0.000518 0.003874 -0.000773
# 4 0.001064 0.002823 -0.000518 0.028906 0.005000 0.001630
# 5 0.002959 -0.001111 0.003874 0.005000 0.036259 0.003647
# 6 0.002796 -0.000198 -0.000773 0.001630 0.003647 0.033000
#
#
# Mechanical properties :
#
#
# Convention : Reuss Voigt Hill
#
# Bulk Modulus (GPa) = 59.18758 67.26476 63.22617
# Shear Modulus (GPa) = 28.77608 30.87751 29.82679
#
# Velocity S-wave (km/s) = 3.98993 4.13305 4.06212
# Velocity P-wave (km/s) = 7.34642 7.74522 7.54845
#
# Compressibility (1/GPa) = 0.01689544
#
# Stress axis : x y z
#
# Youngs Moduli (GPa) = 61.21119 84.60405 65.48530
#
# Poissons Ratio (x) = 0.46305 0.23795
# Poissons Ratio (y) = 0.33502 0.27236
# Poissons Ratio (z) = 0.22242 0.35188
#
# Static dielectric constant tensor:
#      x y z
#    x -232.954960 -91.202300 -81.932420 
#    y -91.202300 -31.681160 -31.747840 
#    z -81.932420 -31.747840 -24.986300 
# 
# 
# High freq. dielectric constant tensor:
#      x y z
#    x 1.672900 0.007250 -0.013110 
#    y 0.007250 1.713160 -0.012760 
#    z -0.013110 -0.012760 1.708970 
# 
# From -- ./inp_files/266423.got.cif
#   From: 2010.06.25/outbox.cif.g09.slc.cpg/sg2_134_cif.got.tgz:266423.got - 2010.06.27 13:26:56.
