data_PCOD8008082
_publ_section_title
;
Structure prediction by ZEFSAII (Michael W. Deem and Ramdas Pophale) SiO2 
 PCOD8008082
Probable space group: P -1
;
_chemical_formula_sum "Si O2"
_cell_formula_units_Z 14
_cell_length_a 9.226356
_cell_length_b 14.052231
_cell_length_c 12.361178
_cell_angle_alpha 138.066397
_cell_angle_beta 35.309795
_cell_angle_gamma 136.510621
_cell_volume 589.213275
_symmetry_space_group_name_H-M "P -1"
_symmetry_group_IT_number 2
_symmetry_cell_setting 'triclinic'
loop_
_space_group_symop_operation_xyz
x,y,z
-x,-y,-z
loop_
_atom_site_type_symbol
_atom_site_label
_atom_site_fract_x
_atom_site_fract_y
_atom_site_fract_z
Si Si1 0.038648 0.097109 0.205881
Si Si2 0.671830 0.578619 0.759850
Si Si3 0.917400 0.591022 0.031538
Si Si4 0.824812 0.832692 0.432467
Si Si5 0.613128 0.039749 0.240959
Si Si6 0.987920 0.484182 0.316480
Si Si7 0.120822 0.795840 0.406131
O O1 0.261959 0.253907 0.182561
O O2 0.948880 0.079765 0.370594
O O3 0.172308 0.969149 0.987630
O O4 0.772657 0.086499 0.293676
O O5 0.368912 0.512036 0.917542
O O6 0.733532 0.475877 0.538782
O O7 0.829138 0.584244 0.780314
O O8 0.918213 0.757668 0.207313
O O9 0.000000 0.500000 0.000000
O O10 0.088115 0.603247 0.826523
O O11 0.875912 0.734555 0.419239
O O12 0.523389 0.834036 0.602764
O O13 0.000000 0.000000 0.500000
O O14 0.395891 0.877444 0.248833
O O15 0.145745 0.658959 0.346513
#
# Coordination Sequence:
#
# PCOD8008082 Si02
#       7
#     2   2   2   2   2   2   2
#     4  10  22  41  66  94 125 169 218 267 324 378
#     4  10  24  42  67  99 132 162 218 278 319 389
#     4  12  24  43  69  96 127 179 218 262 332 385
#     4  10  24  43  63  94 133 169 218 266 317 388
#     4  10  22  41  64  91 129 171 218 262 318 388
#     4  10  22  43  68  97 130 166 217 271 328 378
#     4  10  20  42  65  91 130 170 211 272 316 379
#
# _framework density 23.760494999999999
#
# number of rings (size 3 to 8) (size 9 to 14) (size 15 to 20)
#    0.000    1.714    1.429    1.714    8.000    1.143 
#   10.286    0.000    0.000    0.000    0.000    0.000 
#    0.000    0.000    0.000    0.000    0.000    0.000 
#
# Total GULP energy -173497.870162 kJ/mol
# GULP energy per Si atom -12392.705012 kJ/mol
# Density = 2.370642 g / cm^3
# Si number density = 23.760495 Si / 1000 Ang^3
#
#
#
# Elastic Constant Matrix: (Units=GPa)
#
#
# Indices 1 2 3 4 5 6 
#
# 1 90.3368 -7.2441 66.0384 2.7033 18.9375 0.7052
# 2 -7.2441 40.2996 -1.1487 12.8380 -6.7209 1.5595
# 3 66.0384 -1.1487 134.3904 15.4820 19.2072 3.0925
# 4 2.7033 12.8380 15.4820 32.9849 5.0736 4.3248
# 5 18.9375 -6.7209 19.2072 5.0736 39.7673 2.3973
# 6 0.7052 1.5595 3.0925 4.3248 2.3973 21.6914
#
#
#
# Elastic Compliance Matrix: (Units=1/GPa)
#
#
# Indices 1 2 3 4 5 6 
#
# 1 0.018447 0.001407 -0.008699 0.002681 -0.004719 0.000526
# 2 0.001407 0.030171 0.000196 -0.012826 0.005992 -0.000348
# 3 -0.008699 0.000196 0.012470 -0.004983 -0.001188 -0.000384
# 4 0.002681 -0.012826 -0.004983 0.039037 -0.005680 -0.005610
# 5 -0.004719 0.005992 -0.001188 -0.005680 0.029842 -0.002274
# 6 0.000526 -0.000348 -0.000384 -0.005610 -0.002274 0.047534
#
#
# Mechanical properties :
#
#
# Convention : Reuss Voigt Hill
#
# Bulk Modulus (GPa) = 21.32420 42.25757 31.79088
# Shear Modulus (GPa) = 24.11669 32.71414 28.41541
#
# Velocity S-wave (km/s) = 3.18935 3.71459 3.46194
# Velocity P-wave (km/s) = 4.74939 6.01839 5.42115
#
# Compressibility (1/GPa) = 0.04689509
#
# Stress axis : x y z
#
# Youngs Moduli (GPa) = 54.21067 33.14402 80.19223
#
# Poissons Ratio (x) = -0.04662 0.69759
# Poissons Ratio (y) = -0.07626 -0.01571
# Poissons Ratio (z) = 0.47158 -0.00649
#
# Static dielectric constant tensor:
#      x y z
#    x 4.422600 -0.251800 0.152820 
#    y -0.251800 3.735300 0.315700 
#    z 0.152820 0.315700 4.449030 
# 
# 
# High freq. dielectric constant tensor:
#      x y z
#    x 1.942950 -0.002980 0.006160 
#    y -0.002980 1.919270 0.017100 
#    z 0.006160 0.017100 1.955530 
# 
# From -- ./inp_files/399527.got.cif
#   From: 2010.06.25/outbox.cif.g09.slc.cpg/sg2_200_cif.got.tgz:399527.got - 2010.06.27 13:26:56.
