data_PCOD8008468
_publ_section_title
;
Structure prediction by ZEFSAII (Michael W. Deem and Ramdas Pophale) SiO2 
 PCOD8008468
Probable space group: P -1
;
_chemical_formula_sum "Si O2"
_cell_formula_units_Z 16
_cell_length_a 15.981741
_cell_length_b 16.308741
_cell_length_c 12.523065
_cell_angle_alpha 33.474586
_cell_angle_beta 153.106007
_cell_angle_gamma 148.869371
_cell_volume 727.576938
_symmetry_space_group_name_H-M "P -1"
_symmetry_group_IT_number 2
_symmetry_cell_setting 'triclinic'
loop_
_space_group_symop_operation_xyz
x,y,z
-x,-y,-z
loop_
_atom_site_type_symbol
_atom_site_label
_atom_site_fract_x
_atom_site_fract_y
_atom_site_fract_z
Si Si1 0.072214 0.701700 0.579408
Si Si2 0.317608 0.385218 0.491960
Si Si3 0.312625 0.324038 0.947991
Si Si4 0.548432 0.342508 0.995880
Si Si5 0.795401 0.407586 0.709457
Si Si6 0.640444 0.700609 0.745782
Si Si7 0.895793 0.127417 0.198778
Si Si8 0.124087 0.000030 0.466960
O O1 0.073015 0.844133 0.502630
O O2 0.904548 0.672823 0.327610
O O3 0.006028 0.531388 0.755715
O O4 0.298696 0.744885 0.743490
O O5 0.500000 0.500000 0.500000
O O6 0.404420 0.306086 0.767480
O O7 0.221625 0.502644 0.300476
O O8 0.137479 0.240506 0.379150
O O9 0.393671 0.256137 0.013845
O O10 0.500000 0.500000 0.000000
O O11 0.271849 0.215539 0.129320
O O12 0.688097 0.542878 0.951151
O O13 0.608270 0.378360 0.448479
O O14 0.782613 0.230095 0.914302
O O15 0.723810 0.832371 0.602236
O O16 0.776801 0.026434 0.279700
O O17 0.912028 0.010707 0.248782
#
# Coordination Sequence:
#
# PCOD8008468 Si02
#       8
#     2   2   2   2   2   2   2   2
#     4  12  22  42  68  97 125 167 214 263 318 381
#     4  11  20  36  64  94 129 161 217 268 305 366
#     4  10  20  43  69  95 127 159 218 274 309 371
#     4  10  22  40  68  98 124 166 219 266 310 376
#     4  11  21  40  65  94 121 168 223 259 306 384
#     4  10  22  44  62  93 132 163 209 272 319 376
#     4  11  23  41  63  89 132 176 210 259 320 382
#     4  11  25  42  57  95 133 167 209 261 329 379
#
# _framework density 21.990801000000001
#
# number of rings (size 3 to 8) (size 9 to 14) (size 15 to 20)
#    0.000    1.250    5.000    3.375    1.750    3.000 
#    9.000    0.625    0.000    0.000    0.000    0.000 
#    0.000    0.000    0.000    0.000    0.000    0.000 
#
# Total GULP energy -198285.570104 kJ/mol
# GULP energy per Si atom -12392.848131 kJ/mol
# Density = 2.194075 g / cm^3
# Si number density = 21.990801 Si / 1000 Ang^3
#
#
#
# Elastic Constant Matrix: (Units=GPa)
#
#
# Indices 1 2 3 4 5 6 
#
# 1 120.5810 22.2055 46.2128 0.0202 -4.8616 0.9795
# 2 22.2055 41.3523 26.2390 -11.3550 -3.6316 -5.4891
# 3 46.2128 26.2390 99.7459 -6.5422 19.2615 -20.0001
# 4 0.0202 -11.3550 -6.5422 30.7070 0.0151 -2.6421
# 5 -4.8616 -3.6316 19.2615 0.0151 34.5744 -5.1983
# 6 0.9795 -5.4891 -20.0001 -2.6421 -5.1983 31.3232
#
#
#
# Elastic Compliance Matrix: (Units=1/GPa)
#
#
# Indices 1 2 3 4 5 6 
#
# 1 0.011551 -0.003165 -0.006440 -0.002946 0.004192 -0.004581
# 2 -0.003165 0.035313 -0.007926 0.011675 0.008212 0.003574
# 3 -0.006440 -0.007926 0.019250 0.001992 -0.011044 0.009439
# 4 -0.002946 0.011675 0.001992 0.037887 0.000696 0.006721
# 5 0.004192 0.008212 -0.011044 0.000696 0.036586 0.000386
# 6 -0.004581 0.003574 0.009439 0.006721 0.000386 0.039353
#
#
# Mechanical properties :
#
#
# Convention : Reuss Voigt Hill
#
# Bulk Modulus (GPa) = 32.20542 50.11040 41.15791
# Shear Modulus (GPa) = 22.18726 30.45572 26.32149
#
# Velocity S-wave (km/s) = 3.17982 3.72550 3.46342
# Velocity P-wave (km/s) = 5.30645 6.42980 5.89494
#
# Compressibility (1/GPa) = 0.03105067
#
# Stress axis : x y z
#
# Youngs Moduli (GPa) = 86.57223 28.31817 51.94679
#
# Poissons Ratio (x) = 0.08963 0.33456
# Poissons Ratio (y) = 0.27401 0.41175
# Poissons Ratio (z) = 0.55756 0.22446
#
# Static dielectric constant tensor:
#      x y z
#    x 4.479630 -0.076500 -0.283060 
#    y -0.076500 3.868120 -0.085250 
#    z -0.283060 -0.085250 3.959630 
# 
# 
# High freq. dielectric constant tensor:
#      x y z
#    x 1.875260 -0.003110 -0.006850 
#    y -0.003110 1.848040 -0.001370 
#    z -0.006850 -0.001370 1.854220 
# 
# From -- ./inp_files/454568.got.cif
#   From: 2010.06.25/outbox.cif.g09.slc.cpg/sg2_228_cif.got.tgz:454568.got - 2010.06.27 13:26:56.
