data_PCOD8008064
_publ_section_title
;
Structure prediction by ZEFSAII (Michael W. Deem and Ramdas Pophale) SiO2 
 PCOD8008064
Probable space group: P -1
;
_chemical_formula_sum "Si O2"
_cell_formula_units_Z 16
_cell_length_a 9.806484
_cell_length_b 18.419151
_cell_length_c 8.977939
_cell_angle_alpha 90.913780
_cell_angle_beta 122.165054
_cell_angle_gamma 44.019044
_cell_volume 745.665772
_symmetry_space_group_name_H-M "P -1"
_symmetry_group_IT_number 2
_symmetry_cell_setting 'triclinic'
loop_
_space_group_symop_operation_xyz
x,y,z
-x,-y,-z
loop_
_atom_site_type_symbol
_atom_site_label
_atom_site_fract_x
_atom_site_fract_y
_atom_site_fract_z
Si Si1 0.436595 0.016350 0.709675
Si Si2 0.688110 0.444336 0.964898
Si Si3 0.508307 0.399871 0.612320
Si Si4 0.628776 0.840279 0.575455
Si Si5 0.164730 0.323207 0.784667
Si Si6 0.325388 0.316621 0.553775
Si Si7 0.098460 0.185140 0.791225
Si Si8 0.175621 0.451494 0.954146
O O1 0.397915 0.097872 0.579710
O O2 0.167980 0.115236 0.676503
O O3 0.442711 0.940505 0.611406
O O4 0.743234 0.910845 0.976564
O O5 0.626036 0.553001 0.895000
O O6 0.030701 0.296272 0.182856
O O7 0.500000 0.500000 0.000000
O O8 0.566450 0.440268 0.764968
O O9 0.180107 0.536434 0.363105
O O10 0.532553 0.309281 0.694489
O O11 0.745216 0.317840 0.613449
O O12 0.505614 0.807839 0.453056
O O13 0.228196 0.316514 0.650460
O O14 0.245572 0.209789 0.862785
O O15 0.344632 0.313188 0.994289
O O16 0.024081 0.453187 0.301843
O O17 0.000000 0.500000 0.000000
#
# Coordination Sequence:
#
# PCOD8008064 Si02
#       8
#     2   2   2   2   2   2   2   2
#     4  10  22  40  64  83 116 160 217 235 292 346
#     4  11  21  36  63  95 120 148 197 246 299 355
#     4  11  21  37  60  95 124 147 194 252 302 354
#     4  10  20  42  65  84 114 166 199 245 288 358
#     4  11  21  39  62  88 125 162 187 236 310 368
#     4  10  21  39  60  87 122 162 190 232 307 373
#     4  11  22  38  63  92 114 158 204 253 288 349
#     4  10  21  35  55  87 123 157 186 232 298 364
#
# _framework density 21.457333999999999
#
# number of rings (size 3 to 8) (size 9 to 14) (size 15 to 20)
#    0.000    1.500    2.500    4.875    1.750    1.000 
#    0.000    1.250    0.000    0.000    0.000    0.000 
#    0.000    0.000    0.000    0.000    0.000    0.000 
#
# Total GULP energy -198276.242752 kJ/mol
# GULP energy per Si atom -12392.265172 kJ/mol
# Density = 2.140850 g / cm^3
# Si number density = 21.457334 Si / 1000 Ang^3
#
#
#
# Elastic Constant Matrix: (Units=GPa)
#
#
# Indices 1 2 3 4 5 6 
#
# 1 69.5059 23.2613 -11.3938 13.3592 25.5096 0.4687
# 2 23.2613 130.3050 8.5376 31.3437 26.9701 -3.3000
# 3 -11.3938 8.5376 28.3659 14.9357 9.7711 2.1663
# 4 13.3592 31.3437 14.9357 32.2611 8.5848 -3.7843
# 5 25.5096 26.9701 9.7711 8.5848 22.1292 13.9255
# 6 0.4687 -3.3000 2.1663 -3.7843 13.9255 42.4103
#
#
#
# Elastic Compliance Matrix: (Units=1/GPa)
#
#
# Indices 1 2 3 4 5 6 
#
# 1 -0.094233 -0.042023 -0.140164 0.074937 0.233624 -0.065093
# 2 -0.042023 -0.004348 -0.054045 0.021838 0.083303 -0.022517
# 3 -0.140164 -0.054045 -0.152881 0.085383 0.319883 -0.092263
# 4 0.074937 0.021838 0.085383 -0.005093 -0.184330 0.056580
# 5 0.233624 0.083303 0.319883 -0.184330 -0.475445 0.127226
# 6 -0.065093 -0.022517 -0.092263 0.056580 0.127226 -0.009467
#
#
# Mechanical properties :
#
#
# Convention : Reuss Voigt Hill
#
# Bulk Modulus (GPa) = -1.38136 29.88744 14.25304
# Shear Modulus (GPa) = -9.79796 33.21157 11.70681
#
# Velocity S-wave (km/s) = -2.13920 3.93847 2.33831
# Velocity P-wave (km/s) = 2.59744 5.88567 3.73459
#
# Compressibility (1/GPa) = -0.72392670
#
# Stress axis : x y z
#
# Youngs Moduli (GPa) = -10.61200 -229.98929 -6.54106
#
# Poissons Ratio (x) = -9.66489 -0.91682
# Poissons Ratio (y) = -0.44595 -0.35351
# Poissons Ratio (z) = -1.48742 -12.42981
#
# Static dielectric constant tensor:
#      x y z
#    x 4.166200 0.487280 -0.017660 
#    y 0.487280 4.588410 0.316390 
#    z -0.017660 0.316390 3.772480 
# 
# 
# High freq. dielectric constant tensor:
#      x y z
#    x 1.839710 0.015820 -0.024560 
#    y 0.015820 1.861160 0.031640 
#    z -0.024560 0.031640 1.813760 
# 
# From -- ./inp_files/207675.got.cif
#   From: 2010.06.25/outbox.cif.g09.slc.cpg/sg2_104_cif.got.tgz:207675.got - 2010.06.27 13:26:56.
