data_PCOD8008655
_publ_section_title
;
Structure prediction by ZEFSAII (Michael W. Deem and Ramdas Pophale) SiO2 
 PCOD8008655
Probable space group: P -1
;
_chemical_formula_sum "Si O2"
_cell_formula_units_Z 16
_cell_length_a 10.151420
_cell_length_b 14.494444
_cell_length_c 7.780662
_cell_angle_alpha 103.301053
_cell_angle_beta 45.923670
_cell_angle_gamma 123.653404
_cell_volume 661.101378
_symmetry_space_group_name_H-M "P -1"
_symmetry_group_IT_number 2
_symmetry_cell_setting 'triclinic'
loop_
_space_group_symop_operation_xyz
x,y,z
-x,-y,-z
loop_
_atom_site_type_symbol
_atom_site_label
_atom_site_fract_x
_atom_site_fract_y
_atom_site_fract_z
Si Si1 0.671204 0.249018 0.558088
Si Si2 0.689299 0.656478 0.551039
Si Si3 0.937590 0.140780 0.874320
Si Si4 0.011902 0.953881 0.694461
Si Si5 0.090885 0.264411 0.123747
Si Si6 0.543729 0.413248 0.631772
Si Si7 0.509023 0.104607 0.300187
Si Si8 0.572470 0.796239 0.887773
O O1 0.922784 0.285868 0.385500
O O2 0.684453 0.362264 0.535572
O O3 0.548677 0.149684 0.480541
O O4 0.536401 0.199829 0.836176
O O5 0.706335 0.551632 0.544263
O O6 0.554363 0.632276 0.487955
O O7 0.569134 0.680434 0.823808
O O8 0.933766 0.777412 0.371723
O O9 0.995655 0.234364 0.006223
O O10 0.669674 0.065582 0.075478
O O11 0.023320 0.061428 0.816944
O O12 0.894411 0.838928 0.866039
O O13 0.831441 0.911552 0.684130
O O14 0.261473 0.990432 0.450872
O O15 0.342993 0.375954 0.932137
O O16 0.551281 0.201895 0.169045
#
# Coordination Sequence:
#
# PCOD8008655 Si02
#       8
#     2   2   2   2   2   2   2   2
#     4  11  24  44  68  98 135 178 219 273 332 390
#     4  10  22  44  71  99 130 176 224 271 336 392
#     4  10  23  42  69  98 134 180 218 276 329 390
#     4  12  24  40  69  97 137 180 218 271 333 394
#     4  10  23  41  67 105 129 173 232 264 330 402
#     4  10  20  47  73  91 136 176 215 282 331 389
#     4  11  25  44  65  98 139 175 224 268 327 399
#     4  12  25  42  67  98 137 176 222 274 326 395
#
# _framework density 24.202034999999999
#
# number of rings (size 3 to 8) (size 9 to 14) (size 15 to 20)
#    0.000    1.250    3.750    1.500    3.500    3.000 
#    2.250    3.125    0.000    0.000    0.000    0.000 
#    0.000    0.000    0.000    0.000    0.000    0.000 
#
# Total GULP energy -198270.648401 kJ/mol
# GULP energy per Si atom -12391.915525 kJ/mol
# Density = 2.414695 g / cm^3
# Si number density = 24.202035 Si / 1000 Ang^3
#
#
#
# Elastic Constant Matrix: (Units=GPa)
#
#
# Indices 1 2 3 4 5 6 
#
# 1 49.1873 20.8107 45.9361 6.0398 -7.7777 -2.2421
# 2 20.8107 100.3082 62.8942 -9.9336 -10.9947 -24.5072
# 3 45.9361 62.8942 141.4040 3.9868 -19.1667 -4.7821
# 4 6.0398 -9.9336 3.9868 27.1420 -3.3760 4.9342
# 5 -7.7777 -10.9947 -19.1667 -3.3760 42.2644 11.0950
# 6 -2.2421 -24.5072 -4.7821 4.9342 11.0950 23.8684
#
#
#
# Elastic Compliance Matrix: (Units=1/GPa)
#
#
# Indices 1 2 3 4 5 6 
#
# 1 0.030034 -0.000675 -0.009199 -0.005769 0.000377 0.001302
# 2 -0.000675 0.020724 -0.008956 0.004937 -0.003680 0.020111
# 3 -0.009199 -0.008956 0.014420 -0.001073 0.004847 -0.009202
# 4 -0.005769 0.004937 -0.001073 0.041887 0.004810 -0.006583
# 5 0.000377 -0.003680 0.004847 0.004810 0.030005 -0.017714
# 6 0.001302 0.020111 -0.009202 -0.006583 -0.017714 0.070419
#
#
# Mechanical properties :
#
#
# Convention : Reuss Voigt Hill
#
# Bulk Modulus (GPa) = 36.34025 61.13130 48.73577
# Shear Modulus (GPa) = 19.66018 29.40550 24.53284
#
# Velocity S-wave (km/s) = 2.85324 3.48947 3.18727
# Velocity P-wave (km/s) = 5.08946 6.44583 5.80738
#
# Compressibility (1/GPa) = 0.02751770
#
# Stress axis : x y z
#
# Youngs Moduli (GPa) = 33.29530 48.25339 69.34948
#
# Poissons Ratio (x) = 0.03259 0.63792
# Poissons Ratio (y) = 0.02248 0.62110
# Poissons Ratio (z) = 0.30627 0.43216
#
# Static dielectric constant tensor:
#      x y z
#    x 4.382230 -0.076540 -0.110090 
#    y -0.076540 4.135270 0.067740 
#    z -0.110090 0.067740 4.523990 
# 
# 
# High freq. dielectric constant tensor:
#      x y z
#    x 1.959130 -0.013020 0.003080 
#    y -0.013020 1.943950 0.009710 
#    z 0.003080 0.009710 1.965100 
# 
# From -- ./inp_files/273303.got.cif
#   From: 2010.06.25/outbox.cif.g09.slc.cpg/sg2_137_cif.got.tgz:273303.got - 2010.06.27 13:26:56.
