data_PCOD8008672
_publ_section_title
;
Structure prediction by ZEFSAII (Michael W. Deem and Ramdas Pophale) SiO2 
 PCOD8008672
Probable space group: P -1
;
_chemical_formula_sum "Si O2"
_cell_formula_units_Z 14
_cell_length_a 16.843351
_cell_length_b 11.997660
_cell_length_c 15.609506
_cell_angle_alpha 37.523423
_cell_angle_beta 155.037023
_cell_angle_gamma 127.903717
_cell_volume 740.571460
_symmetry_space_group_name_H-M "P -1"
_symmetry_group_IT_number 2
_symmetry_cell_setting 'triclinic'
loop_
_space_group_symop_operation_xyz
x,y,z
-x,-y,-z
loop_
_atom_site_type_symbol
_atom_site_label
_atom_site_fract_x
_atom_site_fract_y
_atom_site_fract_z
Si Si1 0.880888 0.445332 0.035006
Si Si2 0.861948 0.829314 0.178824
Si Si3 0.287629 0.489545 0.820370
Si Si4 0.727297 0.197433 0.936128
Si Si5 0.279144 0.429848 0.373905
Si Si6 0.348708 0.324866 0.166987
Si Si7 0.780626 0.011354 0.806001
O O1 0.118529 0.414773 0.296110
O O2 0.868881 0.233697 0.126766
O O3 0.786530 0.603114 0.767604
O O4 0.752440 0.524656 0.946476
O O5 0.740051 0.685396 0.155308
O O6 0.105959 0.700184 0.488869
O O7 0.820312 0.968378 0.136972
O O8 0.779484 0.969489 0.930729
O O9 0.500000 0.500000 0.000000
O O10 0.274525 0.451547 0.930992
O O11 0.499746 0.254151 0.717805
O O12 0.709199 0.351390 0.745205
O O13 0.597936 0.229297 0.475947
O O14 0.265329 0.150978 0.195731
O O15 0.000000 0.000000 0.000000
#
# Coordination Sequence:
#
# PCOD8008672 Si02
#       7
#     2   2   2   2   2   2   2
#     4   9  17  30  49  77 110 137 164 211 273 317
#     4  10  21  36  57  78 105 140 189 216 259 330
#     4  10  22  41  55  73 105 152 182 221 266 313
#     4   9  17  31  50  79 103 138 173 213 253 323
#     4   8  17  29  49  80 110 141 163 204 277 318
#     4  10  21  35  52  82 110 135 181 224 266 321
#     4  10  21  32  54  83 106 136 174 230 274 308
#
# _framework density 18.904320999999999
#
# number of rings (size 3 to 8) (size 9 to 14) (size 15 to 20)
#    0.857    1.714    0.000    1.714    2.000    1.143 
#    0.000    0.714    0.000    1.714    0.000    0.000 
#    0.000    0.000    0.000    0.000    0.000    0.000 
#
# Total GULP energy -173526.460698 kJ/mol
# GULP energy per Si atom -12394.747193 kJ/mol
# Density = 1.886129 g / cm^3
# Si number density = 18.904321 Si / 1000 Ang^3
#
#
#
# Elastic Constant Matrix: (Units=GPa)
#
#
# Indices 1 2 3 4 5 6 
#
# 1 54.8079 42.8626 18.9454 -1.8110 22.0651 -7.4931
# 2 42.8626 114.3750 53.7243 -1.3843 34.7317 -6.4250
# 3 18.9454 53.7243 79.3736 9.1590 19.8320 3.5345
# 4 -1.8110 -1.3843 9.1590 32.6057 4.7060 15.3490
# 5 22.0651 34.7317 19.8320 4.7060 35.8996 7.0108
# 6 -7.4931 -6.4250 3.5345 15.3490 7.0108 27.2452
#
#
#
# Elastic Compliance Matrix: (Units=1/GPa)
#
#
# Indices 1 2 3 4 5 6 
#
# 1 0.030771 -0.006675 0.000599 -0.002184 -0.014815 0.011854
# 2 -0.006675 0.019114 -0.009151 0.001963 -0.010666 0.005498
# 3 0.000599 -0.009151 0.019653 -0.005040 -0.001452 -0.001330
# 4 -0.002184 0.001963 -0.005040 0.043243 0.001281 -0.024175
# 5 -0.014815 -0.010666 -0.001452 0.001281 0.051913 -0.020481
# 6 0.011854 0.005498 -0.001330 -0.024175 -0.020481 0.060323
#
#
# Mechanical properties :
#
#
# Convention : Reuss Voigt Hill
#
# Bulk Modulus (GPa) = 25.58511 53.29122 39.43816
# Shear Modulus (GPa) = 18.62203 28.01839 23.32021
#
# Velocity S-wave (km/s) = 3.14198 3.85400 3.51606
# Velocity P-wave (km/s) = 5.16973 6.93221 6.11481
#
# Compressibility (1/GPa) = 0.03908523
#
# Stress axis : x y z
#
# Youngs Moduli (GPa) = 32.49782 52.31691 50.88307
#
# Poissons Ratio (x) = 0.34921 -0.03048
# Poissons Ratio (y) = 0.21692 0.46562
# Poissons Ratio (z) = -0.01947 0.47874
#
# Static dielectric constant tensor:
#      x y z
#    x 3.070640 0.017860 0.050670 
#    y 0.017860 3.491480 0.171130 
#    z 0.050670 0.171130 3.390470 
# 
# 
# High freq. dielectric constant tensor:
#      x y z
#    x 1.702760 -0.002690 0.019570 
#    y -0.002690 1.733750 0.018400 
#    z 0.019570 0.018400 1.725830 
# 
# From -- ./inp_files/532359.got.cif
#   From: 2010.06.25/outbox.cif.g09.slc.cpg/sg2_267_cif.got.tgz:532359.got - 2010.06.27 13:26:56.
