data_PCOD8008917
_publ_section_title
;
Structure prediction by ZEFSAII (Michael W. Deem and Ramdas Pophale) SiO2 
 PCOD8008917
Probable space group: P -1
;
_chemical_formula_sum "Si O2"
_cell_formula_units_Z 16
_cell_length_a 11.471524
_cell_length_b 22.747437
_cell_length_c 12.298077
_cell_angle_alpha 29.264633
_cell_angle_beta 145.251795
_cell_angle_gamma 149.933847
_cell_volume 756.271465
_symmetry_space_group_name_H-M "P -1"
_symmetry_group_IT_number 2
_symmetry_cell_setting 'triclinic'
loop_
_space_group_symop_operation_xyz
x,y,z
-x,-y,-z
loop_
_atom_site_type_symbol
_atom_site_label
_atom_site_fract_x
_atom_site_fract_y
_atom_site_fract_z
Si Si1 0.456797 0.589405 0.586723
Si Si2 0.924790 0.463273 0.379166
Si Si3 0.757190 0.671733 0.881670
Si Si4 0.758254 0.054632 0.233976
Si Si5 0.366674 0.306656 0.000844
Si Si6 0.064185 0.925267 0.078821
Si Si7 0.417045 0.834509 0.496138
Si Si8 0.666808 0.894760 0.208023
O O1 0.192109 0.524941 0.435684
O O2 0.505407 0.624629 0.699792
O O3 0.627842 0.739065 0.417284
O O4 0.525102 0.469704 0.815511
O O5 0.000000 0.500000 0.500000
O O6 0.758527 0.293440 0.513081
O O7 0.798929 0.541841 0.106680
O O8 0.744036 0.701030 0.951325
O O9 0.973959 0.808769 0.764870
O O10 0.660740 0.951626 0.430746
O O11 0.778658 0.965669 0.295188
O O12 0.584968 0.112597 0.982272
O O13 0.521141 0.232454 0.246630
O O14 0.163916 0.226424 0.883773
O O15 0.277099 0.906714 0.317865
O O16 0.146443 0.017077 0.884828
O O17 0.000000 0.000000 0.000000
#
# Coordination Sequence:
#
# PCOD8008917 Si02
#       8
#     2   2   2   2   2   2   2   2
#     4  12  23  34  60  91 127 164 196 241 307 377
#     4  12  20  35  55  87 134 168 194 235 290 379
#     4  12  22  34  57  98 134 165 192 233 315 380
#     4  10  21  35  58  92 130 161 191 248 307 369
#     4  12  23  38  61  92 123 165 205 244 304 368
#     4  11  25  46  66  83 117 167 216 259 298 348
#     4  11  24  40  62  93 125 158 202 251 305 369
#     4  10  21  38  59  91 122 161 203 249 308 356
#
# _framework density 21.156426
#
# number of rings (size 3 to 8) (size 9 to 14) (size 15 to 20)
#    0.000    0.750    6.250    2.625    3.500    1.500 
#    0.000    0.625    0.000    0.750    0.000    0.000 
#    0.000    0.000    0.000    0.000    0.000    0.000 
#
# Total GULP energy -198266.885820 kJ/mol
# GULP energy per Si atom -12391.680364 kJ/mol
# Density = 2.110827 g / cm^3
# Si number density = 21.156426 Si / 1000 Ang^3
#
#
#
# Elastic Constant Matrix: (Units=GPa)
#
#
# Indices 1 2 3 4 5 6 
#
# 1 67.2313 15.0552 25.9036 -12.9628 18.1876 -6.1352
# 2 15.0552 70.1847 15.9145 -26.8258 -4.9907 8.7406
# 3 25.9036 15.9145 131.4168 -30.3350 11.8893 2.8826
# 4 -12.9628 -26.8258 -30.3350 43.1850 5.0242 -3.0863
# 5 18.1876 -4.9907 11.8893 5.0242 17.7401 -3.5462
# 6 -6.1352 8.7406 2.8826 -3.0863 -3.5462 19.7785
#
#
#
# Elastic Compliance Matrix: (Units=1/GPa)
#
#
# Indices 1 2 3 4 5 6 
#
# 1 0.026290 -0.005308 -0.000065 0.008447 -0.029487 0.006541
# 2 -0.005308 0.020663 0.000520 0.010287 0.006373 -0.008106
# 3 -0.000065 0.000520 0.010476 0.008634 -0.009686 -0.002166
# 4 0.008447 0.010287 0.008634 0.040786 -0.023303 -0.000998
# 5 -0.029487 0.006373 -0.009686 -0.023303 0.102316 0.004157
# 6 0.006541 -0.008106 -0.002166 -0.000998 0.004157 0.057077
#
#
# Mechanical properties :
#
#
# Convention : Reuss Voigt Hill
#
# Bulk Modulus (GPa) = 20.95420 42.50882 31.73151
# Shear Modulus (GPa) = 17.65396 30.27136 23.96266
#
# Velocity S-wave (km/s) = 2.89182 3.78674 3.36913
# Velocity P-wave (km/s) = 4.59087 6.26542 5.49234
#
# Compressibility (1/GPa) = 0.04772313
#
# Stress axis : x y z
#
# Youngs Moduli (GPa) = 38.03689 48.39516 95.45449
#
# Poissons Ratio (x) = 0.25686 0.00624
# Poissons Ratio (y) = 0.20189 -0.04960
# Poissons Ratio (z) = 0.00248 -0.02515
#
# Static dielectric constant tensor:
#      x y z
#    x 3.472450 0.907960 0.782100 
#    y 0.907960 5.586610 1.339840 
#    z 0.782100 1.339840 5.475530 
# 
# 
# High freq. dielectric constant tensor:
#      x y z
#    x 1.751750 0.029510 0.018230 
#    y 0.029510 1.841300 -0.009850 
#    z 0.018230 -0.009850 1.858370 
# 
# From -- ./inp_files/282403.got.cif
#   From: 2010.06.25/outbox.cif.g09.slc.cpg/sg2_142_cif.got.tgz:282403.got - 2010.06.27 13:26:56.
