data_PCOD8008005
_publ_section_title
;
Structure prediction by ZEFSAII (Michael W. Deem and Ramdas Pophale) SiO2 
 PCOD8008005
Probable space group: P -1
;
_chemical_formula_sum "Si O2"
_cell_formula_units_Z 14
_cell_length_a 13.879746
_cell_length_b 9.809104
_cell_length_c 6.835478
_cell_angle_alpha 119.179380
_cell_angle_beta 121.109308
_cell_angle_gamma 83.374986
_cell_volume 683.977864
_symmetry_space_group_name_H-M "P -1"
_symmetry_group_IT_number 2
_symmetry_cell_setting 'triclinic'
loop_
_space_group_symop_operation_xyz
x,y,z
-x,-y,-z
loop_
_atom_site_type_symbol
_atom_site_label
_atom_site_fract_x
_atom_site_fract_y
_atom_site_fract_z
Si Si1 0.755278 0.533859 0.054828
Si Si2 0.891253 0.016231 0.521663
Si Si3 0.530122 0.966984 0.791645
Si Si4 0.346124 0.798445 0.199597
Si Si5 0.869751 0.768291 0.657001
Si Si6 0.893832 0.283003 0.980595
Si Si7 0.732207 0.801535 0.927029
O O1 0.785344 0.636790 0.353411
O O2 0.650571 0.389319 0.897657
O O3 0.866202 0.460662 0.048020
O O4 0.718096 0.634384 0.907846
O O5 0.894909 0.200512 0.709638
O O6 0.896823 0.929860 0.675519
O O7 0.000000 0.000000 0.500000
O O8 0.781117 0.943245 0.227917
O O9 0.411330 0.905574 0.515473
O O10 0.608486 0.832837 0.754473
O O11 0.595416 0.136383 0.895753
O O12 0.500000 0.000000 0.000000
O O13 0.212660 0.818911 0.078077
O O14 0.812649 0.799935 0.823561
O O15 0.987724 0.706618 0.774518
#
# Coordination Sequence:
#
# PCOD8008005 Si02
#       7
#     2   2   2   2   2   2   2
#     4   9  24  42  60  98 129 167 204 255 317 377
#     4  11  22  36  59  96 124 165 214 255 299 366
#     4  11  23  43  68  92 120 164 214 265 312 365
#     4   9  23  42  62  94 120 162 214 255 306 373
#     4  11  22  40  62  95 132 169 203 254 316 376
#     4  10  20  42  63  89 133 165 209 251 312 372
#     4  11  24  41  64  95 130 163 209 260 316 369
#
# _framework density 20.468499999999999
#
# number of rings (size 3 to 8) (size 9 to 14) (size 15 to 20)
#    0.857    0.857    1.429    2.571    2.000    5.714 
#    2.571    1.429    0.000    0.000    0.000    0.000 
#    0.000    0.000    0.000    0.000    0.000    0.000 
#
# Total GULP energy -173542.748815 kJ/mol
# GULP energy per Si atom -12395.910630 kJ/mol
# Density = 2.042191 g / cm^3
# Si number density = 20.468500 Si / 1000 Ang^3
#
#
#
# Elastic Constant Matrix: (Units=GPa)
#
#
# Indices 1 2 3 4 5 6 
#
# 1 88.7182 35.8910 29.1556 -13.7507 -0.3210 16.9143
# 2 35.8910 108.6803 36.6575 -11.2469 -8.6198 11.8620
# 3 29.1556 36.6575 61.9563 -6.1946 -18.6567 17.6618
# 4 -13.7507 -11.2469 -6.1946 27.6416 0.5955 -2.6734
# 5 -0.3210 -8.6198 -18.6567 0.5955 33.9720 -2.1975
# 6 16.9143 11.8620 17.6618 -2.6734 -2.1975 33.8644
#
#
#
# Elastic Compliance Matrix: (Units=1/GPa)
#
#
# Indices 1 2 3 4 5 6 
#
# 1 0.015642 -0.002730 -0.005230 0.005196 -0.003765 -0.003963
# 2 -0.002730 0.012285 -0.005884 0.002355 -0.000162 0.000305
# 3 -0.005230 -0.005884 0.028962 0.000278 0.013743 -0.009518
# 4 0.005196 0.002355 0.000278 0.039740 0.000075 -0.000423
# 5 -0.003765 -0.000162 0.013743 0.000075 0.036721 -0.002842
# 6 -0.003963 0.000305 -0.009518 -0.000423 -0.002842 0.036149
#
#
# Mechanical properties :
#
#
# Convention : Reuss Voigt Hill
#
# Bulk Modulus (GPa) = 34.24489 51.41813 42.83151
# Shear Modulus (GPa) = 24.16370 29.60565 26.88467
#
# Velocity S-wave (km/s) = 3.43961 3.80728 3.62811
# Velocity P-wave (km/s) = 5.70451 6.67101 6.20660
#
# Compressibility (1/GPa) = 0.02920143
#
# Stress axis : x y z
#
# Youngs Moduli (GPa) = 63.92991 81.39896 34.52755
#
# Poissons Ratio (x) = 0.22221 0.18058
# Poissons Ratio (y) = 0.17452 0.20316
# Poissons Ratio (z) = 0.33436 0.47896
#
# Static dielectric constant tensor:
#      x y z
#    x 3.675070 -0.016150 0.121230 
#    y -0.016150 3.740430 0.026520 
#    z 0.121230 0.026520 3.887270 
# 
# 
# High freq. dielectric constant tensor:
#      x y z
#    x 1.797080 -0.000350 -0.001480 
#    y -0.000350 1.793920 0.001440 
#    z -0.001480 0.001440 1.804980 
# 
# From -- ./inp_files/91071.got.cif
#   From: 2010.06.25/outbox.cif.g09.slc.cpg/sg2_46_cif.got.tgz:91071.got - 2010.06.27 13:26:56.
