data_PCOD8008343
_publ_section_title
;
Structure prediction by ZEFSAII (Michael W. Deem and Ramdas Pophale) SiO2 
 PCOD8008343
Probable space group: P -1
;
_chemical_formula_sum "Si O2"
_cell_formula_units_Z 16
_cell_length_a 29.039850
_cell_length_b 9.104863
_cell_length_c 6.203015
_cell_angle_alpha 130.267663
_cell_angle_beta 113.502341
_cell_angle_gamma 38.901204
_cell_volume 767.068260
_symmetry_space_group_name_H-M "P -1"
_symmetry_group_IT_number 2
_symmetry_cell_setting 'triclinic'
loop_
_space_group_symop_operation_xyz
x,y,z
-x,-y,-z
loop_
_atom_site_type_symbol
_atom_site_label
_atom_site_fract_x
_atom_site_fract_y
_atom_site_fract_z
Si Si1 0.040191 0.275869 0.559620
Si Si2 0.686150 0.299436 0.475781
Si Si3 0.094917 0.426394 0.113420
Si Si4 0.198561 0.197831 0.454123
Si Si5 0.140226 0.629990 0.084443
Si Si6 0.326571 0.931151 0.151913
Si Si7 0.686679 0.744176 0.916982
Si Si8 0.585718 0.299553 0.512667
O O1 0.000000 0.500000 0.500000
O O2 0.985698 0.343290 0.703024
O O3 0.088215 0.962111 0.259205
O O4 0.096568 0.264898 0.771680
O O5 0.671133 0.565860 0.694508
O O6 0.610871 0.412071 0.527533
O O7 0.759060 0.053711 0.528192
O O8 0.698919 0.179125 0.145748
O O9 0.155309 0.194390 0.190324
O O10 0.113916 0.583702 0.201531
O O11 0.259439 0.158728 0.412396
O O12 0.135576 0.509157 0.748691
O O13 0.226171 0.449793 0.092453
O O14 0.402180 0.680078 0.194016
O O15 0.344173 0.070038 0.180579
O O16 0.638585 0.965316 0.235789
O O17 0.500000 0.500000 0.500000
#
# Coordination Sequence:
#
# PCOD8008343 Si02
#       8
#     2   2   2   2   2   2   2   2
#     4  11  28  46  65  94 129 172 216 266 326 389
#     4  10  23  40  63 100 132 161 220 265 312 382
#     4  11  25  46  64  93 127 171 214 263 334 380
#     4  11  21  42  66  93 130 166 208 274 319 374
#     4  12  24  43  67  94 130 166 216 271 320 383
#     4  10  20  43  62  96 128 167 211 261 321 375
#     4  11  23  40  66 101 125 167 220 263 318 377
#     4  10  23  45  66  94 138 173 207 261 321 380
#
# _framework density 20.858639
#
# number of rings (size 3 to 8) (size 9 to 14) (size 15 to 20)
#    0.000    1.250    5.000    1.125    5.250    8.500 
#    0.000    1.250    0.000    0.000    0.000    0.000 
#    0.000    0.000    0.000    0.000    0.000    0.000 
#
# Total GULP energy -198341.409000 kJ/mol
# GULP energy per Si atom -12396.338063 kJ/mol
# Density = 2.081116 g / cm^3
# Si number density = 20.858639 Si / 1000 Ang^3
#
#
#
# Elastic Constant Matrix: (Units=GPa)
#
#
# Indices 1 2 3 4 5 6 
#
# 1 107.4531 49.6941 58.1786 11.7588 14.7524 -1.6208
# 2 49.6941 107.0954 66.5379 -18.2094 10.6311 -12.5545
# 3 58.1786 66.5379 118.3359 -8.2937 15.0539 9.4458
# 4 11.7588 -18.2094 -8.2937 39.2394 3.9118 4.9169
# 5 14.7524 10.6311 15.0539 3.9118 31.8814 4.1873
# 6 -1.6208 -12.5545 9.4458 4.9169 4.1873 33.6106
#
#
#
# Elastic Compliance Matrix: (Units=1/GPa)
#
#
# Indices 1 2 3 4 5 6 
#
# 1 0.015730 -0.004835 -0.005440 -0.008118 -0.002359 0.001963
# 2 -0.004835 0.019289 -0.008297 0.007822 -0.002347 0.008452
# 3 -0.005440 -0.008297 0.016872 0.002570 -0.001916 -0.008240
# 4 -0.008118 0.007822 0.002570 0.032780 -0.003756 -0.002520
# 5 -0.002359 -0.002347 -0.001916 -0.003756 0.035169 -0.004284
# 6 0.001963 0.008452 -0.008240 -0.002520 -0.004284 0.036222
#
#
# Mechanical properties :
#
#
# Convention : Reuss Voigt Hill
#
# Bulk Modulus (GPa) = 67.81073 75.74505 71.77789
# Shear Modulus (GPa) = 25.23688 31.51120 28.37404
#
# Velocity S-wave (km/s) = 3.48214 3.89099 3.69223
# Velocity P-wave (km/s) = 6.98192 7.52189 7.25693
#
# Compressibility (1/GPa) = 0.01474693
#
# Stress axis : x y z
#
# Youngs Moduli (GPa) = 63.57340 51.84185 59.26961
#
# Poissons Ratio (x) = 0.25064 0.32245
# Poissons Ratio (y) = 0.30736 0.49176
# Poissons Ratio (z) = 0.34587 0.43013
#
# Static dielectric constant tensor:
#      x y z
#    x 3.823300 -0.027960 -0.054880 
#    y -0.027960 3.765850 -0.289320 
#    z -0.054880 -0.289320 4.009160 
# 
# 
# High freq. dielectric constant tensor:
#      x y z
#    x 1.822540 -0.003630 -0.007820 
#    y -0.003630 1.804490 -0.022680 
#    z -0.007820 -0.022680 1.817330 
# 
# From -- ./inp_files/55440.got.cif
#   From: 2010.06.25/outbox.cif.g09.slc.cpg/sg2_28_cif.got.tgz:55440.got - 2010.06.27 13:26:56.
