data_PCOD8008141
_publ_section_title
;
Structure prediction by ZEFSAII (Michael W. Deem and Ramdas Pophale) SiO2 
 PCOD8008141
Probable space group: P -1
;
_chemical_formula_sum "Si O2"
_cell_formula_units_Z 12
_cell_length_a 15.958171
_cell_length_b 9.188309
_cell_length_c 10.718430
_cell_angle_alpha 120.476397
_cell_angle_beta 24.001905
_cell_angle_gamma 117.691594
_cell_volume 550.957313
_symmetry_space_group_name_H-M "P -1"
_symmetry_group_IT_number 2
_symmetry_cell_setting 'triclinic'
loop_
_space_group_symop_operation_xyz
x,y,z
-x,-y,-z
loop_
_atom_site_type_symbol
_atom_site_label
_atom_site_fract_x
_atom_site_fract_y
_atom_site_fract_z
Si Si1 0.723944 0.607014 0.600509
Si Si2 0.448979 0.344572 0.410642
Si Si3 0.769568 0.943212 0.265524
Si Si4 0.105568 0.647192 0.251707
Si Si5 0.547672 0.280673 0.776809
Si Si6 0.174364 0.299401 0.124744
O O1 0.682676 0.596467 0.504769
O O2 0.727654 0.419074 0.575672
O O3 0.950786 0.680810 0.359703
O O4 0.543693 0.721577 0.959077
O O5 0.500000 0.500000 0.500000
O O6 0.305673 0.204278 0.605744
O O7 0.672641 0.266591 0.038080
O O8 0.617305 0.098534 0.558253
O O9 0.769086 0.875959 0.095542
O O10 0.000000 0.000000 0.000000
O O11 0.131906 0.445603 0.145849
O O12 0.020232 0.729472 0.531541
O O13 0.368199 0.355998 0.966908
#
# Coordination Sequence:
#
# PCOD8008141 Si02
#       6
#     2   2   2   2   2   2
#     4  10  22  42  71  99 126 179 226 264 328 399
#     4  12  25  45  66 100 134 173 224 276 323 391
#     4  12  26  42  63 101 137 175 217 276 337 384
#     4  10  21  41  72  93 129 175 224 267 320 398
#     4  10  21  41  69  97 134 174 221 272 326 397
#     4  10  20  42  66  97 129 177 220 265 331 391
#
# _framework density 21.780272
#
# number of rings (size 3 to 8) (size 9 to 14) (size 15 to 20)
#    0.000    1.333    3.333    1.500    4.667    1.333 
#    6.000    1.667    0.000    0.000    0.000    0.000 
#    0.000    0.000    0.000    0.000    0.000    0.000 
#
# Total GULP energy -148754.106775 kJ/mol
# GULP energy per Si atom -12396.175565 kJ/mol
# Density = 2.173070 g / cm^3
# Si number density = 21.780272 Si / 1000 Ang^3
#
#
#
# Elastic Constant Matrix: (Units=GPa)
#
#
# Indices 1 2 3 4 5 6 
#
# 1 116.6988 29.9459 41.6601 -2.3600 5.5780 0.3872
# 2 29.9459 96.9780 56.4283 5.8300 14.3753 8.2877
# 3 41.6601 56.4283 112.9355 -12.4078 9.1470 -5.0143
# 4 -2.3600 5.8300 -12.4078 51.6735 15.2899 3.7581
# 5 5.5780 14.3753 9.1470 15.2899 33.2896 9.1653
# 6 0.3872 8.2877 -5.0143 3.7581 9.1653 20.5787
#
#
#
# Elastic Compliance Matrix: (Units=1/GPa)
#
#
# Indices 1 2 3 4 5 6 
#
# 1 0.009993 -0.001235 -0.003079 -0.000069 -0.000166 -0.000354
# 2 -0.001235 0.016600 -0.008422 -0.003059 -0.001136 -0.007650
# 3 -0.003079 -0.008422 0.015565 0.005390 -0.004927 0.008452
# 4 -0.000069 -0.003059 0.005390 0.024377 -0.012333 0.003588
# 5 -0.000166 -0.001136 -0.004927 -0.012333 0.042353 -0.017351
# 6 -0.000354 -0.007650 0.008452 0.003588 -0.017351 0.060813
#
#
# Mechanical properties :
#
#
# Convention : Reuss Voigt Hill
#
# Bulk Modulus (GPa) = 59.93371 64.74233 62.33802
# Shear Modulus (GPa) = 24.90856 34.34688 29.62772
#
# Velocity S-wave (km/s) = 3.38543 3.97542 3.69223
# Velocity P-wave (km/s) = 6.54665 7.13174 6.84545
#
# Compressibility (1/GPa) = 0.01668510
#
# Stress axis : x y z
#
# Youngs Moduli (GPa) = 100.07127 60.24254 64.24693
#
# Poissons Ratio (x) = 0.07441 0.19781
# Poissons Ratio (y) = 0.12361 0.54109
# Poissons Ratio (z) = 0.30811 0.50737
#
# Static dielectric constant tensor:
#      x y z
#    x 4.004770 0.305870 0.181370 
#    y 0.305870 3.711630 0.095000 
#    z 0.181370 0.095000 4.427270 
# 
# 
# High freq. dielectric constant tensor:
#      x y z
#    x 1.861970 0.019730 0.000670 
#    y 0.019730 1.820070 0.001950 
#    z 0.000670 0.001950 1.874230 
# 
# From -- ./inp_files/155242.got.cif
#   From: 2010.06.25/outbox.cif.g09.slc.cpg/sg2_78_cif.got.tgz:155242.got - 2010.06.27 13:26:56.
