data_PCOD8008129
_publ_section_title
;
Structure prediction by ZEFSAII (Michael W. Deem and Ramdas Pophale) SiO2 
 PCOD8008129
Probable space group: P -1
;
_chemical_formula_sum "Si O2"
_cell_formula_units_Z 14
_cell_length_a 16.775846
_cell_length_b 7.277798
_cell_length_c 8.265030
_cell_angle_alpha 89.989340
_cell_angle_beta 89.996546
_cell_angle_gamma 36.936242
_cell_volume 606.386887
_symmetry_space_group_name_H-M "P -1"
_symmetry_group_IT_number 2
_symmetry_cell_setting 'triclinic'
loop_
_space_group_symop_operation_xyz
x,y,z
-x,-y,-z
loop_
_atom_site_type_symbol
_atom_site_label
_atom_site_fract_x
_atom_site_fract_y
_atom_site_fract_z
Si Si1 0.098014 0.038959 0.607886
Si Si2 0.386192 0.206528 0.870104
Si Si3 0.597903 0.539026 0.392023
Si Si4 0.249916 0.749953 0.064217
Si Si5 0.113762 0.293393 0.870084
Si Si6 0.985002 0.182326 0.267658
Si Si7 0.485178 0.682049 0.732333
O O1 0.250066 0.750269 0.550333
O O2 0.067920 0.927022 0.731703
O O3 0.065248 0.282406 0.706902
O O4 0.003155 0.211363 0.453320
O O5 0.434545 0.217899 0.706885
O O6 0.370502 0.020649 0.816203
O O7 0.263164 0.543721 0.949621
O O8 0.500000 0.000000 0.000000
O O9 0.503060 0.711517 0.546588
O O10 0.567463 0.427970 0.268111
O O11 0.376750 0.554647 0.173933
O O12 0.122989 0.945382 0.173727
O O13 0.236745 0.956051 0.949540
O O14 0.129614 0.478969 0.816167
O O15 0.000000 0.500000 0.000000
#
# Coordination Sequence:
#
# PCOD8008129 Si02
#       7
#     2   2   2   2   2   2   2
#     4  11  22  43  66  93 126 165 215 261 312 378
#     4  10  22  41  63  95 128 164 208 258 317 376
#     4  11  22  43  66  93 126 165 215 261 312 378
#     4  10  20  42  66  94 132 164 206 264 312 380
#     4  10  22  41  63  95 128 164 208 258 317 376
#     4  10  23  42  68  91 127 168 211 264 309 374
#     4  10  23  42  68  91 127 168 211 264 309 374
#
# _framework density 23.087571000000001
#
# number of rings (size 3 to 8) (size 9 to 14) (size 15 to 20)
#    0.000    1.714    2.857    0.857    0.000    5.714 
#    5.143    4.286    0.000    0.000    0.000    0.000 
#    0.000    0.000    0.000    0.000    0.000    0.000 
#
# Total GULP energy -173512.611154 kJ/mol
# GULP energy per Si atom -12393.757940 kJ/mol
# Density = 2.303502 g / cm^3
# Si number density = 23.087571 Si / 1000 Ang^3
#
#
#
# Elastic Constant Matrix: (Units=GPa)
#
#
# Indices 1 2 3 4 5 6 
#
# 1 46.5931 20.2590 -13.5237 0.1003 -0.0039 4.0176
# 2 20.2590 131.8134 38.3509 0.2232 0.0409 14.9313
# 3 -13.5237 38.3509 77.8020 -0.1219 -0.0701 1.9700
# 4 0.1003 0.2232 -0.1219 3.9670 -0.6288 0.0084
# 5 -0.0039 0.0409 -0.0701 -0.6288 28.8293 -0.0107
# 6 4.0176 14.9313 1.9700 0.0084 -0.0107 44.6050
#
#
#
# Elastic Compliance Matrix: (Units=1/GPa)
#
#
# Indices 1 2 3 4 5 6 
#
# 1 0.026457 -0.006230 0.007686 -0.000076 0.000029 -0.000637
# 2 -0.006230 0.010682 -0.006280 -0.000638 -0.000046 -0.002737
# 3 0.007686 -0.006280 0.017270 0.000699 0.000067 0.000647
# 4 -0.000076 -0.000638 0.000699 0.253015 0.005521 0.000143
# 5 0.000029 -0.000046 0.000067 0.005521 0.034808 0.000017
# 6 -0.000637 -0.002737 0.000647 0.000143 0.000017 0.023364
#
#
# Mechanical properties :
#
#
# Convention : Reuss Voigt Hill
#
# Bulk Modulus (GPa) = 22.34132 38.48675 30.41403
# Shear Modulus (GPa) = 12.81509 29.55509 21.18509
#
# Velocity S-wave (km/s) = 2.35854 3.58177 3.03247
# Velocity P-wave (km/s) = 4.13699 5.81477 5.04610
#
# Compressibility (1/GPa) = 0.04476012
#
# Stress axis : x y z
#
# Youngs Moduli (GPa) = 37.79670 93.61121 57.90485
#
# Poissons Ratio (x) = 0.58323 -0.44506
# Poissons Ratio (y) = 0.23549 0.36367
# Poissons Ratio (z) = -0.29051 0.58792
#
# Static dielectric constant tensor:
#      x y z
#    x 3.896910 0.394810 0.000040 
#    y 0.394810 4.635350 0.000740 
#    z 0.000040 0.000740 4.355090 
# 
# 
# High freq. dielectric constant tensor:
#      x y z
#    x 1.902050 0.010870 0.000040 
#    y 0.010870 1.921810 0.000040 
#    z 0.000040 0.000040 1.931960 
# 
# From -- ./inp_files/100593.got.cif
#   From: 2010.06.25/outbox.cif.g09.slc.cpg/sg2_51_cif.got.tgz:100593.got - 2010.06.27 13:26:56.
