data_PCOD8008396
_publ_section_title
;
Structure prediction by ZEFSAII (Michael W. Deem and Ramdas Pophale) SiO2 
 PCOD8008396
Probable space group: P -1
;
_chemical_formula_sum "Si O2"
_cell_formula_units_Z 14
_cell_length_a 17.396512
_cell_length_b 18.686299
_cell_length_c 12.439831
_cell_angle_alpha 20.243124
_cell_angle_beta 38.025883
_cell_angle_gamma 29.124004
_cell_volume 668.682841
_symmetry_space_group_name_H-M "P -1"
_symmetry_group_IT_number 2
_symmetry_cell_setting 'triclinic'
loop_
_space_group_symop_operation_xyz
x,y,z
-x,-y,-z
loop_
_atom_site_type_symbol
_atom_site_label
_atom_site_fract_x
_atom_site_fract_y
_atom_site_fract_z
Si Si1 0.939133 0.368986 0.820396
Si Si2 0.646431 0.900531 0.904449
Si Si3 0.386030 0.300246 0.165689
Si Si4 0.488421 0.443797 0.212406
Si Si5 0.129434 0.719609 0.197763
Si Si6 0.461792 0.298133 0.843142
Si Si7 0.798194 0.805448 0.083755
O O1 0.787620 0.576194 0.770814
O O2 0.890677 0.243334 0.963000
O O3 0.000000 0.500000 0.500000
O O4 0.083060 0.149185 0.054402
O O5 0.599516 0.126698 0.552850
O O6 0.674801 0.654757 0.154037
O O7 0.786184 0.835181 0.924362
O O8 0.500000 0.000000 0.000000
O O9 0.500000 0.000000 0.500000
O O10 0.448787 0.451825 0.923513
O O11 0.387460 0.323205 0.004200
O O12 0.302058 0.603353 0.217248
O O13 0.500000 0.500000 0.000000
O O14 0.108615 0.505546 0.558476
O O15 0.000000 0.000000 0.000000
O O16 0.500000 0.500000 0.500000
O O17 0.626686 0.998448 0.061599
#
# Coordination Sequence:
#
# PCOD8008396 Si02
#       7
#     2   2   2   2   2   2   2
#     4  10  23  43  60  95 136 175 216 279 337 386
#     4  10  20  43  66  93 131 174 219 270 337 389
#     4  12  24  39  67 100 131 174 230 278 328 399
#     4  12  23  41  67  98 134 170 225 284 329 395
#     4  11  23  39  66  99 131 178 220 271 338 397
#     4  11  23  40  69 101 129 174 222 273 338 404
#     4  10  22  43  67  91 139 172 222 276 329 406
#
# _framework density 20.936682999999999
#
# number of rings (size 3 to 8) (size 9 to 14) (size 15 to 20)
#    0.000    1.143    4.286    4.286    6.000    0.000 
#    0.000    3.571    0.000    0.000    0.000    0.000 
#    0.000    0.000    0.000    0.000    0.000    0.000 
#
# Total GULP energy -173432.862826 kJ/mol
# GULP energy per Si atom -12388.061630 kJ/mol
# Density = 2.088903 g / cm^3
# Si number density = 20.936683 Si / 1000 Ang^3
#
#
#
# Elastic Constant Matrix: (Units=GPa)
#
#
# Indices 1 2 3 4 5 6 
#
# 1 178.3299 54.9871 40.0063 2.7638 12.2053 11.8275
# 2 54.9871 116.4120 28.8466 -0.6316 8.4474 17.0470
# 3 40.0063 28.8466 100.9268 0.2695 2.4940 15.2079
# 4 2.7638 -0.6316 0.2695 32.7967 4.7421 2.1701
# 5 12.2053 8.4474 2.4940 4.7421 35.7356 1.1220
# 6 11.8275 17.0470 15.2079 2.1701 1.1220 41.5935
#
#
#
# Elastic Compliance Matrix: (Units=1/GPa)
#
#
# Indices 1 2 3 4 5 6 
#
# 1 0.006995 -0.002695 -0.001946 -0.000392 -0.001561 -0.000111
# 2 -0.002695 0.010812 -0.001517 0.000878 -0.001548 -0.003114
# 3 -0.001946 -0.001517 0.011569 0.000202 0.000286 -0.003073
# 4 -0.000392 0.000878 0.000202 0.031265 -0.004179 -0.001840
# 5 -0.001561 -0.001548 0.000286 -0.004179 0.029404 0.000399
# 6 -0.000111 -0.003114 -0.003073 -0.001840 0.000399 0.026559
#
#
# Mechanical properties :
#
#
# Convention : Reuss Voigt Hill
#
# Bulk Modulus (GPa) = 58.61613 71.48317 65.04965
# Shear Modulus (GPa) = 37.14508 40.14708 38.64608
#
# Velocity S-wave (km/s) = 4.21665 4.38373 4.30100
# Velocity P-wave (km/s) = 7.19475 7.73560 7.47007
#
# Compressibility (1/GPa) = 0.01706015
#
# Stress axis : x y z
#
# Youngs Moduli (GPa) = 142.95200 92.48936 86.43993
#
# Poissons Ratio (x) = 0.24922 0.16825
# Poissons Ratio (y) = 0.38520 0.13113
# Poissons Ratio (z) = 0.27825 0.14030
#
# Static dielectric constant tensor:
#      x y z
#    x 7.077160 0.103890 0.164690 
#    y 0.103890 3.653720 0.100130 
#    z 0.164690 0.100130 3.678810 
# 
# 
# High freq. dielectric constant tensor:
#      x y z
#    x 1.857220 0.011540 -0.002050 
#    y 0.011540 1.796850 0.003280 
#    z -0.002050 0.003280 1.800260 
# 
# From -- ./inp_files/466503.got.cif
#   From: 2010.06.25/outbox.cif.g09.slc.cpg/sg2_234_cif.got.tgz:466503.got - 2010.06.27 13:26:56.
