data_PCOD8008490
_publ_section_title
;
Structure prediction by ZEFSAII (Michael W. Deem and Ramdas Pophale) SiO2 
 PCOD8008490
Probable space group: P -1
;
_chemical_formula_sum "Si O2"
_cell_formula_units_Z 16
_cell_length_a 8.428025
_cell_length_b 5.459582
_cell_length_c 23.343842
_cell_angle_alpha 114.162557
_cell_angle_beta 120.474621
_cell_angle_gamma 47.847823
_cell_volume 682.304220
_symmetry_space_group_name_H-M "P -1"
_symmetry_group_IT_number 2
_symmetry_cell_setting 'triclinic'
loop_
_space_group_symop_operation_xyz
x,y,z
-x,-y,-z
loop_
_atom_site_type_symbol
_atom_site_label
_atom_site_fract_x
_atom_site_fract_y
_atom_site_fract_z
Si Si1 0.362419 0.047764 0.728238
Si Si2 0.535405 0.745800 0.843287
Si Si3 0.920329 0.280066 0.613920
Si Si4 0.709420 0.932850 0.693411
Si Si5 0.651822 0.156229 0.962365
Si Si6 0.713104 0.906824 0.566651
Si Si7 0.140395 0.706250 0.809579
Si Si8 0.952086 0.152240 0.919460
O O1 0.221783 0.335196 0.777300
O O2 0.190221 0.031255 0.654264
O O3 0.517513 0.734786 0.769215
O O4 0.512042 0.117666 0.722593
O O5 0.349726 0.718797 0.835609
O O6 0.801307 0.459181 0.878116
O O7 0.490665 0.075146 0.895300
O O8 0.786463 0.550940 0.666308
O O9 0.877186 0.503402 0.569882
O O10 0.837604 0.043612 0.568788
O O11 0.626824 0.097101 0.630705
O O12 0.921170 0.940727 0.750478
O O13 0.784277 0.188220 0.939533
O O14 0.500000 0.500000 0.000000
O O15 0.837051 0.870217 0.013866
O O16 0.500000 0.000000 0.500000
O O17 0.061975 0.811858 0.870765
#
# Coordination Sequence:
#
# PCOD8008490 Si02
#       8
#     2   2   2   2   2   2   2   2
#     4  11  23  43  64  96 132 175 221 284 334 410
#     4  12  24  38  66  91 126 169 219 273 346 399
#     4   9  22  40  66  99 138 183 228 284 337 405
#     4   9  22  39  65  95 134 172 227 273 344 397
#     4  11  25  46  63  89 129 167 217 275 340 409
#     4  10  20  43  70  98 142 186 230 280 343 405
#     4  11  23  42  63  93 129 165 219 271 336 408
#     4  11  25  42  64  93 126 166 219 272 338 415
#
# _framework density 23.449950999999999
#
# number of rings (size 3 to 8) (size 9 to 14) (size 15 to 20)
#    0.750    0.750    0.000    5.250    0.000    9.000 
#    0.000    1.250    0.000    0.000    0.000    0.000 
#    0.000    0.000    0.000    0.000    0.000    0.000 
#
# Total GULP energy -198224.875677 kJ/mol
# GULP energy per Si atom -12389.054730 kJ/mol
# Density = 2.339658 g / cm^3
# Si number density = 23.449951 Si / 1000 Ang^3
#
#
#
# Elastic Constant Matrix: (Units=GPa)
#
#
# Indices 1 2 3 4 5 6 
#
# 1 76.0874 22.5249 25.0157 -7.3963 17.7316 0.7092
# 2 22.5249 64.8979 24.9935 -30.0033 9.4152 10.0646
# 3 25.0157 24.9935 130.2641 -46.9723 29.7106 -1.8452
# 4 -7.3963 -30.0033 -46.9723 44.6598 -3.9223 -0.1576
# 5 17.7316 9.4152 29.7106 -3.9223 49.6986 5.7726
# 6 0.7092 10.0646 -1.8452 -0.1576 5.7726 35.9085
#
#
#
# Elastic Compliance Matrix: (Units=1/GPa)
#
#
# Indices 1 2 3 4 5 6 
#
# 1 0.016384 -0.006764 -0.002895 -0.005174 -0.003469 0.001958
# 2 -0.006764 0.027623 0.004454 0.021837 -0.002968 -0.006807
# 3 -0.002895 0.004454 0.015890 0.018529 -0.007962 0.000987
# 4 -0.005174 0.021837 0.018529 0.054924 -0.008634 -0.003437
# 5 -0.003469 -0.002968 -0.007962 -0.008634 0.026441 -0.003797
# 6 0.001958 -0.006807 0.000987 -0.003437 -0.003797 0.030364
#
#
# Mechanical properties :
#
#
# Convention : Reuss Voigt Hill
#
# Bulk Modulus (GPa) = 20.20732 46.25750 33.23241
# Shear Modulus (GPa) = 25.18488 39.30108 32.24298
#
# Velocity S-wave (km/s) = 3.28073 4.09828 3.71208
# Velocity P-wave (km/s) = 4.79445 6.49334 5.70746
#
# Compressibility (1/GPa) = 0.04948702
#
# Stress axis : x y z
#
# Youngs Moduli (GPa) = 61.03381 36.20144 62.93387
#
# Poissons Ratio (x) = 0.24486 0.18220
# Poissons Ratio (y) = 0.41283 -0.28031
# Poissons Ratio (z) = 0.17670 -0.16124
#
# Static dielectric constant tensor:
#      x y z
#    x 3.859960 -0.167460 0.061930 
#    y -0.167460 4.271620 -0.234490 
#    z 0.061930 -0.234490 4.533150 
# 
# 
# High freq. dielectric constant tensor:
#      x y z
#    x 1.905940 -0.007020 0.010570 
#    y -0.007020 1.915500 -0.017110 
#    z 0.010570 -0.017110 1.943840 
# 
# From -- ./inp_files/605907.got.cif
#   From: 2010.06.25/outbox.cif.g09.slc.cpg/sg2_303_cif.got.tgz:605907.got - 2010.06.27 13:26:56.
