data_PCOD8008825
_publ_section_title
;
Structure prediction by ZEFSAII (Michael W. Deem and Ramdas Pophale) SiO2 
 PCOD8008825
Probable space group: P -1
;
_chemical_formula_sum "Si O2"
_cell_formula_units_Z 14
_cell_length_a 12.822461
_cell_length_b 20.735217
_cell_length_c 11.343402
_cell_angle_alpha 29.532210
_cell_angle_beta 131.212644
_cell_angle_gamma 149.669114
_cell_volume 697.407341
_symmetry_space_group_name_H-M "P -1"
_symmetry_group_IT_number 2
_symmetry_cell_setting 'triclinic'
loop_
_space_group_symop_operation_xyz
x,y,z
-x,-y,-z
loop_
_atom_site_type_symbol
_atom_site_label
_atom_site_fract_x
_atom_site_fract_y
_atom_site_fract_z
Si Si1 0.880152 0.606042 0.215074
Si Si2 0.440412 0.025771 0.169979
Si Si3 0.209580 0.676396 0.232042
Si Si4 0.761310 0.387897 0.252669
Si Si5 0.762653 0.685639 0.403991
Si Si6 0.784868 0.429682 0.942523
Si Si7 0.029231 0.906456 0.018080
O O1 0.754213 0.434498 0.498396
O O2 0.740601 0.489376 0.174551
O O3 0.126840 0.722490 0.194011
O O4 0.911668 0.778296 0.009977
O O5 0.410410 0.854210 0.460201
O O6 0.206996 0.926281 0.148977
O O7 0.561903 0.114079 0.993058
O O8 0.585505 0.207221 0.086169
O O9 0.155246 0.392806 0.362392
O O10 0.015338 0.518979 0.238023
O O11 0.706200 0.405794 0.055295
O O12 0.500000 0.500000 0.500000
O O13 0.845684 0.773871 0.194001
O O14 0.858834 0.869181 0.270150
O O15 0.000000 0.500000 0.000000
#
# Coordination Sequence:
#
# PCOD8008825 Si02
#       7
#     2   2   2   2   2   2   2
#     4   9  18  38  56  87 129 158 197 260 291 368
#     4  12  20  35  65  93 120 168 198 256 313 345
#     4   9  18  34  54  92 127 147 202 253 294 353
#     4  10  21  35  52  93 125 153 201 247 300 371
#     4  11  25  44  61  92 121 163 209 254 301 367
#     4  12  22  40  63  88 129 160 200 259 309 356
#     4  11  22  39  66  89 118 161 217 245 303 366
#
# _framework density 20.074352000000001
#
# number of rings (size 3 to 8) (size 9 to 14) (size 15 to 20)
#    0.857    0.571    4.286    2.143    0.000    2.286 
#    0.000    0.714    0.000    0.857    0.000    0.000 
#    0.000    0.000    0.000    0.000    0.000    0.000 
#
# Total GULP energy -173537.529684 kJ/mol
# GULP energy per Si atom -12395.537835 kJ/mol
# Density = 2.002866 g / cm^3
# Si number density = 20.074352 Si / 1000 Ang^3
#
#
#
# Elastic Constant Matrix: (Units=GPa)
#
#
# Indices 1 2 3 4 5 6 
#
# 1 69.2886 27.9436 41.3110 -11.7928 5.9721 -17.3698
# 2 27.9436 67.5636 38.0970 -5.3657 12.2246 -30.6117
# 3 41.3110 38.0970 111.7186 -18.5476 2.8978 -12.2860
# 4 -11.7928 -5.3657 -18.5476 27.9335 -7.5957 10.4870
# 5 5.9721 12.2246 2.8978 -7.5957 41.2046 -11.5586
# 6 -17.3698 -30.6117 -12.2860 10.4870 -11.5586 37.9025
#
#
#
# Elastic Compliance Matrix: (Units=1/GPa)
#
#
# Indices 1 2 3 4 5 6 
#
# 1 0.020605 -0.003224 -0.005589 0.002782 0.000077 0.004281
# 2 -0.003224 0.031047 -0.008571 -0.010596 -0.003753 0.022607
# 3 -0.005589 -0.008571 0.014617 0.008718 0.002104 -0.006516
# 4 0.002782 -0.010596 0.008718 0.048478 0.006617 -0.015852
# 5 0.000077 -0.003753 0.002104 0.006617 0.027646 0.004286
# 6 0.004281 0.022607 -0.006516 -0.015852 0.004286 0.050185
#
#
# Mechanical properties :
#
#
# Convention : Reuss Voigt Hill
#
# Bulk Modulus (GPa) = 31.74478 51.47489 41.60984
# Shear Modulus (GPa) = 21.02208 30.82274 25.92241
#
# Velocity S-wave (km/s) = 3.23957 3.92271 3.59739
# Velocity P-wave (km/s) = 5.46270 6.79813 6.16667
#
# Compressibility (1/GPa) = 0.03150124
#
# Stress axis : x y z
#
# Youngs Moduli (GPa) = 48.53198 32.20888 68.41434
#
# Poissons Ratio (x) = 0.10383 0.38239
# Poissons Ratio (y) = 0.15645 0.58638
# Poissons Ratio (z) = 0.27126 0.27606
#
# Static dielectric constant tensor:
#      x y z
#    x 3.533050 -0.387470 -0.069730 
#    y -0.387470 3.901950 -0.283450 
#    z -0.069730 -0.283450 3.865770 
# 
# 
# High freq. dielectric constant tensor:
#      x y z
#    x 1.765330 -0.033310 -0.014440 
#    y -0.033310 1.773960 -0.018940 
#    z -0.014440 -0.018940 1.781980 
# 
# From -- ./inp_files/434590.got.cif
#   From: 2010.06.25/outbox.cif.g09.slc.cpg/sg2_218_cif.got.tgz:434590.got - 2010.06.27 13:26:56.
