data_PCOD8008422
_publ_section_title
;
Structure prediction by ZEFSAII (Michael W. Deem and Ramdas Pophale) SiO2 
 PCOD8008422
Probable space group: P -1
;
_chemical_formula_sum "Si O2"
_cell_formula_units_Z 14
_cell_length_a 12.315325
_cell_length_b 12.097283
_cell_length_c 6.275411
_cell_angle_alpha 130.860196
_cell_angle_beta 107.106357
_cell_angle_gamma 85.350313
_cell_volume 667.739017
_symmetry_space_group_name_H-M "P -1"
_symmetry_group_IT_number 2
_symmetry_cell_setting 'triclinic'
loop_
_space_group_symop_operation_xyz
x,y,z
-x,-y,-z
loop_
_atom_site_type_symbol
_atom_site_label
_atom_site_fract_x
_atom_site_fract_y
_atom_site_fract_z
Si Si1 0.466184 0.771874 0.094284
Si Si2 0.198328 0.327089 0.922913
Si Si3 0.106415 0.126936 0.256323
Si Si4 0.394296 0.268214 0.255034
Si Si5 0.103687 0.423399 0.381290
Si Si6 0.671909 0.505545 0.175055
Si Si7 0.355030 0.042477 0.277148
O O1 0.581995 0.866492 0.372578
O O2 0.372021 0.873368 0.099824
O O3 0.500739 0.689169 0.795885
O O4 0.411088 0.651491 0.084765
O O5 0.112642 0.202966 0.589177
O O6 0.288621 0.430510 0.953096
O O7 0.272282 0.253343 0.045582
O O8 0.116051 0.422526 0.129159
O O9 0.095405 0.254330 0.240683
O O10 0.221102 0.054492 0.209105
O O11 0.000000 0.000000 0.000000
O O12 0.397509 0.382734 0.597355
O O13 0.407297 0.109878 0.168385
O O14 0.216662 0.522629 0.665494
O O15 0.000000 0.500000 0.500000
#
# Coordination Sequence:
#
# PCOD8008422 Si02
#       7
#     2   2   2   2   2   2   2
#     4  11  24  38  65  92 136 167 213 265 310 383
#     4  10  20  43  67  92 130 161 213 271 321 372
#     4  11  23  42  68  92 126 170 217 262 321 387
#     4  11  19  41  64  90 129 168 215 264 320 372
#     4  10  23  43  67  94 125 163 214 272 318 380
#     4  10  22  38  64  94 124 169 214 259 322 381
#     4  11  23  42  59  97 128 171 214 261 321 376
#
# _framework density 20.966277000000002
#
# number of rings (size 3 to 8) (size 9 to 14) (size 15 to 20)
#    0.000    1.429    5.714    0.857    2.000    7.429 
#    0.000    0.000    6.286    0.000    0.000    0.000 
#    0.000    0.000    0.000    0.000    0.000    0.000 
#
# Total GULP energy -173523.515798 kJ/mol
# GULP energy per Si atom -12394.536843 kJ/mol
# Density = 2.091856 g / cm^3
# Si number density = 20.966277 Si / 1000 Ang^3
#
#
#
# Elastic Constant Matrix: (Units=GPa)
#
#
# Indices 1 2 3 4 5 6 
#
# 1 133.4531 54.6882 52.1342 12.1201 -17.3439 -5.5406
# 2 54.6882 119.4148 52.4869 1.1114 -6.9125 0.8346
# 3 52.1342 52.4869 74.9633 3.6951 -17.2527 7.8209
# 4 12.1201 1.1114 3.6951 28.3068 11.4302 -1.7271
# 5 -17.3439 -6.9125 -17.2527 11.4302 41.9897 -0.6536
# 6 -5.5406 0.8346 7.8209 -1.7271 -0.6536 31.6746
#
#
#
# Elastic Compliance Matrix: (Units=1/GPa)
#
#
# Indices 1 2 3 4 5 6 
#
# 1 0.011938 -0.002776 -0.005562 -0.005594 0.003763 0.003307
# 2 -0.002776 0.013038 -0.008228 0.003127 -0.003212 0.001307
# 3 -0.005562 -0.008228 0.025775 -0.004331 0.008006 -0.007192
# 4 -0.005594 0.003127 -0.004331 0.044630 -0.015692 0.002118
# 5 0.003763 -0.003212 0.008006 -0.015692 0.032380 -0.001421
# 6 0.003307 0.001307 -0.007192 0.002118 -0.001421 0.033977
#
#
# Mechanical properties :
#
#
# Convention : Reuss Voigt Hill
#
# Bulk Modulus (GPa) = 56.75543 71.82777 64.29160
# Shear Modulus (GPa) = 24.90747 31.62901 28.26824
#
# Velocity S-wave (km/s) = 3.45044 3.88824 3.67587
# Velocity P-wave (km/s) = 6.55765 7.38180 6.98189
#
# Compressibility (1/GPa) = 0.01761946
#
# Stress axis : x y z
#
# Youngs Moduli (GPa) = 83.76549 76.70139 38.79666
#
# Poissons Ratio (x) = 0.21290 0.21580
# Poissons Ratio (y) = 0.23250 0.31921
# Poissons Ratio (z) = 0.46593 0.63108
#
# Static dielectric constant tensor:
#      x y z
#    x 3.919360 -0.038240 -0.222280 
#    y -0.038240 3.907800 -0.180050 
#    z -0.222280 -0.180050 3.780470 
# 
# 
# High freq. dielectric constant tensor:
#      x y z
#    x 1.819020 -0.004640 -0.008600 
#    y -0.004640 1.823550 -0.016560 
#    z -0.008600 -0.016560 1.810830 
# 
# From -- ./inp_files/72605.got.cif
#   From: 2010.06.25/outbox.cif.g09.slc.cpg/sg2_37_cif.got.tgz:72605.got - 2010.06.27 13:26:56.
