data_PCOD8008898
_publ_section_title
;
Structure prediction by ZEFSAII (Michael W. Deem and Ramdas Pophale) SiO2 
 PCOD8008898
Probable space group: P -1
;
_chemical_formula_sum "Si O2"
_cell_formula_units_Z 16
_cell_length_a 12.218088
_cell_length_b 15.178745
_cell_length_c 5.622776
_cell_angle_alpha 86.344765
_cell_angle_beta 104.672123
_cell_angle_gamma 49.678635
_cell_volume 731.562256
_symmetry_space_group_name_H-M "P -1"
_symmetry_group_IT_number 2
_symmetry_cell_setting 'triclinic'
loop_
_space_group_symop_operation_xyz
x,y,z
-x,-y,-z
loop_
_atom_site_type_symbol
_atom_site_label
_atom_site_fract_x
_atom_site_fract_y
_atom_site_fract_z
Si Si1 0.278926 0.669387 0.434792
Si Si2 0.788851 0.552330 0.792630
Si Si3 0.394799 0.959788 0.701541
Si Si4 0.006765 0.700011 0.285863
Si Si5 0.459133 0.724881 0.762736
Si Si6 0.502420 0.424176 0.819049
Si Si7 0.019772 0.413836 0.335948
Si Si8 0.301676 0.093457 0.127802
O O1 0.094138 0.748227 0.344356
O O2 0.325869 0.725412 0.621382
O O3 0.367198 0.527726 0.548014
O O4 0.327314 0.670887 0.194713
O O5 0.862938 0.442895 0.672339
O O6 0.601063 0.648040 0.664673
O O7 0.840882 0.626101 0.752514
O O8 0.855466 0.490778 0.098296
O O9 0.383677 0.860620 0.716801
O O10 0.573880 0.894521 0.812064
O O11 0.317284 0.031540 0.395306
O O12 0.314199 0.033116 0.892837
O O13 0.933607 0.705438 0.496473
O O14 0.873950 0.774091 0.996838
O O15 0.527102 0.656555 0.067593
O O16 0.500000 0.500000 0.000000
O O17 0.000000 0.500000 0.500000
#
# Coordination Sequence:
#
# PCOD8008898 Si02
#       8
#     2   2   2   2   2   2   2   2
#     4  10  21  38  58  97 128 174 216 259 336 397
#     4  10  21  35  58 100 130 164 212 264 346 398
#     4  10  25  47  70  96 128 173 236 272 336 396
#     4  11  22  39  65  89 134 169 214 273 333 400
#     4  11  23  38  68  92 133 173 216 279 321 402
#     4   9  18  35  58  90 133 169 211 256 320 399
#     4   9  21  35  53  93 131 163 207 261 338 402
#     4  10  25  48  69  96 127 179 226 283 331 393
#
# _framework density 21.871003999999999
#
# number of rings (size 3 to 8) (size 9 to 14) (size 15 to 20)
#    0.000    2.000    0.000    3.000    8.750    4.000 
#    0.000    1.250    0.000    0.000    0.000    0.000 
#    0.000    0.000    0.000    0.000    0.000    0.000 
#
# Total GULP energy -198212.391735 kJ/mol
# GULP energy per Si atom -12388.274483 kJ/mol
# Density = 2.182122 g / cm^3
# Si number density = 21.871004 Si / 1000 Ang^3
#
#
#
# Elastic Constant Matrix: (Units=GPa)
#
#
# Indices 1 2 3 4 5 6 
#
# 1 128.0030 31.2823 51.2475 -18.3032 0.8497 10.5973
# 2 31.2823 48.7596 21.0250 0.4113 -7.4087 11.3664
# 3 51.2475 21.0250 111.8332 -3.3057 -15.3070 4.9024
# 4 -18.3032 0.4113 -3.3057 26.7112 -1.3096 0.1368
# 5 0.8497 -7.4087 -15.3070 -1.3096 39.5663 -3.1277
# 6 10.5973 11.3664 4.9024 0.1368 -3.1277 29.5663
#
#
#
# Elastic Compliance Matrix: (Units=1/GPa)
#
#
# Indices 1 2 3 4 5 6 
#
# 1 0.012479 -0.006127 -0.004682 0.007922 -0.003099 -0.001705
# 2 -0.006127 0.027573 -0.001641 -0.004596 0.003899 -0.007698
# 3 -0.004682 -0.001641 0.011921 -0.001495 0.004420 0.000807
# 4 0.007922 -0.004596 -0.001495 0.042744 -0.000277 -0.001052
# 5 -0.003099 0.003899 0.004420 -0.000277 0.027916 0.001833
# 6 -0.001705 -0.007698 0.000807 -0.001052 0.001833 0.037458
#
#
# Mechanical properties :
#
#
# Convention : Reuss Voigt Hill
#
# Bulk Modulus (GPa) = 36.93643 55.07838 46.00741
# Shear Modulus (GPa) = 25.77125 31.50482 28.63804
#
# Velocity S-wave (km/s) = 3.43640 3.79949 3.62250
# Velocity P-wave (km/s) = 5.71578 6.66979 6.21113
#
# Compressibility (1/GPa) = 0.02707354
#
# Stress axis : x y z
#
# Youngs Moduli (GPa) = 80.13657 36.26730 83.88509
#
# Poissons Ratio (x) = 0.22222 0.39272
# Poissons Ratio (y) = 0.49102 0.13763
# Poissons Ratio (z) = 0.37517 0.05950
#
# Static dielectric constant tensor:
#      x y z
#    x 4.453260 -0.049110 -0.539900 
#    y -0.049110 3.546480 0.112380 
#    z -0.539900 0.112380 4.496470 
# 
# 
# High freq. dielectric constant tensor:
#      x y z
#    x 1.866120 0.005620 -0.011470 
#    y 0.005620 1.817690 0.017570 
#    z -0.011470 0.017570 1.868480 
# 
# From -- ./inp_files/71276.got.cif
#   From: 2010.06.25/outbox.cif.g09.slc.cpg/sg2_36_cif.got.tgz:71276.got - 2010.06.27 13:26:56.
