data_PCOD8008877
_publ_section_title
;
Structure prediction by ZEFSAII (Michael W. Deem and Ramdas Pophale) SiO2 
 PCOD8008877
Probable space group: P -1
;
_chemical_formula_sum "Si O2"
_cell_formula_units_Z 16
_cell_length_a 9.337555
_cell_length_b 20.691254
_cell_length_c 18.042424
_cell_angle_alpha 151.959163
_cell_angle_beta 29.314693
_cell_angle_gamma 139.120543
_cell_volume 800.947822
_symmetry_space_group_name_H-M "P -1"
_symmetry_group_IT_number 2
_symmetry_cell_setting 'triclinic'
loop_
_space_group_symop_operation_xyz
x,y,z
-x,-y,-z
loop_
_atom_site_type_symbol
_atom_site_label
_atom_site_fract_x
_atom_site_fract_y
_atom_site_fract_z
Si Si1 0.720722 0.340505 0.512319
Si Si2 0.057892 0.256497 0.411986
Si Si3 0.655009 0.155860 0.811653
Si Si4 0.158744 0.539831 0.697189
Si Si5 0.242768 0.038099 0.210606
Si Si6 0.288841 0.756559 0.963256
Si Si7 0.708833 0.864121 0.555743
Si Si8 0.160233 0.359389 0.200695
O O1 0.422690 0.275173 0.555579
O O2 0.671881 0.500977 0.718433
O O3 0.831221 0.249760 0.440754
O O4 0.960960 0.323323 0.322916
O O5 0.994014 0.398237 0.630773
O O6 0.004508 0.131700 0.366159
O O7 0.384501 0.252137 0.226206
O O8 0.943486 0.148220 0.623977
O O9 0.570998 0.001808 0.716268
O O10 0.703079 0.248807 0.957183
O O11 0.398795 0.231580 0.954801
O O12 0.500000 0.500000 0.500000
O O13 0.103901 0.631941 0.889196
O O14 0.045807 0.627439 0.765196
O O15 0.361301 0.124864 0.313963
O O16 0.500000 0.000000 0.000000
O O17 0.115136 0.898933 0.159460
#
# Coordination Sequence:
#
# PCOD8008877 Si02
#       8
#     2   2   2   2   2   2   2   2
#     4  10  21  35  56  89 112 147 190 243 279 328
#     4   9  17  33  51  82 114 137 180 242 279 324
#     4  10  21  41  56  81 119 154 190 233 276 348
#     4   9  19  31  54  85 110 146 180 233 286 329
#     4   9  19  33  53  82 109 141 184 237 278 334
#     4   9  17  33  53  79 109 149 182 226 282 334
#     4  10  23  38  59  83 115 155 192 227 287 338
#     4  10  21  36  58  86 120 144 192 238 280 335
#
# _framework density 19.976331999999999
#
# number of rings (size 3 to 8) (size 9 to 14) (size 15 to 20)
#    0.000    2.500    1.250    0.000    7.000    2.000 
#    0.000    1.250    0.000    7.500    0.000    0.000 
#    0.000    0.000    0.000    0.000    0.000    0.000 
#
# Total GULP energy -198298.989961 kJ/mol
# GULP energy per Si atom -12393.686873 kJ/mol
# Density = 1.993087 g / cm^3
# Si number density = 19.976332 Si / 1000 Ang^3
#
#
#
# Elastic Constant Matrix: (Units=GPa)
#
#
# Indices 1 2 3 4 5 6 
#
# 1 102.9072 26.4481 36.2978 8.2010 -7.4274 -10.0266
# 2 26.4481 47.4531 17.5231 4.8326 -2.7683 -2.4204
# 3 36.2978 17.5231 68.4046 12.1644 -12.3056 -4.7452
# 4 8.2010 4.8326 12.1644 18.5919 -3.7143 -1.8299
# 5 -7.4274 -2.7683 -12.3056 -3.7143 40.0929 15.4528
# 6 -10.0266 -2.4204 -4.7452 -1.8299 15.4528 26.2479
#
#
#
# Elastic Compliance Matrix: (Units=1/GPa)
#
#
# Indices 1 2 3 4 5 6 
#
# 1 0.013413 -0.005189 -0.005594 -0.000746 -0.001345 0.004374
# 2 -0.005189 0.025431 -0.003462 -0.002153 -0.000399 -0.000179
# 3 -0.005594 -0.003462 0.020936 -0.009530 0.005189 -0.002391
# 4 -0.000746 -0.002153 -0.009530 0.061423 0.002171 0.000798
# 5 -0.001345 -0.000399 0.005189 0.002171 0.033957 -0.019452
# 6 0.004374 -0.000179 -0.002391 0.000798 -0.019452 0.050828
#
#
# Mechanical properties :
#
#
# Convention : Reuss Voigt Hill
#
# Bulk Modulus (GPa) = 31.95968 42.14475 37.05221
# Shear Modulus (GPa) = 20.41575 26.21960 23.31768
#
# Velocity S-wave (km/s) = 3.20034 3.62682 3.42023
# Velocity P-wave (km/s) = 5.44883 6.21945 5.84685
#
# Compressibility (1/GPa) = 0.03128943
#
# Stress axis : x y z
#
# Youngs Moduli (GPa) = 74.55553 39.32179 47.76355
#
# Poissons Ratio (x) = 0.20406 0.26719
# Poissons Ratio (y) = 0.38690 0.16537
# Poissons Ratio (z) = 0.41706 0.13614
#
# Static dielectric constant tensor:
#      x y z
#    x 3.838950 -0.166830 0.036430 
#    y -0.166830 3.554760 0.593950 
#    z 0.036430 0.593950 3.812950 
# 
# 
# High freq. dielectric constant tensor:
#      x y z
#    x 1.785660 -0.012520 0.005060 
#    y -0.012520 1.749030 0.036210 
#    z 0.005060 0.036210 1.767110 
# 
# From -- ./inp_files/338116.got.cif
#   From: 2010.06.25/outbox.cif.g09.slc.cpg/sg2_170_cif.got.tgz:338116.got - 2010.06.27 13:26:56.
