data_PCOD8008416
_publ_section_title
;
Structure prediction by ZEFSAII (Michael W. Deem and Ramdas Pophale) SiO2 
 PCOD8008416
Probable space group: P -1
;
_chemical_formula_sum "Si O2"
_cell_formula_units_Z 16
_cell_length_a 14.299497
_cell_length_b 9.380651
_cell_length_c 12.071442
_cell_angle_alpha 80.714080
_cell_angle_beta 89.010762
_cell_angle_gamma 149.632032
_cell_volume 767.118718
_symmetry_space_group_name_H-M "P -1"
_symmetry_group_IT_number 2
_symmetry_cell_setting 'triclinic'
loop_
_space_group_symop_operation_xyz
x,y,z
-x,-y,-z
loop_
_atom_site_type_symbol
_atom_site_label
_atom_site_fract_x
_atom_site_fract_y
_atom_site_fract_z
Si Si1 0.730052 0.763687 0.061559
Si Si2 0.220683 0.840137 0.974746
Si Si3 0.347473 0.808154 0.791141
Si Si4 0.487105 0.137805 0.535446
Si Si5 0.622575 0.919806 0.822050
Si Si6 0.064821 0.196380 0.564603
Si Si7 0.032133 0.150295 0.825625
Si Si8 0.834903 0.163337 0.566929
O O1 0.515932 0.403482 0.103329
O O2 0.860510 0.844608 0.130039
O O3 0.727716 0.924145 0.089006
O O4 0.822215 0.886011 0.920889
O O5 0.344921 0.892610 0.895358
O O6 0.000000 0.500000 0.000000
O O7 0.264754 0.874170 0.098070
O O8 0.510453 0.905565 0.777292
O O9 0.146087 0.454443 0.809351
O O10 0.394397 0.994140 0.676362
O O11 0.703701 0.489602 0.489379
O O12 0.500000 0.000000 0.500000
O O13 0.355708 0.068763 0.474988
O O14 0.776990 0.077488 0.707993
O O15 0.002674 0.077716 0.706291
O O16 0.945826 0.171488 0.528163
O O17 0.000000 0.000000 0.500000
O O18 0.000000 0.500000 0.500000
#
# Coordination Sequence:
#
# PCOD8008416 Si02
#       8
#     2   2   2   2   2   2   2   2
#     4  10  22  41  67  94 129 181 216 272 339 397
#     4  12  25  39  63 104 130 167 224 279 329 393
#     4  11  22  42  70  93 135 175 221 281 329 398
#     4  12  22  45  71 100 133 179 235 276 333 407
#     4  11  24  43  67  95 135 177 224 268 339 409
#     4  12  27  44  67 105 138 176 228 288 341 401
#     4  10  20  43  67  89 135 179 217 268 339 404
#     4  12  24  44  78  99 133 190 228 275 346 410
#
# _framework density 20.857268000000001
#
# number of rings (size 3 to 8) (size 9 to 14) (size 15 to 20)
#    0.000    0.750    5.000    2.250    1.750    3.500 
#    2.250    0.000    0.000    0.000    0.000    0.000 
#    0.000    0.000    0.000    0.000    0.000    0.000 
#
# Total GULP energy -198395.953504 kJ/mol
# GULP energy per Si atom -12399.747094 kJ/mol
# Density = 2.080980 g / cm^3
# Si number density = 20.857268 Si / 1000 Ang^3
#
#
#
# Elastic Constant Matrix: (Units=GPa)
#
#
# Indices 1 2 3 4 5 6 
#
# 1 101.6282 51.6648 39.5818 5.2784 -8.2709 -2.6162
# 2 51.6648 141.4928 73.4839 8.3661 -12.2602 3.7591
# 3 39.5818 73.4839 147.5020 -1.0439 -3.5199 -5.6375
# 4 5.2784 8.3661 -1.0439 38.9288 4.5319 -5.1242
# 5 -8.2709 -12.2602 -3.5199 4.5319 28.9902 4.3788
# 6 -2.6162 3.7591 -5.6375 -5.1242 4.3788 38.7377
#
#
#
# Elastic Compliance Matrix: (Units=1/GPa)
#
#
# Indices 1 2 3 4 5 6 
#
# 1 0.012465 -0.003543 -0.001518 -0.001119 0.001959 0.000595
# 2 -0.003543 0.011465 -0.004794 -0.002980 0.004162 -0.002914
# 3 -0.001518 -0.004794 0.009629 0.002017 -0.001947 0.002251
# 4 -0.001119 -0.002980 0.002017 0.027934 -0.006446 0.004931
# 5 0.001959 0.004162 -0.001947 -0.006446 0.038454 -0.005754
# 6 0.000595 -0.002914 0.002251 0.004931 -0.005754 0.027768
#
#
# Mechanical properties :
#
#
# Convention : Reuss Voigt Hill
#
# Bulk Modulus (GPa) = 72.20942 80.00930 76.10936
# Shear Modulus (GPa) = 32.88549 36.39084 34.63816
#
# Velocity S-wave (km/s) = 3.97507 4.18156 4.07962
# Velocity P-wave (km/s) = 7.46754 7.85860 7.66556
#
# Compressibility (1/GPa) = 0.01384861
#
# Stress axis : x y z
#
# Youngs Moduli (GPa) = 80.22388 87.21934 103.84898
#
# Poissons Ratio (x) = 0.30901 0.15768
# Poissons Ratio (y) = 0.28422 0.49789
# Poissons Ratio (z) = 0.12181 0.41816
#
# Static dielectric constant tensor:
#      x y z
#    x 3.648750 0.536120 -0.464500 
#    y 0.536120 3.124600 0.685590 
#    z -0.464500 0.685590 3.310040 
# 
# 
# High freq. dielectric constant tensor:
#      x y z
#    x 1.832750 0.010400 0.001910 
#    y 0.010400 1.811660 -0.003410 
#    z 0.001910 -0.003410 1.827900 
# 
# From -- ./inp_files/447360.got.cif
#   From: 2010.06.25/outbox.cif.g09.slc.cpg/sg2_224_cif.got.tgz:447360.got - 2010.06.27 13:26:56.
