data_PCOD8008758
_publ_section_title
;
Structure prediction by ZEFSAII (Michael W. Deem and Ramdas Pophale) SiO2 
 PCOD8008758
Probable space group: P -1
;
_chemical_formula_sum "Si O2"
_cell_formula_units_Z 12
_cell_length_a 9.283173
_cell_length_b 5.239532
_cell_length_c 21.637899
_cell_angle_alpha 98.048754
_cell_angle_beta 142.107042
_cell_angle_gamma 71.816865
_cell_volume 603.861537
_symmetry_space_group_name_H-M "P -1"
_symmetry_group_IT_number 2
_symmetry_cell_setting 'triclinic'
loop_
_space_group_symop_operation_xyz
x,y,z
-x,-y,-z
loop_
_atom_site_type_symbol
_atom_site_label
_atom_site_fract_x
_atom_site_fract_y
_atom_site_fract_z
Si Si1 0.122175 0.102534 0.627249
Si Si2 0.354418 0.705588 0.592877
Si Si3 0.105841 0.134490 0.094171
Si Si4 0.540326 0.158615 0.697498
Si Si5 0.580353 0.440432 0.955483
Si Si6 0.455923 0.928821 0.841098
O O1 0.299712 0.264139 0.665129
O O2 0.830161 0.280480 0.527190
O O3 0.179664 0.819403 0.598093
O O4 0.189382 0.040438 0.720126
O O5 0.534448 0.397026 0.655656
O O6 0.529025 0.892027 0.646400
O O7 0.334165 0.217205 0.145347
O O8 0.209282 0.925410 0.179251
O O9 0.876844 0.391509 0.049371
O O10 0.000000 0.000000 0.000000
O O11 0.436674 0.705387 0.875683
O O12 0.516237 0.176301 0.902783
O O13 0.500000 0.500000 0.000000
#
# Coordination Sequence:
#
# PCOD8008758 Si02
#       6
#     2   2   2   2   2   2
#     4   8  18  26  48  71 106 125 165 201 268 286
#     4   9  17  26  44  72 109 127 152 211 260 304
#     4   9  20  33  54  78 103 135 175 218 253 302
#     4   9  17  27  42  69 103 128 162 196 260 293
#     4  11  23  38  52  76 106 141 173 213 260 309
#     4  10  21  34  57  77 105 133 177 215 255 304
#
# _framework density 19.872105000000001
#
# number of rings (size 3 to 8) (size 9 to 14) (size 15 to 20)
#    1.000    1.667    0.000    1.500    7.000    2.667 
#    0.000    0.000    0.000    0.000    0.000    7.000 
#    0.000    0.000    0.000    0.000    0.000    0.000 
#
# Total GULP energy -148673.509363 kJ/mol
# GULP energy per Si atom -12389.459114 kJ/mol
# Density = 1.982687 g / cm^3
# Si number density = 19.872105 Si / 1000 Ang^3
#
#
#
# Elastic Constant Matrix: (Units=GPa)
#
#
# Indices 1 2 3 4 5 6 
#
# 1 60.6940 30.3887 27.8594 -5.7566 -18.6788 -1.0506
# 2 30.3887 104.1788 42.9918 -13.9843 -12.6781 22.8582
# 3 27.8594 42.9918 165.6264 -20.0126 -13.8051 1.8832
# 4 -5.7566 -13.9843 -20.0126 21.1178 9.6770 -9.6046
# 5 -18.6788 -12.6781 -13.8051 9.6770 17.0277 -1.7655
# 6 -1.0506 22.8582 1.8832 -9.6046 -1.7655 22.3071
#
#
#
# Elastic Compliance Matrix: (Units=1/GPa)
#
#
# Indices 1 2 3 4 5 6 
#
# 1 0.029976 -0.006872 -0.001813 -0.009907 0.032644 0.006925
# 2 -0.006872 0.016835 -0.003202 -0.003248 0.002326 -0.018519
# 3 -0.001813 -0.003202 0.007975 0.008753 -0.002249 0.006113
# 4 -0.009907 -0.003248 0.008753 0.093429 -0.055349 0.037969
# 5 0.032644 0.002326 -0.002249 -0.055349 0.124383 -0.014643
# 6 0.006925 -0.018519 0.006113 0.037969 -0.014643 0.078804
#
#
# Mechanical properties :
#
#
# Convention : Reuss Voigt Hill
#
# Bulk Modulus (GPa) = 32.24697 59.21990 45.73343
# Shear Modulus (GPa) = 12.96973 27.37449 20.17211
#
# Velocity S-wave (km/s) = 2.55749 3.71554 3.18952
# Velocity P-wave (km/s) = 4.99835 6.94782 6.05209
#
# Compressibility (1/GPa) = 0.03101067
#
# Stress axis : x y z
#
# Youngs Moduli (GPa) = 33.36036 59.39932 125.39894
#
# Poissons Ratio (x) = 0.40821 0.22737
# Poissons Ratio (y) = 0.22926 0.40152
# Poissons Ratio (z) = 0.06049 0.19019
#
# Static dielectric constant tensor:
#      x y z
#    x 3.181660 0.022300 0.114530 
#    y 0.022300 3.339400 -0.146450 
#    z 0.114530 -0.146450 3.960140 
# 
# 
# High freq. dielectric constant tensor:
#      x y z
#    x 1.700740 0.023070 -0.007910 
#    y 0.023070 1.754200 -0.007500 
#    z -0.007910 -0.007500 1.798340 
# 
# From -- ./inp_files/129881.got.cif
#   From: 2010.06.25/outbox.cif.g09.slc.cpg/sg2_65_cif.got.tgz:129881.got - 2010.06.27 13:26:56.
