data_PCOD8008659
_publ_section_title
;
Structure prediction by ZEFSAII (Michael W. Deem and Ramdas Pophale) SiO2 
 PCOD8008659
Probable space group: P -1
;
_chemical_formula_sum "Si O2"
_cell_formula_units_Z 16
_cell_length_a 16.142871
_cell_length_b 5.349868
_cell_length_c 16.543667
_cell_angle_alpha 113.337788
_cell_angle_beta 142.438727
_cell_angle_gamma 75.968387
_cell_volume 793.154696
_symmetry_space_group_name_H-M "P -1"
_symmetry_group_IT_number 2
_symmetry_cell_setting 'triclinic'
loop_
_space_group_symop_operation_xyz
x,y,z
-x,-y,-z
loop_
_atom_site_type_symbol
_atom_site_label
_atom_site_fract_x
_atom_site_fract_y
_atom_site_fract_z
Si Si1 0.284558 0.015470 0.327497
Si Si2 0.201071 0.068961 0.873022
Si Si3 0.469607 0.587147 0.398173
Si Si4 0.520760 0.739687 0.793647
Si Si5 0.885583 0.746639 0.886011
Si Si6 0.008662 0.764137 0.146529
Si Si7 0.281056 0.485831 0.853452
Si Si8 0.558694 0.679159 0.186039
O O1 0.325134 0.713655 0.299852
O O2 0.135240 0.996385 0.251228
O O3 0.403586 0.176468 0.495494
O O4 0.263954 0.174553 0.246366
O O5 0.203749 0.229615 0.810605
O O6 0.061940 0.131701 0.815981
O O7 0.193161 0.741455 0.811255
O O8 0.331232 0.172586 0.041961
O O9 0.500000 0.500000 0.500000
O O10 0.462753 0.348009 0.297143
O O11 0.441084 0.488426 0.751306
O O12 0.432149 0.993649 0.752588
O O13 0.922745 0.512391 0.822736
O O14 0.890665 0.677137 0.976182
O O15 0.000000 0.000000 0.000000
O O16 0.310412 0.383474 0.772904
O O17 0.422109 0.582088 0.019186
#
# Coordination Sequence:
#
# PCOD8008659 Si02
#       8
#     2   2   2   2   2   2   2   2
#     4  10  23  39  55  75 113 159 192 246 286 334
#     4  10  21  31  57  89 120 145 191 231 289 362
#     4  11  25  39  57  79 115 154 209 244 280 327
#     4  10  22  34  57  86 113 156 193 238 282 351
#     4   9  20  34  54  76 111 153 194 233 289 335
#     4  10  21  35  54  85 113 156 188 239 293 350
#     4   9  18  34  54  86 117 150 175 238 297 355
#     4   9  18  36  56  80 119 148 187 229 301 356
#
# _framework density 20.172609999999999
#
# number of rings (size 3 to 8) (size 9 to 14) (size 15 to 20)
#    0.000    2.250    0.000    1.500   14.000    4.000 
#    0.000    0.000    0.000    0.000    0.000    5.250 
#    0.000    0.000    0.000    0.000    0.000    0.000 
#
# Total GULP energy -198305.762735 kJ/mol
# GULP energy per Si atom -12394.110171 kJ/mol
# Density = 2.012670 g / cm^3
# Si number density = 20.172610 Si / 1000 Ang^3
#
#
#
# Elastic Constant Matrix: (Units=GPa)
#
#
# Indices 1 2 3 4 5 6 
#
# 1 132.9447 60.6953 25.7838 -6.2800 -11.8961 -15.7639
# 2 60.6953 162.8235 19.7031 -11.9104 -15.7113 -7.2077
# 3 25.7838 19.7031 43.7837 -7.3169 -1.0076 -5.7494
# 4 -6.2800 -11.9104 -7.3169 26.1865 -1.8100 -3.3006
# 5 -11.8961 -15.7113 -1.0076 -1.8100 26.2970 -1.2705
# 6 -15.7639 -7.2077 -5.7494 -3.3006 -1.2705 34.4771
#
#
#
# Elastic Compliance Matrix: (Units=1/GPa)
#
#
# Indices 1 2 3 4 5 6 
#
# 1 0.010368 -0.002856 -0.004158 0.000694 0.003047 0.003629
# 2 -0.002856 0.007945 -0.001252 0.002900 0.003633 0.000558
# 3 -0.004158 -0.001252 0.027279 0.006359 -0.001003 0.002958
# 4 0.000694 0.002900 0.006359 0.042622 0.005527 0.006268
# 5 0.003047 0.003633 -0.001003 0.005527 0.042115 0.004067
# 6 0.003629 0.000558 0.002958 0.006268 0.004067 0.032024
#
#
# Mechanical properties :
#
#
# Convention : Reuss Voigt Hill
#
# Bulk Modulus (GPa) = 34.41031 61.32403 47.86717
# Shear Modulus (GPa) = 26.51503 32.95013 29.73258
#
# Velocity S-wave (km/s) = 3.62941 4.04593 3.84332
# Velocity P-wave (km/s) = 5.88714 7.23130 6.59356
#
# Compressibility (1/GPa) = 0.02906106
#
# Stress axis : x y z
#
# Youngs Moduli (GPa) = 96.44991 125.86048 36.65769
#
# Poissons Ratio (x) = 0.35950 0.15241
# Poissons Ratio (y) = 0.27549 0.04589
# Poissons Ratio (z) = 0.40101 0.15756
#
# Static dielectric constant tensor:
#      x y z
#    x 3.667130 0.135290 0.001530 
#    y 0.135290 4.050630 -0.119770 
#    z 0.001530 -0.119770 3.710870 
# 
# 
# High freq. dielectric constant tensor:
#      x y z
#    x 1.779390 0.007280 0.004770 
#    y 0.007280 1.810350 0.000500 
#    z 0.004770 0.000500 1.741950 
# 
# From -- ./inp_files/92614.got.cif
#   From: 2010.06.25/outbox.cif.g09.slc.cpg/sg2_47_cif.got.tgz:92614.got - 2010.06.27 13:26:56.
