data_PCOD8008400
_publ_section_title
;
Structure prediction by ZEFSAII (Michael W. Deem and Ramdas Pophale) SiO2 
 PCOD8008400
Probable space group: P -1
;
_chemical_formula_sum "Si O2"
_cell_formula_units_Z 14
_cell_length_a 11.919292
_cell_length_b 11.426762
_cell_length_c 11.181790
_cell_angle_alpha 129.023361
_cell_angle_beta 130.670513
_cell_angle_gamma 31.989356
_cell_volume 600.623457
_symmetry_space_group_name_H-M "P -1"
_symmetry_group_IT_number 2
_symmetry_cell_setting 'triclinic'
loop_
_space_group_symop_operation_xyz
x,y,z
-x,-y,-z
loop_
_atom_site_type_symbol
_atom_site_label
_atom_site_fract_x
_atom_site_fract_y
_atom_site_fract_z
Si Si1 0.798178 0.060040 0.562052
Si Si2 0.497247 0.009010 0.361984
Si Si3 0.891851 0.261827 0.615506
Si Si4 0.324686 0.369442 0.930805
Si Si5 0.256082 0.021430 0.901593
Si Si6 0.845566 0.631611 0.813817
Si Si7 0.905250 0.154251 0.919896
O O1 0.637256 0.040982 0.424800
O O2 0.799979 0.105106 0.731051
O O3 0.731756 0.259169 0.565020
O O4 0.044496 0.825564 0.534090
O O5 0.248154 0.231506 0.288708
O O6 0.500000 0.000000 0.500000
O O7 0.584676 0.785651 0.223715
O O8 0.136954 0.072033 0.727515
O O9 0.776409 0.510056 0.705269
O O10 0.109019 0.446536 0.878240
O O11 0.274506 0.581687 0.999304
O O12 0.502737 0.233759 0.076067
O O13 0.103305 0.085498 0.946463
O O14 0.267903 0.194295 0.041484
O O15 0.000000 0.000000 0.000000
#
# Coordination Sequence:
#
# PCOD8008400 Si02
#       7
#     2   2   2   2   2   2   2
#     4  10  23  43  63  97 131 171 211 273 326 377
#     4  11  25  43  66  97 131 171 224 263 326 391
#     4  10  20  43  66  93 138 167 218 269 325 384
#     4  10  22  43  63  94 129 171 216 261 329 375
#     4   9  21  40  64  97 125 174 217 265 325 386
#     4  10  21  40  66  97 126 175 216 266 324 383
#     4  10  23  42  66  92 131 170 221 268 320 391
#
# _framework density 23.309114999999998
#
# number of rings (size 3 to 8) (size 9 to 14) (size 15 to 20)
#    0.000    2.000    1.429    0.429    6.000    3.429 
#   15.429    0.000    0.000    0.000    0.000    0.000 
#    0.000    0.000    0.000    0.000    0.000    0.000 
#
# Total GULP energy -173512.950124 kJ/mol
# GULP energy per Si atom -12393.782152 kJ/mol
# Density = 2.325606 g / cm^3
# Si number density = 23.309115 Si / 1000 Ang^3
#
#
#
# Elastic Constant Matrix: (Units=GPa)
#
#
# Indices 1 2 3 4 5 6 
#
# 1 52.2308 26.6429 12.2234 4.7323 -5.4694 15.0166
# 2 26.6429 134.4902 36.3104 10.0777 -2.7076 18.2230
# 3 12.2234 36.3104 98.1392 16.0142 -5.4076 13.5570
# 4 4.7323 10.0777 16.0142 39.1550 8.6283 10.2678
# 5 -5.4694 -2.7076 -5.4076 8.6283 31.2731 1.5914
# 6 15.0166 18.2230 13.5570 10.2678 1.5914 25.8417
#
#
#
# Elastic Compliance Matrix: (Units=1/GPa)
#
#
# Indices 1 2 3 4 5 6 
#
# 1 0.024833 -0.003142 0.000057 0.000037 0.004709 -0.012549
# 2 -0.003142 0.009197 -0.002543 -0.000083 -0.000003 -0.003292
# 3 0.000057 -0.002543 0.012461 -0.004321 0.003303 -0.003264
# 4 0.000037 -0.000083 -0.004321 0.031890 -0.009047 -0.009810
# 5 0.004709 -0.000003 0.003303 -0.009047 0.036024 -0.003091
# 6 -0.012549 -0.003292 -0.003264 -0.009810 -0.003091 0.054111
#
#
# Mechanical properties :
#
#
# Convention : Reuss Voigt Hill
#
# Bulk Modulus (GPa) = 28.38208 48.35706 38.36957
# Shear Modulus (GPa) = 26.10703 33.23285 29.66994
#
# Velocity S-wave (km/s) = 3.35032 3.78000 3.57163
# Velocity P-wave (km/s) = 5.21239 6.31207 5.78840
#
# Compressibility (1/GPa) = 0.03523350
#
# Stress axis : x y z
#
# Youngs Moduli (GPa) = 40.26865 108.73280 80.24792
#
# Poissons Ratio (x) = 0.34168 -0.00454
# Poissons Ratio (y) = 0.12654 0.20408
# Poissons Ratio (z) = -0.00228 0.27652
#
# Static dielectric constant tensor:
#      x y z
#    x 3.960080 0.167270 0.280400 
#    y 0.167270 4.149280 0.187890 
#    z 0.280400 0.187890 4.493860 
# 
# 
# High freq. dielectric constant tensor:
#      x y z
#    x 1.906740 0.010660 0.013210 
#    y 0.010660 1.910610 0.013800 
#    z 0.013210 0.013800 1.938200 
# 
# From -- ./inp_files/69947.got.cif
#   From: 2010.06.25/outbox.cif.g09.slc.cpg/sg2_35_cif.got.tgz:69947.got - 2010.06.27 13:26:56.
