data_PCOD8008237
_publ_section_title
;
Structure prediction by ZEFSAII (Michael W. Deem and Ramdas Pophale) SiO2 
 PCOD8008237
Probable space group: P -1
;
_chemical_formula_sum "Si O2"
_cell_formula_units_Z 16
_cell_length_a 14.284988
_cell_length_b 9.625353
_cell_length_c 8.970320
_cell_angle_alpha 132.475528
_cell_angle_beta 76.226974
_cell_angle_gamma 74.485449
_cell_volume 708.289292
_symmetry_space_group_name_H-M "P -1"
_symmetry_group_IT_number 2
_symmetry_cell_setting 'triclinic'
loop_
_space_group_symop_operation_xyz
x,y,z
-x,-y,-z
loop_
_atom_site_type_symbol
_atom_site_label
_atom_site_fract_x
_atom_site_fract_y
_atom_site_fract_z
Si Si1 0.426817 0.017482 0.827551
Si Si2 0.783066 0.481985 0.834566
Si Si3 0.134781 0.313914 0.859107
Si Si4 0.590198 0.357622 0.498699
Si Si5 0.005839 0.126046 0.317373
Si Si6 0.136905 0.025521 0.899268
Si Si7 0.212301 0.914694 0.316615
Si Si8 0.427364 0.839653 0.016818
O O1 0.550162 0.994914 0.775517
O O2 0.431776 0.835799 0.576807
O O3 0.328626 0.287837 0.030345
O O4 0.394256 0.948059 0.942733
O O5 0.756216 0.292120 0.733131
O O6 0.895769 0.378583 0.604169
O O7 0.807183 0.547816 0.036496
O O8 0.151595 0.203656 0.936877
O O9 0.198765 0.118965 0.566715
O O10 0.000000 0.500000 0.000000
O O11 0.500000 0.500000 0.500000
O O12 0.731804 0.226477 0.313669
O O13 0.546855 0.565821 0.784168
O O14 0.953962 0.989189 0.178689
O O15 0.094654 0.990788 0.324908
O O16 0.077229 0.141136 0.165639
O O17 0.319520 0.835079 0.107252
#
# Coordination Sequence:
#
# PCOD8008237 Si02
#       8
#     2   2   2   2   2   2   2   2
#     4  10  22  43  69 100 130 178 234 285 334 406
#     4  12  24  42  71  97 143 182 223 284 351 406
#     4  12  25  44  68  99 143 183 227 278 344 412
#     4  10  20  42  68  96 138 172 221 290 337 385
#     4  11  23  42  71  99 137 179 231 276 341 412
#     4  11  23  42  71 106 130 180 236 278 334 416
#     4  12  26  46  67 103 143 184 221 285 350 409
#     4  10  24  43  71  96 136 180 231 280 343 405
#
# _framework density 22.589639999999999
#
# number of rings (size 3 to 8) (size 9 to 14) (size 15 to 20)
#    0.000    1.000    3.750    3.375    0.000    3.000 
#    0.000    5.000    0.000    0.000    0.000    0.000 
#    0.000    0.000    0.000    0.000    0.000    0.000 
#
# Total GULP energy -198278.721512 kJ/mol
# GULP energy per Si atom -12392.420094 kJ/mol
# Density = 2.253822 g / cm^3
# Si number density = 22.589640 Si / 1000 Ang^3
#
#
#
# Elastic Constant Matrix: (Units=GPa)
#
#
# Indices 1 2 3 4 5 6 
#
# 1 88.1698 13.6075 26.8438 -1.5859 1.1131 4.4195
# 2 13.6075 78.3960 34.7204 7.0628 -16.7391 -9.3345
# 3 26.8438 34.7204 79.8611 8.6587 17.3575 -0.4877
# 4 -1.5859 7.0628 8.6587 28.0935 -0.0293 -3.2726
# 5 1.1131 -16.7391 17.3575 -0.0293 37.8462 6.0346
# 6 4.4195 -9.3345 -0.4877 -3.2726 6.0346 26.1847
#
#
#
# Elastic Compliance Matrix: (Units=1/GPa)
#
#
# Indices 1 2 3 4 5 6 
#
# 1 0.013042 0.000053 -0.005169 0.002017 0.002424 -0.002585
# 2 0.000053 0.022212 -0.012795 -0.001149 0.015042 0.004061
# 3 -0.005169 -0.012795 0.023883 -0.004454 -0.016463 -0.000007
# 4 0.002017 -0.001149 -0.004454 0.037801 0.000918 0.003680
# 5 0.002424 0.015042 -0.016463 0.000918 0.041315 -0.004760
# 6 -0.002585 0.004061 -0.000007 0.003680 -0.004760 0.041631
#
#
# Mechanical properties :
#
#
# Convention : Reuss Voigt Hill
#
# Bulk Modulus (GPa) = 42.88716 44.08559 43.48637
# Shear Modulus (GPa) = 22.37378 29.84190 26.10784
#
# Velocity S-wave (km/s) = 3.15055 3.63856 3.40331
# Velocity P-wave (km/s) = 5.67989 6.10003 5.89370
#
# Compressibility (1/GPa) = 0.02331700
#
# Stress axis : x y z
#
# Youngs Moduli (GPa) = 76.67324 45.02067 41.87124
#
# Poissons Ratio (x) = -0.00240 0.21641
# Poissons Ratio (y) = -0.00409 0.53574
# Poissons Ratio (z) = 0.39629 0.57603
#
# Static dielectric constant tensor:
#      x y z
#    x 5.227290 0.263620 1.680820 
#    y 0.263620 4.088860 0.735740 
#    z 1.680820 0.735740 6.573650 
# 
# 
# High freq. dielectric constant tensor:
#      x y z
#    x 1.912410 -0.010690 0.015640 
#    y -0.010690 1.874110 0.020090 
#    z 0.015640 0.020090 1.886370 
# 
# From -- ./inp_files/299626.got.cif
#   From: 2010.06.25/outbox.cif.g09.slc.cpg/sg2_150_cif.got.tgz:299626.got - 2010.06.27 13:26:56.
