data_PCOD8008534
_publ_section_title
;
Structure prediction by ZEFSAII (Michael W. Deem and Ramdas Pophale) SiO2 
 PCOD8008534
Probable space group: P -1
;
_chemical_formula_sum "Si O2"
_cell_formula_units_Z 12
_cell_length_a 21.841725
_cell_length_b 10.196523
_cell_length_c 17.529507
_cell_angle_alpha 146.555805
_cell_angle_beta 17.290048
_cell_angle_gamma 146.711121
_cell_volume 620.891753
_symmetry_space_group_name_H-M "P -1"
_symmetry_group_IT_number 2
_symmetry_cell_setting 'triclinic'
loop_
_space_group_symop_operation_xyz
x,y,z
-x,-y,-z
loop_
_atom_site_type_symbol
_atom_site_label
_atom_site_fract_x
_atom_site_fract_y
_atom_site_fract_z
Si Si1 0.992780 0.948357 0.895022
Si Si2 0.185698 0.545145 0.423863
Si Si3 0.158413 0.410961 0.825695
Si Si4 0.729419 0.450619 0.952125
Si Si5 0.431272 0.741924 0.786613
Si Si6 0.490993 0.696833 0.004841
O O1 0.188399 0.824718 0.581494
O O2 0.771652 0.748756 0.041945
O O3 0.010788 0.194701 0.945712
O O4 0.000000 0.000000 0.000000
O O5 0.281418 0.545398 0.225122
O O6 0.945923 0.376854 0.631587
O O7 0.319359 0.432448 0.270384
O O8 0.278434 0.628850 0.843748
O O9 0.336526 0.312794 0.520450
O O10 0.000000 0.500000 0.000000
O O11 0.545971 0.315315 0.047748
O O12 0.674361 0.368013 0.062928
O O13 0.446642 0.028899 0.905358
#
# Coordination Sequence:
#
# PCOD8008534 Si02
#       6
#     2   2   2   2   2   2
#     4  10  20  44  63  85 126 159 205 258 294 361
#     4   9  22  38  62  88 122 163 204 252 303 361
#     4  11  24  42  64  90 122 168 204 249 314 360
#     4  10  22  37  62  89 124 161 202 252 307 356
#     4  11  23  40  61  91 128 156 203 263 299 366
#     4  11  21  39  62  92 123 161 205 247 313 365
#
# _framework density 19.327041000000001
#
# number of rings (size 3 to 8) (size 9 to 14) (size 15 to 20)
#    1.000    0.667    3.333    1.000    0.000    7.333 
#    0.000    1.667    0.000    0.000    0.000    0.000 
#    0.000    0.000    0.000    0.000    0.000    0.000 
#
# Total GULP energy -148739.171013 kJ/mol
# GULP energy per Si atom -12394.930918 kJ/mol
# Density = 1.928305 g / cm^3
# Si number density = 19.327041 Si / 1000 Ang^3
#
#
#
# Elastic Constant Matrix: (Units=GPa)
#
#
# Indices 1 2 3 4 5 6 
#
# 1 123.3775 43.3676 44.0913 7.4917 -12.7392 -5.3928
# 2 43.3676 90.7204 27.7576 4.8910 -5.7778 -7.6944
# 3 44.0913 27.7576 53.3465 7.7822 -14.5452 -11.3326
# 4 7.4917 4.8910 7.7822 30.5005 -4.6945 6.5485
# 5 -12.7392 -5.7778 -14.5452 -4.6945 25.4932 0.5696
# 6 -5.3928 -7.6944 -11.3326 6.5485 0.5696 35.7562
#
#
#
# Elastic Compliance Matrix: (Units=1/GPa)
#
#
# Indices 1 2 3 4 5 6 
#
# 1 0.012372 -0.003366 -0.008707 0.000158 0.000517 -0.001655
# 2 -0.003366 0.014078 -0.004504 -0.000738 -0.001225 0.001249
# 3 -0.008707 -0.004504 0.034808 -0.006068 0.013155 0.009651
# 4 0.000158 -0.000738 -0.006068 0.036845 0.003432 -0.008861
# 5 0.000517 -0.001225 0.013155 0.003432 0.047286 0.002602
# 6 -0.001655 0.001249 0.009651 -0.008861 0.002602 0.032626
#
#
# Mechanical properties :
#
#
# Convention : Reuss Voigt Hill
#
# Bulk Modulus (GPa) = 35.58424 55.31970 45.45197
# Shear Modulus (GPa) = 22.67192 28.49852 25.58522
#
# Velocity S-wave (km/s) = 3.42872 3.84414 3.64236
# Velocity P-wave (km/s) = 5.84179 6.95617 6.42319
#
# Compressibility (1/GPa) = 0.02810233
#
# Stress axis : x y z
#
# Youngs Moduli (GPa) = 80.83052 71.03449 28.72912
#
# Poissons Ratio (x) = 0.23909 0.25016
# Poissons Ratio (y) = 0.27206 0.12940
# Poissons Ratio (z) = 0.70383 0.31995
#
# Static dielectric constant tensor:
#      x y z
#    x 3.388530 0.020680 0.128800 
#    y 0.020680 3.654300 -0.040230 
#    z 0.128800 -0.040230 3.516860 
# 
# 
# High freq. dielectric constant tensor:
#      x y z
#    x 1.753070 -0.003890 0.014570 
#    y -0.003890 1.754380 -0.002960 
#    z 0.014570 -0.002960 1.746080 
# 
# From -- ./inp_files/150642.got.cif
#   From: 2010.06.25/outbox.cif.g09.slc.cpg/sg2_76_cif.got.tgz:150642.got - 2010.06.27 13:26:56.
