data_PCOD8008842
_publ_section_title
;
Structure prediction by ZEFSAII (Michael W. Deem and Ramdas Pophale) SiO2 
 PCOD8008842
Probable space group: P -1
;
_chemical_formula_sum "Si O2"
_cell_formula_units_Z 16
_cell_length_a 11.382273
_cell_length_b 11.244095
_cell_length_c 11.483104
_cell_angle_alpha 88.130314
_cell_angle_beta 33.055666
_cell_angle_gamma 88.165916
_cell_volume 801.167772
_symmetry_space_group_name_H-M "P -1"
_symmetry_group_IT_number 2
_symmetry_cell_setting 'triclinic'
loop_
_space_group_symop_operation_xyz
x,y,z
-x,-y,-z
loop_
_atom_site_type_symbol
_atom_site_label
_atom_site_fract_x
_atom_site_fract_y
_atom_site_fract_z
Si Si1 0.377788 0.357673 0.040484
Si Si2 0.408839 0.155719 0.480682
Si Si3 0.164471 0.937393 0.779196
Si Si4 0.169446 0.581727 0.288886
Si Si5 0.299305 0.534204 0.513110
Si Si6 0.727465 0.635386 0.252400
Si Si7 0.960806 0.718384 0.844392
Si Si8 0.749417 0.681092 0.593664
O O1 0.286211 0.494121 0.101134
O O2 0.262960 0.275669 0.042139
O O3 0.331788 0.302120 0.207788
O O4 0.636470 0.357024 0.800861
O O5 0.664798 0.134873 0.280380
O O6 0.337292 0.238018 0.644353
O O7 0.359171 0.215930 0.396009
O O8 0.284424 0.031883 0.594944
O O9 0.043344 0.851112 0.792738
O O10 0.000000 0.000000 0.000000
O O11 0.000000 0.500000 0.500000
O O12 0.013406 0.685034 0.361313
O O13 0.533103 0.583812 0.340906
O O14 0.205906 0.455517 0.699172
O O15 0.321592 0.451232 0.383954
O O16 0.132746 0.642698 0.628335
O O17 0.927311 0.655826 0.999725
#
# Coordination Sequence:
#
# PCOD8008842 Si02
#       8
#     2   2   2   2   2   2   2   2
#     4  10  22  35  55  91 121 161 195 227 289 356
#     4  10  22  42  63  86 114 152 203 247 300 348
#     4  11  23  42  62  87 112 153 203 250 302 341
#     4   9  19  36  53  83 122 159 191 222 280 348
#     4  10  21  35  54  88 127 153 187 230 301 354
#     4  10  21  35  55  89 121 153 188 240 294 359
#     4  12  22  36  60  86 120 156 196 242 289 352
#     4  10  21  38  61  87 124 158 188 243 289 358
#
# _framework density 19.970849999999999
#
# number of rings (size 3 to 8) (size 9 to 14) (size 15 to 20)
#    0.000    1.750    3.750    0.375    5.250    1.000 
#    0.000    0.625    0.000    1.500    0.000    0.000 
#    0.000    0.000    0.000    0.000    0.000    0.000 
#
# Total GULP energy -198351.475876 kJ/mol
# GULP energy per Si atom -12396.967242 kJ/mol
# Density = 1.992540 g / cm^3
# Si number density = 19.970850 Si / 1000 Ang^3
#
#
#
# Elastic Constant Matrix: (Units=GPa)
#
#
# Indices 1 2 3 4 5 6 
#
# 1 112.1612 51.1099 37.8960 -2.7871 -22.2131 7.8556
# 2 51.1099 96.8770 29.1014 -4.1236 -13.4037 9.4006
# 3 37.8960 29.1014 85.0198 0.4949 -11.4552 -0.0211
# 4 -2.7871 -4.1236 0.4949 23.4904 -1.8565 -10.3266
# 5 -22.2131 -13.4037 -11.4552 -1.8565 37.2444 -3.9903
# 6 7.8556 9.4006 -0.0211 -10.3266 -3.9903 36.7182
#
#
#
# Elastic Compliance Matrix: (Units=1/GPa)
#
#
# Indices 1 2 3 4 5 6 
#
# 1 0.013618 -0.005298 -0.003578 0.000820 0.005073 -0.000777
# 2 -0.005298 0.014225 -0.002372 0.001084 0.001061 -0.002090
# 3 -0.003578 -0.002372 0.014383 -0.000385 0.001572 0.001443
# 4 0.000820 0.001084 -0.000385 0.049369 0.004716 0.013944
# 5 0.005073 0.001061 0.001572 0.004716 0.031337 0.003376
# 6 -0.000777 -0.002090 0.001443 0.013944 0.003376 0.032225
#
#
# Mechanical properties :
#
#
# Convention : Reuss Voigt Hill
#
# Bulk Modulus (GPa) = 50.68073 58.91919 54.79996
# Shear Modulus (GPa) = 27.14005 31.22064 29.18034
#
# Velocity S-wave (km/s) = 3.69044 3.95816 3.82664
# Velocity P-wave (km/s) = 6.60239 7.10324 6.85739
#
# Compressibility (1/GPa) = 0.01973137
#
# Stress axis : x y z
#
# Youngs Moduli (GPa) = 73.43139 70.29695 69.52601
#
# Poissons Ratio (x) = 0.37240 0.24878
# Poissons Ratio (y) = 0.38900 0.16491
# Poissons Ratio (z) = 0.26276 0.16673
#
# Static dielectric constant tensor:
#      x y z
#    x 3.933360 -0.031530 -0.352440 
#    y -0.031530 3.514980 0.035730 
#    z -0.352440 0.035730 3.698230 
# 
# 
# High freq. dielectric constant tensor:
#      x y z
#    x 1.784110 0.006650 -0.013790 
#    y 0.006650 1.747110 -0.002310 
#    z -0.013790 -0.002310 1.784800 
# 
# From -- ./inp_files/70682.got.cif
#   From: 2010.06.25/outbox.cif.g09.slc.cpg/sg2_36_cif.got.tgz:70682.got - 2010.06.27 13:26:56.
