data_PCOD8008492
_publ_section_title
;
Structure prediction by ZEFSAII (Michael W. Deem and Ramdas Pophale) SiO2 
 PCOD8008492
Probable space group: P -1
;
_chemical_formula_sum "Si O2"
_cell_formula_units_Z 14
_cell_length_a 10.406838
_cell_length_b 18.415213
_cell_length_c 13.140540
_cell_angle_alpha 154.269953
_cell_angle_beta 145.423493
_cell_angle_gamma 45.742334
_cell_volume 610.537245
_symmetry_space_group_name_H-M "P -1"
_symmetry_group_IT_number 2
_symmetry_cell_setting 'triclinic'
loop_
_space_group_symop_operation_xyz
x,y,z
-x,-y,-z
loop_
_atom_site_type_symbol
_atom_site_label
_atom_site_fract_x
_atom_site_fract_y
_atom_site_fract_z
Si Si1 0.423609 0.419903 0.242167
Si Si2 0.947882 0.167115 0.624553
Si Si3 0.861041 0.010983 0.159722
Si Si4 0.848657 0.247151 0.257701
Si Si5 0.482708 0.699909 0.467052
Si Si6 0.728477 0.135909 0.818727
Si Si7 0.795380 0.508318 0.299038
O O1 0.500000 0.500000 0.500000
O O2 0.609535 0.313199 0.189320
O O3 0.402727 0.564553 0.331218
O O4 0.177017 0.304477 0.946081
O O5 0.846481 0.128245 0.395969
O O6 0.748372 0.239419 0.648218
O O7 0.000000 0.000000 0.500000
O O8 0.871650 0.123055 0.207382
O O9 0.091136 0.931698 0.222424
O O10 0.645643 0.859940 0.825243
O O11 0.074679 0.399425 0.599322
O O12 0.844170 0.151936 0.026325
O O13 0.608033 0.617677 0.353594
O O14 0.500000 0.000000 0.500000
O O15 0.673759 0.312279 0.957152
O O16 0.000000 0.500000 0.500000
#
# Coordination Sequence:
#
# PCOD8008492 Si02
#       7
#     2   2   2   2   2   2   2
#     4  12  24  45  73  97 140 184 233 297 354 417
#     4  12  28  48  69 104 140 184 246 295 351 422
#     4  12  24  43  73 102 142 188 236 292 354 417
#     4  11  22  44  70 104 140 186 234 282 357 417
#     4  12  23  44  73  99 142 186 234 285 355 416
#     4  11  22  41  68 102 146 183 231 287 346 418
#     4  10  20  43  70  99 140 186 226 284 349 424
#
# _framework density 22.930624000000002
#
# number of rings (size 3 to 8) (size 9 to 14) (size 15 to 20)
#    0.000    0.571    5.714    4.714    0.000    0.000 
#    0.000    2.143    0.000    0.000    0.000    0.000 
#    0.000    0.000    0.000    0.000    0.000    0.000 
#
# Total GULP energy -173631.669913 kJ/mol
# GULP energy per Si atom -12402.262137 kJ/mol
# Density = 2.287843 g / cm^3
# Si number density = 22.930624 Si / 1000 Ang^3
#
#
#
# Elastic Constant Matrix: (Units=GPa)
#
#
# Indices 1 2 3 4 5 6 
#
# 1 80.5267 50.8072 41.2055 -1.6232 30.3457 -31.7762
# 2 50.8072 130.3591 46.7899 10.6524 17.8779 -30.9452
# 3 41.2055 46.7899 161.6357 14.5292 51.6278 -8.3737
# 4 -1.6232 10.6524 14.5292 23.0109 -3.6238 2.5879
# 5 30.3457 17.8779 51.6278 -3.6238 45.2766 -3.1462
# 6 -31.7762 -30.9452 -8.3737 2.5879 -3.1462 50.8149
#
#
#
# Elastic Compliance Matrix: (Units=1/GPa)
#
#
# Indices 1 2 3 4 5 6 
#
# 1 0.026011 -0.005368 0.000171 0.000549 -0.014625 0.012091
# 2 -0.005368 0.011515 -0.001522 -0.005064 0.000638 0.003702
# 3 0.000171 -0.001522 0.011768 -0.008938 -0.013597 0.000733
# 4 0.000549 -0.005064 -0.008938 0.054646 0.015779 -0.006020
# 5 -0.014625 0.000638 -0.013597 0.015779 0.047790 -0.008842
# 6 0.012091 0.003702 0.000733 -0.006020 -0.008842 0.029375
#
#
# Mechanical properties :
#
#
# Convention : Reuss Voigt Hill
#
# Bulk Modulus (GPa) = 27.88836 72.23630 50.06233
# Shear Modulus (GPa) = 24.21391 39.40174 31.80783
#
# Velocity S-wave (km/s) = 3.25308 4.14974 3.72846
# Velocity P-wave (km/s) = 5.12821 7.38451 6.35726
#
# Compressibility (1/GPa) = 0.03585726
#
# Stress axis : x y z
#
# Youngs Moduli (GPa) = 38.44507 86.84648 84.97656
#
# Poissons Ratio (x) = 0.46620 -0.01457
# Poissons Ratio (y) = 0.20638 0.12930
# Poissons Ratio (z) = -0.00659 0.13214
#
# Static dielectric constant tensor:
#      x y z
#    x 4.322460 -0.086130 0.326770 
#    y -0.086130 4.169220 0.215390 
#    z 0.326770 0.215390 4.312070 
# 
# 
# High freq. dielectric constant tensor:
#      x y z
#    x 1.915950 -0.012800 0.018560 
#    y -0.012800 1.911600 0.016410 
#    z 0.018560 0.016410 1.911370 
# 
# From -- ./inp_files/524165.got.cif
#   From: 2010.06.25/outbox.cif.g09.slc.cpg/sg2_263_cif.got.tgz:524165.got - 2010.06.27 13:26:56.
