data_PCOD8008300
_publ_section_title
;
Structure prediction by ZEFSAII (Michael W. Deem and Ramdas Pophale) SiO2 
 PCOD8008300
Probable space group: P -1
;
_chemical_formula_sum "Si O2"
_cell_formula_units_Z 16
_cell_length_a 13.669170
_cell_length_b 6.474297
_cell_length_c 9.377807
_cell_angle_alpha 108.484817
_cell_angle_beta 95.616681
_cell_angle_gamma 99.237308
_cell_volume 767.021702
_symmetry_space_group_name_H-M "P -1"
_symmetry_group_IT_number 2
_symmetry_cell_setting 'triclinic'
loop_
_space_group_symop_operation_xyz
x,y,z
-x,-y,-z
loop_
_atom_site_type_symbol
_atom_site_label
_atom_site_fract_x
_atom_site_fract_y
_atom_site_fract_z
Si Si1 0.404169 0.386667 0.869761
Si Si2 0.104505 0.475104 0.437685
Si Si3 0.813526 0.234897 0.745353
Si Si4 0.316121 0.533056 0.615604
Si Si5 0.357562 0.198009 0.336353
Si Si6 0.086145 0.057203 0.136743
Si Si7 0.736272 0.653528 0.905762
Si Si8 0.454459 0.959073 0.641116
O O1 0.356163 0.542661 0.787153
O O2 0.434853 0.184177 0.749895
O O3 0.500000 0.500000 0.000000
O O4 0.315600 0.296228 0.946532
O O5 0.147195 0.684918 0.388332
O O6 0.193845 0.464729 0.563530
O O7 0.079480 0.252338 0.290722
O O8 0.000000 0.500000 0.500000
O O9 0.777524 0.427086 0.872045
O O10 0.725555 0.017770 0.681726
O O11 0.906967 0.166946 0.826304
O O12 0.370277 0.348701 0.512250
O O13 0.353020 0.771306 0.596094
O O14 0.334444 0.362859 0.246396
O O15 0.458431 0.127935 0.279410
O O16 0.179940 0.128297 0.060986
O O17 0.000000 0.000000 0.000000
O O18 0.500000 0.000000 0.500000
#
# Coordination Sequence:
#
# PCOD8008300 Si02
#       8
#     2   2   2   2   2   2   2   2
#     4  12  28  43  64 105 142 176 228 283 342 401
#     4  11  25  43  68 103 135 175 233 288 335 407
#     4  10  20  42  71  90 134 178 225 272 346 391
#     4  12  25  44  68  99 138 179 235 275 336 416
#     4  11  21  42  70  97 129 180 230 271 331 417
#     4  10  23  43  67  98 130 177 229 278 345 409
#     4  10  23  41  66  94 135 174 225 278 335 404
#     4  12  26  40  72  97 133 184 222 275 342 403
#
# _framework density 20.859905000000001
#
# number of rings (size 3 to 8) (size 9 to 14) (size 15 to 20)
#    0.000    1.000    5.000    2.625    1.750    9.500 
#    0.000    0.000    0.000    0.000    0.000    0.000 
#    0.000    0.000    0.000    0.000    0.000    0.000 
#
# Total GULP energy -198294.846211 kJ/mol
# GULP energy per Si atom -12393.427888 kJ/mol
# Density = 2.081243 g / cm^3
# Si number density = 20.859905 Si / 1000 Ang^3
#
#
#
# Elastic Constant Matrix: (Units=GPa)
#
#
# Indices 1 2 3 4 5 6 
#
# 1 134.5894 40.8150 66.8186 -8.7456 -5.3261 -9.4859
# 2 40.8150 111.0139 52.6226 -4.3589 -2.7475 -14.0021
# 3 66.8186 52.6226 121.9807 -10.4971 5.8670 -2.1304
# 4 -8.7456 -4.3589 -10.4971 30.3516 -2.3004 -0.3708
# 5 -5.3261 -2.7475 5.8670 -2.3004 49.3856 -8.1484
# 6 -9.4859 -14.0021 -2.1304 -0.3708 -8.1484 30.3784
#
#
#
# Elastic Compliance Matrix: (Units=1/GPa)
#
#
# Indices 1 2 3 4 5 6 
#
# 1 0.010833 -0.000849 -0.005512 0.001313 0.002375 0.003258
# 2 -0.000849 0.012407 -0.004883 0.000078 0.002120 0.005681
# 3 -0.005512 -0.004883 0.013586 0.002135 -0.003008 -0.003800
# 4 0.001313 0.000078 0.002135 0.034224 0.001730 0.001478
# 5 0.002375 0.002120 -0.003008 0.001730 0.022300 0.007510
# 6 0.003258 0.005681 -0.003800 0.001478 0.007510 0.038320
#
#
# Mechanical properties :
#
#
# Convention : Reuss Voigt Hill
#
# Bulk Modulus (GPa) = 69.74838 76.45516 73.10177
# Shear Modulus (GPa) = 31.45887 35.84497 33.65192
#
# Velocity S-wave (km/s) = 3.88764 4.14982 4.02087
# Velocity P-wave (km/s) = 7.32536 7.72610 7.52839
#
# Compressibility (1/GPa) = 0.01433725
#
# Stress axis : x y z
#
# Youngs Moduli (GPa) = 92.31143 80.60125 73.60381
#
# Poissons Ratio (x) = 0.06840 0.40572
# Poissons Ratio (y) = 0.07834 0.35944
# Poissons Ratio (z) = 0.50885 0.39361
#
# Static dielectric constant tensor:
#      x y z
#    x 4.083670 -0.131880 0.062390 
#    y -0.131880 4.005250 -0.183360 
#    z 0.062390 -0.183360 3.789620 
# 
# 
# High freq. dielectric constant tensor:
#      x y z
#    x 1.822080 -0.007660 0.007320 
#    y -0.007660 1.830170 -0.007510 
#    z 0.007320 -0.007510 1.808850 
# 
# From -- ./inp_files/141583.got.cif
#   From: 2010.06.25/outbox.cif.g09.slc.cpg/sg2_71_cif.got.tgz:141583.got - 2010.06.27 13:26:56.
