data_PCOD8008837
_publ_section_title
;
Structure prediction by ZEFSAII (Michael W. Deem and Ramdas Pophale) SiO2 
 PCOD8008837
Probable space group: P -1
;
_chemical_formula_sum "Si O2"
_cell_formula_units_Z 16
_cell_length_a 9.342450
_cell_length_b 18.821699
_cell_length_c 8.777951
_cell_angle_alpha 130.258218
_cell_angle_beta 66.323276
_cell_angle_gamma 133.807980
_cell_volume 847.122899
_symmetry_space_group_name_H-M "P -1"
_symmetry_group_IT_number 2
_symmetry_cell_setting 'triclinic'
loop_
_space_group_symop_operation_xyz
x,y,z
-x,-y,-z
loop_
_atom_site_type_symbol
_atom_site_label
_atom_site_fract_x
_atom_site_fract_y
_atom_site_fract_z
Si Si1 0.480511 0.892904 0.936938
Si Si2 0.668924 0.102353 0.681189
Si Si3 0.746448 0.736890 0.427815
Si Si4 0.686452 0.347396 0.430355
Si Si5 0.987509 0.491117 0.242666
Si Si6 0.998763 0.896558 0.301421
Si Si7 0.095891 0.031569 0.165392
Si Si8 0.015756 0.352918 0.789376
O O1 0.326178 0.770121 0.740158
O O2 0.676387 0.906145 0.861325
O O3 0.436734 0.878529 0.114743
O O4 0.500000 0.000000 0.000000
O O5 0.800006 0.075753 0.681326
O O6 0.808720 0.219968 0.682129
O O7 0.500000 0.000000 0.500000
O O8 0.522086 0.675931 0.486871
O O9 0.909067 0.866445 0.617465
O O10 0.797926 0.770105 0.270183
O O11 0.798713 0.648896 0.318291
O O12 0.789134 0.420685 0.332657
O O13 0.817027 0.420331 0.620095
O O14 0.965957 0.565784 0.237006
O O15 0.019022 0.404099 0.023902
O O16 0.998135 0.910019 0.136647
O O17 0.000000 0.000000 0.500000
O O18 0.000000 0.000000 0.000000
#
# Coordination Sequence:
#
# PCOD8008837 Si02
#       8
#     2   2   2   2   2   2   2   2
#     4  11  22  37  59  88 124 151 196 243 289 359
#     4  11  23  36  60  89 120 156 196 239 296 354
#     4   9  21  38  58  81 119 149 198 243 286 352
#     4  10  22  42  60  87 114 158 193 246 298 342
#     4  10  22  41  65  80 116 153 201 247 293 341
#     4   9  19  37  52  79 121 157 189 236 285 354
#     4  10  21  35  54  84 123 161 190 231 295 353
#     4  10  22  41  59  89 114 153 200 247 286 352
#
# _framework density 18.887460000000001
#
# number of rings (size 3 to 8) (size 9 to 14) (size 15 to 20)
#    0.000    2.000    2.500    0.000    7.000    1.000 
#    0.000    0.000    0.000    0.000    0.000    0.000 
#    0.000    0.000    0.000    0.000    0.000    0.000 
#
# Total GULP energy -198235.421543 kJ/mol
# GULP energy per Si atom -12389.713846 kJ/mol
# Density = 1.884447 g / cm^3
# Si number density = 18.887460 Si / 1000 Ang^3
#
#
#
# Elastic Constant Matrix: (Units=GPa)
#
#
# Indices 1 2 3 4 5 6 
#
# 1 64.8504 51.7443 60.9012 0.0545 2.4426 -14.3992
# 2 51.7443 104.2885 53.5186 -2.9822 4.9363 4.5957
# 3 60.9012 53.5186 114.9979 1.3149 1.2224 4.6087
# 4 0.0545 -2.9822 1.3149 34.1508 -1.2669 -1.9572
# 5 2.4426 4.9363 1.2224 -1.2669 34.2917 0.9604
# 6 -14.3992 4.5957 4.6087 -1.9572 0.9604 24.9272
#
#
#
# Elastic Compliance Matrix: (Units=1/GPa)
#
#
# Indices 1 2 3 4 5 6 
#
# 1 0.076115 -0.023900 -0.031367 0.002032 -0.002312 0.054422
# 2 -0.023900 0.020277 0.003952 0.000583 -0.000826 -0.018197
# 3 -0.031367 0.003952 0.024418 -0.001844 0.001387 -0.023560
# 4 0.002032 0.000583 -0.001844 0.029644 0.000829 0.003703
# 5 -0.002312 -0.000826 0.001387 0.000829 0.029497 -0.002511
# 6 0.054422 -0.018197 -0.023560 0.003703 -0.002511 0.079652
#
#
# Mechanical properties :
#
#
# Convention : Reuss Voigt Hill
#
# Bulk Modulus (GPa) = 55.00111 68.49609 61.74860
# Shear Modulus (GPa) = 13.57617 26.53879 20.05748
#
# Velocity S-wave (km/s) = 2.68394 3.75253 3.26229
# Velocity P-wave (km/s) = 6.22803 7.42425 6.85229
#
# Compressibility (1/GPa) = 0.01818145
#
# Stress axis : x y z
#
# Youngs Moduli (GPa) = 13.13795 49.31754 40.95258
#
# Poissons Ratio (x) = 1.17868 1.28454
# Poissons Ratio (y) = 0.31400 -0.16184
# Poissons Ratio (z) = 0.41209 -0.19490
#
# Static dielectric constant tensor:
#      x y z
#    x 3.513640 -0.439800 -0.164560 
#    y -0.439800 4.427550 -0.262510 
#    z -0.164560 -0.262510 3.732010 
# 
# 
# High freq. dielectric constant tensor:
#      x y z
#    x 1.720340 -0.000550 -0.019520 
#    y -0.000550 1.747570 -0.013430 
#    z -0.019520 -0.013430 1.738110 
# 
# From -- ./inp_files/205494.got.cif
#   From: 2010.06.25/outbox.cif.g09.slc.cpg/sg2_103_cif.got.tgz:205494.got - 2010.06.27 13:26:56.
