data_PCOD8008392
_publ_section_title
;
Structure prediction by ZEFSAII (Michael W. Deem and Ramdas Pophale) SiO2 
 PCOD8008392
Probable space group: P -1
;
_chemical_formula_sum "Si O2"
_cell_formula_units_Z 16
_cell_length_a 11.543858
_cell_length_b 14.251422
_cell_length_c 8.274083
_cell_angle_alpha 140.347117
_cell_angle_beta 124.367440
_cell_angle_gamma 55.082159
_cell_volume 692.044702
_symmetry_space_group_name_H-M "P -1"
_symmetry_group_IT_number 2
_symmetry_cell_setting 'triclinic'
loop_
_space_group_symop_operation_xyz
x,y,z
-x,-y,-z
loop_
_atom_site_type_symbol
_atom_site_label
_atom_site_fract_x
_atom_site_fract_y
_atom_site_fract_z
Si Si1 0.994787 0.371990 0.201761
Si Si2 0.319621 0.834320 0.853525
Si Si3 0.163031 0.377359 0.807494
Si Si4 0.460782 0.432320 0.212527
Si Si5 0.852391 0.142777 0.738029
Si Si6 0.975126 0.180605 0.536423
Si Si7 0.553395 0.255042 0.506259
Si Si8 0.733698 0.813632 0.686358
O O1 0.154972 0.252877 0.166796
O O2 0.000000 0.500000 0.500000
O O3 0.935670 0.454882 0.096502
O O4 0.882795 0.276454 0.052824
O O5 0.413268 0.725864 0.924092
O O6 0.419440 0.812216 0.742112
O O7 0.173460 0.781468 0.633573
O O8 0.281960 0.007606 0.111897
O O9 0.061493 0.308029 0.750568
O O10 0.212338 0.269374 0.548795
O O11 0.302879 0.398283 0.043879
O O12 0.500000 0.500000 0.500000
O O13 0.462473 0.562502 0.253830
O O14 0.683982 0.165269 0.603469
O O15 0.942057 0.166408 0.679418
O O16 0.919295 0.979298 0.653326
O O17 0.416270 0.217367 0.425539
#
# Coordination Sequence:
#
# PCOD8008392 Si02
#       8
#     2   2   2   2   2   2   2   2
#     4  10  22  43  63  94 130 165 219 258 315 387
#     4  10  22  42  64  97 126 165 220 260 319 376
#     4  11  25  44  63  95 131 171 216 261 324 381
#     4  10  23  43  63  94 128 164 215 267 321 377
#     4  10  20  43  66  92 124 167 220 265 319 369
#     4  10  23  40  68  94 127 166 216 274 313 371
#     4  10  22  41  66  91 130 170 211 266 314 378
#     4  11  24  42  65  95 131 174 210 260 321 383
#
# _framework density 23.119893999999999
#
# number of rings (size 3 to 8) (size 9 to 14) (size 15 to 20)
#    0.000    1.750    2.500    0.375    3.500    4.000 
#    0.000    0.000    0.000    0.000    0.000    0.000 
#    0.000    0.000    0.000    0.000    0.000    0.000 
#
# Total GULP energy -198329.622186 kJ/mol
# GULP energy per Si atom -12395.601387 kJ/mol
# Density = 2.306727 g / cm^3
# Si number density = 23.119894 Si / 1000 Ang^3
#
#
#
# Elastic Constant Matrix: (Units=GPa)
#
#
# Indices 1 2 3 4 5 6 
#
# 1 72.8202 25.7800 36.7764 -17.3244 20.2193 -18.7255
# 2 25.7800 155.5594 28.4157 6.6663 14.7519 -29.9679
# 3 36.7764 28.4157 75.1788 10.7539 24.6343 -4.9462
# 4 -17.3244 6.6663 10.7539 40.3469 -8.5019 5.5831
# 5 20.2193 14.7519 24.6343 -8.5019 40.4003 -1.8631
# 6 -18.7255 -29.9679 -4.9462 5.5831 -1.8631 24.8295
#
#
#
# Elastic Compliance Matrix: (Units=1/GPa)
#
#
# Indices 1 2 3 4 5 6 
#
# 1 0.028849 0.000690 -0.014434 0.013344 -0.002318 0.016540
# 2 0.000690 0.009312 -0.001737 -0.003007 -0.002771 0.011882
# 3 -0.014434 -0.001737 0.026626 -0.014753 -0.011724 -0.005241
# 4 0.013344 -0.003007 -0.014753 0.037881 0.011195 -0.004183
# 5 -0.002318 -0.002771 -0.011724 0.011195 0.036095 -0.007237
# 6 0.016540 0.011882 -0.005241 -0.004183 -0.007237 0.066443
#
#
# Mechanical properties :
#
#
# Convention : Reuss Voigt Hill
#
# Bulk Modulus (GPa) = 29.56445 53.94472 41.75459
# Shear Modulus (GPa) = 20.20650 35.28777 27.74713
#
# Velocity S-wave (km/s) = 2.95953 3.91102 3.46806
# Velocity P-wave (km/s) = 4.94911 6.61650 5.84259
#
# Compressibility (1/GPa) = 0.03382441
#
# Stress axis : x y z
#
# Youngs Moduli (GPa) = 34.66280 107.38781 37.55670
#
# Poissons Ratio (x) = -0.07411 0.54211
# Poissons Ratio (y) = -0.02392 0.06525
# Poissons Ratio (z) = 0.50034 0.18657
#
# Static dielectric constant tensor:
#      x y z
#    x 3.803710 -0.319470 0.207360 
#    y -0.319470 5.084280 0.118580 
#    z 0.207360 0.118580 4.489710 
# 
# 
# High freq. dielectric constant tensor:
#      x y z
#    x 1.883010 -0.018450 0.019150 
#    y -0.018450 1.935430 0.011480 
#    z 0.019150 0.011480 1.925950 
# 
# From -- ./inp_files/184316.got.cif
#   From: 2010.06.25/outbox.cif.g09.slc.cpg/sg2_93_cif.got.tgz:184316.got - 2010.06.27 13:26:56.
