data_PCOD8008526
_publ_section_title
;
Structure prediction by ZEFSAII (Michael W. Deem and Ramdas Pophale) SiO2 
 PCOD8008526
Probable space group: P -1
;
_chemical_formula_sum "Si O2"
_cell_formula_units_Z 12
_cell_length_a 13.772763
_cell_length_b 7.676364
_cell_length_c 9.125661
_cell_angle_alpha 72.405929
_cell_angle_beta 63.950140
_cell_angle_gamma 33.640102
_cell_volume 476.278103
_symmetry_space_group_name_H-M "P -1"
_symmetry_group_IT_number 2
_symmetry_cell_setting 'triclinic'
loop_
_space_group_symop_operation_xyz
x,y,z
-x,-y,-z
loop_
_atom_site_type_symbol
_atom_site_label
_atom_site_fract_x
_atom_site_fract_y
_atom_site_fract_z
Si Si1 0.384302 0.547926 0.678997
Si Si2 0.980699 0.824876 0.119968
Si Si3 0.438818 0.877428 0.054609
Si Si4 0.294281 0.365228 0.568120
Si Si5 0.233415 0.620301 0.232879
Si Si6 0.050804 0.263287 0.146050
O O1 0.500000 0.500000 0.500000
O O2 0.226924 0.906440 0.746204
O O3 0.515159 0.303313 0.786381
O O4 0.292956 0.499289 0.674961
O O5 0.138767 0.590914 0.201550
O O6 0.000115 0.649637 0.018286
O O7 0.000000 0.000000 0.000000
O O8 0.217428 0.171636 0.099507
O O9 0.555385 0.635651 0.900186
O O10 0.500000 0.000000 0.000000
O O11 0.232129 0.556354 0.416025
O O12 0.132205 0.442781 0.703669
O O13 0.500000 0.000000 0.500000
O O14 0.116379 0.967104 0.212563
#
# Coordination Sequence:
#
# PCOD8008526 Si02
#       6
#     2   2   2   2   2   2
#     4  12  25  45  72 107 147 189 248 298 351 437
#     4  10  20  43  74 104 135 184 251 296 341 424
#     4  12  26  46  71 111 151 190 236 307 373 429
#     4  12  26  46  68 111 152 185 237 312 370 420
#     4  11  22  44  76 102 145 187 250 294 354 441
#     4  11  23  46  76 103 141 196 250 287 357 444
#
# _framework density 25.195364000000001
#
# number of rings (size 3 to 8) (size 9 to 14) (size 15 to 20)
#    0.000    0.667    6.667    3.000    4.667    0.000 
#    3.000    5.833    0.000    0.000    0.000    0.000 
#    0.000    0.000    0.000    0.000    0.000    0.000 
#
# Total GULP energy -148821.406991 kJ/mol
# GULP energy per Si atom -12401.783916 kJ/mol
# Density = 2.513802 g / cm^3
# Si number density = 25.195364 Si / 1000 Ang^3
#
#
#
# Elastic Constant Matrix: (Units=GPa)
#
#
# Indices 1 2 3 4 5 6 
#
# 1 128.0614 43.5586 36.0232 16.5882 6.5610 -23.7643
# 2 43.5586 133.0845 68.6537 21.9237 -7.5033 -27.2037
# 3 36.0232 68.6537 186.8091 22.7047 -9.6075 -25.6428
# 4 16.5882 21.9237 22.7047 54.1159 -14.2033 1.3213
# 5 6.5610 -7.5033 -9.6075 -14.2033 47.0351 8.0994
# 6 -23.7643 -27.2037 -25.6428 1.3213 8.0994 42.0728
#
#
#
# Elastic Compliance Matrix: (Units=1/GPa)
#
#
# Indices 1 2 3 4 5 6 
#
# 1 0.010070 -0.001698 -0.000395 -0.003316 -0.003645 0.005156
# 2 -0.001698 0.010860 -0.002695 -0.002925 -0.000250 0.004560
# 3 -0.000395 -0.002695 0.006952 -0.001727 0.000127 0.002301
# 4 -0.003316 -0.002925 -0.001727 0.023683 0.008018 -0.007104
# 5 -0.003645 -0.000250 0.000127 0.008018 0.025432 -0.007291
# 6 0.005156 0.004560 0.002301 -0.007104 -0.007291 0.032658
#
#
# Mechanical properties :
#
#
# Convention : Reuss Voigt Hill
#
# Bulk Modulus (GPa) = 54.62342 82.71401 68.66871
# Shear Modulus (GPa) = 39.89376 48.62604 44.25990
#
# Velocity S-wave (km/s) = 3.98348 4.39790 4.19581
# Velocity P-wave (km/s) = 6.54863 7.66087 7.12648
#
# Compressibility (1/GPa) = 0.01830717
#
# Stress axis : x y z
#
# Youngs Moduli (GPa) = 99.30192 92.08096 143.84524
#
# Poissons Ratio (x) = 0.15633 0.05677
# Poissons Ratio (y) = 0.16859 0.38767
# Poissons Ratio (z) = 0.03919 0.24816
#
# Static dielectric constant tensor:
#      x y z
#    x 7.227420 1.146730 -0.420820 
#    y 1.146730 5.785670 -0.274690 
#    z -0.420820 -0.274690 4.960670 
# 
# 
# High freq. dielectric constant tensor:
#      x y z
#    x 2.009440 -0.005620 0.000640 
#    y -0.005620 2.028200 0.004270 
#    z 0.000640 0.004270 2.017780 
# 
# From -- ./inp_files/155903.got.cif
#   From: 2010.06.25/outbox.cif.g09.slc.cpg/sg2_78_cif.got.tgz:155903.got - 2010.06.27 13:26:56.
