data_PCOD8008833
_publ_section_title
;
Structure prediction by ZEFSAII (Michael W. Deem and Ramdas Pophale) SiO2 
 PCOD8008833
Probable space group: P -1
;
_chemical_formula_sum "Si O2"
_cell_formula_units_Z 16
_cell_length_a 16.229203
_cell_length_b 17.178440
_cell_length_c 5.038323
_cell_angle_alpha 60.400008
_cell_angle_beta 112.515768
_cell_angle_gamma 138.026888
_cell_volume 816.506883
_symmetry_space_group_name_H-M "P -1"
_symmetry_group_IT_number 2
_symmetry_cell_setting 'triclinic'
loop_
_space_group_symop_operation_xyz
x,y,z
-x,-y,-z
loop_
_atom_site_type_symbol
_atom_site_label
_atom_site_fract_x
_atom_site_fract_y
_atom_site_fract_z
Si Si1 0.086370 0.865376 0.632546
Si Si2 0.194379 0.124860 0.441916
Si Si3 0.138609 0.597101 0.608475
Si Si4 0.831685 0.493136 0.679160
Si Si5 0.145175 0.194513 0.784826
Si Si6 0.335151 0.460969 0.460242
Si Si7 0.587455 0.611475 0.725358
Si Si8 0.084873 0.750322 0.352524
O O1 0.149610 0.855292 0.483887
O O2 0.957742 0.811886 0.447818
O O3 0.177622 0.007535 0.593131
O O4 0.060892 0.785528 0.989319
O O5 0.173500 0.137979 0.697326
O O6 0.333251 0.248273 0.313817
O O7 0.102967 0.113539 0.139423
O O8 0.218625 0.597108 0.489163
O O9 0.174634 0.727259 0.450418
O O10 0.000000 0.500000 0.500000
O O11 0.141855 0.557959 0.969036
O O12 0.728103 0.487303 0.675392
O O13 0.953355 0.630972 0.514635
O O14 0.265908 0.339486 0.771716
O O15 0.482515 0.578339 0.454882
O O16 0.317540 0.397022 0.264562
O O17 0.500000 0.500000 0.000000
#
# Coordination Sequence:
#
# PCOD8008833 Si02
#       8
#     2   2   2   2   2   2   2   2
#     4  12  22  34  55  81 111 154 188 219 272 344
#     4  11  23  37  53  77 112 152 190 230 270 322
#     4  10  21  35  54  82 117 148 174 233 279 337
#     4  11  21  35  57  84 114 146 188 218 284 341
#     4  11  21  35  53  77 115 144 189 224 273 326
#     4  10  22  34  58  83 108 153 182 232 278 330
#     4  10  21  39  56  78 115 145 190 238 279 306
#     4  11  21  36  55  82 117 149 182 224 282 333
#
# _framework density 19.595670999999999
#
# number of rings (size 3 to 8) (size 9 to 14) (size 15 to 20)
#    0.000    1.250    2.500    6.000    1.750    0.000 
#    0.000    0.000    0.000    0.000    0.000    5.250 
#    0.000    0.000    0.000    0.000    0.000    0.000 
#
# Total GULP energy -198210.241440 kJ/mol
# GULP energy per Si atom -12388.140090 kJ/mol
# Density = 1.955107 g / cm^3
# Si number density = 19.595671 Si / 1000 Ang^3
#
#
#
# Elastic Constant Matrix: (Units=GPa)
#
#
# Indices 1 2 3 4 5 6 
#
# 1 102.8541 40.3683 19.6619 -9.3116 9.4818 -24.7510
# 2 40.3683 92.6071 20.5225 -10.4833 6.7279 -22.1002
# 3 19.6619 20.5225 114.8001 -1.4226 2.7721 -11.4490
# 4 -9.3116 -10.4833 -1.4226 24.2157 -10.0573 -2.3216
# 5 9.4818 6.7279 2.7721 -10.0573 23.5925 -3.0452
# 6 -24.7510 -22.1002 -11.4490 -2.3216 -3.0452 31.1111
#
#
#
# Elastic Compliance Matrix: (Units=1/GPa)
#
#
# Indices 1 2 3 4 5 6 
#
# 1 0.013680 -0.003197 -0.000841 0.003916 -0.001731 0.008425
# 2 -0.003197 0.015112 -0.001270 0.006421 0.000932 0.008295
# 3 -0.000841 -0.001270 0.009264 -0.000270 -0.000272 0.001791
# 4 0.003916 0.006421 -0.000270 0.056201 0.022387 0.013962
# 5 -0.001731 0.000932 -0.000272 0.022387 0.053174 0.006061
# 6 0.008425 0.008295 0.001791 0.013962 0.006061 0.047032
#
#
# Mechanical properties :
#
#
# Convention : Reuss Voigt Hill
#
# Bulk Modulus (GPa) = 36.44320 52.37411 44.40865
# Shear Modulus (GPa) = 23.34004 31.09777 27.21890
#
# Velocity S-wave (km/s) = 3.45495 3.98800 3.73101
# Velocity P-wave (km/s) = 5.87822 6.92755 6.42435
#
# Compressibility (1/GPa) = 0.02743996
#
# Stress axis : x y z
#
# Youngs Moduli (GPa) = 73.10179 66.17320 107.94871
#
# Poissons Ratio (x) = 0.21156 0.09076
# Poissons Ratio (y) = 0.23371 0.13706
# Poissons Ratio (z) = 0.06146 0.08402
#
# Static dielectric constant tensor:
#      x y z
#    x 3.992270 -0.901810 -0.026940 
#    y -0.901810 3.265640 -0.057710 
#    z -0.026940 -0.057710 3.653140 
# 
# 
# High freq. dielectric constant tensor:
#      x y z
#    x 1.745300 -0.037000 -0.011460 
#    y -0.037000 1.747630 0.006620 
#    z -0.011460 0.006620 1.773520 
# 
# From -- ./inp_files/84337.got.cif
#   From: 2010.06.25/outbox.cif.g09.slc.cpg/sg2_43_cif.got.tgz:84337.got - 2010.06.27 13:26:56.
