data_PCOD8008173
_publ_section_title
;
Structure prediction by ZEFSAII (Michael W. Deem and Ramdas Pophale) SiO2 
 PCOD8008173
Probable space group: P -1
;
_chemical_formula_sum "Si O2"
_cell_formula_units_Z 16
_cell_length_a 9.135507
_cell_length_b 10.219835
_cell_length_c 16.017087
_cell_angle_alpha 41.092001
_cell_angle_beta 94.203090
_cell_angle_gamma 116.615582
_cell_volume 784.795963
_symmetry_space_group_name_H-M "P -1"
_symmetry_group_IT_number 2
_symmetry_cell_setting 'triclinic'
loop_
_space_group_symop_operation_xyz
x,y,z
-x,-y,-z
loop_
_atom_site_type_symbol
_atom_site_label
_atom_site_fract_x
_atom_site_fract_y
_atom_site_fract_z
Si Si1 0.991105 0.058863 0.066441
Si Si2 0.405403 0.132697 0.421479
Si Si3 0.313086 0.302745 0.491265
Si Si4 0.610562 0.517380 0.112633
Si Si5 0.648504 0.873263 0.247168
Si Si6 0.033592 0.739320 0.505321
Si Si7 0.523022 0.851084 0.865581
Si Si8 0.926724 0.265126 0.682609
O O1 0.015830 0.898284 0.205032
O O2 0.170676 0.340786 0.954192
O O3 0.797902 0.993709 0.119948
O O4 0.000000 0.000000 0.000000
O O5 0.360257 0.164163 0.497245
O O6 0.544376 0.404604 0.256389
O O7 0.500000 0.000000 0.500000
O O8 0.227559 0.977586 0.428928
O O9 0.465888 0.600085 0.349482
O O10 0.281519 0.169962 0.643031
O O11 0.123587 0.241060 0.478664
O O12 0.519536 0.289133 0.155579
O O13 0.542338 0.690494 0.012635
O O14 0.619677 0.088823 0.149137
O O15 0.992940 0.672248 0.437357
O O16 0.006419 0.484925 0.650560
O O17 0.710791 0.122604 0.734277
#
# Coordination Sequence:
#
# PCOD8008173 Si02
#       8
#     2   2   2   2   2   2   2   2
#     4  11  24  42  64  92 136 168 218 271 319 394
#     4  12  26  42  67  99 133 168 219 274 329 381
#     4  11  24  40  65  98 138 166 219 275 319 385
#     4  10  23  42  64  93 129 174 215 261 331 384
#     4  11  23  42  67  99 129 173 222 266 324 379
#     4  11  22  40  67  93 133 173 212 270 324 389
#     4  10  20  42  67  91 126 172 218 266 312 396
#     4  10  21  40  66  94 125 174 217 256 335 384
#
# _framework density 20.387464999999999
#
# number of rings (size 3 to 8) (size 9 to 14) (size 15 to 20)
#    0.000    1.250    3.750    1.875    3.500    0.500 
#    2.250    3.125    0.000    0.000    0.000    0.000 
#    0.000    0.000    0.000    0.000    0.000    0.000 
#
# Total GULP energy -198239.629318 kJ/mol
# GULP energy per Si atom -12389.976832 kJ/mol
# Density = 2.034106 g / cm^3
# Si number density = 20.387465 Si / 1000 Ang^3
#
#
#
# Elastic Constant Matrix: (Units=GPa)
#
#
# Indices 1 2 3 4 5 6 
#
# 1 104.9807 39.1038 36.9094 -6.5990 -34.9646 0.0819
# 2 39.1038 65.5296 31.8761 1.1086 17.3186 -22.7434
# 3 36.9094 31.8761 94.1603 -6.0076 -19.0472 -3.1048
# 4 -6.5990 1.1086 -6.0076 32.6413 -7.4130 -1.6229
# 5 -34.9646 17.3186 -19.0472 -7.4130 -12.4029 19.3427
# 6 0.0819 -22.7434 -3.1048 -1.6229 19.3427 23.3219
#
#
#
# Elastic Compliance Matrix: (Units=1/GPa)
#
#
# Indices 1 2 3 4 5 6 
#
# 1 0.008673 0.000917 -0.004884 -0.000395 -0.006602 0.005662
# 2 0.000917 0.011607 -0.001325 0.002681 0.013830 -0.000144
# 3 -0.004884 -0.001325 0.012510 0.000808 -0.003087 0.003007
# 4 -0.000395 0.002681 0.000808 0.030291 -0.003033 0.007347
# 5 -0.006602 0.013830 -0.003087 -0.003033 -0.006999 0.018693
# 6 0.005662 -0.000144 0.003007 0.007347 0.018693 0.028126
#
#
# Mechanical properties :
#
#
# Convention : Reuss Voigt Hill
#
# Bulk Modulus (GPa) = 45.03364 53.38324 49.20844
# Shear Modulus (GPa) = 48.92665 19.16416 34.04541
#
# Velocity S-wave (km/s) = 4.90413 3.06926 4.09090
# Velocity P-wave (km/s) = 7.36235 6.22910 6.81931
#
# Compressibility (1/GPa) = 0.02220562
#
# Stress axis : x y z
#
# Youngs Moduli (GPa) = 115.30107 86.15386 79.93861
#
# Poissons Ratio (x) = -0.07901 0.39043
# Poissons Ratio (y) = -0.10575 0.10592
# Poissons Ratio (z) = 0.56315 0.11415
#
# Static dielectric constant tensor:
#      x y z
#    x 3.760130 0.104220 -0.375600 
#    y 0.104220 3.738200 -0.422280 
#    z -0.375600 -0.422280 4.720670 
# 
# 
# High freq. dielectric constant tensor:
#      x y z
#    x 1.802900 -0.000210 -0.000120 
#    y -0.000210 1.796240 -0.009810 
#    z -0.000120 -0.009810 1.798710 
# 
# From -- ./inp_files/242871.got.cif
#   From: 2010.06.25/outbox.cif.g09.slc.cpg/sg2_122_cif.got.tgz:242871.got - 2010.06.27 13:26:56.
