data_PCOD8008465
_publ_section_title
;
Structure prediction by ZEFSAII (Michael W. Deem and Ramdas Pophale) SiO2 
 PCOD8008465
Probable space group: P -1
;
_chemical_formula_sum "Si O2"
_cell_formula_units_Z 14
_cell_length_a 9.326281
_cell_length_b 14.649930
_cell_length_c 15.928320
_cell_angle_alpha 25.948830
_cell_angle_beta 133.175974
_cell_angle_gamma 116.924206
_cell_volume 597.722923
_symmetry_space_group_name_H-M "P -1"
_symmetry_group_IT_number 2
_symmetry_cell_setting 'triclinic'
loop_
_space_group_symop_operation_xyz
x,y,z
-x,-y,-z
loop_
_atom_site_type_symbol
_atom_site_label
_atom_site_fract_x
_atom_site_fract_y
_atom_site_fract_z
Si Si1 0.893397 0.492827 0.048625
Si Si2 0.099404 0.101049 0.571655
Si Si3 0.116043 0.551972 0.641871
Si Si4 0.411899 0.003324 0.190304
Si Si5 0.713444 0.988023 0.048698
Si Si6 0.033508 0.815126 0.908836
Si Si7 0.580690 0.246100 0.433977
O O1 0.624363 0.670423 0.783636
O O2 0.029614 0.566660 0.110381
O O3 0.000000 0.500000 0.000000
O O4 0.949096 0.228981 0.321858
O O5 0.995416 0.305092 0.434709
O O6 0.363897 0.989147 0.749727
O O7 0.073009 0.876820 0.777601
O O8 0.342184 0.555257 0.700429
O O9 0.201732 0.266933 0.918266
O O10 0.918346 0.706114 0.366299
O O11 0.473347 0.800147 0.454257
O O12 0.334342 0.928486 0.136093
O O13 0.782302 0.172479 0.967019
O O14 0.500000 0.000000 0.000000
O O15 0.778816 0.999133 0.681769
#
# Coordination Sequence:
#
# PCOD8008465 Si02
#       7
#     2   2   2   2   2   2   2
#     4  12  24  40  65  96 130 167 220 267 316 379
#     4  10  23  42  64  95 133 166 217 259 323 383
#     4  10  24  41  67  98 129 170 214 259 328 384
#     4  12  21  41  71  93 133 171 211 264 322 380
#     4  10  20  43  69  94 131 167 215 264 318 390
#     4  10  24  43  65  93 129 171 211 270 323 378
#     4  10  24  42  63  99 130 164 223 266 310 390
#
# _framework density 23.422222000000001
#
# number of rings (size 3 to 8) (size 9 to 14) (size 15 to 20)
#    0.000    1.714    4.286    1.714    2.000    6.286 
#    0.000    3.571    0.000    0.000    0.000    0.000 
#    0.000    0.000    0.000    0.000    0.000    0.000 
#
# Total GULP energy -173439.345757 kJ/mol
# GULP energy per Si atom -12388.524697 kJ/mol
# Density = 2.336891 g / cm^3
# Si number density = 23.422222 Si / 1000 Ang^3
#
#
#
# Elastic Constant Matrix: (Units=GPa)
#
#
# Indices 1 2 3 4 5 6 
#
# 1 93.9020 -8.4943 24.8448 15.5554 11.8171 14.2959
# 2 -8.4943 17.3015 27.7268 18.2426 17.7597 35.8132
# 3 24.8448 27.7268 82.9873 23.1317 -7.6580 9.4630
# 4 15.5554 18.2426 23.1317 30.5968 -3.4855 -0.0478
# 5 11.8171 17.7597 -7.6580 -3.4855 45.3448 2.5821
# 6 14.2959 35.8132 9.4630 -0.0478 2.5821 26.7889
#
#
#
# Elastic Compliance Matrix: (Units=1/GPa)
#
#
# Indices 1 2 3 4 5 6 
#
# 1 0.009062 -0.007964 -0.000981 0.000928 0.000314 0.006128
# 2 -0.007964 -0.013954 0.002024 0.011733 0.007561 0.021482
# 3 -0.000981 0.002024 0.016344 -0.012884 0.001696 -0.008142
# 4 0.000928 0.011733 -0.012884 0.034515 -0.003722 -0.011209
# 5 0.000314 0.007561 0.001696 -0.003722 0.019738 -0.012784
# 6 0.006128 0.021482 -0.008142 -0.011209 -0.012784 0.009429
#
#
# Mechanical properties :
#
#
# Convention : Reuss Voigt Hill
#
# Bulk Modulus (GPa) = -418.63238 31.37170 -193.63034
# Shear Modulus (GPa) = 56.70371 30.55367 43.62869
#
# Velocity S-wave (km/s) = 4.92564 3.61567 4.32059
# Velocity P-wave (km/s) = 12.11494 5.55462 7.61308
#
# Compressibility (1/GPa) = -0.00238873
#
# Stress axis : x y z
#
# Youngs Moduli (GPa) = 110.34555 -71.66259 61.18629
#
# Poissons Ratio (x) = -0.57069 0.06001
# Poissons Ratio (y) = 0.87874 -0.12384
# Poissons Ratio (z) = 0.10822 0.14505
#
# Static dielectric constant tensor:
#      x y z
#    x 4.478890 -0.067480 -0.295610 
#    y -0.067480 1.027100 -4.384090 
#    z -0.295610 -4.384090 -1.264080 
# 
# 
# High freq. dielectric constant tensor:
#      x y z
#    x 1.944690 -0.004500 0.001090 
#    y -0.004500 1.909140 0.008030 
#    z 0.001090 0.008030 1.930510 
# 
# From -- ./inp_files/505149.got.cif
#   From: 2010.06.25/outbox.cif.g09.slc.cpg/sg2_253_cif.got.tgz:505149.got - 2010.06.27 13:26:56.
