data_PCOD8008832
_publ_section_title
;
Structure prediction by ZEFSAII (Michael W. Deem and Ramdas Pophale) SiO2 
 PCOD8008832
Probable space group: P -1
;
_chemical_formula_sum "Si O2"
_cell_formula_units_Z 16
_cell_length_a 5.080399
_cell_length_b 16.896151
_cell_length_c 15.092885
_cell_angle_alpha 59.379246
_cell_angle_beta 109.696031
_cell_angle_gamma 132.179498
_cell_volume 826.169388
_symmetry_space_group_name_H-M "P -1"
_symmetry_group_IT_number 2
_symmetry_cell_setting 'triclinic'
loop_
_space_group_symop_operation_xyz
x,y,z
-x,-y,-z
loop_
_atom_site_type_symbol
_atom_site_label
_atom_site_fract_x
_atom_site_fract_y
_atom_site_fract_z
Si Si1 0.288811 0.611094 0.279357
Si Si2 0.148087 0.961653 0.435320
Si Si3 0.376701 0.414565 0.832096
Si Si4 0.363295 0.627218 0.952212
Si Si5 0.726745 0.736463 0.418411
Si Si6 0.853300 0.356467 0.446611
Si Si7 0.151940 0.334584 0.177130
Si Si8 0.280105 0.178420 0.368120
O O1 0.545101 0.615737 0.235225
O O2 0.527061 0.717558 0.314598
O O3 0.018000 0.624028 0.191473
O O4 0.086760 0.493559 0.380268
O O5 0.030002 0.876859 0.385764
O O6 0.836923 0.886852 0.513950
O O7 0.500000 0.000000 0.500000
O O8 0.215789 0.082126 0.345741
O O9 0.662737 0.553467 0.801834
O O10 0.392508 0.338812 0.953075
O O11 0.234401 0.706320 0.876268
O O12 0.424865 0.369513 0.108952
O O13 0.000000 0.500000 0.000000
O O14 0.459707 0.677246 0.504034
O O15 0.913454 0.675733 0.464941
O O16 0.690950 0.290375 0.370008
O O17 0.065883 0.223937 0.283995
#
# Coordination Sequence:
#
# PCOD8008832 Si02
#       8
#     2   2   2   2   2   2   2   2
#     4  12  22  34  55  81 111 154 185 220 268 347
#     4  10  21  38  56  77 116 146 188 241 274 308
#     4  11  21  35  54  81 115 147 181 221 282 327
#     4  10  21  35  54  82 116 148 174 232 280 339
#     4  11  23  37  53  78 111 152 192 225 271 319
#     4  11  21  35  53  77 117 144 187 226 270 327
#     4  11  21  35  57  83 115 144 189 219 282 345
#     4  10  22  34  57  84 107 153 184 228 283 327
#
# _framework density 19.366489999999999
#
# number of rings (size 3 to 8) (size 9 to 14) (size 15 to 20)
#    0.000    1.250    2.500    6.000    3.500    0.000 
#    0.000    0.000    0.000    0.000    0.000    5.250 
#    0.000    0.000    0.000    0.000    0.000    0.000 
#
# Total GULP energy -198346.527354 kJ/mol
# GULP energy per Si atom -12396.657960 kJ/mol
# Density = 1.932241 g / cm^3
# Si number density = 19.366490 Si / 1000 Ang^3
#
#
#
# Elastic Constant Matrix: (Units=GPa)
#
#
# Indices 1 2 3 4 5 6 
#
# 1 82.6946 25.6070 17.7850 6.6701 16.0371 -9.5777
# 2 25.6070 103.5434 42.5434 19.6294 11.7424 -14.9220
# 3 17.7850 42.5434 83.8825 11.6852 28.5680 -15.5086
# 4 6.6701 19.6294 11.6852 21.2689 -1.3764 3.1340
# 5 16.0371 11.7424 28.5680 -1.3764 48.7162 0.7272
# 6 -9.5777 -14.9220 -15.5086 3.1340 0.7272 20.1536
#
#
#
# Elastic Compliance Matrix: (Units=1/GPa)
#
#
# Indices 1 2 3 4 5 6 
#
# 1 0.014768 -0.001392 0.002150 -0.006223 -0.006094 0.008829
# 2 -0.001392 0.015745 -0.002910 -0.014267 -0.002198 0.011054
# 3 0.002150 -0.002910 0.023671 -0.014874 -0.014605 0.019922
# 4 -0.006223 -0.014267 -0.014874 0.076935 0.016944 -0.037541
# 5 -0.006094 -0.002198 -0.014605 0.016944 0.032398 -0.019566
# 6 0.008829 0.011054 0.019922 -0.037541 -0.019566 0.083874
#
#
# Mechanical properties :
#
#
# Convention : Reuss Voigt Hill
#
# Bulk Modulus (GPa) = 20.04900 49.11014 34.57957
# Shear Modulus (GPa) = 18.63424 30.30674 24.47049
#
# Velocity S-wave (km/s) = 3.10528 3.96018 3.55850
# Velocity P-wave (km/s) = 4.81995 6.80618 5.89729
#
# Compressibility (1/GPa) = 0.04987780
#
# Stress axis : x y z
#
# Youngs Moduli (GPa) = 67.71474 63.51242 42.24580
#
# Poissons Ratio (x) = 0.08842 -0.09082
# Poissons Ratio (y) = 0.09427 0.12296
# Poissons Ratio (z) = -0.14557 0.18485
#
# Static dielectric constant tensor:
#      x y z
#    x 0.474800 -5.288570 2.748220 
#    y -5.288570 -4.296500 3.802130 
#    z 2.748220 3.802130 1.924980 
# 
# 
# High freq. dielectric constant tensor:
#      x y z
#    x 1.772040 -0.005200 0.014580 
#    y -0.005200 1.723930 0.010320 
#    z 0.014580 0.010320 1.736020 
# 
# From -- ./inp_files/485239.got.cif
#   From: 2010.06.25/outbox.cif.g09.slc.cpg/sg2_243_cif.got.tgz:485239.got - 2010.06.27 13:26:56.
