data_PCOD8008127
_publ_section_title
;
Structure prediction by ZEFSAII (Michael W. Deem and Ramdas Pophale) SiO2 
 PCOD8008127
Probable space group: P -1
;
_chemical_formula_sum "Si O2"
_cell_formula_units_Z 16
_cell_length_a 18.537103
_cell_length_b 9.058245
_cell_length_c 12.413379
_cell_angle_alpha 48.719821
_cell_angle_beta 148.151626
_cell_angle_gamma 135.017189
_cell_volume 767.733459
_symmetry_space_group_name_H-M "P -1"
_symmetry_group_IT_number 2
_symmetry_cell_setting 'triclinic'
loop_
_space_group_symop_operation_xyz
x,y,z
-x,-y,-z
loop_
_atom_site_type_symbol
_atom_site_label
_atom_site_fract_x
_atom_site_fract_y
_atom_site_fract_z
Si Si1 0.783049 0.389142 0.579426
Si Si2 0.454275 0.234874 0.750675
Si Si3 0.666837 0.449041 0.636568
Si Si4 0.594436 0.933250 0.567697
Si Si5 0.322272 0.967876 0.909405
Si Si6 0.121234 0.527833 0.908303
Si Si7 0.329658 0.359484 0.849140
Si Si8 0.718116 0.628968 0.977386
O O1 0.736013 0.415631 0.628074
O O2 0.752865 0.559312 0.384808
O O3 0.954346 0.431408 0.778751
O O4 0.697852 0.152574 0.536436
O O5 0.370081 0.337314 0.513873
O O6 0.336515 0.077372 0.758394
O O7 0.541139 0.108801 0.859182
O O8 0.568873 0.425227 0.872918
O O9 0.516321 0.244527 0.566571
O O10 0.777776 0.480449 0.859366
O O11 0.500000 0.000000 0.500000
O O12 0.698405 0.838842 0.809430
O O13 0.167806 0.769923 0.812019
O O14 0.317755 0.122344 0.924555
O O15 0.146608 0.393774 0.905203
O O16 0.247330 0.353100 0.860573
O O17 0.500000 0.500000 0.000000
#
# Coordination Sequence:
#
# PCOD8008127 Si02
#       8
#     2   2   2   2   2   2   2   2
#     4  11  24  42  63  93 128 166 209 256 311 376
#     4   9  18  40  62  96 124 149 214 265 308 358
#     4  10  20  42  66  94 121 162 212 263 305 367
#     4   9  20  38  67  92 119 158 214 258 308 358
#     4  10  21  36  65  92 125 161 203 257 316 361
#     4  11  26  41  61  92 134 167 203 252 319 377
#     4  12  22  40  67  92 124 162 214 263 304 365
#     4  10  22  40  60  94 130 160 208 261 308 371
#
# _framework density 20.840565000000002
#
# number of rings (size 3 to 8) (size 9 to 14) (size 15 to 20)
#    0.000    1.750    2.500    1.875    5.250    6.000 
#    0.000    0.000    0.000    0.000    0.000    0.000 
#    0.000    0.000    0.000    0.000    0.000    0.000 
#
# Total GULP energy -198382.415515 kJ/mol
# GULP energy per Si atom -12398.900970 kJ/mol
# Density = 2.079313 g / cm^3
# Si number density = 20.840565 Si / 1000 Ang^3
#
#
#
# Elastic Constant Matrix: (Units=GPa)
#
#
# Indices 1 2 3 4 5 6 
#
# 1 115.5743 49.2937 42.6984 -1.4836 -2.1696 -10.4951
# 2 49.2937 114.2152 60.4986 -21.5190 17.0933 -3.7989
# 3 42.6984 60.4986 89.4061 -4.6762 1.1387 3.8024
# 4 -1.4836 -21.5190 -4.6762 31.0200 0.1236 8.5423
# 5 -2.1696 17.0933 1.1387 0.1236 25.1031 6.4524
# 6 -10.4951 -3.7989 3.8024 8.5423 6.4524 27.6020
#
#
#
# Elastic Compliance Matrix: (Units=1/GPa)
#
#
# Indices 1 2 3 4 5 6 
#
# 1 0.012349 -0.004888 -0.003096 -0.004697 0.003236 0.005146
# 2 -0.004888 0.021793 -0.011668 0.012502 -0.015433 0.002487
# 3 -0.003096 -0.011668 0.020553 -0.003376 0.008444 -0.006543
# 4 -0.004697 0.012502 -0.003376 0.043404 -0.005990 -0.011633
# 5 0.003236 -0.015433 0.008444 -0.005990 0.053540 -0.012719
# 6 0.005146 0.002487 -0.006543 -0.011633 -0.012719 0.046003
#
#
# Mechanical properties :
#
#
# Convention : Reuss Voigt Hill
#
# Bulk Modulus (GPa) = 64.96907 69.35301 67.16104
# Shear Modulus (GPa) = 20.65474 27.85869 24.25672
#
# Velocity S-wave (km/s) = 3.15156 3.66013 3.41533
# Velocity P-wave (km/s) = 6.66972 7.15627 6.91727
#
# Compressibility (1/GPa) = 0.01539194
#
# Stress axis : x y z
#
# Youngs Moduli (GPa) = 80.98075 45.88585 48.65508
#
# Poissons Ratio (x) = 0.22428 0.15062
# Poissons Ratio (y) = 0.39582 0.56770
# Poissons Ratio (z) = 0.25069 0.53539
#
# Static dielectric constant tensor:
#      x y z
#    x 3.850280 0.007280 0.064270 
#    y 0.007280 4.185510 -0.332020 
#    z 0.064270 -0.332020 3.626690 
# 
# 
# High freq. dielectric constant tensor:
#      x y z
#    x 1.822060 -0.005380 -0.002880 
#    y -0.005380 1.818200 -0.029230 
#    z -0.002880 -0.029230 1.797130 
# 
# From -- ./inp_files/204252.got.cif
#   From: 2010.06.25/outbox.cif.g09.slc.cpg/sg2_103_cif.got.tgz:204252.got - 2010.06.27 13:26:56.
