data_PCOD8008973
_publ_section_title
;
Structure prediction by ZEFSAII (Michael W. Deem and Ramdas Pophale) SiO2 
 PCOD8008973
Probable space group: P -1
;
_chemical_formula_sum "Si O2"
_cell_formula_units_Z 12
_cell_length_a 12.164860
_cell_length_b 12.121313
_cell_length_c 9.424797
_cell_angle_alpha 69.512624
_cell_angle_beta 132.907733
_cell_angle_gamma 72.434491
_cell_volume 588.092453
_symmetry_space_group_name_H-M "P -1"
_symmetry_group_IT_number 2
_symmetry_cell_setting 'triclinic'
loop_
_space_group_symop_operation_xyz
x,y,z
-x,-y,-z
loop_
_atom_site_type_symbol
_atom_site_label
_atom_site_fract_x
_atom_site_fract_y
_atom_site_fract_z
Si Si1 0.977081 0.476725 0.329505
Si Si2 0.811682 0.537573 0.729884
Si Si3 0.724037 0.899445 0.148448
Si Si4 0.030668 0.144254 0.086351
Si Si5 0.259039 0.904709 0.109886
Si Si6 0.465387 0.109737 0.289365
O O1 0.000000 0.500000 0.500000
O O2 0.187618 0.411951 0.452468
O O3 0.036524 0.299921 0.470490
O O4 0.715753 0.666919 0.941743
O O5 0.544592 0.715383 0.483422
O O6 0.000000 0.500000 0.000000
O O7 0.888594 0.354416 0.872985
O O8 0.666623 0.880193 0.953175
O O9 0.500000 0.000000 0.000000
O O10 0.768582 0.009266 0.103856
O O11 0.119259 0.059273 0.043205
O O12 0.267529 0.004671 0.460565
O O13 0.853905 0.153828 0.987443
O O14 0.500000 0.000000 0.500000
#
# Coordination Sequence:
#
# PCOD8008973 Si02
#       6
#     2   2   2   2   2   2
#     4  10  21  35  61  90 122 159 207 260 315 364
#     4  12  22  38  69  97 120 162 225 265 303 379
#     4  11  21  37  60  89 124 157 209 256 310 375
#     4  11  23  40  62  95 131 163 210 271 318 367
#     4  11  23  40  62  93 133 169 204 264 327 372
#     4  11  19  38  63  89 117 162 218 257 299 370
#
# _framework density 20.404954
#
# number of rings (size 3 to 8) (size 9 to 14) (size 15 to 20)
#    0.000    1.000    5.000    3.500    0.000    0.000 
#    0.000    1.667    0.000    0.000    0.000    0.000 
#    0.000    0.000    0.000    0.000    0.000    0.000 
#
# Total GULP energy -148666.089012 kJ/mol
# GULP energy per Si atom -12388.840751 kJ/mol
# Density = 2.035851 g / cm^3
# Si number density = 20.404954 Si / 1000 Ang^3
#
#
#
# Elastic Constant Matrix: (Units=GPa)
#
#
# Indices 1 2 3 4 5 6 
#
# 1 160.2802 53.0579 67.8780 -14.7675 -3.9996 24.6655
# 2 53.0579 80.3058 37.4788 -25.6092 -8.3153 22.7548
# 3 67.8780 37.4788 143.9327 -34.2359 -9.7433 21.6601
# 4 -14.7675 -25.6092 -34.2359 39.1454 5.5781 -2.9531
# 5 -3.9996 -8.3153 -9.7433 5.5781 38.3029 -1.9052
# 6 24.6655 22.7548 21.6601 -2.9531 -1.9052 37.6954
#
#
#
# Elastic Compliance Matrix: (Units=1/GPa)
#
#
# Indices 1 2 3 4 5 6 
#
# 1 0.009403 -0.005217 -0.003678 -0.003071 -0.000697 -0.001166
# 2 -0.005217 0.022339 0.001281 0.012708 0.002298 -0.009695
# 3 -0.003678 0.001281 0.011100 0.008677 0.001255 -0.004001
# 4 -0.003071 0.012708 0.008677 0.039937 -0.001549 -0.007597
# 5 -0.000697 0.002298 0.001255 -0.001549 0.027058 -0.000406
# 6 -0.001166 -0.009695 -0.004001 -0.007597 -0.000406 0.034827
#
#
# Mechanical properties :
#
#
# Convention : Reuss Voigt Hill
#
# Bulk Modulus (GPa) = 36.21532 77.92758 57.07145
# Shear Modulus (GPa) = 29.56863 38.10234 33.83549
#
# Velocity S-wave (km/s) = 3.81082 4.32592 4.07652
# Velocity P-wave (km/s) = 6.09508 7.95141 7.08431
#
# Compressibility (1/GPa) = 0.02761262
#
# Stress axis : x y z
#
# Youngs Moduli (GPa) = 106.35120 44.76429 90.09107
#
# Poissons Ratio (x) = 0.23354 0.33137
# Poissons Ratio (y) = 0.55485 -0.11538
# Poissons Ratio (z) = 0.39118 -0.05733
#
# Static dielectric constant tensor:
#      x y z
#    x 5.976690 -0.044330 -1.159170 
#    y -0.044330 3.910260 -0.447920 
#    z -1.159170 -0.447920 4.916230 
# 
# 
# High freq. dielectric constant tensor:
#      x y z
#    x 1.799560 -0.009020 -0.011140 
#    y -0.009020 1.790050 -0.031200 
#    z -0.011140 -0.031200 1.798270 
# 
# From -- ./inp_files/150911.got.cif
#   From: 2010.06.25/outbox.cif.g09.slc.cpg/sg2_76_cif.got.tgz:150911.got - 2010.06.27 13:26:56.
