data_PCOD8008443
_publ_section_title
;
Structure prediction by ZEFSAII (Michael W. Deem and Ramdas Pophale) SiO2 
 PCOD8008443
Probable space group: P -1
;
_chemical_formula_sum "Si O2"
_cell_formula_units_Z 14
_cell_length_a 10.662400
_cell_length_b 11.014203
_cell_length_c 7.382326
_cell_angle_alpha 90.919465
_cell_angle_beta 42.988287
_cell_angle_gamma 97.750935
_cell_volume 581.343049
_symmetry_space_group_name_H-M "P -1"
_symmetry_group_IT_number 2
_symmetry_cell_setting 'triclinic'
loop_
_space_group_symop_operation_xyz
x,y,z
-x,-y,-z
loop_
_atom_site_type_symbol
_atom_site_label
_atom_site_fract_x
_atom_site_fract_y
_atom_site_fract_z
Si Si1 0.678758 0.368566 0.900113
Si Si2 0.642052 0.517380 0.585654
Si Si3 0.507667 0.863997 0.086150
Si Si4 0.024648 0.683285 0.164789
Si Si5 0.376686 0.724127 0.582404
Si Si6 0.878167 0.899727 0.500960
Si Si7 0.565287 0.931514 0.601440
O O1 0.705763 0.449583 0.692954
O O2 0.639754 0.221766 0.890352
O O3 0.867888 0.397383 0.817981
O O4 0.517704 0.406941 0.196808
O O5 0.572009 0.411198 0.506664
O O6 0.823718 0.607922 0.317279
O O7 0.457326 0.815030 0.339366
O O8 0.505858 0.014036 0.130443
O O9 0.709288 0.837691 0.810148
O O10 0.005235 0.805379 0.299148
O O11 0.152744 0.716142 0.849440
O O12 0.479107 0.785938 0.659685
O O13 0.788312 0.948449 0.411063
O O14 0.000000 0.000000 0.500000
O O15 0.500000 0.000000 0.500000
#
# Coordination Sequence:
#
# PCOD8008443 Si02
#       7
#     2   2   2   2   2   2   2
#     4  10  21  41  69  94 134 175 229 281 335 398
#     4  10  22  42  64  96 132 181 227 273 336 403
#     4  10  20  43  68  93 132 180 221 274 345 401
#     4  12  23  40  65 103 130 170 232 284 332 397
#     4  10  23  41  64  94 136 179 217 276 341 407
#     4  12  24  41  70 106 132 172 237 287 329 408
#     4  10  22  44  69  96 137 181 217 275 354 402
#
# _framework density 24.082163999999999
#
# number of rings (size 3 to 8) (size 9 to 14) (size 15 to 20)
#    0.000    1.429    1.429    3.857    0.000    0.571 
#    2.571   15.714    0.000    0.000    0.000    0.000 
#    0.000    0.000    0.000    0.000    0.000    0.000 
#
# Total GULP energy -173446.490039 kJ/mol
# GULP energy per Si atom -12389.035003 kJ/mol
# Density = 2.402735 g / cm^3
# Si number density = 24.082164 Si / 1000 Ang^3
#
#
#
# Elastic Constant Matrix: (Units=GPa)
#
#
# Indices 1 2 3 4 5 6 
#
# 1 117.1472 42.0761 15.8663 10.2005 1.4447 10.7504
# 2 42.0761 133.8407 28.9865 23.8262 0.0505 24.8892
# 3 15.8663 28.9865 106.5082 14.9716 9.1680 -5.6978
# 4 10.2005 23.8262 14.9716 40.8783 1.5421 -1.2211
# 5 1.4447 0.0505 9.1680 1.5421 45.4096 3.4082
# 6 10.7504 24.8892 -5.6978 -1.2211 3.4082 43.8776
#
#
#
# Elastic Compliance Matrix: (Units=1/GPa)
#
#
# Indices 1 2 3 4 5 6 
#
# 1 0.009715 -0.002593 -0.000693 -0.000686 -0.000067 -0.001013
# 2 -0.002593 0.010790 -0.002263 -0.005036 0.001149 -0.006009
# 3 -0.000693 -0.002263 0.010786 -0.002283 -0.002298 0.002969
# 4 -0.000686 -0.005036 -0.002283 0.028541 -0.000750 0.003581
# 5 -0.000067 0.001149 -0.002298 -0.000750 0.022716 -0.002719
# 6 -0.001013 -0.006009 0.002969 0.003581 -0.002719 0.027144
#
#
# Mechanical properties :
#
#
# Convention : Reuss Voigt Hill
#
# Bulk Modulus (GPa) = 49.52415 59.03933 54.28174
# Shear Modulus (GPa) = 39.20894 44.07092 41.63993
#
# Velocity S-wave (km/s) = 4.03939 4.28252 4.16273
# Velocity P-wave (km/s) = 6.50883 7.00159 6.75970
#
# Compressibility (1/GPa) = 0.02019217
#
# Stress axis : x y z
#
# Youngs Moduli (GPa) = 102.93104 92.67488 92.71601
#
# Poissons Ratio (x) = 0.24034 0.06429
# Poissons Ratio (y) = 0.26694 0.20979
# Poissons Ratio (z) = 0.07137 0.20970
#
# Static dielectric constant tensor:
#      x y z
#    x 4.519580 0.214280 0.250720 
#    y 0.214280 5.243440 0.274710 
#    z 0.250720 0.274710 4.551440 
# 
# 
# High freq. dielectric constant tensor:
#      x y z
#    x 1.965650 0.011470 0.025720 
#    y 0.011470 1.981220 0.014290 
#    z 0.025720 0.014290 1.956470 
# 
# From -- ./inp_files/262655.got.cif
#   From: 2010.06.25/outbox.cif.g09.slc.cpg/sg2_132_cif.got.tgz:262655.got - 2010.06.27 13:26:56.
