data_PCOD8008619
_publ_section_title
;
Structure prediction by ZEFSAII (Michael W. Deem and Ramdas Pophale) SiO2 
 PCOD8008619
Probable space group: P -1
;
_chemical_formula_sum "Si O2"
_cell_formula_units_Z 16
_cell_length_a 9.496613
_cell_length_b 11.585360
_cell_length_c 9.058676
_cell_angle_alpha 80.397281
_cell_angle_beta 108.411998
_cell_angle_gamma 126.543200
_cell_volume 759.433293
_symmetry_space_group_name_H-M "P -1"
_symmetry_group_IT_number 2
_symmetry_cell_setting 'triclinic'
loop_
_space_group_symop_operation_xyz
x,y,z
-x,-y,-z
loop_
_atom_site_type_symbol
_atom_site_label
_atom_site_fract_x
_atom_site_fract_y
_atom_site_fract_z
Si Si1 0.880821 0.784413 0.017938
Si Si2 0.454234 0.215012 0.538228
Si Si3 0.604884 0.222818 0.272617
Si Si4 0.739088 0.961172 0.001314
Si Si5 0.839221 0.505463 0.124102
Si Si6 0.787604 0.443709 0.778779
Si Si7 0.189907 0.278817 0.325899
Si Si8 0.215130 0.931156 0.691101
O O1 0.794197 0.750246 0.833663
O O2 0.796078 0.851689 0.069330
O O3 0.832041 0.641772 0.114404
O O4 0.098799 0.894235 0.056384
O O5 0.552683 0.212963 0.426413
O O6 0.603543 0.296441 0.698201
O O7 0.355964 0.294280 0.462894
O O8 0.303659 0.051502 0.569165
O O9 0.689772 0.383435 0.209950
O O10 0.755045 0.190737 0.311699
O O11 0.432982 0.104721 0.145725
O O12 0.695030 0.997932 0.136250
O O13 0.039480 0.550703 0.221616
O O14 0.785300 0.444832 0.954011
O O15 0.797486 0.576428 0.682240
O O16 0.000816 0.145212 0.359118
#
# Coordination Sequence:
#
# PCOD8008619 Si02
#       8
#     2   2   2   2   2   2   2   2
#     4   9  20  40  68  98 124 160 209 271 312 367
#     4  12  25  41  62  94 131 172 210 258 318 379
#     4  12  24  42  62  97 134 163 212 267 313 375
#     4  10  21  40  67  95 125 163 217 260 313 369
#     4  10  22  42  69  93 127 165 211 267 316 369
#     4  10  22  42  67  95 122 169 215 257 317 379
#     4  10  20  45  65  90 133 165 209 259 319 379
#     4  11  24  42  65  93 126 173 215 257 314 377
#
# _framework density 21.068342999999999
#
# number of rings (size 3 to 8) (size 9 to 14) (size 15 to 20)
#    0.000    1.500    2.500    2.250    3.500    1.000 
#    4.500    0.000    0.000    0.000    0.000    0.000 
#    0.000    0.000    0.000    0.000    0.000    0.000 
#
# Total GULP energy -198501.016173 kJ/mol
# GULP energy per Si atom -12406.313511 kJ/mol
# Density = 2.102039 g / cm^3
# Si number density = 21.068343 Si / 1000 Ang^3
#
#
#
# Elastic Constant Matrix: (Units=GPa)
#
#
# Indices 1 2 3 4 5 6 
#
# 1 76.5553 28.6884 43.9059 2.2726 1.2303 -6.9745
# 2 28.6884 102.3660 37.3394 -14.7543 -3.4059 -5.2685
# 3 43.9059 37.3394 58.4903 -7.7498 3.3876 1.1811
# 4 2.2726 -14.7543 -7.7498 34.4938 8.0711 5.8839
# 5 1.2303 -3.4059 3.3876 8.0711 34.5651 3.3223
# 6 -6.9745 -5.2685 1.1811 5.8839 3.3223 33.8114
#
#
#
# Elastic Compliance Matrix: (Units=1/GPa)
#
#
# Indices 1 2 3 4 5 6 
#
# 1 0.025845 -0.000539 -0.020429 -0.008280 0.002273 0.007178
# 2 -0.000539 0.013371 -0.007766 0.003484 0.001138 0.001526
# 3 -0.020429 -0.007766 0.039102 0.009399 -0.005305 -0.007905
# 4 -0.008280 0.003484 0.009399 0.036220 -0.008068 -0.007004
# 5 0.002273 0.001138 -0.005305 -0.008068 0.031448 -0.000855
# 6 0.007178 0.001526 -0.007905 -0.007004 -0.000855 0.032873
#
#
# Mechanical properties :
#
#
# Convention : Reuss Voigt Hill
#
# Bulk Modulus (GPa) = 47.96647 50.80875 49.38761
# Shear Modulus (GPa) = 20.55246 29.07258 24.81252
#
# Velocity S-wave (km/s) = 3.12671 3.71875 3.43551
# Velocity P-wave (km/s) = 5.98762 6.52743 6.26334
#
# Compressibility (1/GPa) = 0.02084790
#
# Stress axis : x y z
#
# Youngs Moduli (GPa) = 38.69292 74.78646 25.57386
#
# Poissons Ratio (x) = 0.04034 0.52246
# Poissons Ratio (y) = 0.02087 0.19862
# Poissons Ratio (z) = 0.79048 0.58082
#
# Static dielectric constant tensor:
#      x y z
#    x 3.802690 -0.029230 0.032610 
#    y -0.029230 3.845860 0.010200 
#    z 0.032610 0.010200 3.579490 
# 
# 
# High freq. dielectric constant tensor:
#      x y z
#    x 1.833400 0.000330 0.004290 
#    y 0.000330 1.835270 -0.002190 
#    z 0.004290 -0.002190 1.808280 
# 
# From -- ./inp_files/186823.got.cif
#   From: 2010.06.25/outbox.cif.g09.slc.cpg/sg2_94_cif.got.tgz:186823.got - 2010.06.27 13:26:56.
