data_PCOD8008650
_publ_section_title
;
Structure prediction by ZEFSAII (Michael W. Deem and Ramdas Pophale) SiO2 
 PCOD8008650
Probable space group: P -1
;
_chemical_formula_sum "Si O2"
_cell_formula_units_Z 14
_cell_length_a 6.899417
_cell_length_b 10.719915
_cell_length_c 8.233714
_cell_angle_alpha 84.648652
_cell_angle_beta 77.643991
_cell_angle_gamma 84.537169
_cell_volume 590.501442
_symmetry_space_group_name_H-M "P -1"
_symmetry_group_IT_number 2
_symmetry_cell_setting 'triclinic'
loop_
_space_group_symop_operation_xyz
x,y,z
-x,-y,-z
loop_
_atom_site_type_symbol
_atom_site_label
_atom_site_fract_x
_atom_site_fract_y
_atom_site_fract_z
Si Si1 0.191302 0.988381 0.848074
Si Si2 0.183889 0.279226 0.307187
Si Si3 0.477695 0.823546 0.257551
Si Si4 0.662340 0.597550 0.437459
Si Si5 0.867048 0.435244 0.157413
Si Si6 0.416429 0.732522 0.940433
Si Si7 0.271916 0.012697 0.479042
O O1 0.311143 0.856626 0.868078
O O2 0.133043 0.991866 0.664772
O O3 0.342337 0.095495 0.847685
O O4 0.000000 0.000000 0.000000
O O5 0.214456 0.386363 0.422414
O O6 0.353138 0.279683 0.142015
O O7 0.977137 0.317076 0.247688
O O8 0.183312 0.143057 0.404415
O O9 0.558315 0.734702 0.399970
O O10 0.281043 0.907019 0.348557
O O11 0.399935 0.738611 0.137440
O O12 0.500000 0.500000 0.500000
O O13 0.807295 0.548558 0.275449
O O14 0.680559 0.388213 0.099190
O O15 0.000000 0.500000 0.000000
O O16 0.500000 0.000000 0.500000
#
# Coordination Sequence:
#
# PCOD8008650 Si02
#       7
#     2   2   2   2   2   2   2
#     4  11  24  43  74 113 149 184 245 311 375 439
#     4  12  24  50  81 102 148 197 249 310 370 437
#     4  11  24  46  79 105 150 200 238 307 382 437
#     4  12  25  48  77 107 147 197 254 304 370 441
#     4  12  31  48  73 110 150 199 256 301 367 448
#     4  12  26  46  75 108 151 195 246 309 373 437
#     4  10  20  46  77 107 144 189 242 306 373 440
#
# _framework density 23.708663000000001
#
# number of rings (size 3 to 8) (size 9 to 14) (size 15 to 20)
#    0.000    0.571    7.143    1.714    6.000    1.143 
#    2.571    1.429    0.000    0.000    0.000    0.000 
#    0.000    0.000    0.000    0.000    0.000    0.000 
#
# Total GULP energy -173592.163021 kJ/mol
# GULP energy per Si atom -12399.440216 kJ/mol
# Density = 2.365470 g / cm^3
# Si number density = 23.708663 Si / 1000 Ang^3
#
#
#
# Elastic Constant Matrix: (Units=GPa)
#
#
# Indices 1 2 3 4 5 6 
#
# 1 67.4700 20.0020 32.2422 6.3604 -1.8320 -2.9410
# 2 20.0020 74.4767 30.5748 13.3294 -3.7281 -14.8641
# 3 32.2422 30.5748 165.0035 26.2435 -10.7242 -0.2133
# 4 6.3604 13.3294 26.2435 55.5435 0.3141 7.2932
# 5 -1.8320 -3.7281 -10.7242 0.3141 41.9549 2.7672
# 6 -2.9410 -14.8641 -0.2133 7.2932 2.7672 31.3947
#
#
#
# Elastic Compliance Matrix: (Units=1/GPa)
#
#
# Indices 1 2 3 4 5 6 
#
# 1 0.017154 -0.003554 -0.002743 0.000201 -0.000262 -0.000118
# 2 -0.003554 0.017705 -0.001894 -0.004126 0.000374 0.008962
# 3 -0.002743 -0.001894 0.007485 -0.002695 0.001687 -0.000625
# 4 0.000201 -0.004126 -0.002695 0.021141 -0.000757 -0.006797
# 5 -0.000262 0.000374 0.001687 -0.000757 0.024413 -0.001812
# 6 -0.000118 0.008962 -0.000625 -0.006797 -0.001812 0.037819
#
#
# Mechanical properties :
#
#
# Convention : Reuss Voigt Hill
#
# Bulk Modulus (GPa) = 38.51662 52.50979 45.51320
# Shear Modulus (GPa) = 33.16675 40.72071 36.94373
#
# Velocity S-wave (km/s) = 3.74428 4.14882 3.95173
# Velocity P-wave (km/s) = 5.91388 6.71910 6.32931
#
# Compressibility (1/GPa) = 0.02596282
#
# Stress axis : x y z
#
# Youngs Moduli (GPa) = 58.29413 56.48170 133.60271
#
# Poissons Ratio (x) = 0.20073 0.36643
# Poissons Ratio (y) = 0.20717 0.25307
# Poissons Ratio (z) = 0.15988 0.10699
#
# Static dielectric constant tensor:
#      x y z
#    x 4.701530 0.148250 -0.173300 
#    y 0.148250 3.744880 0.046560 
#    z -0.173300 0.046560 4.938270 
# 
# 
# High freq. dielectric constant tensor:
#      x y z
#    x 1.932100 -0.007650 0.006760 
#    y -0.007650 1.946840 0.012680 
#    z 0.006760 0.012680 1.958550 
# 
# From -- ./inp_files/130854.got.cif
#   From: 2010.06.25/outbox.cif.g09.slc.cpg/sg2_66_cif.got.tgz:130854.got - 2010.06.27 13:26:56.
