data_PCOD8008652
_publ_section_title
;
Structure prediction by ZEFSAII (Michael W. Deem and Ramdas Pophale) SiO2 
 PCOD8008652
Probable space group: P -1
;
_chemical_formula_sum "Si O2"
_cell_formula_units_Z 10
_cell_length_a 11.800652
_cell_length_b 9.074049
_cell_length_c 10.228350
_cell_angle_alpha 51.065799
_cell_angle_beta 134.638894
_cell_angle_gamma 94.809074
_cell_volume 462.590599
_symmetry_space_group_name_H-M "P -1"
_symmetry_group_IT_number 2
_symmetry_cell_setting 'triclinic'
loop_
_space_group_symop_operation_xyz
x,y,z
-x,-y,-z
loop_
_atom_site_type_symbol
_atom_site_label
_atom_site_fract_x
_atom_site_fract_y
_atom_site_fract_z
Si Si1 0.132480 0.313994 0.833393
Si Si2 0.904422 0.442843 0.842130
Si Si3 0.475433 0.235169 0.808807
Si Si4 0.889612 0.025276 0.139678
Si Si5 0.322926 0.506444 0.799193
O O1 0.335746 0.294870 0.005732
O O2 0.000000 0.500000 0.500000
O O3 0.019283 0.424379 0.816173
O O4 0.187309 0.051283 0.999737
O O5 0.656759 0.658055 0.493487
O O6 0.941803 0.195356 0.041824
O O7 0.000000 0.500000 0.000000
O O8 0.349035 0.451521 0.695376
O O9 0.702049 0.160391 0.018002
O O10 0.500000 0.000000 0.000000
O O11 0.105059 0.775864 0.508409
O O12 0.500000 0.500000 0.000000
#
# Coordination Sequence:
#
# PCOD8008652 Si02
#       5
#     2   2   2   2   2
#     4  10  20  47  69  93 138 186 225 279 342 417
#     4  12  27  44  71 110 142 180 236 295 352 407
#     4  12  24  47  74 100 142 191 232 284 352 422
#     4  11  24  45  71  99 145 182 230 291 353 406
#     4  11  25  44  74 105 136 185 242 283 344 420
#
# _framework density 21.617387000000001
#
# number of rings (size 3 to 8) (size 9 to 14) (size 15 to 20)
#    0.000    0.800    6.000    2.400    5.600    0.800 
#    0.000    2.000    0.000    0.000    0.000    0.000 
#    0.000    0.000    0.000    0.000    0.000    0.000 
#
# Total GULP energy -123917.814786 kJ/mol
# GULP energy per Si atom -12391.781479 kJ/mol
# Density = 2.156819 g / cm^3
# Si number density = 21.617387 Si / 1000 Ang^3
#
#
#
# Elastic Constant Matrix: (Units=GPa)
#
#
# Indices 1 2 3 4 5 6 
#
# 1 160.8890 72.1415 44.8195 8.2207 8.2329 9.8912
# 2 72.1415 151.0024 59.9127 7.7445 -7.9784 32.8075
# 3 44.8195 59.9127 84.8577 2.3384 8.0616 12.5316
# 4 8.2207 7.7445 2.3384 33.7906 3.3217 2.8071
# 5 8.2329 -7.9784 8.0616 3.3217 38.9219 -0.3584
# 6 9.8912 32.8075 12.5316 2.8071 -0.3584 52.3377
#
#
#
# Elastic Compliance Matrix: (Units=1/GPa)
#
#
# Indices 1 2 3 4 5 6 
#
# 1 0.008431 -0.003594 -0.001863 -0.000993 -0.002039 0.001145
# 2 -0.003594 0.012418 -0.006473 -0.001537 0.004727 -0.005440
# 3 -0.001863 -0.006473 0.017744 0.001166 -0.004707 0.000066
# 4 -0.000993 -0.001537 0.001166 0.030462 -0.002953 -0.000782
# 5 -0.002039 0.004727 -0.004707 -0.002953 0.028310 -0.001099
# 6 0.001145 -0.005440 0.000066 -0.000782 -0.001099 0.022319
#
#
# Mechanical properties :
#
#
# Convention : Reuss Voigt Hill
#
# Bulk Modulus (GPa) = 67.87767 83.38852 75.63310
# Shear Modulus (GPa) = 33.68012 39.66840 36.67426
#
# Velocity S-wave (km/s) = 3.95145 4.28836 4.12335
# Velocity P-wave (km/s) = 7.23093 7.94850 7.59819
#
# Compressibility (1/GPa) = 0.01473238
#
# Stress axis : x y z
#
# Youngs Moduli (GPa) = 118.61296 80.52651 56.35730
#
# Poissons Ratio (x) = 0.28941 0.10502
# Poissons Ratio (y) = 0.42630 0.36479
# Poissons Ratio (z) = 0.22103 0.52123
#
# Static dielectric constant tensor:
#      x y z
#    x 4.711300 0.406130 0.008250 
#    y 0.406130 4.355570 -0.048650 
#    z 0.008250 -0.048650 3.812510 
# 
# 
# High freq. dielectric constant tensor:
#      x y z
#    x 1.871850 0.017240 0.011030 
#    y 0.017240 1.855580 -0.010690 
#    z 0.011030 -0.010690 1.821280 
# 
# From -- ./inp_files/143957.got.cif
#   From: 2010.06.25/outbox.cif.g09.slc.cpg/sg2_72_cif.got.tgz:143957.got - 2010.06.27 13:26:56.
