data_PCOD8008836
_publ_section_title
;
Structure prediction by ZEFSAII (Michael W. Deem and Ramdas Pophale) SiO2 
 PCOD8008836
Probable space group: P -1
;
_chemical_formula_sum "Si O2"
_cell_formula_units_Z 16
_cell_length_a 12.976340
_cell_length_b 7.351347
_cell_length_c 14.142721
_cell_angle_alpha 95.352576
_cell_angle_beta 30.683340
_cell_angle_gamma 80.996856
_cell_volume 606.505801
_symmetry_space_group_name_H-M "P -1"
_symmetry_group_IT_number 2
_symmetry_cell_setting 'triclinic'
loop_
_space_group_symop_operation_xyz
x,y,z
-x,-y,-z
loop_
_atom_site_type_symbol
_atom_site_label
_atom_site_fract_x
_atom_site_fract_y
_atom_site_fract_z
Si Si1 0.859636 0.670487 0.977333
Si Si2 0.953220 0.153491 0.910483
Si Si3 0.730401 0.293335 0.279608
Si Si4 0.499434 0.715531 0.964777
Si Si5 0.129286 0.645247 0.192651
Si Si6 0.152552 0.466073 0.467572
Si Si7 0.192552 0.157225 0.160743
Si Si8 0.661661 0.764771 0.336299
O O1 0.681117 0.748599 0.207096
O O2 0.799991 0.522032 0.954191
O O3 0.801215 0.866444 0.959825
O O4 0.124071 0.582336 0.802243
O O5 0.899949 0.154787 0.839204
O O6 0.090086 0.293195 0.817314
O O7 0.736268 0.261706 0.159054
O O8 0.119645 0.927072 0.802311
O O9 0.469244 0.371068 0.531426
O O10 0.591858 0.646283 0.780360
O O11 0.685372 0.693880 0.897517
O O12 0.331761 0.607429 0.109174
O O13 0.315792 0.957754 0.117665
O O14 0.894053 0.683913 0.430594
O O15 0.000000 0.500000 0.500000
O O16 0.072640 0.691056 0.591549
O O17 0.500000 0.000000 0.500000
#
# Coordination Sequence:
#
# PCOD8008836 Si02
#       8
#     2   2   2   2   2   2   2   2
#     4  10  21  35  54  84 118 154 197 252 303 353
#     4   9  19  35  55  80 111 147 192 247 295 350
#     4   9  18  35  55  77 112 150 189 245 303 351
#     4  10  21  40  63  88 122 165 202 251 311 357
#     4  11  23  37  58  89 121 158 208 253 298 367
#     4   9  21  40  59  86 122 157 199 251 302 356
#     4   9  20  40  62  88 124 159 205 256 302 363
#     4   9  19  35  57  83 109 149 199 241 296 361
#
# _framework density 26.38062
#
# number of rings (size 3 to 8) (size 9 to 14) (size 15 to 20)
#    0.000    2.500    0.000    1.500    0.000   11.500 
#    0.000   10.625    0.000    0.000    0.000    0.000 
#    0.000    0.000    0.000    0.000    0.000    0.000 
#
# Total GULP energy -198226.012199 kJ/mol
# GULP energy per Si atom -12389.125762 kJ/mol
# Density = 2.632058 g / cm^3
# Si number density = 26.380620 Si / 1000 Ang^3
#
#
#
# Elastic Constant Matrix: (Units=GPa)
#
#
# Indices 1 2 3 4 5 6 
#
# 1 92.0160 -10.2929 33.8071 4.1733 16.6282 1.2193
# 2 -10.2929 52.1739 32.1843 -2.4149 -6.5866 7.4999
# 3 33.8071 32.1843 185.9516 -5.6582 14.1458 -3.0239
# 4 4.1733 -2.4149 -5.6582 28.5268 -0.5410 -3.5989
# 5 16.6282 -6.5866 14.1458 -0.5410 40.8295 -9.7624
# 6 1.2193 7.4999 -3.0239 -3.5989 -9.7624 33.5503
#
#
#
# Elastic Compliance Matrix: (Units=1/GPa)
#
#
# Indices 1 2 3 4 5 6 
#
# 1 0.013428 0.004253 -0.002965 -0.002700 -0.004588 -0.003330
# 2 0.004253 0.024372 -0.005295 -0.000225 0.002764 -0.005300
# 3 -0.002965 -0.005295 0.007034 0.001551 -0.001680 0.001603
# 4 -0.002700 -0.000225 0.001551 0.036387 0.002160 0.004820
# 5 -0.004588 0.002764 -0.001680 0.002160 0.029372 0.008176
# 6 -0.003330 -0.005300 0.001603 0.004820 0.008176 0.034152
#
#
# Mechanical properties :
#
#
# Convention : Reuss Voigt Hill
#
# Bulk Modulus (GPa) = 27.15855 49.05982 38.10918
# Shear Modulus (GPa) = 30.29692 38.87754 34.58723
#
# Velocity S-wave (km/s) = 3.39256 3.84307 3.62482
# Velocity P-wave (km/s) = 5.06589 6.19108 5.65653
#
# Compressibility (1/GPa) = 0.03682082
#
# Stress axis : x y z
#
# Youngs Moduli (GPa) = 74.47009 41.03050 142.16240
#
# Poissons Ratio (x) = -0.17448 0.42146
# Poissons Ratio (y) = -0.31669 0.75271
# Poissons Ratio (z) = 0.22078 0.21725
#
# Static dielectric constant tensor:
#      x y z
#    x 5.271370 0.005900 0.066810 
#    y 0.005900 6.080650 -0.543150 
#    z 0.066810 -0.543150 5.654870 
# 
# 
# High freq. dielectric constant tensor:
#      x y z
#    x 2.067100 -0.007860 -0.001860 
#    y -0.007860 2.115310 -0.007390 
#    z -0.001860 -0.007390 2.042900 
# 
# From -- ./inp_files/528706.got.cif
#   From: 2010.06.25/outbox.cif.g09.slc.cpg/sg2_265_cif.got.tgz:528706.got - 2010.06.27 13:26:56.
