data_PCOD8008322
_publ_section_title
;
Structure prediction by ZEFSAII (Michael W. Deem and Ramdas Pophale) SiO2 
 PCOD8008322
Probable space group: P -1
;
_chemical_formula_sum "Si O2"
_cell_formula_units_Z 16
_cell_length_a 13.840540
_cell_length_b 11.480419
_cell_length_c 9.211489
_cell_angle_alpha 101.641503
_cell_angle_beta 88.021522
_cell_angle_gamma 32.949487
_cell_volume 720.360217
_symmetry_space_group_name_H-M "P -1"
_symmetry_group_IT_number 2
_symmetry_cell_setting 'triclinic'
loop_
_space_group_symop_operation_xyz
x,y,z
-x,-y,-z
loop_
_atom_site_type_symbol
_atom_site_label
_atom_site_fract_x
_atom_site_fract_y
_atom_site_fract_z
Si Si1 0.182865 0.753124 0.351847
Si Si2 0.735461 0.956712 0.139049
Si Si3 0.494516 0.641809 0.570796
Si Si4 0.877139 0.416347 0.848400
Si Si5 0.319954 0.863776 0.336438
Si Si6 0.538444 0.122764 0.894881
Si Si7 0.952559 0.417885 0.533851
Si Si8 0.547254 0.900510 0.628707
O O1 0.298432 0.550711 0.414470
O O2 0.125811 0.722598 0.219185
O O3 0.300366 0.742422 0.284694
O O4 0.000000 0.000000 0.500000
O O5 0.632293 0.980152 0.267353
O O6 0.965841 0.715510 0.071979
O O7 0.660731 0.166405 0.245643
O O8 0.684089 0.976574 0.984144
O O9 0.500000 0.500000 0.500000
O O10 0.432964 0.776035 0.459307
O O11 0.938189 0.428933 0.710764
O O12 0.673908 0.675414 0.984281
O O13 0.452181 0.766678 0.172211
O O14 0.112906 0.150753 0.410153
O O15 0.605404 0.944492 0.745153
O O16 0.000000 0.500000 0.500000
O O17 0.738116 0.614672 0.532530
O O18 0.500000 0.000000 0.500000
#
# Coordination Sequence:
#
# PCOD8008322 Si02
#       8
#     2   2   2   2   2   2   2   2
#     4  11  21  43  76 107 139 189 246 299 353 433
#     4  12  24  45  68 103 146 190 236 299 363 430
#     4  10  20  42  73  99 134 187 239 293 353 422
#     4  12  25  45  71 103 148 191 242 294 370 426
#     4  11  24  44  75 107 144 188 249 298 362 430
#     4  12  27  47  68 108 150 187 234 306 373 424
#     4  12  22  43  74 104 143 187 246 298 351 439
#     4  12  26  45  74 103 143 193 247 300 360 431
#
# _framework density 22.211110999999999
#
# number of rings (size 3 to 8) (size 9 to 14) (size 15 to 20)
#    0.000    0.500    6.250    2.625    0.000    2.000 
#    2.250    0.625    0.000    0.000    0.000    0.000 
#    0.000    0.000    0.000    0.000    0.000    0.000 
#
# Total GULP energy -198298.015858 kJ/mol
# GULP energy per Si atom -12393.625991 kJ/mol
# Density = 2.216056 g / cm^3
# Si number density = 22.211111 Si / 1000 Ang^3
#
#
#
# Elastic Constant Matrix: (Units=GPa)
#
#
# Indices 1 2 3 4 5 6 
#
# 1 115.0720 43.5766 38.1632 -17.4015 -0.8153 4.9773
# 2 43.5766 133.9722 34.8374 -16.1963 9.1830 -19.0906
# 3 38.1632 34.8374 103.4346 -20.4741 6.3109 -0.4254
# 4 -17.4015 -16.1963 -20.4741 31.0419 -2.3778 4.8514
# 5 -0.8153 9.1830 6.3109 -2.3778 38.6247 -4.1583
# 6 4.9773 -19.0906 -0.4254 4.8514 -4.1583 49.7764
#
#
#
# Elastic Compliance Matrix: (Units=1/GPa)
#
#
# Indices 1 2 3 4 5 6 
#
# 1 0.011354 -0.003054 -0.002539 0.003599 0.001326 -0.002569
# 2 -0.003054 0.009736 -0.001740 0.001512 -0.001599 0.003744
# 3 -0.002539 -0.001740 0.012446 0.005926 -0.001417 -0.001003
# 4 0.003599 0.001512 0.005926 0.039541 0.000804 -0.003516
# 5 0.001326 -0.001599 -0.001417 0.000804 0.026730 0.001397
# 6 -0.002569 0.003744 -0.001003 -0.003516 0.001397 0.022233
#
#
# Mechanical properties :
#
#
# Convention : Reuss Voigt Hill
#
# Bulk Modulus (GPa) = 52.99785 65.07036 59.03410
# Shear Modulus (GPa) = 34.96582 39.61538 37.29060
#
# Velocity S-wave (km/s) = 3.97199 4.22783 4.10190
# Velocity P-wave (km/s) = 6.70435 7.29333 7.00503
#
# Compressibility (1/GPa) = 0.01886869
#
# Stress axis : x y z
#
# Youngs Moduli (GPa) = 88.07591 102.71094 80.34593
#
# Poissons Ratio (x) = 0.31373 0.20403
# Poissons Ratio (y) = 0.26902 0.13979
# Poissons Ratio (z) = 0.22366 0.17870
#
# Static dielectric constant tensor:
#      x y z
#    x 4.799350 -0.033750 0.250600 
#    y -0.033750 4.700300 -0.127670 
#    z 0.250600 -0.127670 4.054650 
# 
# 
# High freq. dielectric constant tensor:
#      x y z
#    x 1.887090 -0.000590 0.006650 
#    y -0.000590 1.891390 0.002040 
#    z 0.006650 0.002040 1.857760 
# 
# From -- ./inp_files/307743.got.cif
#   From: 2010.06.25/outbox.cif.g09.slc.cpg/sg2_154_cif.got.tgz:307743.got - 2010.06.27 13:26:56.
