data_PCOD8008473
_publ_section_title
;
Structure prediction by ZEFSAII (Michael W. Deem and Ramdas Pophale) SiO2 
 PCOD8008473
Probable space group: P -1
;
_chemical_formula_sum "Si O2"
_cell_formula_units_Z 16
_cell_length_a 15.118422
_cell_length_b 8.836412
_cell_length_c 8.312017
_cell_angle_alpha 48.473985
_cell_angle_beta 79.873642
_cell_angle_gamma 104.919236
_cell_volume 705.156920
_symmetry_space_group_name_H-M "P -1"
_symmetry_group_IT_number 2
_symmetry_cell_setting 'triclinic'
loop_
_space_group_symop_operation_xyz
x,y,z
-x,-y,-z
loop_
_atom_site_type_symbol
_atom_site_label
_atom_site_fract_x
_atom_site_fract_y
_atom_site_fract_z
Si Si1 0.445351 0.138131 0.978642
Si Si2 0.106135 0.217754 0.750417
Si Si3 0.270860 0.475433 0.989038
Si Si4 0.062650 0.254736 0.376221
Si Si5 0.411612 0.422657 0.213870
Si Si6 0.244887 0.109633 0.986725
Si Si7 0.123281 0.687855 0.534358
Si Si8 0.325058 0.933283 0.489655
O O1 0.534072 0.415297 0.761623
O O2 0.351822 0.110010 0.911981
O O3 0.500000 0.000000 0.000000
O O4 0.398237 0.030587 0.242817
O O5 0.108231 0.238435 0.544393
O O6 0.204162 0.188377 0.790843
O O7 0.121965 0.449728 0.667937
O O8 0.000000 0.000000 0.000000
O O9 0.268744 0.282093 0.008168
O O10 0.338586 0.731226 0.708959
O O11 0.154747 0.418830 0.108733
O O12 0.324230 0.474965 0.138847
O O13 0.990935 0.370665 0.333895
O O14 0.000000 0.000000 0.500000
O O15 0.358574 0.143449 0.460390
O O16 0.500000 0.500000 0.000000
O O17 0.154931 0.847733 0.250765
O O18 0.205034 0.829096 0.550095
#
# Coordination Sequence:
#
# PCOD8008473 Si02
#       8
#     2   2   2   2   2   2   2   2
#     4  10  23  46  75 102 140 180 233 294 344 418
#     4  12  25  45  71  99 135 193 233 279 356 410
#     4  12  22  43  68 104 137 182 233 285 339 416
#     4  12  25  44  68 104 142 180 242 288 331 417
#     4  10  20  43  69  97 136 178 225 284 351 406
#     4  11  22  46  73  99 142 185 227 289 358 409
#     4  11  22  44  70  99 146 184 226 290 350 407
#     4  10  22  41  73  99 137 186 222 281 361 403
#
# _framework density 22.689986999999999
#
# number of rings (size 3 to 8) (size 9 to 14) (size 15 to 20)
#    0.000    1.000    7.500    0.375    0.000    4.500 
#    2.250    1.875    0.000    0.000    0.000    0.000 
#    0.000    0.000    0.000    0.000    0.000    0.000 
#
# Total GULP energy -198409.771962 kJ/mol
# GULP energy per Si atom -12400.610748 kJ/mol
# Density = 2.263834 g / cm^3
# Si number density = 22.689987 Si / 1000 Ang^3
#
#
#
# Elastic Constant Matrix: (Units=GPa)
#
#
# Indices 1 2 3 4 5 6 
#
# 1 151.8145 55.0679 28.4016 -9.1582 -10.6440 -23.6963
# 2 55.0679 104.8178 36.3227 -26.9450 -6.5325 -7.2713
# 3 28.4016 36.3227 82.2646 -31.9246 3.7554 -8.9937
# 4 -9.1582 -26.9450 -31.9246 37.8457 -4.0086 2.1559
# 5 -10.6440 -6.5325 3.7554 -4.0086 29.5808 -7.7334
# 6 -23.6963 -7.2713 -8.9937 2.1559 -7.7334 30.1151
#
#
#
# Elastic Compliance Matrix: (Units=1/GPa)
#
#
# Indices 1 2 3 4 5 6 
#
# 1 0.009821 -0.004311 -0.001670 -0.002055 0.004472 0.007483
# 2 -0.004311 0.014761 -0.002068 0.008053 0.002996 -0.000253
# 3 -0.001670 -0.002068 0.019570 0.014381 -0.000867 0.002779
# 4 -0.002055 0.008053 0.014381 0.044256 0.005993 0.002994
# 5 0.004472 0.002996 -0.000867 0.005993 0.040658 0.013995
# 6 0.007483 -0.000253 0.002779 0.002994 0.013995 0.043243
#
#
# Mechanical properties :
#
#
# Convention : Reuss Voigt Hill
#
# Bulk Modulus (GPa) = 35.64708 64.27569 49.96139
# Shear Modulus (GPa) = 25.28329 34.11528 29.69928
#
# Velocity S-wave (km/s) = 3.34172 3.88176 3.62182
# Velocity P-wave (km/s) = 5.53481 6.96276 6.28944
#
# Compressibility (1/GPa) = 0.02805279
#
# Stress axis : x y z
#
# Youngs Moduli (GPa) = 101.82382 67.74382 51.09777
#
# Poissons Ratio (x) = 0.29205 0.08536
# Poissons Ratio (y) = 0.43897 0.10569
# Poissons Ratio (z) = 0.17010 0.14012
#
# Static dielectric constant tensor:
#      x y z
#    x 3.961160 -0.408410 0.273000 
#    y -0.408410 3.532950 0.078390 
#    z 0.273000 0.078390 3.781050 
# 
# 
# High freq. dielectric constant tensor:
#      x y z
#    x 1.910850 0.002300 -0.003660 
#    y 0.002300 1.887240 -0.026470 
#    z -0.003660 -0.026470 1.883110 
# 
# From -- ./inp_files/297381.got.cif
#   From: 2010.06.25/outbox.cif.g09.slc.cpg/sg2_149_cif.got.tgz:297381.got - 2010.06.27 13:26:56.
