data_PCOD8008730
_publ_section_title
;
Structure prediction by ZEFSAII (Michael W. Deem and Ramdas Pophale) SiO2 
 PCOD8008730
Probable space group: P -1
;
_chemical_formula_sum "Si O2"
_cell_formula_units_Z 16
_cell_length_a 15.330038
_cell_length_b 10.335731
_cell_length_c 6.803304
_cell_angle_alpha 84.343923
_cell_angle_beta 54.571747
_cell_angle_gamma 65.869258
_cell_volume 787.602666
_symmetry_space_group_name_H-M "P -1"
_symmetry_group_IT_number 2
_symmetry_cell_setting 'triclinic'
loop_
_space_group_symop_operation_xyz
x,y,z
-x,-y,-z
loop_
_atom_site_type_symbol
_atom_site_label
_atom_site_fract_x
_atom_site_fract_y
_atom_site_fract_z
Si Si1 0.172113 0.339886 0.835070
Si Si2 0.478700 0.849446 0.320245
Si Si3 0.951317 0.459952 0.376251
Si Si4 0.650759 0.543390 0.249360
Si Si5 0.342912 0.039522 0.811878
Si Si6 0.757860 0.380087 0.762357
Si Si7 0.557767 0.577406 0.776059
Si Si8 0.343636 0.840773 0.132968
O O1 0.134264 0.394130 0.652716
O O2 0.240635 0.426409 0.821665
O O3 0.257932 0.169342 0.762456
O O4 0.057250 0.363548 0.108853
O O5 0.554048 0.677021 0.236064
O O6 0.571317 0.919621 0.165290
O O7 0.373475 0.893647 0.292163
O O8 0.418047 0.902165 0.600799
O O9 0.891223 0.357644 0.550743
O O10 0.000000 0.500000 0.500000
O O11 0.580830 0.516892 0.530480
O O12 0.710971 0.404891 0.047094
O O13 0.274082 0.981250 0.064704
O O14 0.686445 0.530179 0.712657
O O15 0.737095 0.245975 0.723956
O O16 0.500000 0.500000 0.000000
O O17 0.471794 0.746537 0.872984
#
# Coordination Sequence:
#
# PCOD8008730 Si02
#       8
#     2   2   2   2   2   2   2   2
#     4  10  23  39  65  89 114 153 208 258 304 351
#     4  10  21  35  60  86 122 167 199 237 285 358
#     4  11  22  42  65  91 113 148 207 265 312 348
#     4  11  19  37  60  91 123 159 197 248 299 354
#     4  10  22  40  57  86 124 163 202 242 289 362
#     4  11  23  36  61  92 125 157 200 256 306 351
#     4  10  21  34  53  87 127 160 190 234 293 365
#     4  11  22  37  56  90 127 166 197 233 299 368
#
# _framework density 20.314810999999999
#
# number of rings (size 3 to 8) (size 9 to 14) (size 15 to 20)
#    0.000    1.500    5.000    0.375    0.000    5.000 
#    0.000    0.625    0.000    1.500    0.000    0.000 
#    0.000    0.000    0.000    0.000    0.000    0.000 
#
# Total GULP energy -198210.034325 kJ/mol
# GULP energy per Si atom -12388.127145 kJ/mol
# Density = 2.026857 g / cm^3
# Si number density = 20.314811 Si / 1000 Ang^3
#
#
#
# Elastic Constant Matrix: (Units=GPa)
#
#
# Indices 1 2 3 4 5 6 
#
# 1 99.1584 42.6761 26.7508 -11.9722 9.1590 7.3369
# 2 42.6761 71.7959 25.9407 -15.3571 4.5634 8.0167
# 3 26.7508 25.9407 100.9329 -17.9686 -0.2269 15.7924
# 4 -11.9722 -15.3571 -17.9686 25.8124 -0.9525 3.0611
# 5 9.1590 4.5634 -0.2269 -0.9525 32.4213 -3.0751
# 6 7.3369 8.0167 15.7924 3.0611 -3.0751 23.1177
#
#
#
# Elastic Compliance Matrix: (Units=1/GPa)
#
#
# Indices 1 2 3 4 5 6 
#
# 1 0.014147 -0.007234 -0.001403 0.001358 -0.003101 -0.001615
# 2 -0.007234 0.021297 -0.001004 0.009258 -0.001239 -0.005794
# 3 -0.001403 -0.001004 0.013777 0.009513 -0.000024 -0.009881
# 4 0.001358 0.009258 0.009513 0.053508 -0.001703 -0.017452
# 5 -0.003101 -0.001239 -0.000024 -0.001703 0.032410 0.005967
# 6 -0.001615 -0.005794 -0.009881 -0.017452 0.005967 0.055633
#
#
# Mechanical properties :
#
#
# Convention : Reuss Voigt Hill
#
# Bulk Modulus (GPa) = 33.40159 51.40250 42.40205
# Shear Modulus (GPa) = 22.72374 28.03824 25.38099
#
# Velocity S-wave (km/s) = 3.34815 3.71912 3.53850
# Velocity P-wave (km/s) = 5.60575 6.61818 6.13290
#
# Compressibility (1/GPa) = 0.02993869
#
# Stress axis : x y z
#
# Youngs Moduli (GPa) = 70.68795 46.95453 72.58468
#
# Poissons Ratio (x) = 0.33967 0.10180
# Poissons Ratio (y) = 0.51137 0.07291
# Poissons Ratio (z) = 0.09914 0.04716
#
# Static dielectric constant tensor:
#      x y z
#    x 3.965470 -0.249930 -0.119190 
#    y -0.249930 3.582940 -0.044030 
#    z -0.119190 -0.044030 3.814510 
# 
# 
# High freq. dielectric constant tensor:
#      x y z
#    x 1.791690 0.003520 0.012020 
#    y 0.003520 1.767350 -0.019660 
#    z 0.012020 -0.019660 1.795310 
# 
# From -- ./inp_files/94891.got.cif
#   From: 2010.06.25/outbox.cif.g09.slc.cpg/sg2_48_cif.got.tgz:94891.got - 2010.06.27 13:26:56.
