data_PCOD8008270
_publ_section_title
;
Structure prediction by ZEFSAII (Michael W. Deem and Ramdas Pophale) SiO2 
 PCOD8008270
Probable space group: P -1
;
_chemical_formula_sum "Si O2"
_cell_formula_units_Z 10
_cell_length_a 11.735420
_cell_length_b 8.660305
_cell_length_c 10.372106
_cell_angle_alpha 116.633476
_cell_angle_beta 39.479612
_cell_angle_gamma 143.315865
_cell_volume 357.684859
_symmetry_space_group_name_H-M "P -1"
_symmetry_group_IT_number 2
_symmetry_cell_setting 'triclinic'
loop_
_space_group_symop_operation_xyz
x,y,z
-x,-y,-z
loop_
_atom_site_type_symbol
_atom_site_label
_atom_site_fract_x
_atom_site_fract_y
_atom_site_fract_z
Si Si1 0.846063 0.600599 0.666218
Si Si2 0.171810 0.397074 0.689540
Si Si3 0.188066 0.106522 0.002971
Si Si4 0.225930 0.661706 0.126716
Si Si5 0.631907 0.794326 0.644920
O O1 0.540904 0.345232 0.753586
O O2 0.883172 0.464913 0.680041
O O3 0.841898 0.765662 0.820151
O O4 0.135401 0.860567 0.417265
O O5 0.492619 0.689950 0.582904
O O6 0.203753 0.264667 0.507078
O O7 0.062172 0.487859 0.752090
O O8 0.937157 0.162034 0.918235
O O9 0.000000 0.000000 0.000000
O O10 0.368388 0.599706 0.910400
O O11 0.500000 0.000000 0.000000
#
# Coordination Sequence:
#
# PCOD8008270 Si02
#       5
#     2   2   2   2   2
#     4  10  23  44  66 103 136 179 235 278 342 414
#     4  10  22  46  69 103 136 181 234 279 349 408
#     4  10  20  42  69  97 141 180 224 289 340 404
#     4  12  24  44  69 101 145 176 224 293 340 403
#     4  10  24  45  70 101 137 183 230 280 342 414
#
# _framework density 27.957571000000002
#
# number of rings (size 3 to 8) (size 9 to 14) (size 15 to 20)
#    0.000    1.600    2.000    1.800    0.000    2.400 
#   10.800    2.000    0.000    0.000    0.000    0.000 
#    0.000    0.000    0.000    0.000    0.000    0.000 
#
# Total GULP energy -124015.532734 kJ/mol
# GULP energy per Si atom -12401.553273 kJ/mol
# Density = 2.789394 g / cm^3
# Si number density = 27.957571 Si / 1000 Ang^3
#
#
#
# Elastic Constant Matrix: (Units=GPa)
#
#
# Indices 1 2 3 4 5 6 
#
# 1 187.0277 30.1620 70.2778 -20.9629 -15.4765 -6.0160
# 2 30.1620 69.8785 25.1018 -28.3451 -5.4000 2.5658
# 3 70.2778 25.1018 179.1298 -5.5335 7.5362 -12.1551
# 4 -20.9629 -28.3451 -5.5335 44.0944 11.7148 -3.0784
# 5 -15.4765 -5.4000 7.5362 11.7148 38.1248 -2.7356
# 6 -6.0160 2.5658 -12.1551 -3.0784 -2.7356 35.1929
#
#
#
# Elastic Compliance Matrix: (Units=1/GPa)
#
#
# Indices 1 2 3 4 5 6 
#
# 1 0.006931 -0.001293 -0.002558 0.001467 0.002738 0.000737
# 2 -0.001293 0.020695 -0.002049 0.012645 -0.001176 -0.001423
# 3 -0.002558 -0.002049 0.007072 -0.000899 -0.002314 0.001896
# 4 0.001467 0.012645 -0.000899 0.033515 -0.007637 0.001356
# 5 0.002738 -0.001176 -0.002314 -0.007637 0.030081 0.001425
# 6 0.000737 -0.001423 0.001896 0.001356 0.001425 0.029529
#
#
# Mechanical properties :
#
#
# Convention : Reuss Voigt Hill
#
# Bulk Modulus (GPa) = 43.67358 76.34658 60.01008
# Shear Modulus (GPa) = 33.95438 44.18205 39.06822
#
# Velocity S-wave (km/s) = 3.48874 3.97964 3.74225
# Velocity P-wave (km/s) = 5.64657 6.96305 6.33908
#
# Compressibility (1/GPa) = 0.02289714
#
# Stress axis : x y z
#
# Youngs Moduli (GPa) = 144.27357 48.32006 141.41218
#
# Poissons Ratio (x) = 0.06250 0.36173
# Poissons Ratio (y) = 0.18660 0.28977
# Poissons Ratio (z) = 0.36905 0.09901
#
# Static dielectric constant tensor:
#      x y z
#    x 5.129740 -0.118530 -0.110940 
#    y -0.118530 5.503900 0.352040 
#    z -0.110940 0.352040 6.557630 
# 
# 
# High freq. dielectric constant tensor:
#      x y z
#    x 2.132970 -0.002110 0.001010 
#    y -0.002110 2.135570 0.004220 
#    z 0.001010 0.004220 2.146990 
# 
# From -- ./inp_files/155850.got.cif
#   From: 2010.06.25/outbox.cif.g09.slc.cpg/sg2_78_cif.got.tgz:155850.got - 2010.06.27 13:26:56.
