data_PCOD8008890
_publ_section_title
;
Structure prediction by ZEFSAII (Michael W. Deem and Ramdas Pophale) SiO2 
 PCOD8008890
Probable space group: P -1
;
_chemical_formula_sum "Si O2"
_cell_formula_units_Z 16
_cell_length_a 11.546075
_cell_length_b 15.106362
_cell_length_c 13.748823
_cell_angle_alpha 69.871712
_cell_angle_beta 128.017690
_cell_angle_gamma 149.587005
_cell_volume 844.697831
_symmetry_space_group_name_H-M "P -1"
_symmetry_group_IT_number 2
_symmetry_cell_setting 'triclinic'
loop_
_space_group_symop_operation_xyz
x,y,z
-x,-y,-z
loop_
_atom_site_type_symbol
_atom_site_label
_atom_site_fract_x
_atom_site_fract_y
_atom_site_fract_z
Si Si1 0.349964 0.261870 0.367586
Si Si2 0.743992 0.159908 0.930058
Si Si3 0.537450 0.023990 0.662540
Si Si4 0.717948 0.988796 0.613318
Si Si5 0.270425 0.578610 0.101962
Si Si6 0.682318 0.957990 0.109232
Si Si7 0.128399 0.311366 0.559993
Si Si8 0.690112 0.763893 0.427252
O O1 0.313418 0.140472 0.343380
O O2 0.601612 0.462735 0.361121
O O3 0.468313 0.317883 0.518331
O O4 0.032315 0.139798 0.253120
O O5 0.723677 0.154892 0.805572
O O6 0.494075 0.088274 0.876714
O O7 0.102739 0.387454 0.054642
O O8 0.672608 0.013550 0.984662
O O9 0.549852 0.118244 0.555626
O O10 0.686438 0.015178 0.694356
O O11 0.177221 0.802798 0.587106
O O12 0.051669 0.204390 0.656848
O O13 0.515761 0.761903 0.082271
O O14 0.442299 0.663317 0.261153
O O15 0.000000 0.500000 0.000000
O O16 0.229181 0.298760 0.530375
O O17 0.000000 0.000000 0.500000
#
# Coordination Sequence:
#
# PCOD8008890 Si02
#       8
#     2   2   2   2   2   2   2   2
#     4  12  22  34  63  87 119 152 196 248 300 342
#     4  10  21  39  58  79 126 156 188 237 298 356
#     4   9  20  42  60  83 116 158 199 252 293 337
#     4   9  21  40  58  86 117 147 207 259 281 338
#     4  10  22  34  53  84 120 156 191 224 290 362
#     4  10  21  36  55  89 119 151 187 241 291 364
#     4  10  21  35  57  88 117 146 196 243 296 349
#     4  12  20  36  60  88 124 156 187 243 302 350
#
# _framework density 18.941683999999999
#
# number of rings (size 3 to 8) (size 9 to 14) (size 15 to 20)
#    0.750    1.000    2.500    1.875    5.250    3.500 
#    0.000    0.625    0.000    5.250    0.000    0.000 
#    0.000    0.000    0.000    0.000    0.000    0.000 
#
# Total GULP energy -198295.378478 kJ/mol
# GULP energy per Si atom -12393.461155 kJ/mol
# Density = 1.889857 g / cm^3
# Si number density = 18.941684 Si / 1000 Ang^3
#
#
#
# Elastic Constant Matrix: (Units=GPa)
#
#
# Indices 1 2 3 4 5 6 
#
# 1 82.4954 27.6627 22.0514 1.6340 -4.9267 -8.4081
# 2 27.6627 120.9839 30.1592 19.1089 0.2354 -14.9654
# 3 22.0514 30.1592 101.1511 11.6495 -5.7044 0.3113
# 4 1.6340 19.1089 11.6495 28.3008 3.0082 2.2895
# 5 -4.9267 0.2354 -5.7044 3.0082 22.0735 -3.5406
# 6 -8.4081 -14.9654 0.3113 2.2895 -3.5406 17.2418
#
#
#
# Elastic Compliance Matrix: (Units=1/GPa)
#
#
# Indices 1 2 3 4 5 6 
#
# 1 0.014234 -0.002061 -0.002398 0.000725 0.003411 0.005801
# 2 -0.002061 0.011861 -0.002094 -0.008077 0.001697 0.010749
# 3 -0.002398 -0.002094 0.011565 -0.003301 0.002568 -0.002230
# 4 0.000725 -0.008077 -0.003301 0.044211 -0.008924 -0.014301
# 5 0.003411 0.001697 0.002568 -0.008924 0.050268 0.014598
# 6 0.005801 0.010749 -0.002230 -0.014301 0.014598 0.075094
#
#
# Mechanical properties :
#
#
# Convention : Reuss Voigt Hill
#
# Bulk Modulus (GPa) = 40.72450 51.59746 46.16098
# Shear Modulus (GPa) = 21.87961 28.50703 25.19332
#
# Velocity S-wave (km/s) = 3.40237 3.88363 3.65094
# Velocity P-wave (km/s) = 6.08124 6.88545 6.49580
#
# Compressibility (1/GPa) = 0.02455524
#
# Stress axis : x y z
#
# Youngs Moduli (GPa) = 70.25283 84.31053 86.46654
#
# Poissons Ratio (x) = 0.17372 0.20732
# Poissons Ratio (y) = 0.14476 0.18109
# Poissons Ratio (z) = 0.16845 0.17658
#
# Static dielectric constant tensor:
#      x y z
#    x 3.278250 -0.094330 0.106760 
#    y -0.094330 3.894500 0.147490 
#    z 0.106760 0.147490 3.381730 
# 
# 
# High freq. dielectric constant tensor:
#      x y z
#    x 1.712090 -0.007020 0.015160 
#    y -0.007020 1.740280 0.003010 
#    z 0.015160 0.003010 1.720060 
# 
# From -- ./inp_files/461021.got.cif
#   From: 2010.06.25/outbox.cif.g09.slc.cpg/sg2_231_cif.got.tgz:461021.got - 2010.06.27 13:26:56.
