data_PCOD8008876
_publ_section_title
;
Structure prediction by ZEFSAII (Michael W. Deem and Ramdas Pophale) SiO2 
 PCOD8008876
Probable space group: P -1
;
_chemical_formula_sum "Si O2"
_cell_formula_units_Z 14
_cell_length_a 14.715257
_cell_length_b 15.746091
_cell_length_c 9.478492
_cell_angle_alpha 131.889330
_cell_angle_beta 67.185672
_cell_angle_gamma 152.200868
_cell_volume 618.754941
_symmetry_space_group_name_H-M "P -1"
_symmetry_group_IT_number 2
_symmetry_cell_setting 'triclinic'
loop_
_space_group_symop_operation_xyz
x,y,z
-x,-y,-z
loop_
_atom_site_type_symbol
_atom_site_label
_atom_site_fract_x
_atom_site_fract_y
_atom_site_fract_z
Si Si1 0.328071 0.909040 0.131388
Si Si2 0.266211 0.598983 0.747565
Si Si3 0.972516 0.205426 0.724215
Si Si4 0.093133 0.330625 0.099937
Si Si5 0.837054 0.108554 0.269402
Si Si6 0.562598 0.694906 0.209732
Si Si7 0.325197 0.807414 0.522083
O O1 0.136285 0.782459 0.187510
O O2 0.457877 0.119120 0.159770
O O3 0.538811 0.091401 0.309634
O O4 0.196287 0.658872 0.872124
O O5 0.222491 0.485208 0.796247
O O6 0.087284 0.355102 0.472925
O O7 0.780454 0.924856 0.446103
O O8 0.021954 0.206443 0.850573
O O9 0.333013 0.518781 0.216478
O O10 0.127510 0.503982 0.263231
O O11 0.876821 0.085024 0.069947
O O12 0.788924 0.191649 0.370979
O O13 0.627392 0.826612 0.170631
O O14 0.500000 0.500000 0.000000
O O15 0.500000 0.000000 0.500000
#
# Coordination Sequence:
#
# PCOD8008876 Si02
#       7
#     2   2   2   2   2   2   2
#     4  11  21  34  56  92 135 168 203 245 304 386
#     4  10  21  35  56  88 132 175 201 239 309 382
#     4  11  23  41  63  92 126 165 213 257 319 375
#     4  12  24  41  67  99 128 166 211 260 324 383
#     4  11  23  41  64  96 130 172 207 261 318 378
#     4  11  26  49  67  88 124 167 223 276 315 369
#     4  12  20  36  62  96 138 167 199 250 314 383
#
# _framework density 22.626080999999999
#
# number of rings (size 3 to 8) (size 9 to 14) (size 15 to 20)
#    0.000    0.857    4.286    3.429    4.000    1.143 
#    0.000    0.714    0.000    0.000    0.000    0.000 
#    0.000    0.000    0.000    0.000    0.000    0.000 
#
# Total GULP energy -173590.849531 kJ/mol
# GULP energy per Si atom -12399.346395 kJ/mol
# Density = 2.257458 g / cm^3
# Si number density = 22.626081 Si / 1000 Ang^3
#
#
#
# Elastic Constant Matrix: (Units=GPa)
#
#
# Indices 1 2 3 4 5 6 
#
# 1 44.3399 16.4825 20.0541 -2.0109 -10.7438 -2.6968
# 2 16.4825 118.7202 34.0369 -25.7102 -2.2315 8.0470
# 3 20.0541 34.0369 88.5783 -10.8783 -2.4746 -16.7032
# 4 -2.0109 -25.7102 -10.8783 27.7093 -7.3547 3.5136
# 5 -10.7438 -2.2315 -2.4746 -7.3547 33.6237 -2.9652
# 6 -2.6968 8.0470 -16.7032 3.5136 -2.9652 16.1903
#
#
#
# Elastic Compliance Matrix: (Units=1/GPa)
#
#
# Indices 1 2 3 4 5 6 
#
# 1 0.027833 -0.002683 -0.004516 -0.000343 0.008569 0.002954
# 2 -0.002683 0.014826 -0.006705 0.013416 0.001028 -0.017456
# 3 -0.004516 -0.006705 0.019008 -0.001667 0.001154 0.022764
# 4 -0.000343 0.013416 -0.001667 0.052967 0.010658 -0.017987
# 5 0.008569 0.001028 0.001154 0.010658 0.035519 0.006299
# 6 0.002954 -0.017456 0.022764 -0.017987 0.006299 0.099476
#
#
# Mechanical properties :
#
#
# Convention : Reuss Voigt Hill
#
# Bulk Modulus (GPa) = 29.53367 43.64281 36.58824
# Shear Modulus (GPa) = 17.31761 27.57565 22.44663
#
# Velocity S-wave (km/s) = 2.76956 3.49485 3.15313
# Velocity P-wave (km/s) = 4.82789 5.96791 5.42791
#
# Compressibility (1/GPa) = 0.03385966
#
# Stress axis : x y z
#
# Youngs Moduli (GPa) = 35.92821 67.45028 52.60819
#
# Poissons Ratio (x) = 0.18095 0.23759
# Poissons Ratio (y) = 0.09639 0.35273
# Poissons Ratio (z) = 0.16226 0.45225
#
# Static dielectric constant tensor:
#      x y z
#    x 3.983720 -0.422820 0.237150 
#    y -0.422820 4.811230 -0.237130 
#    z 0.237150 -0.237130 4.080460 
# 
# 
# High freq. dielectric constant tensor:
#      x y z
#    x 1.847670 0.004560 0.023410 
#    y 0.004560 1.913170 -0.013900 
#    z 0.023410 -0.013900 1.884210 
# 
# From -- ./inp_files/293886.got.cif
#   From: 2010.06.25/outbox.cif.g09.slc.cpg/sg2_147_cif.got.tgz:293886.got - 2010.06.27 13:26:56.
