data_PCOD8008504
_publ_section_title
;
Structure prediction by ZEFSAII (Michael W. Deem and Ramdas Pophale) SiO2 
 PCOD8008504
Probable space group: P -1
;
_chemical_formula_sum "Si O2"
_cell_formula_units_Z 16
_cell_length_a 18.807273
_cell_length_b 8.521254
_cell_length_c 12.197074
_cell_angle_alpha 127.642910
_cell_angle_beta 28.083176
_cell_angle_gamma 116.039102
_cell_volume 702.010037
_symmetry_space_group_name_H-M "P -1"
_symmetry_group_IT_number 2
_symmetry_cell_setting 'triclinic'
loop_
_space_group_symop_operation_xyz
x,y,z
-x,-y,-z
loop_
_atom_site_type_symbol
_atom_site_label
_atom_site_fract_x
_atom_site_fract_y
_atom_site_fract_z
Si Si1 0.720584 0.808453 0.378715
Si Si2 0.175717 0.437164 0.460245
Si Si3 0.096701 0.769803 0.290303
Si Si4 0.052713 0.673458 0.936628
Si Si5 0.286492 0.586723 0.155151
Si Si6 0.494702 0.143860 0.965264
Si Si7 0.421724 0.223351 0.657996
Si Si8 0.293536 0.636723 0.759229
O O1 0.714298 0.789308 0.247497
O O2 0.689597 0.604570 0.389138
O O3 0.591744 0.010953 0.678502
O O4 0.891533 0.838051 0.190105
O O5 0.159855 0.587418 0.649355
O O6 0.198114 0.559967 0.374474
O O7 0.014042 0.377333 0.642859
O O8 0.318642 0.235121 0.200090
O O9 0.165336 0.746309 0.309836
O O10 0.243806 0.702404 0.979124
O O11 0.000000 0.000000 0.500000
O O12 0.159998 0.767851 0.912793
O O13 0.000000 0.500000 0.000000
O O14 0.435132 0.668653 0.017706
O O15 0.347155 0.365883 0.921199
O O16 0.500000 0.000000 0.000000
O O17 0.542123 0.316807 0.465895
O O18 0.500000 0.000000 0.500000
#
# Coordination Sequence:
#
# PCOD8008504 Si02
#       8
#     2   2   2   2   2   2   2   2
#     4  11  23  44  72 102 135 185 239 288 347 421
#     4  12  24  47  71 102 148 186 229 301 360 421
#     4  12  27  43  73 104 140 191 246 290 358 434
#     4  10  20  43  71  97 133 181 232 283 347 416
#     4  12  27  48  70 108 148 186 232 305 366 418
#     4  12  26  42  74 106 143 188 245 288 354 427
#     4  12  26  45  70 103 144 188 236 291 360 423
#     4  11  24  45  73 100 138 186 243 295 344 424
#
# _framework density 22.791696000000002
#
# number of rings (size 3 to 8) (size 9 to 14) (size 15 to 20)
#    0.000    0.500    3.750    5.625    7.000    1.000 
#    0.000    1.250    0.000    0.000    0.000    0.000 
#    0.000    0.000    0.000    0.000    0.000    0.000 
#
# Total GULP energy -198490.880561 kJ/mol
# GULP energy per Si atom -12405.680035 kJ/mol
# Density = 2.273982 g / cm^3
# Si number density = 22.791696 Si / 1000 Ang^3
#
#
#
# Elastic Constant Matrix: (Units=GPa)
#
#
# Indices 1 2 3 4 5 6 
#
# 1 126.4913 19.8004 32.9103 -7.9768 4.0657 -15.1185
# 2 19.8004 52.5803 9.2914 5.1816 8.6576 -16.1976
# 3 32.9103 9.2914 117.5259 4.8048 9.3608 -16.9231
# 4 -7.9768 5.1816 4.8048 32.9646 -4.4207 2.5562
# 5 4.0657 8.6576 9.3608 -4.4207 50.5021 -1.9364
# 6 -15.1185 -16.1976 -16.9231 2.5562 -1.9364 35.9061
#
#
#
# Elastic Compliance Matrix: (Units=1/GPa)
#
#
# Indices 1 2 3 4 5 6 
#
# 1 0.009328 -0.003109 -0.002358 0.003066 0.000534 0.001224
# 2 -0.003109 0.024538 0.001028 -0.006144 -0.004284 0.010451
# 3 -0.002358 0.001028 0.009967 -0.002772 -0.001913 0.004263
# 4 0.003066 -0.006144 -0.002772 0.033374 0.004052 -0.004944
# 5 0.000534 -0.004284 -0.001913 0.004052 0.021134 -0.001758
# 6 0.001224 0.010451 0.004263 -0.004944 -0.001758 0.035347
#
#
# Mechanical properties :
#
#
# Convention : Reuss Voigt Hill
#
# Bulk Modulus (GPa) = 28.60789 46.73354 37.67072
# Shear Modulus (GPa) = 32.42134 39.51427 35.96780
#
# Velocity S-wave (km/s) = 3.77570 4.16831 3.97685
# Velocity P-wave (km/s) = 5.62024 6.61177 6.13606
#
# Compressibility (1/GPa) = 0.03495539
#
# Stress axis : x y z
#
# Youngs Moduli (GPa) = 107.19921 40.75305 100.32781
#
# Poissons Ratio (x) = 0.12671 0.23658
# Poissons Ratio (y) = 0.33330 -0.10314
# Poissons Ratio (z) = 0.25278 -0.04190
#
# Static dielectric constant tensor:
#      x y z
#    x 4.303190 0.072360 -0.151430 
#    y 0.072360 4.071850 -0.104520 
#    z -0.151430 -0.104520 4.212530 
# 
# 
# High freq. dielectric constant tensor:
#      x y z
#    x 1.924520 -0.000550 -0.006020 
#    y -0.000550 1.877070 -0.001690 
#    z -0.006020 -0.001690 1.907260 
# 
# From -- ./inp_files/223450.got.cif
#   From: 2010.06.25/outbox.cif.g09.slc.cpg/sg2_112_cif.got.tgz:223450.got - 2010.06.27 13:26:56.
