data_PCOD8008851
_publ_section_title
;
Structure prediction by ZEFSAII (Michael W. Deem and Ramdas Pophale) SiO2 
 PCOD8008851
Probable space group: P -1
;
_chemical_formula_sum "Si O2"
_cell_formula_units_Z 16
_cell_length_a 18.787027
_cell_length_b 9.289493
_cell_length_c 22.303258
_cell_angle_alpha 126.165260
_cell_angle_beta 162.570383
_cell_angle_gamma 46.177945
_cell_volume 795.160353
_symmetry_space_group_name_H-M "P -1"
_symmetry_group_IT_number 2
_symmetry_cell_setting 'triclinic'
loop_
_space_group_symop_operation_xyz
x,y,z
-x,-y,-z
loop_
_atom_site_type_symbol
_atom_site_label
_atom_site_fract_x
_atom_site_fract_y
_atom_site_fract_z
Si Si1 0.701323 0.050593 0.597284
Si Si2 0.819296 0.665937 0.671695
Si Si3 0.221247 0.707997 0.494373
Si Si4 0.670433 0.099060 0.181631
Si Si5 0.295934 0.731958 0.870538
Si Si6 0.668723 0.017061 0.431673
Si Si7 0.682569 0.621256 0.925074
Si Si8 0.761903 0.944994 0.002394
O O1 0.479580 0.217421 0.507015
O O2 0.825951 0.812088 0.661568
O O3 0.544316 0.082740 0.415208
O O4 0.951514 0.093750 0.804822
O O5 0.892135 0.441992 0.649040
O O6 0.074523 0.600857 0.906778
O O7 0.514286 0.565902 0.729626
O O8 0.273648 0.804202 0.500502
O O9 0.995612 0.906967 0.402322
O O10 0.633025 0.261325 0.139827
O O11 0.552289 0.222123 0.178232
O O12 0.500000 0.000000 0.000000
O O13 0.970869 0.798546 0.628979
O O14 0.500000 0.500000 0.000000
O O15 0.354750 0.878851 0.996391
O O16 0.467332 0.986084 0.218218
O O17 0.822171 0.731528 0.029537
#
# Coordination Sequence:
#
# PCOD8008851 Si02
#       8
#     2   2   2   2   2   2   2   2
#     4  10  24  41  60  83 120 153 189 246 293 344
#     4  11  23  41  60  87 115 151 196 241 295 344
#     4  10  22  39  61  88 118 151 197 239 284 345
#     4  11  19  36  59  86 121 154 188 241 283 335
#     4  10  21  35  55  86 121 156 192 231 284 346
#     4   9  21  40  60  84 115 154 193 238 288 343
#     4  11  22  38  62  89 116 154 196 239 288 341
#     4  10  21  40  60  83 117 153 194 240 288 342
#
# _framework density 20.121728999999998
#
# number of rings (size 3 to 8) (size 9 to 14) (size 15 to 20)
#    0.000    1.750    2.500    1.875    3.500    4.500 
#    0.000    5.000    0.000    0.000    0.000    0.000 
#    0.000    0.000    0.000    0.000    0.000    0.000 
#
# Total GULP energy -198376.175301 kJ/mol
# GULP energy per Si atom -12398.510956 kJ/mol
# Density = 2.007593 g / cm^3
# Si number density = 20.121729 Si / 1000 Ang^3
#
#
#
# Elastic Constant Matrix: (Units=GPa)
#
#
# Indices 1 2 3 4 5 6 
#
# 1 97.7004 20.2420 34.9408 -0.0073 3.1004 13.4679
# 2 20.2420 53.0644 28.8872 -14.5216 -3.3863 9.6019
# 3 34.9408 28.8872 109.4761 -3.3119 -17.6451 9.8387
# 4 -0.0073 -14.5216 -3.3119 28.8372 1.2913 -2.3223
# 5 3.1004 -3.3863 -17.6451 1.2913 29.0725 2.0821
# 6 13.4679 9.6019 9.8387 -2.3223 2.0821 19.0985
#
#
#
# Elastic Compliance Matrix: (Units=1/GPa)
#
#
# Indices 1 2 3 4 5 6 
#
# 1 0.012966 -0.002788 -0.003473 -0.002123 -0.003302 -0.005851
# 2 -0.002788 0.027676 -0.005287 0.012694 0.000301 -0.007713
# 3 -0.003473 -0.005287 0.013119 -0.001734 0.007990 -0.002733
# 4 -0.002123 0.012694 -0.001734 0.041017 -0.001251 0.001133
# 5 -0.003302 0.000301 0.007990 -0.001251 0.040152 -0.006468
# 6 -0.005851 -0.007713 -0.002733 0.001133 -0.006468 0.062614
#
#
# Mechanical properties :
#
#
# Convention : Reuss Voigt Hill
#
# Bulk Modulus (GPa) = 32.61228 47.59789 40.10509
# Shear Modulus (GPa) = 21.65784 27.14637 24.40211
#
# Velocity S-wave (km/s) = 3.28432 3.67700 3.48620
# Velocity P-wave (km/s) = 5.53399 6.46014 6.01492
#
# Compressibility (1/GPa) = 0.03066330
#
# Stress axis : x y z
#
# Youngs Moduli (GPa) = 77.12240 36.13289 76.22570
#
# Poissons Ratio (x) = 0.10076 0.26476
# Poissons Ratio (y) = 0.21505 0.40301
# Poissons Ratio (z) = 0.26787 0.19104
#
# Static dielectric constant tensor:
#      x y z
#    x 3.698970 0.144250 -0.106840 
#    y 0.144250 3.293730 0.165750 
#    z -0.106840 0.165750 3.252730 
# 
# 
# High freq. dielectric constant tensor:
#      x y z
#    x 1.795110 0.009440 -0.006220 
#    y 0.009440 1.761310 -0.003700 
#    z -0.006220 -0.003700 1.796290 
# 
# From -- ./inp_files/270106.got.cif
#   From: 2010.06.25/outbox.cif.g09.slc.cpg/sg2_136_cif.got.tgz:270106.got - 2010.06.27 13:26:56.
