data_PCOD8008352
_publ_section_title
;
Structure prediction by ZEFSAII (Michael W. Deem and Ramdas Pophale) SiO2 
 PCOD8008352
Probable space group: P -1
;
_chemical_formula_sum "Si O2"
_cell_formula_units_Z 16
_cell_length_a 7.907072
_cell_length_b 10.422481
_cell_length_c 20.793555
_cell_angle_alpha 44.558999
_cell_angle_beta 88.959987
_cell_angle_gamma 122.600484
_cell_volume 742.528230
_symmetry_space_group_name_H-M "P -1"
_symmetry_group_IT_number 2
_symmetry_cell_setting 'triclinic'
loop_
_space_group_symop_operation_xyz
x,y,z
-x,-y,-z
loop_
_atom_site_type_symbol
_atom_site_label
_atom_site_fract_x
_atom_site_fract_y
_atom_site_fract_z
Si Si1 0.906961 0.475949 0.811930
Si Si2 0.407773 0.836656 0.758844
Si Si3 0.607856 0.371509 0.607529
Si Si4 0.808438 0.667771 0.637026
Si Si5 0.401225 0.214122 0.115050
Si Si6 0.541540 0.590085 0.781942
Si Si7 0.663007 0.914688 0.980494
Si Si8 0.946168 0.920785 0.318756
O O1 0.963992 0.646384 0.686767
O O2 0.135505 0.704948 0.782612
O O3 0.913877 0.261603 0.873555
O O4 0.607796 0.261659 0.916298
O O5 0.365785 0.686738 0.878566
O O6 0.511745 0.783232 0.722001
O O7 0.631858 0.182359 0.650862
O O8 0.696400 0.471548 0.644970
O O9 0.805354 0.650832 0.460613
O O10 0.288182 0.152572 0.683396
O O11 0.557489 0.545681 0.722940
O O12 0.000000 0.000000 0.500000
O O13 0.372436 0.083756 0.095464
O O14 0.500000 0.500000 0.000000
O O15 0.112580 0.965500 0.243904
O O16 0.297227 0.266238 0.934953
O O17 0.835148 0.780224 0.745630
#
# Coordination Sequence:
#
# PCOD8008352 Si02
#       8
#     2   2   2   2   2   2   2   2
#     4  10  24  41  64  94 127 167 214 261 310 385
#     4  11  24  40  65  96 130 165 210 266 319 369
#     4  11  23  41  69  96 122 169 216 263 315 377
#     4  11  22  42  67  89 127 170 211 259 317 380
#     4  11  22  41  63  95 127 167 205 262 318 375
#     4  10  21  42  64  92 132 167 203 264 323 371
#     4  10  20  43  64  88 132 169 208 259 316 374
#     4  10  22  41  66  94 125 167 211 264 314 379
#
# _framework density 21.548003000000001
#
# number of rings (size 3 to 8) (size 9 to 14) (size 15 to 20)
#    0.000    1.500    3.750    2.250    1.750    4.000 
#    9.000    0.625    0.000    0.000    0.000    0.000 
#    0.000    0.000    0.000    0.000    0.000    0.000 
#
# Total GULP energy -198272.973727 kJ/mol
# GULP energy per Si atom -12392.060858 kJ/mol
# Density = 2.149896 g / cm^3
# Si number density = 21.548003 Si / 1000 Ang^3
#
#
#
# Elastic Constant Matrix: (Units=GPa)
#
#
# Indices 1 2 3 4 5 6 
#
# 1 50.7136 27.8426 30.9896 3.5833 20.9845 -1.4263
# 2 27.8426 129.1551 61.2598 1.3768 16.2803 -12.0613
# 3 30.9896 61.2598 118.6030 7.0113 21.1054 -2.8672
# 4 3.5833 1.3768 7.0113 38.1191 -5.4666 4.4800
# 5 20.9845 16.2803 21.1054 -5.4666 29.7768 -6.7860
# 6 -1.4263 -12.0613 -2.8672 4.4800 -6.7860 36.3323
#
#
#
# Elastic Compliance Matrix: (Units=1/GPa)
#
#
# Indices 1 2 3 4 5 6 
#
# 1 0.031890 -0.003212 -0.002843 -0.004895 -0.020338 -0.003234
# 2 -0.003212 0.010971 -0.004876 0.000507 0.000537 0.003169
# 3 -0.002843 -0.004876 0.012714 -0.002466 -0.005109 -0.001377
# 4 -0.004895 0.000507 -0.002466 0.028757 0.009757 -0.001942
# 5 -0.020338 0.000537 -0.005109 0.009757 0.054863 0.008021
# 6 -0.003234 0.003169 -0.001377 -0.001942 0.008021 0.030078
#
#
# Mechanical properties :
#
#
# Convention : Reuss Voigt Hill
#
# Bulk Modulus (GPa) = 29.66257 59.85061 44.75659
# Shear Modulus (GPa) = 24.70692 32.73762 28.72227
#
# Velocity S-wave (km/s) = 3.38982 3.90203 3.65491
# Velocity P-wave (km/s) = 5.39600 6.93808 6.21505
#
# Compressibility (1/GPa) = 0.03371252
#
# Stress axis : x y z
#
# Youngs Moduli (GPa) = 31.35781 91.15141 78.65040
#
# Poissons Ratio (x) = 0.29282 0.22359
# Poissons Ratio (y) = 0.10073 0.38351
# Poissons Ratio (z) = 0.08914 0.44446
#
# Static dielectric constant tensor:
#      x y z
#    x 3.911490 -0.249790 0.353730 
#    y -0.249790 4.202510 -0.033390 
#    z 0.353730 -0.033390 4.142320 
# 
# 
# High freq. dielectric constant tensor:
#      x y z
#    x 1.833430 -0.017510 0.024380 
#    y -0.017510 1.856240 -0.002770 
#    z 0.024380 -0.002770 1.846370 
# 
# From -- ./inp_files/503788.got.cif
#   From: 2010.06.25/outbox.cif.g09.slc.cpg/sg2_252_cif.got.tgz:503788.got - 2010.06.27 13:26:56.
