data_PCOD8008696
_publ_section_title
;
Structure prediction by ZEFSAII (Michael W. Deem and Ramdas Pophale) SiO2 
 PCOD8008696
Probable space group: P -1
;
_chemical_formula_sum "Si O2"
_cell_formula_units_Z 14
_cell_length_a 9.997903
_cell_length_b 11.855432
_cell_length_c 8.857996
_cell_angle_alpha 41.869328
_cell_angle_beta 85.741815
_cell_angle_gamma 107.999183
_cell_volume 584.861729
_symmetry_space_group_name_H-M "P -1"
_symmetry_group_IT_number 2
_symmetry_cell_setting 'triclinic'
loop_
_space_group_symop_operation_xyz
x,y,z
-x,-y,-z
loop_
_atom_site_type_symbol
_atom_site_label
_atom_site_fract_x
_atom_site_fract_y
_atom_site_fract_z
Si Si1 0.669874 0.533297 0.493807
Si Si2 0.650458 0.924872 0.445352
Si Si3 0.982122 0.223685 0.722512
Si Si4 0.281908 0.753805 0.388297
Si Si5 0.347713 0.109884 0.864559
Si Si6 0.300039 0.704086 0.780733
Si Si7 0.204027 0.326625 0.347124
O O1 0.607016 0.317959 0.629566
O O2 0.661270 0.529372 0.680464
O O3 0.859733 0.653456 0.308264
O O4 0.593211 0.659950 0.312081
O O5 0.489503 0.799866 0.682564
O O6 0.755412 0.830379 0.566566
O O7 0.745518 0.160452 0.252500
O O8 0.596872 0.904197 0.295087
O O9 0.887322 0.338661 0.594530
O O10 0.032103 0.200520 0.570505
O O11 0.849281 0.001483 0.024306
O O12 0.246834 0.697196 0.620769
O O13 0.383384 0.996348 0.105442
O O14 0.204828 0.473000 0.075155
#
# Coordination Sequence:
#
# PCOD8008696 Si02
#       7
#     2   2   2   2   2   2   2
#     4   9  17  34  59  80 105 143 177 220 269 312
#     4  10  22  39  60  73 105 156 182 219 258 321
#     4   8  19  35  58  84 106 137 179 224 272 315
#     4  10  21  33  54  87 113 135 173 230 274 314
#     4   9  19  36  58  83 105 141 186 219 265 320
#     4  11  23  38  53  81 114 143 182 217 270 322
#     4   9  20  38  59  80 103 147 186 213 267 328
#
# _framework density 23.937283000000001
#
# number of rings (size 3 to 8) (size 9 to 14) (size 15 to 20)
#    1.714    0.857    0.000    2.143    0.000    2.286 
#    0.000    3.571    0.000    0.000    0.000    0.000 
#    0.000    0.000    0.000    0.000    0.000    0.000 
#
# Total GULP energy -173472.581717 kJ/mol
# GULP energy per Si atom -12390.898694 kJ/mol
# Density = 2.388280 g / cm^3
# Si number density = 23.937283 Si / 1000 Ang^3
#
#
#
# Elastic Constant Matrix: (Units=GPa)
#
#
# Indices 1 2 3 4 5 6 
#
# 1 114.2395 47.5321 35.5937 -17.9607 8.4359 -25.3743
# 2 47.5321 118.2012 55.5082 -11.5298 26.6718 -31.7576
# 3 35.5937 55.5082 133.4165 -5.4592 22.8008 -17.8319
# 4 -17.9607 -11.5298 -5.4592 32.1192 -7.3517 9.3513
# 5 8.4359 26.6718 22.8008 -7.3517 47.9724 -5.4135
# 6 -25.3743 -31.7576 -17.8319 9.3513 -5.4135 41.2869
#
#
#
# Elastic Compliance Matrix: (Units=1/GPa)
#
#
# Indices 1 2 3 4 5 6 
#
# 1 0.011862 -0.002995 -0.001503 0.004609 0.001392 0.003476
# 2 -0.002995 0.014240 -0.003327 -0.000352 -0.005063 0.007092
# 3 -0.001503 -0.003327 0.009771 -0.001168 -0.002635 0.000656
# 4 0.004609 -0.000352 -0.001168 0.036093 0.004853 -0.005481
# 5 0.001392 -0.005063 -0.002635 0.004853 0.025189 -0.001973
# 6 0.003476 0.007092 0.000656 -0.005481 -0.001973 0.033078
#
#
# Mechanical properties :
#
#
# Convention : Reuss Voigt Hill
#
# Bulk Modulus (GPa) = 49.44908 71.45837 60.45373
# Shear Modulus (GPa) = 32.76017 39.42391 36.09204
#
# Velocity S-wave (km/s) = 3.70345 4.06269 3.88722
# Velocity P-wave (km/s) = 6.24420 7.20586 6.74219
#
# Compressibility (1/GPa) = 0.02022282
#
# Stress axis : x y z
#
# Youngs Moduli (GPa) = 84.30393 70.22289 102.34569
#
# Poissons Ratio (x) = 0.21029 0.15387
# Poissons Ratio (y) = 0.25246 0.34051
# Poissons Ratio (z) = 0.12674 0.23363
#
# Static dielectric constant tensor:
#      x y z
#    x 4.573710 -0.262960 -0.124520 
#    y -0.262960 3.898430 -0.201230 
#    z -0.124520 -0.201230 4.116750 
# 
# 
# High freq. dielectric constant tensor:
#      x y z
#    x 1.986120 -0.022610 -0.003570 
#    y -0.022610 1.921040 -0.019260 
#    z -0.003570 -0.019260 1.944510 
# 
# From -- ./inp_files/255846.got.cif
#   From: 2010.06.25/outbox.cif.g09.slc.cpg/sg2_128_cif.got.tgz:255846.got - 2010.06.27 13:26:56.
