data_PCOD8008445
_publ_section_title
;
Structure prediction by ZEFSAII (Michael W. Deem and Ramdas Pophale) SiO2 
 PCOD8008445
Probable space group: P -1
;
_chemical_formula_sum "Si O2"
_cell_formula_units_Z 16
_cell_length_a 20.357234
_cell_length_b 9.119593
_cell_length_c 25.961352
_cell_angle_alpha 149.111384
_cell_angle_beta 161.105457
_cell_angle_gamma 40.430930
_cell_volume 763.017917
_symmetry_space_group_name_H-M "P -1"
_symmetry_group_IT_number 2
_symmetry_cell_setting 'triclinic'
loop_
_space_group_symop_operation_xyz
x,y,z
-x,-y,-z
loop_
_atom_site_type_symbol
_atom_site_label
_atom_site_fract_x
_atom_site_fract_y
_atom_site_fract_z
Si Si1 0.510670 0.762233 0.047427
Si Si2 0.904041 0.175789 0.638676
Si Si3 0.227616 0.573449 0.539624
Si Si4 0.037453 0.677282 0.633991
Si Si5 0.966347 0.131014 0.068864
Si Si6 0.478979 0.305379 0.373999
Si Si7 0.935585 0.808470 0.342213
Si Si8 0.373685 0.230685 0.465235
O O1 0.680897 0.723660 0.118751
O O2 0.605441 0.093758 0.241524
O O3 0.500000 0.500000 0.000000
O O4 0.280067 0.727670 0.844068
O O5 0.658530 0.136880 0.456123
O O6 0.032993 0.527488 0.836462
O O7 0.938949 0.022496 0.563917
O O8 0.997778 0.002305 0.698765
O O9 0.347847 0.349243 0.539357
O O10 0.135768 0.510806 0.510174
O O11 0.026520 0.529477 0.337357
O O12 0.000000 0.500000 0.500000
O O13 0.145416 0.081334 0.224586
O O14 0.741072 0.952888 0.871553
O O15 0.000000 0.000000 0.000000
O O16 0.500000 0.500000 0.500000
O O17 0.493202 0.508480 0.395395
O O18 0.000000 0.000000 0.500000
O O19 0.500000 0.000000 0.500000
#
# Coordination Sequence:
#
# PCOD8008445 Si02
#       8
#     2   2   2   2   2   2   2   2
#     4  11  25  42  74  96 137 187 228 279 357 407
#     4  11  25  43  69 102 140 179 231 286 349 399
#     4  11  24  45  67 102 142 178 234 282 340 422
#     4  12  28  45  68 107 142 180 234 292 346 408
#     4  11  23  44  74 102 136 184 236 278 347 423
#     4  11  23  45  72  98 138 188 228 280 351 412
#     4  10  20  43  68  93 135 177 230 279 328 419
#     4  11  26  44  70 106 142 178 229 292 344 404
#
# _framework density 20.969363000000001
#
# number of rings (size 3 to 8) (size 9 to 14) (size 15 to 20)
#    0.000    1.000    6.250    1.500    3.500    7.500 
#    0.000    0.000    0.000    0.000    0.000    0.000 
#    0.000    0.000    0.000    0.000    0.000    0.000 
#
# Total GULP energy -198277.264578 kJ/mol
# GULP energy per Si atom -12392.329036 kJ/mol
# Density = 2.092164 g / cm^3
# Si number density = 20.969363 Si / 1000 Ang^3
#
#
#
# Elastic Constant Matrix: (Units=GPa)
#
#
# Indices 1 2 3 4 5 6 
#
# 1 137.0345 46.9567 54.4107 -9.5228 15.5453 -12.0244
# 2 46.9567 179.9273 80.0149 -23.1435 11.7558 -0.1836
# 3 54.4107 80.0149 159.0525 -12.6493 24.1297 -1.4213
# 4 -9.5228 -23.1435 -12.6493 26.4823 -4.5188 3.0192
# 5 15.5453 11.7558 24.1297 -4.5188 34.5296 -0.3012
# 6 -12.0244 -0.1836 -1.4213 3.0192 -0.3012 37.8908
#
#
#
# Elastic Compliance Matrix: (Units=1/GPa)
#
#
# Indices 1 2 3 4 5 6 
#
# 1 0.009066 -0.001225 -0.002100 0.000515 -0.002105 0.002734
# 2 -0.001225 0.007959 -0.003306 0.005176 0.000822 -0.000880
# 3 -0.002100 -0.003306 0.009349 0.000105 -0.004452 -0.000376
# 4 0.000515 0.005176 0.000105 0.043504 0.003598 -0.003245
# 5 -0.002105 0.000822 -0.004452 0.003598 0.033203 -0.000854
# 6 0.002734 -0.000880 -0.000376 -0.003245 -0.000854 0.027493
#
#
# Mechanical properties :
#
#
# Convention : Reuss Voigt Hill
#
# Bulk Modulus (GPa) = 76.26888 93.19767 84.73327
# Shear Modulus (GPa) = 33.73682 39.42267 36.57974
#
# Velocity S-wave (km/s) = 4.01541 4.34062 4.18118
# Velocity P-wave (km/s) = 7.61240 8.34640 7.98784
#
# Compressibility (1/GPa) = 0.01311151
#
# Stress axis : x y z
#
# Youngs Moduli (GPa) = 110.30516 125.64636 106.96434
#
# Poissons Ratio (x) = 0.15398 0.22463
# Poissons Ratio (y) = 0.13518 0.35357
# Poissons Ratio (z) = 0.23164 0.41532
#
# Static dielectric constant tensor:
#      x y z
#    x 4.123770 -0.235440 0.191300 
#    y -0.235440 4.215860 -0.198060 
#    z 0.191300 -0.198060 3.958620 
# 
# 
# High freq. dielectric constant tensor:
#      x y z
#    x 1.835150 -0.012850 0.013150 
#    y -0.012850 1.832570 -0.003200 
#    z 0.013150 -0.003200 1.811830 
# 
# From -- ./inp_files/620695.got.cif
#   From: 2010.06.25/outbox.cif.g09.slc.cpg/sg2_311_cif.got.tgz:620695.got - 2010.06.27 13:26:56.
