data_PCOD8008250
_publ_section_title
;
Structure prediction by ZEFSAII (Michael W. Deem and Ramdas Pophale) SiO2 
 PCOD8008250
Probable space group: P -1
;
_chemical_formula_sum "Si O2"
_cell_formula_units_Z 16
_cell_length_a 12.065873
_cell_length_b 15.982356
_cell_length_c 8.620238
_cell_angle_alpha 45.165943
_cell_angle_beta 115.783158
_cell_angle_gamma 144.122150
_cell_volume 652.654449
_symmetry_space_group_name_H-M "P -1"
_symmetry_group_IT_number 2
_symmetry_cell_setting 'triclinic'
loop_
_space_group_symop_operation_xyz
x,y,z
-x,-y,-z
loop_
_atom_site_type_symbol
_atom_site_label
_atom_site_fract_x
_atom_site_fract_y
_atom_site_fract_z
Si Si1 0.551991 0.912209 0.571854
Si Si2 0.247411 0.519269 0.384620
Si Si3 0.090742 0.982225 0.881913
Si Si4 0.703948 0.204475 0.801688
Si Si5 0.318303 0.545959 0.054608
Si Si6 0.308318 0.306136 0.819747
Si Si7 0.118816 0.841728 0.814434
Si Si8 0.176751 0.843228 0.332990
O O1 0.369967 0.680058 0.774494
O O2 0.500000 0.000000 0.500000
O O3 0.681886 0.012738 0.362480
O O4 0.698491 0.976798 0.714339
O O5 0.300478 0.658996 0.359450
O O6 0.323518 0.453407 0.585556
O O7 0.010455 0.344482 0.438612
O O8 0.337919 0.620400 0.139930
O O9 0.124515 0.974360 0.731714
O O10 0.259154 0.198126 0.769810
O O11 0.105041 0.864295 0.118181
O O12 0.866985 0.857846 0.948459
O O13 0.714530 0.189312 0.639701
O O14 0.874765 0.267470 0.924405
O O15 0.500000 0.000000 0.000000
O O16 0.482982 0.565788 0.135446
O O17 0.095160 0.325237 0.184922
#
# Coordination Sequence:
#
# PCOD8008250 Si02
#       8
#     2   2   2   2   2   2   2   2
#     4  12  25  44  71 106 146 193 229 292 375 433
#     4  11  23  41  73 102 138 186 248 289 349 430
#     4   9  21  45  74 103 142 186 247 293 345 431
#     4  11  24  44  70 106 141 183 240 302 355 433
#     4  12  25  45  70 104 149 190 238 297 360 425
#     4  10  22  45  76 102 138 199 245 291 351 425
#     4  11  26  46  72 112 145 184 235 303 368 420
#     4  10  20  42  69 101 140 182 236 296 354 421
#
# _framework density 24.515270999999998
#
# number of rings (size 3 to 8) (size 9 to 14) (size 15 to 20)
#    0.000    1.250    2.500    3.000    3.500    1.500 
#    6.750    2.500    0.000    0.000    0.000    0.000 
#    0.000    0.000    0.000    0.000    0.000    0.000 
#
# Total GULP energy -198236.556700 kJ/mol
# GULP energy per Si atom -12389.784794 kJ/mol
# Density = 2.445947 g / cm^3
# Si number density = 24.515271 Si / 1000 Ang^3
#
#
#
# Elastic Constant Matrix: (Units=GPa)
#
#
# Indices 1 2 3 4 5 6 
#
# 1 130.0798 30.5208 32.1501 -6.3305 -4.3951 -25.1689
# 2 30.5208 60.2999 6.4773 -6.8208 5.6340 -14.2330
# 3 32.1501 6.4773 83.2281 -10.5704 -4.8622 -11.8070
# 4 -6.3305 -6.8208 -10.5704 30.1911 -6.0429 -12.5510
# 5 -4.3951 5.6340 -4.8622 -6.0429 39.7883 -4.3569
# 6 -25.1689 -14.2330 -11.8070 -12.5510 -4.3569 39.1508
#
#
#
# Elastic Compliance Matrix: (Units=1/GPa)
#
#
# Indices 1 2 3 4 5 6 
#
# 1 0.010560 -0.003406 -0.002264 0.003843 0.002656 0.006396
# 2 -0.003406 0.021122 0.001844 0.008045 -0.000988 0.008514
# 3 -0.002264 0.001844 0.015048 0.008785 0.003423 0.006950
# 4 0.003843 0.008045 0.008785 0.051793 0.011059 0.025879
# 5 0.002656 -0.000988 0.003423 0.011059 0.028662 0.009116
# 6 0.006396 0.008514 0.006950 0.025879 0.009116 0.044156
#
#
# Mechanical properties :
#
#
# Convention : Reuss Voigt Hill
#
# Bulk Modulus (GPa) = 25.58986 45.76715 35.67850
# Shear Modulus (GPa) = 26.03907 35.45669 30.74788
#
# Velocity S-wave (km/s) = 3.26261 3.80716 3.54536
# Velocity P-wave (km/s) = 4.96526 6.16728 5.59862
#
# Compressibility (1/GPa) = 0.03907798
#
# Stress axis : x y z
#
# Youngs Moduli (GPa) = 94.69277 47.34489 66.45480
#
# Poissons Ratio (x) = 0.16125 0.15044
# Poissons Ratio (y) = 0.32252 -0.12253
# Poissons Ratio (z) = 0.21437 -0.08729
#
# Static dielectric constant tensor:
#      x y z
#    x 4.913130 0.366190 -0.213720 
#    y 0.366190 5.073470 0.788890 
#    z -0.213720 0.788890 4.441940 
# 
# 
# High freq. dielectric constant tensor:
#      x y z
#    x 1.994370 0.007500 -0.009090 
#    y 0.007500 1.972890 0.000100 
#    z -0.009090 0.000100 1.960330 
# 
# From -- ./inp_files/271866.got.cif
#   From: 2010.06.25/outbox.cif.g09.slc.cpg/sg2_136_cif.got.tgz:271866.got - 2010.06.27 13:26:56.
