data_PCOD8008199
_publ_section_title
;
Structure prediction by ZEFSAII (Michael W. Deem and Ramdas Pophale) SiO2 
 PCOD8008199
Probable space group: P -1
;
_chemical_formula_sum "Si O2"
_cell_formula_units_Z 14
_cell_length_a 27.885647
_cell_length_b 9.200971
_cell_length_c 19.245175
_cell_angle_alpha 150.864381
_cell_angle_beta 162.993908
_cell_angle_gamma 27.240322
_cell_volume 650.990016
_symmetry_space_group_name_H-M "P -1"
_symmetry_group_IT_number 2
_symmetry_cell_setting 'triclinic'
loop_
_space_group_symop_operation_xyz
x,y,z
-x,-y,-z
loop_
_atom_site_type_symbol
_atom_site_label
_atom_site_fract_x
_atom_site_fract_y
_atom_site_fract_z
Si Si1 0.059719 0.286273 0.791035
Si Si2 0.769593 0.342674 0.317459
Si Si3 0.627889 0.607308 0.676214
Si Si4 0.405582 0.767852 0.185193
Si Si5 0.508945 0.775247 0.034251
Si Si6 0.351210 0.690978 0.564685
Si Si7 0.009921 0.204431 0.842192
O O1 0.912467 0.461362 0.602138
O O2 0.972156 0.320146 0.759105
O O3 0.146160 0.909638 0.732779
O O4 0.206518 0.444721 0.064812
O O5 0.626314 0.659013 0.217864
O O6 0.688890 0.180809 0.198042
O O7 0.500000 0.500000 0.500000
O O8 0.684370 0.381836 0.593548
O O9 0.548679 0.977889 0.693887
O O10 0.547422 0.644503 0.393195
O O11 0.423136 0.462597 0.035317
O O12 0.204558 0.922083 0.001088
O O13 0.520752 0.111703 0.169425
O O14 0.154683 0.898436 0.409050
O O15 0.000000 0.500000 0.000000
#
# Coordination Sequence:
#
# PCOD8008199 Si02
#       7
#     2   2   2   2   2   2   2
#     4  10  20  42  67  97 133 182 221 282 342 401
#     4  10  21  41  70  95 138 177 223 284 347 394
#     4  11  23  43  69 101 134 175 231 280 338 409
#     4  11  24  46  70  97 141 186 222 281 350 397
#     4  11  23  43  68 102 134 180 232 278 342 411
#     4  12  25  43  70 103 137 181 229 282 343 413
#     4  11  22  43  66  96 138 181 228 274 335 418
#
# _framework density 21.505704999999999
#
# number of rings (size 3 to 8) (size 9 to 14) (size 15 to 20)
#    0.000    1.143    5.714    2.571    2.000    0.571 
#    7.714    0.714    0.000    0.000    0.000    0.000 
#    0.000    0.000    0.000    0.000    0.000    0.000 
#
# Total GULP energy -173555.174973 kJ/mol
# GULP energy per Si atom -12396.798212 kJ/mol
# Density = 2.145676 g / cm^3
# Si number density = 21.505705 Si / 1000 Ang^3
#
#
#
# Elastic Constant Matrix: (Units=GPa)
#
#
# Indices 1 2 3 4 5 6 
#
# 1 122.5888 33.2068 65.6073 -1.5582 3.7810 -10.1545
# 2 33.2068 67.1149 31.6676 -0.3654 3.5936 -3.0711
# 3 65.6073 31.6676 140.9790 -2.5385 0.5875 4.6860
# 4 -1.5582 -0.3654 -2.5385 39.6472 -3.2114 -1.7378
# 5 3.7810 3.5936 0.5875 -3.2114 41.9746 12.7727
# 6 -10.1545 -3.0711 4.6860 -1.7378 12.7727 30.1268
#
#
#
# Elastic Compliance Matrix: (Units=1/GPa)
#
#
# Indices 1 2 3 4 5 6 
#
# 1 0.012381 -0.003276 -0.005202 0.000172 -0.002487 0.005713
# 2 -0.003276 0.017906 -0.002556 -0.000190 -0.001784 0.001864
# 3 -0.005202 -0.002556 0.010233 0.000389 0.001911 -0.004393
# 4 0.000172 -0.000190 0.000389 0.025423 0.001723 0.000714
# 5 -0.002487 -0.001784 0.001911 0.001723 0.028332 -0.013230
# 6 0.005713 0.001864 -0.004393 0.000714 -0.013230 0.041642
#
#
# Mechanical properties :
#
#
# Convention : Reuss Voigt Hill
#
# Bulk Modulus (GPa) = 54.19132 65.73846 59.96489
# Shear Modulus (GPa) = 30.46252 35.69645 33.07948
#
# Velocity S-wave (km/s) = 3.76771 4.07856 3.92621
# Velocity P-wave (km/s) = 6.64686 7.26731 6.96400
#
# Compressibility (1/GPa) = 0.01845314
#
# Stress axis : x y z
#
# Youngs Moduli (GPa) = 80.76916 55.84652 97.71872
#
# Poissons Ratio (x) = 0.18293 0.50837
# Poissons Ratio (y) = 0.26457 0.24975
# Poissons Ratio (z) = 0.42019 0.14273
#
# Static dielectric constant tensor:
#      x y z
#    x 4.079400 -0.081480 -0.025060 
#    y -0.081480 3.694430 -0.125510 
#    z -0.025060 -0.125510 4.169100 
# 
# 
# High freq. dielectric constant tensor:
#      x y z
#    x 1.855740 -0.016140 -0.013110 
#    y -0.016140 1.813520 -0.005870 
#    z -0.013110 -0.005870 1.859830 
# 
# From -- ./inp_files/186809.got.cif
#   From: 2010.06.25/outbox.cif.g09.slc.cpg/sg2_94_cif.got.tgz:186809.got - 2010.06.27 13:26:56.
