data_PCOD8008118
_publ_section_title
;
Structure prediction by ZEFSAII (Michael W. Deem and Ramdas Pophale) SiO2 
 PCOD8008118
Probable space group: P -1
;
_chemical_formula_sum "Si O2"
_cell_formula_units_Z 12
_cell_length_a 14.369373
_cell_length_b 9.300721
_cell_length_c 12.377780
_cell_angle_alpha 38.775018
_cell_angle_beta 145.584252
_cell_angle_gamma 123.486411
_cell_volume 565.672689
_symmetry_space_group_name_H-M "P -1"
_symmetry_group_IT_number 2
_symmetry_cell_setting 'triclinic'
loop_
_space_group_symop_operation_xyz
x,y,z
-x,-y,-z
loop_
_atom_site_type_symbol
_atom_site_label
_atom_site_fract_x
_atom_site_fract_y
_atom_site_fract_z
Si Si1 0.822793 0.934175 0.625506
Si Si2 0.222734 0.390678 0.661727
Si Si3 0.615199 0.336354 0.057475
Si Si4 0.320061 0.179051 0.235448
Si Si5 0.166891 0.086753 0.587172
Si Si6 0.070602 0.154475 0.840143
O O1 0.725788 0.801278 0.692925
O O2 0.853112 0.792799 0.623103
O O3 0.002796 0.944496 0.844711
O O4 0.710198 0.207318 0.332418
O O5 0.413903 0.416920 0.834448
O O6 0.193022 0.275052 0.587629
O O7 0.192880 0.230432 0.825749
O O8 0.091449 0.643798 0.394162
O O9 0.687188 0.562812 0.970022
O O10 0.669979 0.146462 0.122434
O O11 0.500000 0.000000 0.500000
O O12 0.185342 0.067574 0.106819
O O13 0.000000 0.000000 0.500000
#
# Coordination Sequence:
#
# PCOD8008118 Si02
#       6
#     2   2   2   2   2   2
#     4  10  23  41  65  93 125 166 212 255 316 367
#     4  11  20  39  68  96 122 173 209 257 317 376
#     4  10  23  40  65  93 128 166 207 260 313 372
#     4  12  24  41  63  96 130 163 214 263 315 374
#     4  10  20  42  66  92 127 168 212 255 315 374
#     4  11  22  37  66  94 126 165 218 257 314 372
#
# _framework density 21.213681000000001
#
# number of rings (size 3 to 8) (size 9 to 14) (size 15 to 20)
#    1.000    0.333    1.667    6.000    0.000    2.000 
#    0.000    4.167    0.000    0.000    0.000    0.000 
#    0.000    0.000    0.000    0.000    0.000    0.000 
#
# Total GULP energy -148749.658807 kJ/mol
# GULP energy per Si atom -12395.804901 kJ/mol
# Density = 2.116540 g / cm^3
# Si number density = 21.213681 Si / 1000 Ang^3
#
#
#
# Elastic Constant Matrix: (Units=GPa)
#
#
# Indices 1 2 3 4 5 6 
#
# 1 141.6646 21.6437 40.5891 11.8163 -3.8576 -4.3128
# 2 21.6437 62.9182 16.0104 16.1099 -6.4091 -8.6072
# 3 40.5891 16.0104 82.3223 25.6889 1.5273 -0.5907
# 4 11.8163 16.1099 25.6889 26.2241 -2.1064 -3.4419
# 5 -3.8576 -6.4091 1.5273 -2.1064 38.6189 2.8534
# 6 -4.3128 -8.6072 -0.5907 -3.4419 2.8534 41.3295
#
#
#
# Elastic Compliance Matrix: (Units=1/GPa)
#
#
# Indices 1 2 3 4 5 6 
#
# 1 0.008522 -0.002163 -0.004387 0.001909 0.000734 0.000484
# 2 -0.002163 0.020008 0.000739 -0.011487 0.002239 0.002840
# 3 -0.004387 0.000739 0.019913 -0.018330 -0.001999 -0.001408
# 4 0.001909 -0.011487 -0.018330 0.062809 0.002241 0.002621
# 5 0.000734 0.002239 -0.001999 0.002241 0.026624 -0.001137
# 6 0.000484 0.002840 -0.001408 0.002621 -0.001137 0.025115
#
#
# Mechanical properties :
#
#
# Convention : Reuss Voigt Hill
#
# Bulk Modulus (GPa) = 27.15839 49.26572 38.21205
# Shear Modulus (GPa) = 26.75426 35.14528 30.94977
#
# Velocity S-wave (km/s) = 3.55516 4.07471 3.82377
# Velocity P-wave (km/s) = 5.44815 6.73881 6.12756
#
# Compressibility (1/GPa) = 0.03682103
#
# Stress axis : x y z
#
# Youngs Moduli (GPa) = 117.34631 49.98106 50.21750
#
# Poissons Ratio (x) = 0.10810 0.22029
# Poissons Ratio (y) = 0.25380 -0.03710
# Poissons Ratio (z) = 0.51477 -0.03692
#
# Static dielectric constant tensor:
#      x y z
#    x 4.159090 -0.204510 -0.083480 
#    y -0.204510 3.823120 0.309430 
#    z -0.083480 0.309430 3.840260 
# 
# 
# High freq. dielectric constant tensor:
#      x y z
#    x 1.852380 -0.004080 0.004710 
#    y -0.004080 1.811820 0.019130 
#    z 0.004710 0.019130 1.824760 
# 
# From -- ./inp_files/394688.got.cif
#   From: 2010.06.25/outbox.cif.g09.slc.cpg/sg2_198_cif.got.tgz:394688.got - 2010.06.27 13:26:56.
