data_PCOD8008617
_publ_section_title
;
Structure prediction by ZEFSAII (Michael W. Deem and Ramdas Pophale) SiO2 
 PCOD8008617
Probable space group: P -1
;
_chemical_formula_sum "Si O2"
_cell_formula_units_Z 16
_cell_length_a 12.004536
_cell_length_b 14.938217
_cell_length_c 8.770368
_cell_angle_alpha 98.440012
_cell_angle_beta 55.955312
_cell_angle_gamma 138.749609
_cell_volume 743.263112
_symmetry_space_group_name_H-M "P -1"
_symmetry_group_IT_number 2
_symmetry_cell_setting 'triclinic'
loop_
_space_group_symop_operation_xyz
x,y,z
-x,-y,-z
loop_
_atom_site_type_symbol
_atom_site_label
_atom_site_fract_x
_atom_site_fract_y
_atom_site_fract_z
Si Si1 0.087123 0.449754 0.869513
Si Si2 0.350957 0.714733 0.190702
Si Si3 0.856594 0.949768 0.371027
Si Si4 0.766004 0.178599 0.844977
Si Si5 0.721818 0.705537 0.952557
Si Si6 0.453262 0.671291 0.388098
Si Si7 0.317734 0.516666 0.010730
Si Si8 0.178141 0.985238 0.275317
O O1 0.225742 0.521964 0.621878
O O2 0.257660 0.497775 0.874868
O O3 0.853451 0.262313 0.965714
O O4 0.000000 0.500000 0.000000
O O5 0.193861 0.717364 0.281337
O O6 0.388897 0.721149 0.342295
O O7 0.224331 0.554693 0.180328
O O8 0.597853 0.867470 0.959283
O O9 0.956881 0.914213 0.358955
O O10 0.649179 0.812622 0.386038
O O11 0.758651 0.956375 0.584917
O O12 0.047601 0.108186 0.165039
O O13 0.907457 0.166066 0.693986
O O14 0.500000 0.000000 0.000000
O O15 0.544560 0.636585 0.207975
O O16 0.796132 0.641064 0.888191
O O17 0.594483 0.657694 0.875240
#
# Coordination Sequence:
#
# PCOD8008617 Si02
#       8
#     2   2   2   2   2   2   2   2
#     4  12  26  45  69  94 130 175 223 274 322 393
#     4  10  20  45  63  92 136 172 216 275 319 385
#     4  11  22  40  67  97 136 172 213 270 325 392
#     4  10  24  43  71  93 128 173 226 267 326 386
#     4  10  23  41  65  99 135 172 208 272 328 392
#     4  11  25  39  67  97 131 172 224 267 331 382
#     4  10  21  41  67  93 135 168 218 262 333 385
#     4  10  22  39  68  95 127 175 214 265 330 381
#
# _framework density 21.526698
#
# number of rings (size 3 to 8) (size 9 to 14) (size 15 to 20)
#    0.000    1.500    3.750    1.125    5.250    5.000 
#    2.250    0.625    0.000    0.000    0.000    0.000 
#    0.000    0.000    0.000    0.000    0.000    0.000 
#
# Total GULP energy -198279.926305 kJ/mol
# GULP energy per Si atom -12392.495394 kJ/mol
# Density = 2.147770 g / cm^3
# Si number density = 21.526698 Si / 1000 Ang^3
#
#
#
# Elastic Constant Matrix: (Units=GPa)
#
#
# Indices 1 2 3 4 5 6 
#
# 1 147.3849 76.8825 31.9849 21.2345 19.3219 -12.2172
# 2 76.8825 144.4400 29.2643 21.6178 -0.5146 -1.8812
# 3 31.9849 29.2643 81.9813 4.5607 13.3439 3.9043
# 4 21.2345 21.6178 4.5607 26.2125 4.9145 0.2963
# 5 19.3219 -0.5146 13.3439 4.9145 22.3960 8.9996
# 6 -12.2172 -1.8812 3.9043 0.2963 8.9996 52.7758
#
#
#
# Elastic Compliance Matrix: (Units=1/GPa)
#
#
# Indices 1 2 3 4 5 6 
#
# 1 0.012423 -0.005985 -0.000889 -0.002852 -0.011597 0.004722
# 2 -0.005985 0.011586 -0.002888 -0.005938 0.009388 -0.002327
# 3 -0.000889 -0.002888 0.014861 0.002136 -0.008645 0.000054
# 4 -0.002852 -0.005938 0.002136 0.046730 -0.009323 0.000298
# 5 -0.011597 0.009388 -0.008645 -0.009323 0.067349 -0.013143
# 6 0.004722 -0.002327 0.000054 0.000298 -0.013143 0.022194
#
#
# Mechanical properties :
#
#
# Convention : Reuss Voigt Hill
#
# Bulk Modulus (GPa) = 51.68900 72.22998 61.95949
# Shear Modulus (GPa) = 24.86137 35.98848 30.42492
#
# Velocity S-wave (km/s) = 3.40208 4.09321 3.76354
# Velocity P-wave (km/s) = 6.28458 7.48102 6.90875
#
# Compressibility (1/GPa) = 0.01934647
#
# Stress axis : x y z
#
# Youngs Moduli (GPa) = 80.49803 86.31053 67.28986
#
# Poissons Ratio (x) = 0.51659 0.05980
# Poissons Ratio (y) = 0.48180 0.19431
# Poissons Ratio (z) = 0.07154 0.24923
#
# Static dielectric constant tensor:
#      x y z
#    x 4.597540 -0.399960 -0.030460 
#    y -0.399960 4.311220 0.225160 
#    z -0.030460 0.225160 3.668070 
# 
# 
# High freq. dielectric constant tensor:
#      x y z
#    x 1.861480 -0.000740 0.000540 
#    y -0.000740 1.856690 0.006370 
#    z 0.000540 0.006370 1.813680 
# 
# From -- ./inp_files/273313.got.cif
#   From: 2010.06.25/outbox.cif.g09.slc.cpg/sg2_137_cif.got.tgz:273313.got - 2010.06.27 13:26:56.
