data_PCOD8008631
_publ_section_title
;
Structure prediction by ZEFSAII (Michael W. Deem and Ramdas Pophale) SiO2 
 PCOD8008631
Probable space group: P -1
;
_chemical_formula_sum "Si O2"
_cell_formula_units_Z 16
_cell_length_a 14.214403
_cell_length_b 11.294081
_cell_length_c 8.906447
_cell_angle_alpha 93.916188
_cell_angle_beta 149.211390
_cell_angle_gamma 95.606421
_cell_volume 695.109407
_symmetry_space_group_name_H-M "P -1"
_symmetry_group_IT_number 2
_symmetry_cell_setting 'triclinic'
loop_
_space_group_symop_operation_xyz
x,y,z
-x,-y,-z
loop_
_atom_site_type_symbol
_atom_site_label
_atom_site_fract_x
_atom_site_fract_y
_atom_site_fract_z
Si Si1 0.367278 0.184397 0.198633
Si Si2 0.230676 0.261321 0.533548
Si Si3 0.846334 0.505142 0.664973
Si Si4 0.801164 0.417422 0.279177
Si Si5 0.421184 0.953015 0.726733
Si Si6 0.526792 0.203409 0.730284
Si Si7 0.418327 0.396450 0.088785
Si Si8 0.027077 0.985169 0.210334
O O1 0.483579 0.148717 0.214086
O O2 0.526135 0.219151 0.551611
O O3 0.313261 0.305224 0.073080
O O4 0.167649 0.086137 0.972696
O O5 0.107630 0.354448 0.328394
O O6 0.348615 0.245789 0.548439
O O7 0.095755 0.124536 0.389124
O O8 0.385651 0.319225 0.881442
O O9 0.830563 0.408420 0.497300
O O10 0.637393 0.455970 0.448888
O O11 0.000000 0.500000 0.000000
O O12 0.000000 0.500000 0.500000
O O13 0.730565 0.281585 0.092600
O O14 0.648946 0.484368 0.021627
O O15 0.188425 0.911895 0.429847
O O16 0.489863 0.060037 0.705486
O O17 0.500000 0.000000 0.000000
O O18 0.000000 0.000000 0.000000
#
# Coordination Sequence:
#
# PCOD8008631 Si02
#       8
#     2   2   2   2   2   2   2   2
#     4  12  26  44  73 108 141 186 238 289 351 426
#     4  10  20  45  70  93 140 188 222 294 353 406
#     4  11  24  43  71 103 133 186 236 288 349 422
#     4  11  25  45  68 102 137 183 235 286 358 415
#     4  11  26  45  70 103 140 185 234 291 353 416
#     4  11  22  44  69  96 143 180 226 296 346 411
#     4  11  24  46  70  98 143 184 229 291 358 415
#     4  11  24  44  71 102 138 187 235 287 352 413
#
# _framework density 23.017961
#
# number of rings (size 3 to 8) (size 9 to 14) (size 15 to 20)
#    0.000    1.000    5.000    2.625    1.750    7.500 
#    0.000    0.000    0.000    0.000    0.000    0.000 
#    0.000    0.000    0.000    0.000    0.000    0.000 
#
# Total GULP energy -198275.335080 kJ/mol
# GULP energy per Si atom -12392.208443 kJ/mol
# Density = 2.296557 g / cm^3
# Si number density = 23.017961 Si / 1000 Ang^3
#
#
#
# Elastic Constant Matrix: (Units=GPa)
#
#
# Indices 1 2 3 4 5 6 
#
# 1 83.8319 11.8477 38.6616 -4.5128 1.8522 10.1600
# 2 11.8477 70.0999 26.7540 5.7470 -2.7028 17.6342
# 3 38.6616 26.7540 155.3954 -6.8711 1.9574 8.8387
# 4 -4.5128 5.7470 -6.8711 39.6955 11.3660 -5.4188
# 5 1.8522 -2.7028 1.9574 11.3660 44.0549 -2.0223
# 6 10.1600 17.6342 8.8387 -5.4188 -2.0223 30.0317
#
#
#
# Elastic Compliance Matrix: (Units=1/GPa)
#
#
# Indices 1 2 3 4 5 6 
#
# 1 0.013921 -0.000384 -0.003152 0.000864 -0.000850 -0.003458
# 2 -0.000384 0.018619 -0.002757 -0.005308 0.002154 -0.010804
# 3 -0.003152 -0.002757 0.007741 0.001697 -0.000788 0.000660
# 4 0.000864 -0.005308 0.001697 0.029540 -0.007731 0.007135
# 5 -0.000850 0.002154 -0.000788 -0.007731 0.024875 -0.000465
# 6 -0.003458 -0.010804 0.000660 0.007135 -0.000465 0.041874
#
#
# Mechanical properties :
#
#
# Convention : Reuss Voigt Hill
#
# Bulk Modulus (GPa) = 36.10713 51.53929 43.82321
# Shear Modulus (GPa) = 31.56823 38.22733 34.89778
#
# Velocity S-wave (km/s) = 3.70734 4.07966 3.89795
# Velocity P-wave (km/s) = 5.83493 6.68065 6.27206
#
# Compressibility (1/GPa) = 0.02769536
#
# Stress axis : x y z
#
# Youngs Moduli (GPa) = 71.83506 53.70946 129.17422
#
# Poissons Ratio (x) = 0.02060 0.40713
# Poissons Ratio (y) = 0.02756 0.35619
# Poissons Ratio (z) = 0.22641 0.14810
#
# Static dielectric constant tensor:
#      x y z
#    x 3.829550 0.105240 -0.145100 
#    y 0.105240 4.497070 0.259330 
#    z -0.145100 0.259330 4.333010 
# 
# 
# High freq. dielectric constant tensor:
#      x y z
#    x 1.899030 0.007140 -0.008220 
#    y 0.007140 1.910530 0.005800 
#    z -0.008220 0.005800 1.917310 
# 
# From -- ./inp_files/307645.got.cif
#   From: 2010.06.25/outbox.cif.g09.slc.cpg/sg2_154_cif.got.tgz:307645.got - 2010.06.27 13:26:56.
