data_PCOD8008976
_publ_section_title
;
Structure prediction by ZEFSAII (Michael W. Deem and Ramdas Pophale) SiO2 
 PCOD8008976
Probable space group: P -1
;
_chemical_formula_sum "Si O2"
_cell_formula_units_Z 14
_cell_length_a 29.663218
_cell_length_b 9.414079
_cell_length_c 12.720746
_cell_angle_alpha 144.629135
_cell_angle_beta 160.246128
_cell_angle_gamma 32.597309
_cell_volume 641.836390
_symmetry_space_group_name_H-M "P -1"
_symmetry_group_IT_number 2
_symmetry_cell_setting 'triclinic'
loop_
_space_group_symop_operation_xyz
x,y,z
-x,-y,-z
loop_
_atom_site_type_symbol
_atom_site_label
_atom_site_fract_x
_atom_site_fract_y
_atom_site_fract_z
Si Si1 0.475765 0.121038 0.273707
Si Si2 0.987666 0.134277 0.167431
Si Si3 0.607832 0.786746 0.185975
Si Si4 0.931950 0.674027 0.853683
Si Si5 0.813931 0.716881 0.168228
Si Si6 0.987037 0.241456 0.544242
Si Si7 0.669918 0.400236 0.916421
O O1 0.615772 0.157309 0.651333
O O2 0.412026 0.363289 0.199218
O O3 0.527035 0.839145 0.153814
O O4 0.359231 0.129666 0.111911
O O5 0.845452 0.405893 0.029261
O O6 0.119254 0.228856 0.541505
O O7 0.987402 0.914523 0.118539
O O8 0.000000 0.000000 0.000000
O O9 0.758624 0.819302 0.558048
O O10 0.645066 0.497623 0.043005
O O11 0.500000 0.000000 0.000000
O O12 0.986333 0.492649 0.760461
O O13 0.000000 0.500000 0.000000
O O14 0.879774 0.835155 0.290454
O O15 0.836694 0.307237 0.192444
O O16 0.000000 0.000000 0.500000
#
# Coordination Sequence:
#
# PCOD8008976 Si02
#       7
#     2   2   2   2   2   2   2
#     4  10  21  35  61  91 127 156 211 261 327 372
#     4  11  23  39  63  95 136 168 220 275 326 384
#     4   9  21  37  61  93 128 168 221 261 315 399
#     4  11  24  41  68  98 130 177 222 272 333 392
#     4  11  24  38  63  99 128 169 221 278 323 389
#     4  11  23  43  65  91 130 169 223 271 328 396
#     4   9  20  37  59  90 119 169 205 260 312 389
#
# _framework density 21.812412999999999
#
# number of rings (size 3 to 8) (size 9 to 14) (size 15 to 20)
#    0.000    1.714    1.429    2.571   14.000    0.000 
#    0.000    0.714    0.000    2.571    0.000    0.000 
#    0.000    0.000    0.000    0.000    0.000    0.000 
#
# Total GULP energy -173481.243174 kJ/mol
# GULP energy per Si atom -12391.517370 kJ/mol
# Density = 2.176277 g / cm^3
# Si number density = 21.812413 Si / 1000 Ang^3
#
#
#
# Elastic Constant Matrix: (Units=GPa)
#
#
# Indices 1 2 3 4 5 6 
#
# 1 129.9093 39.8017 56.3359 10.7099 17.4719 -26.2937
# 2 39.8017 74.0798 29.2034 15.5548 6.7568 -2.2838
# 3 56.3359 29.2034 115.5853 3.1389 5.9302 -7.9545
# 4 10.7099 15.5548 3.1389 29.6860 -2.4640 -1.3672
# 5 17.4719 6.7568 5.9302 -2.4640 37.4743 -2.5645
# 6 -26.2937 -2.2838 -7.9545 -1.3672 -2.5645 36.9581
#
#
#
# Elastic Compliance Matrix: (Units=1/GPa)
#
#
# Indices 1 2 3 4 5 6 
#
# 1 0.013353 -0.004285 -0.004606 -0.002082 -0.004323 0.007867
# 2 -0.004285 0.018569 -0.002491 -0.008193 -0.001690 -0.002857
# 3 -0.004606 -0.002491 0.011374 0.001796 0.000856 -0.000857
# 4 -0.002082 -0.008193 0.001796 0.038941 0.004736 0.000168
# 5 -0.004323 -0.001690 0.000856 0.004736 0.029126 -0.000799
# 6 0.007867 -0.002857 -0.000857 0.000168 -0.000799 0.032244
#
#
# Mechanical properties :
#
#
# Convention : Reuss Voigt Hill
#
# Bulk Modulus (GPa) = 48.70024 63.36180 56.03102
# Shear Modulus (GPa) = 28.86579 33.77258 31.31918
#
# Velocity S-wave (km/s) = 3.64176 3.93914 3.79336
# Velocity P-wave (km/s) = 6.32918 7.05696 6.70295
#
# Compressibility (1/GPa) = 0.02053378
#
# Stress axis : x y z
#
# Youngs Moduli (GPa) = 74.88883 53.85241 87.91828
#
# Poissons Ratio (x) = 0.23074 0.40495
# Poissons Ratio (y) = 0.32088 0.21898
# Poissons Ratio (z) = 0.34494 0.13413
#
# Static dielectric constant tensor:
#      x y z
#    x 3.995730 -0.443880 -0.184430 
#    y -0.443880 3.887700 0.271990 
#    z -0.184430 0.271990 4.092180 
# 
# 
# High freq. dielectric constant tensor:
#      x y z
#    x 1.853160 -0.033610 -0.009720 
#    y -0.033610 1.838300 0.009120 
#    z -0.009720 0.009120 1.857870 
# 
# From -- ./inp_files/466687.got.cif
#   From: 2010.06.25/outbox.cif.g09.slc.cpg/sg2_234_cif.got.tgz:466687.got - 2010.06.27 13:26:56.
