data_PCOD8008047
_publ_section_title
;
Structure prediction by ZEFSAII (Michael W. Deem and Ramdas Pophale) SiO2 
 PCOD8008047
Probable space group: P -1
;
_chemical_formula_sum "Si O2"
_cell_formula_units_Z 16
_cell_length_a 9.170589
_cell_length_b 12.236700
_cell_length_c 10.906479
_cell_angle_alpha 115.744164
_cell_angle_beta 88.128714
_cell_angle_gamma 137.723609
_cell_volume 652.001728
_symmetry_space_group_name_H-M "P -1"
_symmetry_group_IT_number 2
_symmetry_cell_setting 'triclinic'
loop_
_space_group_symop_operation_xyz
x,y,z
-x,-y,-z
loop_
_atom_site_type_symbol
_atom_site_label
_atom_site_fract_x
_atom_site_fract_y
_atom_site_fract_z
Si Si1 0.782391 0.833792 0.189894
Si Si2 0.346030 0.505407 0.896687
Si Si3 0.085772 0.412120 0.106608
Si Si4 0.100868 0.699610 0.304761
Si Si5 0.300472 0.430985 0.339591
Si Si6 0.820014 0.126315 0.361718
Si Si7 0.648555 0.786600 0.675313
Si Si8 0.386443 0.970038 0.193372
O O1 0.671707 0.653257 0.191299
O O2 0.745620 0.938724 0.307905
O O3 0.634163 0.735113 0.014487
O O4 0.063657 0.991475 0.235183
O O5 0.192839 0.464443 0.770932
O O6 0.222191 0.473598 0.008239
O O7 0.145803 0.587927 0.232397
O O8 0.188196 0.388319 0.192259
O O9 0.791483 0.199279 0.991730
O O10 0.203644 0.805953 0.485549
O O11 0.247774 0.871863 0.280736
O O12 0.532066 0.668463 0.490007
O O13 0.390013 0.349439 0.292050
O O14 0.094649 0.309207 0.390838
O O15 0.633201 0.054439 0.230083
O O16 0.531293 0.835986 0.744036
#
# Coordination Sequence:
#
# PCOD8008047 Si02
#       8
#     2   2   2   2   2   2   2   2
#     4  10  20  42  64  93 128 159 210 263 318 371
#     4  10  21  41  64  99 125 160 206 268 326 371
#     4  11  22  41  66  93 131 169 205 263 313 381
#     4  11  22  39  66  99 130 162 204 265 332 365
#     4  10  25  44  61  91 128 178 214 250 311 367
#     4  11  24  41  64  95 129 170 210 261 303 385
#     4  10  21  45  62  89 130 166 218 253 307 379
#     4  11  22  41  67  96 124 165 212 265 323 369
#
# _framework density 24.539812999999999
#
# number of rings (size 3 to 8) (size 9 to 14) (size 15 to 20)
#    0.000    1.500    2.500    4.125    0.000    4.500 
#   13.500    0.000    0.000    0.000    0.000    0.000 
#    0.000    0.000    0.000    0.000    0.000    0.000 
#
# Total GULP energy -198380.567524 kJ/mol
# GULP energy per Si atom -12398.785470 kJ/mol
# Density = 2.448396 g / cm^3
# Si number density = 24.539813 Si / 1000 Ang^3
#
#
#
# Elastic Constant Matrix: (Units=GPa)
#
#
# Indices 1 2 3 4 5 6 
#
# 1 140.2706 21.7403 44.8556 10.6764 -5.5550 -25.7918
# 2 21.7403 35.7640 23.2060 20.7513 -3.6447 -14.3537
# 3 44.8556 23.2060 121.2727 20.1195 4.3221 -13.5145
# 4 10.6764 20.7513 20.1195 31.9530 -6.9972 3.9204
# 5 -5.5550 -3.6447 4.3221 -6.9972 61.2314 15.5239
# 6 -25.7918 -14.3537 -13.5145 3.9204 15.5239 38.6405
#
#
#
# Elastic Compliance Matrix: (Units=1/GPa)
#
#
# Indices 1 2 3 4 5 6 
#
# 1 0.009098 -0.000900 -0.002265 -0.001832 -0.000644 0.005391
# 2 -0.000900 0.073966 -0.000268 -0.054544 -0.011230 0.036827
# 3 -0.002265 -0.000268 0.010845 -0.007006 -0.002807 0.004020
# 4 -0.001832 -0.054544 -0.007006 0.079959 0.015970 -0.038463
# 5 -0.000644 -0.011230 -0.002807 0.015970 0.021660 -0.015906
# 6 0.005391 0.036827 0.004020 -0.038463 -0.015906 0.054857
#
#
# Mechanical properties :
#
#
# Convention : Reuss Voigt Hill
#
# Bulk Modulus (GPa) = 11.48848 52.99014 32.23931
# Shear Modulus (GPa) = 17.46630 40.19869 28.83250
#
# Velocity S-wave (km/s) = 2.67077 4.05174 3.43144
# Velocity P-wave (km/s) = 3.76860 6.59766 5.37269
#
# Compressibility (1/GPa) = 0.08704375
#
# Stress axis : x y z
#
# Youngs Moduli (GPa) = 109.91314 13.51970 92.20561
#
# Poissons Ratio (x) = 0.01217 0.20888
# Poissons Ratio (y) = 0.09892 0.02467
# Poissons Ratio (z) = 0.24899 0.00362
#
# Static dielectric constant tensor:
#      x y z
#    x 4.816700 -0.119330 0.376590 
#    y -0.119330 4.045830 0.411960 
#    z 0.376590 0.411960 4.633240 
# 
# 
# High freq. dielectric constant tensor:
#      x y z
#    x 2.003590 -0.008130 0.014470 
#    y -0.008130 1.938480 0.028370 
#    z 0.014470 0.028370 1.982360 
# 
# From -- ./inp_files/392848.got.cif
#   From: 2010.06.25/outbox.cif.g09.slc.cpg/sg2_197_cif.got.tgz:392848.got - 2010.06.27 13:26:56.
