data_PCOD8008050
_publ_section_title
;
Structure prediction by ZEFSAII (Michael W. Deem and Ramdas Pophale) SiO2 
 PCOD8008050
Probable space group: P -1
;
_chemical_formula_sum "Si O2"
_cell_formula_units_Z 16
_cell_length_a 14.414500
_cell_length_b 11.395465
_cell_length_c 9.471752
_cell_angle_alpha 95.403451
_cell_angle_beta 71.851388
_cell_angle_gamma 149.962837
_cell_volume 687.841754
_symmetry_space_group_name_H-M "P -1"
_symmetry_group_IT_number 2
_symmetry_cell_setting 'triclinic'
loop_
_space_group_symop_operation_xyz
x,y,z
-x,-y,-z
loop_
_atom_site_type_symbol
_atom_site_label
_atom_site_fract_x
_atom_site_fract_y
_atom_site_fract_z
Si Si1 0.113357 0.615569 0.107175
Si Si2 0.283038 0.314819 0.525543
Si Si3 0.804826 0.561596 0.909819
Si Si4 0.356779 0.097635 0.971044
Si Si5 0.490309 0.223128 0.614391
Si Si6 0.130273 0.910133 0.549446
Si Si7 0.049481 0.215845 0.833918
Si Si8 0.128909 0.493660 0.606182
O O1 0.222216 0.607206 0.075590
O O2 0.944139 0.455269 0.297952
O O3 0.000000 0.500000 0.000000
O O4 0.283981 0.902032 0.065252
O O5 0.500000 0.500000 0.500000
O O6 0.335784 0.484274 0.421550
O O7 0.129125 0.184323 0.713723
O O8 0.174160 0.085758 0.474963
O O9 0.584157 0.378353 0.945028
O O10 0.973580 0.766918 0.734497
O O11 0.864167 0.692941 0.038186
O O12 0.349553 0.065139 0.802374
O O13 0.202626 0.042373 0.071070
O O14 0.634606 0.258454 0.540179
O O15 0.344817 0.083907 0.530334
O O16 0.041792 0.730007 0.452466
O O17 0.137768 0.423526 0.734370
#
# Coordination Sequence:
#
# PCOD8008050 Si02
#       8
#     2   2   2   2   2   2   2   2
#     4  11  22  44  67  91 129 171 208 267 323 373
#     4   9  22  41  69  94 127 173 213 258 326 371
#     4  12  23  42  66  94 133 168 214 265 313 382
#     4  11  22  41  65  96 129 169 213 260 321 381
#     4  10  20  42  64  95 133 164 210 270 313 377
#     4  11  22  42  66  94 130 166 213 268 313 377
#     4  10  22  42  67  91 134 166 213 265 317 375
#     4  10  22  40  67  93 125 165 217 256 328 373
#
# _framework density 23.261163
#
# number of rings (size 3 to 8) (size 9 to 14) (size 15 to 20)
#    0.000    1.500    5.000    0.375    0.000    9.000 
#    2.250    3.125    0.000    0.000    0.000    0.000 
#    0.000    0.000    0.000    0.000    0.000    0.000 
#
# Total GULP energy -198345.008906 kJ/mol
# GULP energy per Si atom -12396.563057 kJ/mol
# Density = 2.320822 g / cm^3
# Si number density = 23.261163 Si / 1000 Ang^3
#
#
#
# Elastic Constant Matrix: (Units=GPa)
#
#
# Indices 1 2 3 4 5 6 
#
# 1 73.1165 28.1527 31.9689 2.7473 -25.0573 20.1568
# 2 28.1527 66.0092 10.5255 -0.1170 -15.1573 21.8630
# 3 31.9689 10.5255 104.8786 -4.0699 -25.4249 11.5718
# 4 2.7473 -0.1170 -4.0699 33.5180 3.5295 -0.9647
# 5 -25.0573 -15.1573 -25.4249 3.5295 46.5630 -7.7669
# 6 20.1568 21.8630 11.5718 -0.9647 -7.7669 31.9822
#
#
#
# Elastic Compliance Matrix: (Units=1/GPa)
#
#
# Indices 1 2 3 4 5 6 
#
# 1 0.021711 -0.004506 -0.003714 -0.003220 0.007162 -0.007617
# 2 -0.004506 0.021433 0.001298 -0.000082 0.003354 -0.011469
# 3 -0.003714 0.001298 0.011870 0.001224 0.004528 -0.001705
# 4 -0.003220 -0.000082 0.001224 0.030627 -0.003110 0.001810
# 5 0.007162 0.003354 0.004528 -0.003110 0.028876 -0.001526
# 6 -0.007617 -0.011469 -0.001705 0.001810 -0.001526 0.044209
#
#
# Mechanical properties :
#
#
# Convention : Reuss Voigt Hill
#
# Bulk Modulus (GPa) = 24.28928 42.81092 33.55010
# Shear Modulus (GPa) = 26.83951 33.96979 30.40465
#
# Velocity S-wave (km/s) = 3.40050 3.82562 3.61930
# Velocity P-wave (km/s) = 5.08748 6.16102 5.64981
#
# Compressibility (1/GPa) = 0.04117042
#
# Stress axis : x y z
#
# Youngs Moduli (GPa) = 46.05971 46.65733 84.24625
#
# Poissons Ratio (x) = 0.21022 0.31288
# Poissons Ratio (y) = 0.20753 -0.10933
# Poissons Ratio (z) = 0.17106 -0.06055
#
# Static dielectric constant tensor:
#      x y z
#    x 4.614760 -0.157610 -0.205390 
#    y -0.157610 4.201490 -0.246530 
#    z -0.205390 -0.246530 4.448420 
# 
# 
# High freq. dielectric constant tensor:
#      x y z
#    x 1.916580 0.017100 -0.012490 
#    y 0.017100 1.905800 -0.008840 
#    z -0.012490 -0.008840 1.924170 
# 
# From -- ./inp_files/221923.got.cif
#   From: 2010.06.25/outbox.cif.g09.slc.cpg/sg2_111_cif.got.tgz:221923.got - 2010.06.27 13:26:56.
