data_PCOD8008162
_publ_section_title
;
Structure prediction by ZEFSAII (Michael W. Deem and Ramdas Pophale) SiO2 
 PCOD8008162
Probable space group: P -1
;
_chemical_formula_sum "Si O2"
_cell_formula_units_Z 16
_cell_length_a 13.747812
_cell_length_b 11.506455
_cell_length_c 9.224656
_cell_angle_alpha 116.918161
_cell_angle_beta 120.457687
_cell_angle_gamma 111.558417
_cell_volume 706.533726
_symmetry_space_group_name_H-M "P -1"
_symmetry_group_IT_number 2
_symmetry_cell_setting 'triclinic'
loop_
_space_group_symop_operation_xyz
x,y,z
-x,-y,-z
loop_
_atom_site_type_symbol
_atom_site_label
_atom_site_fract_x
_atom_site_fract_y
_atom_site_fract_z
Si Si1 0.799161 0.685151 0.496441
Si Si2 0.171062 0.689342 0.636459
Si Si3 0.194399 0.821919 0.425071
Si Si4 0.012749 0.933636 0.321427
Si Si5 0.399000 0.718238 0.992536
Si Si6 0.295908 0.299120 0.260849
Si Si7 0.825639 0.093069 0.043474
Si Si8 0.708072 0.198151 0.798001
O O1 0.640398 0.471696 0.164157
O O2 0.752633 0.660601 0.614326
O O3 0.842178 0.862481 0.554749
O O4 0.969060 0.742570 0.662020
O O5 0.130297 0.675311 0.428687
O O6 0.322961 0.716263 0.786813
O O7 0.000000 0.500000 0.500000
O O8 0.258072 0.902542 0.882228
O O9 0.061666 0.825983 0.315521
O O10 0.188786 0.710132 0.226762
O O11 0.391866 0.062923 0.717502
O O12 0.000000 0.000000 0.500000
O O13 0.820198 0.763684 0.001415
O O14 0.280770 0.664703 0.011681
O O15 0.500000 0.500000 0.500000
O O16 0.273659 0.128895 0.186021
O O17 0.798964 0.153929 0.914317
O O18 0.500000 0.000000 0.500000
#
# Coordination Sequence:
#
# PCOD8008162 Si02
#       8
#     2   2   2   2   2   2   2   2
#     4  11  22  42  70  94 135 179 229 267 343 410
#     4  11  22  41  68  96 132 180 227 269 332 410
#     4  11  22  42  68  96 140 172 223 286 338 390
#     4  11  25  45  69 101 136 179 221 289 343 388
#     4  10  23  40  68  99 130 182 226 269 335 415
#     4  11  25  44  68 100 131 181 234 270 335 417
#     4  10  20  42  67  86 136 179 217 274 329 406
#     4   9  20  40  62  96 132 170 217 280 344 381
#
# _framework density 22.645769999999999
#
# number of rings (size 3 to 8) (size 9 to 14) (size 15 to 20)
#    0.000    1.500    1.250    4.875    3.500    0.500 
#    4.500    2.500    0.000    0.000    0.000    0.000 
#    0.000    0.000    0.000    0.000    0.000    0.000 
#
# Total GULP energy -198266.516462 kJ/mol
# GULP energy per Si atom -12391.657279 kJ/mol
# Density = 2.259423 g / cm^3
# Si number density = 22.645770 Si / 1000 Ang^3
#
#
#
# Elastic Constant Matrix: (Units=GPa)
#
#
# Indices 1 2 3 4 5 6 
#
# 1 90.8983 46.3266 25.3757 -6.1896 -23.7813 11.5527
# 2 46.3266 103.8334 40.3021 -23.5728 -3.1161 19.1713
# 3 25.3757 40.3021 90.9993 -1.9438 -15.5321 10.3230
# 4 -6.1896 -23.5728 -1.9438 37.3338 4.5575 -6.0325
# 5 -23.7813 -3.1161 -15.5321 4.5575 40.6248 -5.7604
# 6 11.5527 19.1713 10.3230 -6.0325 -5.7604 36.6422
#
#
#
# Elastic Compliance Matrix: (Units=1/GPa)
#
#
# Indices 1 2 3 4 5 6 
#
# 1 0.017711 -0.008640 0.000595 -0.003786 0.010325 -0.000231
# 2 -0.008640 0.019110 -0.006636 0.010467 -0.008004 -0.004940
# 3 0.000595 -0.006636 0.014744 -0.004140 0.005852 -0.000631
# 4 -0.003786 0.010467 -0.004140 0.033575 -0.006567 0.001379
# 5 0.010325 -0.008004 0.005852 -0.006567 0.033512 0.003471
# 6 -0.000231 -0.004940 -0.000631 0.001379 0.003471 0.030899
#
#
# Mechanical properties :
#
#
# Convention : Reuss Voigt Hill
#
# Bulk Modulus (GPa) = 45.03885 56.63776 50.83831
# Shear Modulus (GPa) = 26.83641 34.50194 30.66918
#
# Velocity S-wave (km/s) = 3.44619 3.90750 3.68407
# Velocity P-wave (km/s) = 5.98052 6.73964 6.37139
#
# Compressibility (1/GPa) = 0.02220305
#
# Stress axis : x y z
#
# Youngs Moduli (GPa) = 56.46062 52.32985 67.82394
#
# Poissons Ratio (x) = 0.45214 -0.04038
# Poissons Ratio (y) = 0.48783 0.45009
# Poissons Ratio (z) = -0.03361 0.34727
#
# Static dielectric constant tensor:
#      x y z
#    x 4.145100 -0.216610 -0.218410 
#    y -0.216610 3.387440 -0.225910 
#    z -0.218410 -0.225910 4.258890 
# 
# 
# High freq. dielectric constant tensor:
#      x y z
#    x 1.903560 -0.001960 -0.010630 
#    y -0.001960 1.878820 -0.012030 
#    z -0.010630 -0.012030 1.904680 
# 
# From -- ./inp_files/308166.got.cif
#   From: 2010.06.25/outbox.cif.g09.slc.cpg/sg2_155_cif.got.tgz:308166.got - 2010.06.27 13:26:56.
