data_PCOD8008403
_publ_section_title
;
Structure prediction by ZEFSAII (Michael W. Deem and Ramdas Pophale) SiO2 
 PCOD8008403
Probable space group: P -1
;
_chemical_formula_sum "Si O2"
_cell_formula_units_Z 14
_cell_length_a 8.211054
_cell_length_b 23.215263
_cell_length_c 14.658447
_cell_angle_alpha 21.345120
_cell_angle_beta 140.545585
_cell_angle_gamma 140.721430
_cell_volume 627.824064
_symmetry_space_group_name_H-M "P -1"
_symmetry_group_IT_number 2
_symmetry_cell_setting 'triclinic'
loop_
_space_group_symop_operation_xyz
x,y,z
-x,-y,-z
loop_
_atom_site_type_symbol
_atom_site_label
_atom_site_fract_x
_atom_site_fract_y
_atom_site_fract_z
Si Si1 0.179256 0.469944 0.490290
Si Si2 0.761411 0.270203 0.010215
Si Si3 0.431884 0.968839 0.231620
Si Si4 0.973339 0.903523 0.016305
Si Si5 0.628233 0.518518 0.244316
Si Si6 0.643932 0.656568 0.775627
Si Si7 0.592350 0.843648 0.801670
O O1 0.119062 0.281928 0.712204
O O2 0.366383 0.512910 0.597904
O O3 0.907414 0.521410 0.316278
O O4 0.299170 0.575692 0.297326
O O5 0.562379 0.234189 0.060754
O O6 0.050404 0.296081 0.137986
O O7 0.690145 0.116274 0.136916
O O8 0.517162 0.803547 0.532028
O O9 0.289738 0.967239 0.073049
O O10 0.192542 0.979841 0.180009
O O11 0.902165 0.901268 0.880883
O O12 0.400443 0.384818 0.291139
O O13 0.568701 0.697936 0.933652
O O14 0.500000 0.500000 0.000000
O O15 0.500000 0.000000 0.500000
#
# Coordination Sequence:
#
# PCOD8008403 Si02
#       7
#     2   2   2   2   2   2   2
#     4  10  20  43  66  95 122 170 221 261 321 381
#     4  11  24  41  68  94 131 170 219 263 317 385
#     4  10  21  37  60  98 121 165 219 257 311 376
#     4   9  19  39  65  87 127 167 210 262 316 378
#     4  10  22  39  69  89 131 170 210 267 319 378
#     4  12  23  40  66  97 132 171 213 264 324 384
#     4  10  24  42  64  96 134 166 211 270 329 373
#
# _framework density 22.299240000000001
#
# number of rings (size 3 to 8) (size 9 to 14) (size 15 to 20)
#    0.000    1.714    2.857    0.429    4.000    6.857 
#    2.571    0.714    0.000    0.000    0.000    0.000 
#    0.000    0.000    0.000    0.000    0.000    0.000 
#
# Total GULP energy -173461.030728 kJ/mol
# GULP energy per Si atom -12390.073623 kJ/mol
# Density = 2.224849 g / cm^3
# Si number density = 22.299240 Si / 1000 Ang^3
#
#
#
# Elastic Constant Matrix: (Units=GPa)
#
#
# Indices 1 2 3 4 5 6 
#
# 1 35.8448 20.1852 31.9632 -0.3160 3.6342 -9.5593
# 2 20.1852 206.6067 60.3281 10.0470 8.0416 3.3026
# 3 31.9632 60.3281 165.5697 -5.8699 29.6889 -12.5107
# 4 -0.3160 10.0470 -5.8699 34.8924 -8.2299 9.1809
# 5 3.6342 8.0416 29.6889 -8.2299 36.2609 -0.0525
# 6 -9.5593 3.3026 -12.5107 9.1809 -0.0525 25.7404
#
#
#
# Elastic Compliance Matrix: (Units=1/GPa)
#
#
# Indices 1 2 3 4 5 6 
#
# 1 0.037431 -0.002043 -0.005783 -0.003155 0.000738 0.012479
# 2 -0.002043 0.005689 -0.001904 -0.001436 0.000174 -0.001902
# 3 -0.005783 -0.001904 0.009224 -0.000201 -0.006593 0.002639
# 4 -0.003155 -0.001436 -0.000201 0.034570 0.008626 -0.013398
# 5 0.000738 0.000174 -0.006593 0.008626 0.034812 -0.005958
# 6 0.012479 -0.001902 0.002639 -0.013398 -0.005958 0.049777
#
#
# Mechanical properties :
#
#
# Convention : Reuss Voigt Hill
#
# Bulk Modulus (GPa) = 30.41032 70.33047 50.37040
# Shear Modulus (GPa) = 24.76161 39.08171 31.92166
#
# Velocity S-wave (km/s) = 3.33592 4.19095 3.78764
# Velocity P-wave (km/s) = 5.33899 7.41799 6.46264
#
# Compressibility (1/GPa) = 0.03288357
#
# Stress axis : x y z
#
# Youngs Moduli (GPa) = 26.71615 175.77091 108.40885
#
# Poissons Ratio (x) = 0.35913 0.62691
# Poissons Ratio (y) = 0.05459 0.20644
# Poissons Ratio (z) = 0.15450 0.33472
#
# Static dielectric constant tensor:
#      x y z
#    x 3.662610 -0.152670 0.306730 
#    y -0.152670 5.282050 0.280870 
#    z 0.306730 0.280870 4.266960 
# 
# 
# High freq. dielectric constant tensor:
#      x y z
#    x 1.837470 -0.013270 0.032550 
#    y -0.013270 1.901310 0.010160 
#    z 0.032550 0.010160 1.890460 
# 
# From -- ./inp_files/212500.got.cif
#   From: 2010.06.25/outbox.cif.g09.slc.cpg/sg2_107_cif.got.tgz:212500.got - 2010.06.27 13:26:56.
