data_PCOD8008114
_publ_section_title
;
Structure prediction by ZEFSAII (Michael W. Deem and Ramdas Pophale) SiO2 
 PCOD8008114
Probable space group: P -1
;
_chemical_formula_sum "Si O2"
_cell_formula_units_Z 14
_cell_length_a 11.671703
_cell_length_b 11.023524
_cell_length_c 9.784608
_cell_angle_alpha 109.441188
_cell_angle_beta 41.452216
_cell_angle_gamma 127.214450
_cell_volume 646.141600
_symmetry_space_group_name_H-M "P -1"
_symmetry_group_IT_number 2
_symmetry_cell_setting 'triclinic'
loop_
_space_group_symop_operation_xyz
x,y,z
-x,-y,-z
loop_
_atom_site_type_symbol
_atom_site_label
_atom_site_fract_x
_atom_site_fract_y
_atom_site_fract_z
Si Si1 0.209354 0.858153 0.029468
Si Si2 0.076718 0.864781 0.672278
Si Si3 0.857574 0.681863 0.067720
Si Si4 0.297555 0.165963 0.143700
Si Si5 0.417952 0.213534 0.558945
Si Si6 0.451811 0.853011 0.308118
Si Si7 0.378765 0.671270 0.861945
O O1 0.277888 0.766730 0.028450
O O2 0.389056 0.959216 0.790131
O O3 0.989720 0.731676 0.107814
O O4 0.191513 0.978886 0.185175
O O5 0.214921 0.802906 0.471109
O O6 0.878968 0.804050 0.726024
O O7 0.213173 0.052246 0.626673
O O8 0.996216 0.805462 0.873772
O O9 0.651097 0.679458 0.276856
O O10 0.785566 0.509664 0.021862
O O11 0.404084 0.256239 0.222460
O O12 0.479331 0.233839 0.888160
O O13 0.535692 0.182728 0.559220
O O14 0.581012 0.312682 0.329885
#
# Coordination Sequence:
#
# PCOD8008114 Si02
#       7
#     2   2   2   2   2   2   2
#     4  10  20  42  66  91 128 167 221 257 315 382
#     4  12  20  41  74  91 122 174 229 251 313 387
#     4  12  23  40  66 100 127 173 213 270 319 382
#     4  10  23  44  65  98 129 172 211 268 315 392
#     4  12  20  43  65  95 126 172 221 265 302 393
#     4  10  21  40  74  93 118 167 234 261 298 378
#     4  12  26  39  63  98 142 162 203 277 341 356
#
# _framework density 21.667078
#
# number of rings (size 3 to 8) (size 9 to 14) (size 15 to 20)
#    0.857    0.000    5.714    3.000    0.000    1.143 
#    2.571    0.714    0.000    0.000    0.000    0.000 
#    0.000    0.000    0.000    0.000    0.000    0.000 
#
# Total GULP energy -173608.108370 kJ/mol
# GULP energy per Si atom -12400.579169 kJ/mol
# Density = 2.161776 g / cm^3
# Si number density = 21.667078 Si / 1000 Ang^3
#
#
#
# Elastic Constant Matrix: (Units=GPa)
#
#
# Indices 1 2 3 4 5 6 
#
# 1 106.6160 24.0188 20.5553 1.3926 -32.7598 4.2602
# 2 24.0188 61.8076 7.2246 -11.8906 -8.5591 11.7189
# 3 20.5553 7.2246 70.6074 11.7400 -23.9156 -7.4084
# 4 1.3926 -11.8906 11.7400 19.1220 -4.6404 -2.3533
# 5 -32.7598 -8.5591 -23.9156 -4.6404 40.8585 -0.0078
# 6 4.2602 11.7189 -7.4084 -2.3533 -0.0078 21.8159
#
#
#
# Elastic Compliance Matrix: (Units=1/GPa)
#
#
# Indices 1 2 3 4 5 6 
#
# 1 0.013282 -0.003899 -0.000084 -0.001075 0.009662 -0.000640
# 2 -0.003899 0.023971 -0.005137 0.017064 0.000824 -0.012018
# 3 -0.000084 -0.005137 0.021008 -0.012677 0.009715 0.008546
# 4 -0.001075 0.017064 -0.012677 0.070888 0.003343 -0.005613
# 5 0.009662 0.000824 0.009715 0.003343 0.038460 0.001344
# 6 -0.000640 -0.012018 0.008546 -0.005613 0.001344 0.054716
#
#
# Mechanical properties :
#
#
# Convention : Reuss Voigt Hill
#
# Bulk Modulus (GPa) = 24.98668 38.06982 31.52825
# Shear Modulus (GPa) = 19.69237 28.84143 24.26690
#
# Velocity S-wave (km/s) = 3.01800 3.65241 3.35026
# Velocity P-wave (km/s) = 4.86843 5.94939 5.43585
#
# Compressibility (1/GPa) = 0.04002132
#
# Stress axis : x y z
#
# Youngs Moduli (GPa) = 75.28770 41.71784 47.60119
#
# Poissons Ratio (x) = 0.16267 0.00399
# Poissons Ratio (y) = 0.29357 0.24451
# Poissons Ratio (z) = 0.00631 0.21429
#
# Static dielectric constant tensor:
#      x y z
#    x 3.804220 -0.212350 -0.177190 
#    y -0.212350 3.580890 0.099400 
#    z -0.177190 0.099400 3.753900 
# 
# 
# High freq. dielectric constant tensor:
#      x y z
#    x 1.855300 -0.012730 -0.015080 
#    y -0.012730 1.820230 0.008440 
#    z -0.015080 0.008440 1.841440 
# 
# From -- ./inp_files/423872.got.cif
#   From: 2010.06.25/outbox.cif.g09.slc.cpg/sg2_212_cif.got.tgz:423872.got - 2010.06.27 13:26:56.
