data_PCOD8008736
_publ_section_title
;
Structure prediction by ZEFSAII (Michael W. Deem and Ramdas Pophale) SiO2 
 PCOD8008736
Probable space group: P -1
;
_chemical_formula_sum "Si O2"
_cell_formula_units_Z 14
_cell_length_a 14.139857
_cell_length_b 9.083883
_cell_length_c 13.829145
_cell_angle_alpha 97.608165
_cell_angle_beta 148.391196
_cell_angle_gamma 61.699022
_cell_volume 662.987121
_symmetry_space_group_name_H-M "P -1"
_symmetry_group_IT_number 2
_symmetry_cell_setting 'triclinic'
loop_
_space_group_symop_operation_xyz
x,y,z
-x,-y,-z
loop_
_atom_site_type_symbol
_atom_site_label
_atom_site_fract_x
_atom_site_fract_y
_atom_site_fract_z
Si Si1 0.892515 0.819606 0.317335
Si Si2 0.852263 0.445997 0.664182
Si Si3 0.397574 0.525211 0.808912
Si Si4 0.915210 0.672660 0.867318
Si Si5 0.241503 0.049142 0.088722
Si Si6 0.452723 0.163534 0.843019
Si Si7 0.677510 0.333601 0.851791
O O1 0.744093 0.829860 0.276717
O O2 0.989680 0.645608 0.306395
O O3 0.138209 0.759144 0.573572
O O4 0.703311 0.042011 0.118049
O O5 0.822042 0.636336 0.687985
O O6 0.577921 0.534391 0.419581
O O7 0.984126 0.265987 0.842318
O O8 0.323275 0.394217 0.730668
O O9 0.615826 0.432470 0.913648
O O10 0.500000 0.500000 0.000000
O O11 0.704179 0.896187 0.757045
O O12 0.000000 0.500000 0.000000
O O13 0.144641 0.650039 0.041469
O O14 0.468976 0.949066 0.202992
O O15 0.192456 0.902304 0.048369
#
# Coordination Sequence:
#
# PCOD8008736 Si02
#       7
#     2   2   2   2   2   2   2
#     4   9  18  35  58  80 109 150 181 229 285 330
#     4   9  20  37  60  84 112 149 191 230 284 337
#     4  10  21  34  54  84 114 144 186 227 281 341
#     4  10  21  37  61  86 111 147 196 234 276 340
#     4   9  19  37  56  83 116 147 188 230 281 339
#     4   9  18  34  57  78 113 147 182 229 277 336
#     4  10  21  39  58  82 117 152 182 238 289 326
#
# _framework density 21.116548000000002
#
# number of rings (size 3 to 8) (size 9 to 14) (size 15 to 20)
#    0.000    2.571    0.000    0.857    2.000    3.429 
#    0.000    2.857    3.143    0.000    0.000    0.000 
#    0.000    0.000    0.000    0.000    0.000    0.000 
#
# Total GULP energy -173468.563466 kJ/mol
# GULP energy per Si atom -12390.611676 kJ/mol
# Density = 2.106849 g / cm^3
# Si number density = 21.116548 Si / 1000 Ang^3
#
#
#
# Elastic Constant Matrix: (Units=GPa)
#
#
# Indices 1 2 3 4 5 6 
#
# 1 120.5709 46.8993 15.4566 8.0413 12.2295 -5.5656
# 2 46.8993 71.0361 33.6941 1.7660 5.7157 -9.8633
# 3 15.4566 33.6941 59.8043 -0.6711 -5.9799 -15.6464
# 4 8.0413 1.7660 -0.6711 28.6599 -0.2968 -9.0852
# 5 12.2295 5.7157 -5.9799 -0.2968 24.1202 3.9483
# 6 -5.5656 -9.8633 -15.6464 -9.0852 3.9483 35.6639
#
#
#
# Elastic Compliance Matrix: (Units=1/GPa)
#
#
# Indices 1 2 3 4 5 6 
#
# 1 0.011823 -0.007878 0.000893 -0.002933 -0.003900 -0.000257
# 2 -0.007878 0.025950 -0.012848 0.000593 -0.005508 0.001072
# 3 0.000893 -0.012848 0.026776 0.003932 0.007894 0.008461
# 4 -0.002933 0.000593 0.003932 0.039381 0.000947 0.011359
# 5 -0.003900 -0.005508 0.007894 0.000947 0.047310 -0.003666
# 6 -0.000257 0.001072 0.008461 0.011359 -0.003666 0.035307
#
#
# Mechanical properties :
#
#
# Convention : Reuss Voigt Hill
#
# Bulk Modulus (GPa) = 40.18938 49.27905 44.73421
# Shear Modulus (GPa) = 21.32108 28.04623 24.68365
#
# Velocity S-wave (km/s) = 3.18100 3.64835 3.42266
# Velocity P-wave (km/s) = 5.70659 6.41363 6.07041
#
# Compressibility (1/GPa) = 0.02488220
#
# Stress axis : x y z
#
# Youngs Moduli (GPa) = 84.57881 38.53537 37.34661
#
# Poissons Ratio (x) = 0.30360 -0.03334
# Poissons Ratio (y) = 0.66634 0.47983
# Poissons Ratio (z) = -0.07550 0.49510
#
# Static dielectric constant tensor:
#      x y z
#    x 3.993880 -0.376100 -0.242320 
#    y -0.376100 4.482370 -0.112680 
#    z -0.242320 -0.112680 3.779850 
# 
# 
# High freq. dielectric constant tensor:
#      x y z
#    x 1.839200 -0.021170 -0.014260 
#    y -0.021170 1.817630 -0.019750 
#    z -0.014260 -0.019750 1.813610 
# 
# From -- ./inp_files/48540.got.cif
#   From: 2010.06.25/outbox.cif.g09.slc.cpg/sg2_25_cif.got.tgz:48540.got - 2010.06.27 13:26:56.
