data_PCOD8008125
_publ_section_title
;
Structure prediction by ZEFSAII (Michael W. Deem and Ramdas Pophale) SiO2 
 PCOD8008125
Probable space group: P -1
;
_chemical_formula_sum "Si O2"
_cell_formula_units_Z 16
_cell_length_a 10.733442
_cell_length_b 9.723488
_cell_length_c 15.666318
_cell_angle_alpha 142.634884
_cell_angle_beta 131.359001
_cell_angle_gamma 69.326400
_cell_volume 689.577505
_symmetry_space_group_name_H-M "P -1"
_symmetry_group_IT_number 2
_symmetry_cell_setting 'triclinic'
loop_
_space_group_symop_operation_xyz
x,y,z
-x,-y,-z
loop_
_atom_site_type_symbol
_atom_site_label
_atom_site_fract_x
_atom_site_fract_y
_atom_site_fract_z
Si Si1 0.589860 0.070663 0.985821
Si Si2 0.277372 0.164363 0.826242
Si Si3 0.632481 0.334410 0.810007
Si Si4 0.130686 0.543667 0.162956
Si Si5 0.129437 0.949368 0.168263
Si Si6 0.695276 0.014637 0.427501
Si Si7 0.929845 0.217067 0.308320
Si Si8 0.572795 0.782044 0.681339
O O1 0.491394 0.223789 0.965696
O O2 0.564187 0.830676 0.801301
O O3 0.799792 0.207380 0.165016
O O4 0.500000 0.000000 0.000000
O O5 0.219879 0.080391 0.660907
O O6 0.162403 0.949925 0.733575
O O7 0.261361 0.424957 0.964896
O O8 0.671552 0.415063 0.767141
O O9 0.722440 0.135679 0.763840
O O10 0.420294 0.213462 0.675667
O O11 0.146408 0.777891 0.344833
O O12 0.000000 0.500000 0.000000
O O13 0.051149 0.289181 0.054425
O O14 0.220731 0.092756 0.194705
O O15 0.085689 0.131117 0.303215
O O16 0.558393 0.126869 0.385979
O O17 0.000000 0.500000 0.500000
O O18 0.500000 0.500000 0.500000
#
# Coordination Sequence:
#
# PCOD8008125 Si02
#       8
#     2   2   2   2   2   2   2   2
#     4   9  22  41  59  92 125 171 212 257 315 374
#     4  10  21  42  66  92 131 167 216 268 313 384
#     4  10  20  42  66  93 125 165 216 263 321 381
#     4  10  21  41  61  92 132 160 208 260 325 381
#     4  10  23  40  64  92 131 165 214 267 323 377
#     4  10  22  38  64  96 125 168 214 263 320 385
#     4  11  24  41  63  92 132 174 214 262 328 384
#     4  10  23  39  64  93 127 168 220 263 313 382
#
# _framework density 23.202612999999999
#
# number of rings (size 3 to 8) (size 9 to 14) (size 15 to 20)
#    0.000    2.000    1.250    0.750    7.000    1.500 
#    6.750    2.500    0.000    0.000    0.000    0.000 
#    0.000    0.000    0.000    0.000    0.000    0.000 
#
# Total GULP energy -198208.878259 kJ/mol
# GULP energy per Si atom -12388.054891 kJ/mol
# Density = 2.314980 g / cm^3
# Si number density = 23.202613 Si / 1000 Ang^3
#
#
#
# Elastic Constant Matrix: (Units=GPa)
#
#
# Indices 1 2 3 4 5 6 
#
# 1 134.5014 34.7901 60.6164 16.2645 -20.6220 15.1225
# 2 34.7901 46.1063 41.7132 11.0985 -2.8979 -0.2732
# 3 60.6164 41.7132 175.5616 20.3035 -26.7486 9.7358
# 4 16.2645 11.0985 20.3035 43.6230 3.8788 -0.7784
# 5 -20.6220 -2.8979 -26.7486 3.8788 45.1269 8.7976
# 6 15.1225 -0.2732 9.7358 -0.7784 8.7976 36.3298
#
#
#
# Elastic Compliance Matrix: (Units=1/GPa)
#
#
# Indices 1 2 3 4 5 6 
#
# 1 0.011492 -0.006979 -0.000773 -0.002771 0.005770 -0.006086
# 2 -0.006979 0.032944 -0.006416 -0.002156 -0.005911 0.006258
# 3 -0.000773 -0.006416 0.008810 -0.002718 0.005362 -0.003444
# 4 -0.002771 -0.002156 -0.002718 0.026377 -0.006042 0.003894
# 5 0.005770 -0.005911 0.005362 -0.006042 0.030329 -0.011357
# 6 -0.006086 0.006258 -0.003444 0.003894 -0.011357 0.033863
#
#
# Mechanical properties :
#
#
# Convention : Reuss Voigt Hill
#
# Bulk Modulus (GPa) = 40.14358 70.04541 55.09449
# Shear Modulus (GPa) = 27.70790 39.61924 33.66357
#
# Velocity S-wave (km/s) = 3.45943 4.13671 3.81314
# Velocity P-wave (km/s) = 5.77025 7.28496 6.57139
#
# Compressibility (1/GPa) = 0.02491058
#
# Stress axis : x y z
#
# Youngs Moduli (GPa) = 87.01462 30.35410 113.51381
#
# Poissons Ratio (x) = 0.21184 0.08770
# Poissons Ratio (y) = 0.60727 0.72834
# Poissons Ratio (z) = 0.06723 0.19476
#
# Static dielectric constant tensor:
#      x y z
#    x 4.785870 0.034270 0.291850 
#    y 0.034270 4.026750 -0.013990 
#    z 0.291850 -0.013990 4.405690 
# 
# 
# High freq. dielectric constant tensor:
#      x y z
#    x 1.935920 0.004030 -0.006030 
#    y 0.004030 1.886350 0.011950 
#    z -0.006030 0.011950 1.915370 
# 
# From -- ./inp_files/569026.got.cif
#   From: 2010.06.25/outbox.cif.g09.slc.cpg/sg2_285_cif.got.tgz:569026.got - 2010.06.27 13:26:56.
