data_PCOD8008901
_publ_section_title
;
Structure prediction by ZEFSAII (Michael W. Deem and Ramdas Pophale) SiO2 
 PCOD8008901
Probable space group: P -1
;
_chemical_formula_sum "Si O2"
_cell_formula_units_Z 12
_cell_length_a 13.632681
_cell_length_b 26.524161
_cell_length_c 25.909135
_cell_angle_alpha 168.640466
_cell_angle_beta 157.971199
_cell_angle_gamma 21.139596
_cell_volume 654.999198
_symmetry_space_group_name_H-M "P -1"
_symmetry_group_IT_number 2
_symmetry_cell_setting 'triclinic'
loop_
_space_group_symop_operation_xyz
x,y,z
-x,-y,-z
loop_
_atom_site_type_symbol
_atom_site_label
_atom_site_fract_x
_atom_site_fract_y
_atom_site_fract_z
Si Si1 0.918627 0.211706 0.015326
Si Si2 0.227113 0.628088 0.591807
Si Si3 0.677833 0.610963 0.054513
Si Si4 0.235758 0.903709 0.773984
Si Si5 0.177573 0.707119 0.436215
Si Si6 0.872348 0.035729 0.529718
O O1 0.592491 0.308858 0.961614
O O2 0.039162 0.442107 0.324920
O O3 0.070509 0.933452 0.842149
O O4 0.982580 0.145260 0.918942
O O5 0.289315 0.637686 0.569913
O O6 0.520905 0.506627 0.641557
O O7 0.697463 0.347176 0.766145
O O8 0.668789 0.854519 0.254824
O O9 0.944113 0.558312 0.169417
O O10 0.152776 0.852771 0.625211
O O11 0.500000 0.000000 0.000000
O O12 0.117892 0.935136 0.591093
O O13 0.000000 0.000000 0.500000
#
# Coordination Sequence:
#
# PCOD8008901 Si02
#       6
#     2   2   2   2   2   2
#     4  10  22  36  58  86 129 158 184 241 297 346
#     4  10  21  35  58  82 123 158 194 228 289 346
#     4  10  23  39  62  89 118 152 199 248 301 339
#     4  10  21  35  59  90 124 163 195 230 285 356
#     4  10  22  35  63  89 115 157 208 237 281 353
#     4  10  23  41  66  86 114 152 203 253 297 347
#
# _framework density 18.320632
#
# number of rings (size 3 to 8) (size 9 to 14) (size 15 to 20)
#    2.000    0.000    1.667    2.000    4.667    0.667 
#    0.000    1.667    0.000    6.000    0.000    0.000 
#    0.000    0.000    0.000    0.000    0.000    0.000 
#
# Total GULP energy -148668.291821 kJ/mol
# GULP energy per Si atom -12389.024318 kJ/mol
# Density = 1.827893 g / cm^3
# Si number density = 18.320632 Si / 1000 Ang^3
#
#
#
# Elastic Constant Matrix: (Units=GPa)
#
#
# Indices 1 2 3 4 5 6 
#
# 1 98.9585 46.2798 38.2721 -1.8729 -0.0662 -8.3152
# 2 46.2798 99.2624 50.8838 -11.2693 3.2896 -16.2012
# 3 38.2721 50.8838 141.4354 9.3348 12.3743 -12.1686
# 4 -1.8729 -11.2693 9.3348 25.6857 -9.4288 6.7225
# 5 -0.0662 3.2896 12.3743 -9.4288 22.8094 4.6814
# 6 -8.3152 -16.2012 -12.1686 6.7225 4.6814 18.5426
#
#
#
# Elastic Compliance Matrix: (Units=1/GPa)
#
#
# Indices 1 2 3 4 5 6 
#
# 1 0.013311 -0.005359 -0.001919 0.000224 0.002063 -0.000575
# 2 -0.005359 0.016832 -0.004903 0.008274 0.002518 0.005450
# 3 -0.001919 -0.004903 0.012935 -0.016220 -0.015729 0.013196
# 4 0.000224 0.008274 -0.016220 0.077866 0.048797 -0.043864
# 5 0.002063 0.002518 -0.015729 0.048797 0.081521 -0.045469
# 6 -0.000575 0.005450 0.013196 -0.043864 -0.045469 0.094477
#
#
# Mechanical properties :
#
#
# Convention : Reuss Voigt Hill
#
# Bulk Modulus (GPa) = 53.42765 67.83641 60.63203
# Shear Modulus (GPa) = 15.26524 27.02223 21.14374
#
# Velocity S-wave (km/s) = 2.88970 3.84469 3.40088
# Velocity P-wave (km/s) = 6.35293 7.53768 6.97052
#
# Compressibility (1/GPa) = 0.01871690
#
# Stress axis : x y z
#
# Youngs Moduli (GPa) = 75.12609 59.41179 77.30736
#
# Poissons Ratio (x) = 0.31840 0.14832
# Poissons Ratio (y) = 0.40262 0.37902
# Poissons Ratio (z) = 0.14413 0.29128
#
# Static dielectric constant tensor:
#      x y z
#    x 3.157620 -0.026650 -0.035220 
#    y -0.026650 3.280680 0.036450 
#    z -0.035220 0.036450 3.629020 
# 
# 
# High freq. dielectric constant tensor:
#      x y z
#    x 1.681090 -0.017580 0.008530 
#    y -0.017580 1.695130 0.009310 
#    z 0.008530 0.009310 1.723440 
# 
# From -- ./inp_files/24706.got.cif
#   From: 2010.06.25/outbox.cif.g09.slc.cpg/sg2_13_cif.got.tgz:24706.got - 2010.06.27 13:26:56.
