data_PCOD8008931
_publ_section_title
;
Structure prediction by ZEFSAII (Michael W. Deem and Ramdas Pophale) SiO2 
 PCOD8008931
Probable space group: P -1
;
_chemical_formula_sum "Si O2"
_cell_formula_units_Z 16
_cell_length_a 9.979633
_cell_length_b 11.951067
_cell_length_c 11.582553
_cell_angle_alpha 47.982180
_cell_angle_beta 100.829740
_cell_angle_gamma 126.662975
_cell_volume 769.523789
_symmetry_space_group_name_H-M "P -1"
_symmetry_group_IT_number 2
_symmetry_cell_setting 'triclinic'
loop_
_space_group_symop_operation_xyz
x,y,z
-x,-y,-z
loop_
_atom_site_type_symbol
_atom_site_label
_atom_site_fract_x
_atom_site_fract_y
_atom_site_fract_z
Si Si1 0.750056 0.121409 0.428263
Si Si2 0.699738 0.669451 0.095635
Si Si3 0.175872 0.708706 0.919981
Si Si4 0.968788 0.838363 0.838978
Si Si5 0.886742 0.756117 0.512795
Si Si6 0.656544 0.543917 0.418094
Si Si7 0.320315 0.509819 0.134007
Si Si8 0.583700 0.279021 0.398418
O O1 0.722816 0.173779 0.261624
O O2 0.691672 0.200372 0.460560
O O3 0.950853 0.217409 0.421197
O O4 0.618018 0.883934 0.570388
O O5 0.715542 0.701267 0.215658
O O6 0.527251 0.637604 0.044695
O O7 0.672583 0.471600 0.200470
O O8 0.880693 0.847495 0.934515
O O9 0.120974 0.821152 0.904693
O O10 0.292368 0.670833 0.037751
O O11 0.000000 0.500000 0.000000
O O12 0.806781 0.645616 0.877904
O O13 0.062308 0.032593 0.641395
O O14 0.830598 0.644913 0.457379
O O15 0.718583 0.613938 0.670025
O O16 0.500000 0.500000 0.500000
O O17 0.590998 0.338818 0.492810
#
# Coordination Sequence:
#
# PCOD8008931 Si02
#       8
#     2   2   2   2   2   2   2   2
#     4  11  21  39  66  97 130 160 222 271 316 374
#     4  10  22  40  62  87 134 167 212 259 330 376
#     4  10  21  35  59  94 132 155 204 273 332 357
#     4  11  23  36  63  98 127 162 216 277 315 368
#     4  12  23  37  68  96 126 170 223 256 315 396
#     4  10  23  41  63  89 131 179 208 257 324 390
#     4  11  21  37  64  93 128 167 216 264 326 379
#     4   9  22  39  63  93 128 169 206 269 320 373
#
# _framework density 20.792079999999999
#
# number of rings (size 3 to 8) (size 9 to 14) (size 15 to 20)
#    0.750    0.750    3.750    3.000    3.500    3.000 
#    0.000    0.000    0.000    3.000    0.000    0.000 
#    0.000    0.000    0.000    0.000    0.000    0.000 
#
# Total GULP energy -198264.037666 kJ/mol
# GULP energy per Si atom -12391.502354 kJ/mol
# Density = 2.074476 g / cm^3
# Si number density = 20.792080 Si / 1000 Ang^3
#
#
#
# Elastic Constant Matrix: (Units=GPa)
#
#
# Indices 1 2 3 4 5 6 
#
# 1 107.4663 32.9476 43.4932 -1.7877 -2.2016 -17.7353
# 2 32.9476 63.3716 9.7355 7.8783 2.3067 -4.9984
# 3 43.4932 9.7355 109.3787 3.5657 -2.8600 -9.5576
# 4 -1.7877 7.8783 3.5657 25.5869 -5.3852 -1.7295
# 5 -2.2016 2.3067 -2.8600 -5.3852 33.4497 5.8433
# 6 -17.7353 -4.9984 -9.5576 -1.7295 5.8433 23.8956
#
#
#
# Elastic Compliance Matrix: (Units=1/GPa)
#
#
# Indices 1 2 3 4 5 6 
#
# 1 0.014667 -0.006852 -0.004673 0.004394 0.000382 0.007808
# 2 -0.006852 0.020192 0.001072 -0.007475 -0.002909 -0.000262
# 3 -0.004673 0.001072 0.011065 -0.002120 0.000046 0.001017
# 4 0.004394 -0.007475 -0.002120 0.043666 0.007263 0.002234
# 5 0.000382 -0.002909 0.000046 0.007263 0.032651 -0.007766
# 6 0.007808 -0.000262 0.001017 0.002234 -0.007766 0.050056
#
#
# Mechanical properties :
#
#
# Convention : Reuss Voigt Hill
#
# Bulk Modulus (GPa) = 39.97222 50.28548 45.12885
# Shear Modulus (GPa) = 24.80875 29.52245 27.16560
#
# Velocity S-wave (km/s) = 3.45799 3.77223 3.61853
# Velocity P-wave (km/s) = 5.93381 6.57346 6.26181
#
# Compressibility (1/GPa) = 0.02501738
#
# Stress axis : x y z
#
# Youngs Moduli (GPa) = 68.18201 49.52441 90.37905
#
# Poissons Ratio (x) = 0.33933 0.42236
# Poissons Ratio (y) = 0.46716 -0.09688
# Poissons Ratio (z) = 0.31863 -0.05309
#
# Static dielectric constant tensor:
#      x y z
#    x 3.947970 -0.073700 0.040830 
#    y -0.073700 3.578130 0.049670 
#    z 0.040830 0.049670 3.532440 
# 
# 
# High freq. dielectric constant tensor:
#      x y z
#    x 1.818470 -0.003040 -0.009200 
#    y -0.003040 1.779380 -0.002750 
#    z -0.009200 -0.002750 1.812900 
# 
# From -- ./inp_files/389113.got.cif
#   From: 2010.06.25/outbox.cif.g09.slc.cpg/sg2_195_cif.got.tgz:389113.got - 2010.06.27 13:26:56.
