data_PCOD8008669
_publ_section_title
;
Structure prediction by ZEFSAII (Michael W. Deem and Ramdas Pophale) SiO2 
 PCOD8008669
Probable space group: P -1
;
_chemical_formula_sum "Si O2"
_cell_formula_units_Z 16
_cell_length_a 16.851851
_cell_length_b 21.395205
_cell_length_c 9.296876
_cell_angle_alpha 44.193092
_cell_angle_beta 44.927763
_cell_angle_gamma 20.181630
_cell_volume 797.523339
_symmetry_space_group_name_H-M "P -1"
_symmetry_group_IT_number 2
_symmetry_cell_setting 'triclinic'
loop_
_space_group_symop_operation_xyz
x,y,z
-x,-y,-z
loop_
_atom_site_type_symbol
_atom_site_label
_atom_site_fract_x
_atom_site_fract_y
_atom_site_fract_z
Si Si1 0.835870 0.592597 0.270892
Si Si2 0.153978 0.267805 0.591335
Si Si3 0.368195 0.001297 0.206363
Si Si4 0.361729 0.855628 0.001277
Si Si5 0.367578 0.997498 0.527572
Si Si6 0.389289 0.494453 0.731344
Si Si7 0.178991 0.481962 0.884434
Si Si8 0.963944 0.813643 0.930109
O O1 0.563212 0.788680 0.321586
O O2 0.870954 0.498590 0.250253
O O3 0.951248 0.476930 0.460058
O O4 0.953119 0.606750 0.057267
O O5 0.356623 0.178663 0.562932
O O6 0.262449 0.151253 0.500252
O O7 0.040580 0.272905 0.828646
O O8 0.245169 0.089064 0.376929
O O9 0.186619 0.094252 0.170438
O O10 0.500000 0.000000 0.000000
O O11 0.402078 0.721238 0.136672
O O12 0.591275 0.732331 0.996487
O O13 0.136894 0.032361 0.100329
O O14 0.329776 0.929296 0.769733
O O15 0.500000 0.500000 0.500000
O O16 0.213838 0.563420 0.735833
O O17 0.235030 0.638830 0.825663
#
# Coordination Sequence:
#
# PCOD8008669 Si02
#       8
#     2   2   2   2   2   2   2   2
#     4  11  21  33  57  85 127 157 183 238 293 357
#     4  10  21  34  53  81 120 162 190 226 292 356
#     4  12  23  31  52  87 122 158 196 235 283 357
#     4   9  20  40  54  86 119 152 194 239 290 348
#     4  10  21  32  53  80 126 156 191 231 289 350
#     4  10  22  40  65  84 110 154 207 252 290 341
#     4   9  20  34  55  85 119 151 193 230 295 340
#     4  11  22  39  57  89 117 151 202 241 290 359
#
# _framework density 20.062107999999998
#
# number of rings (size 3 to 8) (size 9 to 14) (size 15 to 20)
#    0.750    1.000    3.750    0.750    7.000    1.000 
#    0.000    0.000    0.000    1.500    0.000    0.000 
#    0.000    0.000    0.000    0.000    0.000    0.000 
#
# Total GULP energy -198300.208180 kJ/mol
# GULP energy per Si atom -12393.763011 kJ/mol
# Density = 2.001645 g / cm^3
# Si number density = 20.062108 Si / 1000 Ang^3
#
#
#
# Elastic Constant Matrix: (Units=GPa)
#
#
# Indices 1 2 3 4 5 6 
#
# 1 43.0800 17.3369 36.8843 1.8124 4.6435 4.9857
# 2 17.3369 83.8269 34.1590 14.7980 -1.7408 21.9922
# 3 36.8843 34.1590 110.5106 9.6464 6.0975 6.6533
# 4 1.8124 14.7980 9.6464 28.4646 -0.3162 7.9292
# 5 4.6435 -1.7408 6.0975 -0.3162 34.3596 -5.6005
# 6 4.9857 21.9922 6.6533 7.9292 -5.6005 22.7404
#
#
#
# Elastic Compliance Matrix: (Units=1/GPa)
#
#
# Indices 1 2 3 4 5 6 
#
# 1 0.033805 -0.002362 -0.010432 0.003754 -0.003494 -0.004244
# 2 -0.002362 0.018576 -0.003657 -0.004067 -0.000590 -0.015105
# 3 -0.010432 -0.003657 0.013800 -0.002837 -0.000832 0.002570
# 4 0.003754 -0.004067 -0.002837 0.040937 -0.001581 -0.010724
# 5 -0.003494 -0.000590 -0.000832 -0.001581 0.031282 0.009836
# 6 -0.004244 -0.015105 0.002570 -0.010724 0.009836 0.064923
#
#
# Mechanical properties :
#
#
# Convention : Reuss Voigt Hill
#
# Bulk Modulus (GPa) = 30.04879 46.01976 38.03428
# Shear Modulus (GPa) = 20.21684 27.04874 23.63279
#
# Velocity S-wave (km/s) = 3.17789 3.67584 3.43590
# Velocity P-wave (km/s) = 5.33627 6.40345 5.89406
#
# Compressibility (1/GPa) = 0.03327921
#
# Stress axis : x y z
#
# Youngs Moduli (GPa) = 29.58153 53.83178 72.46521
#
# Poissons Ratio (x) = 0.12716 0.75596
# Poissons Ratio (y) = 0.06988 0.26498
# Poissons Ratio (z) = 0.30859 0.19684
#
# Static dielectric constant tensor:
#      x y z
#    x 3.299400 0.235180 0.274060 
#    y 0.235180 4.348110 0.415090 
#    z 0.274060 0.415090 3.957960 
# 
# 
# High freq. dielectric constant tensor:
#      x y z
#    x 1.745210 0.027630 0.029110 
#    y 0.027630 1.794710 -0.012690 
#    z 0.029110 -0.012690 1.767500 
# 
# From -- ./inp_files/200698.got.cif
#   From: 2010.06.25/outbox.cif.g09.slc.cpg/sg2_101_cif.got.tgz:200698.got - 2010.06.27 13:26:56.
