data_PCOD8008408
_publ_section_title
;
Structure prediction by ZEFSAII (Michael W. Deem and Ramdas Pophale) SiO2 
 PCOD8008408
Probable space group: P -1
;
_chemical_formula_sum "Si O2"
_cell_formula_units_Z 16
_cell_length_a 9.230461
_cell_length_b 11.984179
_cell_length_c 9.656416
_cell_angle_alpha 124.493432
_cell_angle_beta 118.471716
_cell_angle_gamma 54.641853
_cell_volume 700.138727
_symmetry_space_group_name_H-M "P -1"
_symmetry_group_IT_number 2
_symmetry_cell_setting 'triclinic'
loop_
_space_group_symop_operation_xyz
x,y,z
-x,-y,-z
loop_
_atom_site_type_symbol
_atom_site_label
_atom_site_fract_x
_atom_site_fract_y
_atom_site_fract_z
Si Si1 0.274641 0.965512 0.826029
Si Si2 0.749966 0.434981 0.433677
Si Si3 0.685037 0.859266 0.273258
Si Si4 0.306067 0.605488 0.925700
Si Si5 0.280802 0.936313 0.122945
Si Si6 0.812922 0.541924 0.018073
Si Si7 0.433522 0.346671 0.277942
Si Si8 0.958415 0.875774 0.615191
O O1 0.479161 0.833243 0.804617
O O2 0.110468 0.928226 0.667819
O O3 0.276061 0.104826 0.840672
O O4 0.242840 0.004661 0.000464
O O5 0.721560 0.468329 0.281044
O O6 0.608841 0.379734 0.396948
O O7 0.711683 0.584436 0.612558
O O8 0.952573 0.304731 0.457148
O O9 0.471349 0.928589 0.261631
O O10 0.767664 0.680850 0.198204
O O11 0.787190 0.927218 0.469929
O O12 0.168640 0.599461 0.978135
O O13 0.500000 0.500000 0.000000
O O14 0.281778 0.772621 0.004964
O O15 0.114997 0.048805 0.217304
O O16 0.653901 0.586796 0.863183
O O17 0.000000 0.500000 0.000000
#
# Coordination Sequence:
#
# PCOD8008408 Si02
#       8
#     2   2   2   2   2   2   2   2
#     4  11  23  45  71  99 133 186 226 272 340 404
#     4  10  21  41  71  95 136 175 230 277 326 408
#     4  12  25  45  66 103 141 173 228 279 339 401
#     4  12  22  46  70  98 132 185 234 269 343 409
#     4  12  24  45  72  97 139 181 224 278 338 407
#     4  12  26  43  69 101 139 177 227 285 339 403
#     4  10  20  43  66  98 133 180 224 274 336 399
#     4  11  25  44  68 105 134 177 229 279 338 397
#
# _framework density 22.852613999999999
#
# number of rings (size 3 to 8) (size 9 to 14) (size 15 to 20)
#    0.000    0.750    6.250    2.250    1.750    1.000 
#    4.500    1.250    0.000    0.000    0.000    0.000 
#    0.000    0.000    0.000    0.000    0.000    0.000 
#
# Total GULP energy -198382.745376 kJ/mol
# GULP energy per Si atom -12398.921586 kJ/mol
# Density = 2.280060 g / cm^3
# Si number density = 22.852614 Si / 1000 Ang^3
#
#
#
# Elastic Constant Matrix: (Units=GPa)
#
#
# Indices 1 2 3 4 5 6 
#
# 1 102.8597 28.7825 23.4043 -1.7498 -12.8143 -1.0805
# 2 28.7825 63.0434 23.2723 -9.6295 -14.0808 2.5766
# 3 23.4043 23.2723 104.4117 -5.2380 -16.8065 -0.0635
# 4 -1.7498 -9.6295 -5.2380 28.7839 -7.6799 -11.5053
# 5 -12.8143 -14.0808 -16.8065 -7.6799 40.3954 -1.3450
# 6 -1.0805 2.5766 -0.0635 -11.5053 -1.3450 35.4776
#
#
#
# Elastic Compliance Matrix: (Units=1/GPa)
#
#
# Indices 1 2 3 4 5 6 
#
# 1 0.011469 -0.004505 -0.001357 -0.000438 0.001440 0.000587
# 2 -0.004505 0.021604 -0.002239 0.008979 0.006926 0.001464
# 3 -0.001357 -0.002239 0.011161 0.002736 0.003992 0.001180
# 4 -0.000438 0.008979 0.002736 0.048070 0.013783 0.015451
# 5 0.001440 0.006926 0.003992 0.013783 0.032082 0.005234
# 6 0.000587 0.001464 0.001180 0.015451 0.005234 0.033310
#
#
# Mechanical properties :
#
#
# Convention : Reuss Voigt Hill
#
# Bulk Modulus (GPa) = 35.67237 46.80366 41.23802
# Shear Modulus (GPa) = 27.28627 33.92175 30.60401
#
# Velocity S-wave (km/s) = 3.45919 3.85693 3.66347
# Velocity P-wave (km/s) = 5.62124 6.35293 5.99825
#
# Compressibility (1/GPa) = 0.02803290
#
# Stress axis : x y z
#
# Youngs Moduli (GPa) = 87.18922 46.28774 89.59523
#
# Poissons Ratio (x) = 0.20852 0.12155
# Poissons Ratio (y) = 0.39277 0.20064
# Poissons Ratio (z) = 0.11829 0.10366
#
# Static dielectric constant tensor:
#      x y z
#    x 4.321130 0.068460 -0.029180 
#    y 0.068460 4.384510 -0.079410 
#    z -0.029180 -0.079410 4.157740 
# 
# 
# High freq. dielectric constant tensor:
#      x y z
#    x 1.905260 -0.012630 -0.000340 
#    y -0.012630 1.892100 -0.008120 
#    z -0.000340 -0.008120 1.901500 
# 
# From -- ./inp_files/190261.got.cif
#   From: 2010.06.25/outbox.cif.g09.slc.cpg/sg2_96_cif.got.tgz:190261.got - 2010.06.27 13:26:56.
