data_PCOD8008623
_publ_section_title
;
Structure prediction by ZEFSAII (Michael W. Deem and Ramdas Pophale) SiO2 
 PCOD8008623
Probable space group: P -1
;
_chemical_formula_sum "Si O2"
_cell_formula_units_Z 16
_cell_length_a 8.295372
_cell_length_b 11.599556
_cell_length_c 11.296513
_cell_angle_alpha 92.058054
_cell_angle_beta 138.522283
_cell_angle_gamma 89.262253
_cell_volume 719.312174
_symmetry_space_group_name_H-M "P -1"
_symmetry_group_IT_number 2
_symmetry_cell_setting 'triclinic'
loop_
_space_group_symop_operation_xyz
x,y,z
-x,-y,-z
loop_
_atom_site_type_symbol
_atom_site_label
_atom_site_fract_x
_atom_site_fract_y
_atom_site_fract_z
Si Si1 0.126896 0.048989 0.686191
Si Si2 0.306035 0.407277 0.600480
Si Si3 0.808038 0.185969 0.673599
Si Si4 0.478440 0.766897 0.126934
Si Si5 0.179325 0.654209 0.528260
Si Si6 0.259330 0.220874 0.387156
Si Si7 0.969084 0.135407 0.005935
Si Si8 0.235520 0.814617 0.769912
O O1 0.257418 0.171844 0.735784
O O2 0.916905 0.072408 0.667999
O O3 0.319729 0.950016 0.827193
O O4 0.000000 0.000000 0.500000
O O5 0.517980 0.345838 0.790994
O O6 0.356969 0.544143 0.619674
O O7 0.287913 0.353953 0.455148
O O8 0.069532 0.386670 0.550389
O O9 0.845559 0.300326 0.617870
O O10 0.521289 0.161582 0.542763
O O11 0.962790 0.202982 0.880007
O O12 0.294548 0.859062 0.080062
O O13 0.376935 0.735243 0.938890
O O14 0.292510 0.759513 0.671870
O O15 0.054856 0.171748 0.363202
O O16 0.170180 0.202091 0.201676
O O17 0.000000 0.000000 0.000000
#
# Coordination Sequence:
#
# PCOD8008623 Si02
#       8
#     2   2   2   2   2   2   2   2
#     4  12  23  38  63  95 126 169 212 263 323 387
#     4  10  20  45  68  86 130 170 219 268 320 374
#     4  12  23  40  66  94 131 168 215 263 326 385
#     4  11  22  41  64  91 131 172 210 267 321 383
#     4  10  22  40  67  96 120 173 218 269 320 374
#     4  10  23  43  63  91 133 172 209 263 319 384
#     4  11  26  41  64  97 132 174 215 256 322 397
#     4  10  22  41  62  96 131 164 218 263 323 386
#
# _framework density 22.243469999999999
#
# number of rings (size 3 to 8) (size 9 to 14) (size 15 to 20)
#    0.000    1.250    3.750    2.625    1.750    3.000 
#    0.000    0.625    0.000    0.000    0.000    0.000 
#    0.000    0.000    0.000    0.000    0.000    0.000 
#
# Total GULP energy -198216.454010 kJ/mol
# GULP energy per Si atom -12388.528376 kJ/mol
# Density = 2.219284 g / cm^3
# Si number density = 22.243470 Si / 1000 Ang^3
#
#
#
# Elastic Constant Matrix: (Units=GPa)
#
#
# Indices 1 2 3 4 5 6 
#
# 1 59.6797 23.7293 40.4626 5.2418 -18.0677 -9.7668
# 2 23.7293 146.2825 53.9591 -18.1957 -18.5657 -7.7979
# 3 40.4626 53.9591 123.5934 -15.6716 -32.1853 -4.8919
# 4 5.2418 -18.1957 -15.6716 25.8277 3.3679 -5.6596
# 5 -18.0677 -18.5657 -32.1853 3.3679 42.6650 -7.4138
# 6 -9.7668 -7.7979 -4.8919 -5.6596 -7.4138 23.8852
#
#
#
# Elastic Compliance Matrix: (Units=1/GPa)
#
#
# Indices 1 2 3 4 5 6 
#
# 1 0.026782 -0.001514 -0.006947 -0.009730 0.007800 0.009149
# 2 -0.001514 0.009042 -0.002005 0.006073 0.001993 0.003979
# 3 -0.006947 -0.002005 0.014260 0.008537 0.006892 0.003587
# 4 -0.009730 0.006073 0.008537 0.052637 0.003099 0.013187
# 5 0.007800 0.001993 0.006892 0.003099 0.035519 0.017011
# 6 0.009149 0.003979 0.003587 0.013187 0.017011 0.056047
#
#
# Mechanical properties :
#
#
# Convention : Reuss Voigt Hill
#
# Bulk Modulus (GPa) = 34.30541 62.87308 48.58925
# Shear Modulus (GPa) = 22.22842 32.56921 27.39882
#
# Velocity S-wave (km/s) = 3.16464 3.83066 3.51346
# Velocity P-wave (km/s) = 5.36744 6.92044 6.19281
#
# Compressibility (1/GPa) = 0.02914992
#
# Stress axis : x y z
#
# Youngs Moduli (GPa) = 37.33890 110.59685 70.12434
#
# Poissons Ratio (x) = 0.16749 0.48717
# Poissons Ratio (y) = 0.05655 0.14062
# Poissons Ratio (z) = 0.25940 0.22178
#
# Static dielectric constant tensor:
#      x y z
#    x 4.073210 -0.203220 -0.252870 
#    y -0.203220 4.445410 -0.305630 
#    z -0.252870 -0.305630 4.162430 
# 
# 
# High freq. dielectric constant tensor:
#      x y z
#    x 1.874670 -0.022150 -0.018780 
#    y -0.022150 1.862800 -0.017380 
#    z -0.018780 -0.017380 1.871070 
# 
# From -- ./inp_files/347262.got.cif
#   From: 2010.06.25/outbox.cif.g09.slc.cpg/sg2_174_cif.got.tgz:347262.got - 2010.06.27 13:26:56.
