data_PCOD8008679
_publ_section_title
;
Structure prediction by ZEFSAII (Michael W. Deem and Ramdas Pophale) SiO2 
 PCOD8008679
Probable space group: P -1
;
_chemical_formula_sum "Si O2"
_cell_formula_units_Z 16
_cell_length_a 7.577002
_cell_length_b 18.504854
_cell_length_c 8.766337
_cell_angle_alpha 140.359516
_cell_angle_beta 97.931904
_cell_angle_gamma 75.032638
_cell_volume 753.842486
_symmetry_space_group_name_H-M "P -1"
_symmetry_group_IT_number 2
_symmetry_cell_setting 'triclinic'
loop_
_space_group_symop_operation_xyz
x,y,z
-x,-y,-z
loop_
_atom_site_type_symbol
_atom_site_label
_atom_site_fract_x
_atom_site_fract_y
_atom_site_fract_z
Si Si1 0.811418 0.648156 0.812260
Si Si2 0.100101 0.033091 0.920707
Si Si3 0.083837 0.607176 0.502071
Si Si4 0.188583 0.893661 0.259706
Si Si5 0.171493 0.220441 0.442712
Si Si6 0.548083 0.120986 0.240594
Si Si7 0.884491 0.851541 0.345532
Si Si8 0.588494 0.272298 0.207430
O O1 0.865463 0.532425 0.734008
O O2 0.618174 0.650105 0.709715
O O3 0.968061 0.647905 0.706972
O O4 0.793938 0.758666 0.100220
O O5 0.971412 0.074802 0.832964
O O6 0.264035 0.921708 0.708676
O O7 0.170659 0.144618 0.166160
O O8 0.000000 0.000000 0.000000
O O9 0.272224 0.649177 0.602622
O O10 0.962979 0.654475 0.412693
O O11 0.096072 0.842543 0.307695
O O12 0.239413 0.018149 0.499893
O O13 0.357858 0.795433 0.056936
O O14 0.391730 0.213055 0.468817
O O15 0.105794 0.169747 0.506229
O O16 0.598243 0.176973 0.182897
O O17 0.500000 0.000000 0.000000
#
# Coordination Sequence:
#
# PCOD8008679 Si02
#       8
#     2   2   2   2   2   2   2   2
#     4  11  25  44  65  94 128 168 216 271 315 374
#     4  11  17  35  60  89 125 163 213 251 301 378
#     4  11  23  44  72  90 119 172 228 267 306 364
#     4  11  22  39  64  96 128 175 202 254 325 390
#     4  11  20  39  61  93 124 167 209 259 314 373
#     4  10  21  32  60  99 125 157 208 265 306 374
#     4  11  24  41  58  95 138 167 199 255 338 386
#     4  12  21  42  69  97 123 163 224 266 306 374
#
# _framework density 21.224592000000001
#
# number of rings (size 3 to 8) (size 9 to 14) (size 15 to 20)
#    0.000    1.000    6.250    1.125    1.750    1.000 
#    4.500    0.000    0.000    1.500    0.000    0.000 
#    0.000    0.000    0.000    0.000    0.000    0.000 
#
# Total GULP energy -198281.519405 kJ/mol
# GULP energy per Si atom -12392.594963 kJ/mol
# Density = 2.117628 g / cm^3
# Si number density = 21.224592 Si / 1000 Ang^3
#
#
#
# Elastic Constant Matrix: (Units=GPa)
#
#
# Indices 1 2 3 4 5 6 
#
# 1 109.8666 46.9069 25.4777 7.1858 1.5959 0.1998
# 2 46.9069 96.2985 16.1686 15.3608 -0.3519 6.1936
# 3 25.4777 16.1686 66.6153 5.6997 5.7222 4.9499
# 4 7.1858 15.3608 5.6997 26.9462 3.4172 -2.3225
# 5 1.5959 -0.3519 5.7222 3.4172 20.1232 2.5347
# 6 0.1998 6.1936 4.9499 -2.3225 2.5347 42.4314
#
#
#
# Elastic Compliance Matrix: (Units=1/GPa)
#
#
# Indices 1 2 3 4 5 6 
#
# 1 0.012240 -0.005592 -0.003452 0.000808 -0.000379 0.001228
# 2 -0.005592 0.014560 -0.000804 -0.007170 0.002465 -0.002545
# 3 -0.003452 -0.000804 0.017167 -0.001883 -0.004085 -0.001728
# 4 0.000808 -0.007170 -0.001883 0.042669 -0.007409 0.004041
# 5 -0.000379 0.002465 -0.004085 -0.007409 0.052619 -0.003430
# 6 0.001228 -0.002545 -0.001728 0.004041 -0.003430 0.024561
#
#
# Mechanical properties :
#
#
# Convention : Reuss Voigt Hill
#
# Bulk Modulus (GPa) = 41.20144 49.98745 45.59444
# Shear Modulus (GPa) = 26.09564 30.18197 28.13880
#
# Velocity S-wave (km/s) = 3.51023 3.77507 3.64505
# Velocity P-wave (km/s) = 5.99026 6.52720 6.26448
#
# Compressibility (1/GPa) = 0.02427100
#
# Stress axis : x y z
#
# Youngs Moduli (GPa) = 81.69728 68.68294 58.24979
#
# Poissons Ratio (x) = 0.38406 0.20108
# Poissons Ratio (y) = 0.45684 0.04685
# Poissons Ratio (z) = 0.28202 0.05524
#
# Static dielectric constant tensor:
#      x y z
#    x 4.137600 -0.282560 0.059860 
#    y -0.282560 3.853300 0.256930 
#    z 0.059860 0.256930 3.816220 
# 
# 
# High freq. dielectric constant tensor:
#      x y z
#    x 1.844130 0.008440 -0.007560 
#    y 0.008440 1.834980 0.008310 
#    z -0.007560 0.008310 1.800330 
# 
# From -- ./inp_files/218941.got.cif
#   From: 2010.06.25/outbox.cif.g09.slc.cpg/sg2_110_cif.got.tgz:218941.got - 2010.06.27 13:26:56.
