data_PCOD8008691
_publ_section_title
;
Structure prediction by ZEFSAII (Michael W. Deem and Ramdas Pophale) SiO2 
 PCOD8008691
Probable space group: P -1
;
_chemical_formula_sum "Si O2"
_cell_formula_units_Z 16
_cell_length_a 18.854599
_cell_length_b 12.125082
_cell_length_c 9.666407
_cell_angle_alpha 66.477133
_cell_angle_beta 100.093977
_cell_angle_gamma 153.686213
_cell_volume 802.573366
_symmetry_space_group_name_H-M "P -1"
_symmetry_group_IT_number 2
_symmetry_cell_setting 'triclinic'
loop_
_space_group_symop_operation_xyz
x,y,z
-x,-y,-z
loop_
_atom_site_type_symbol
_atom_site_label
_atom_site_fract_x
_atom_site_fract_y
_atom_site_fract_z
Si Si1 0.923114 0.133663 0.414470
Si Si2 0.813814 0.602655 0.462452
Si Si3 0.543648 0.921549 0.255781
Si Si4 0.246853 0.230776 0.727494
Si Si5 0.237410 0.679494 0.630930
Si Si6 0.060890 0.739849 0.061829
Si Si7 0.359514 0.112469 0.482982
Si Si8 0.193048 0.699147 0.058074
O O1 0.992465 0.133764 0.539089
O O2 0.105277 0.472155 0.248772
O O3 0.791665 0.882193 0.379769
O O4 0.806157 0.049668 0.502587
O O5 0.670462 0.395556 0.642474
O O6 0.828744 0.748644 0.307286
O O7 0.744904 0.395294 0.439076
O O8 0.605554 0.881967 0.350185
O O9 0.639600 0.165526 0.269778
O O10 0.605562 0.029983 0.061220
O O11 0.457274 0.547314 0.678065
O O12 0.149191 0.002119 0.923632
O O13 0.307940 0.914951 0.473406
O O14 0.031765 0.382868 0.759711
O O15 0.202588 0.845993 0.058744
O O16 0.914975 0.469873 0.037930
#
# Coordination Sequence:
#
# PCOD8008691 Si02
#       8
#     2   2   2   2   2   2   2   2
#     4  11  20  33  53  82 110 136 174 220 269 311
#     4  11  22  33  50  81 117 142 165 208 271 333
#     4   8  17  32  53  76 101 135 177 220 248 297
#     4  10  21  33  54  79 108 140 172 219 267 308
#     4   9  18  35  58  77 104 139 184 213 253 311
#     4   9  16  32  56  81  98 132 183 231 248 294
#     4   9  18  34  56  82  97 137 182 225 252 298
#     4   9  15  31  53  77 105 129 182 224 257 293
#
# _framework density 19.935873000000001
#
# number of rings (size 3 to 8) (size 9 to 14) (size 15 to 20)
#    0.750    1.750    1.250    2.625    0.000    2.500 
#    0.000    0.000    0.000    0.750    0.000    0.000 
#    0.000    0.000    0.000    0.000    0.000    0.000 
#
# Total GULP energy -198210.889279 kJ/mol
# GULP energy per Si atom -12388.180580 kJ/mol
# Density = 1.989050 g / cm^3
# Si number density = 19.935873 Si / 1000 Ang^3
#
#
#
# Elastic Constant Matrix: (Units=GPa)
#
#
# Indices 1 2 3 4 5 6 
#
# 1 115.2021 27.5775 44.5255 -18.1386 -3.0784 -3.6695
# 2 27.5775 32.8452 23.9880 -15.1204 6.9690 -1.2141
# 3 44.5255 23.9880 87.7428 -29.4835 0.6316 -4.3518
# 4 -18.1386 -15.1204 -29.4835 20.7142 -3.8425 4.4645
# 5 -3.0784 6.9690 0.6316 -3.8425 15.6331 -8.3373
# 6 -3.6695 -1.2141 -4.3518 4.4645 -8.3373 29.3027
#
#
#
# Elastic Compliance Matrix: (Units=1/GPa)
#
#
# Indices 1 2 3 4 5 6 
#
# 1 0.012788 -0.009904 -0.003921 -0.000698 0.008607 0.003164
# 2 -0.009904 0.058676 -0.001451 0.029534 -0.026724 -0.011128
# 3 -0.003921 -0.001451 0.024221 0.031176 0.006661 0.000191
# 4 -0.000698 0.029534 0.031176 0.117354 0.009220 -0.009490
# 5 0.008607 -0.026724 0.006661 0.009220 0.093526 0.026166
# 6 0.003164 -0.011128 0.000191 -0.009490 0.026166 0.042981
#
#
# Mechanical properties :
#
#
# Convention : Reuss Voigt Hill
#
# Bulk Modulus (GPa) = 15.35329 47.55245 31.45287
# Shear Modulus (GPa) = 12.44374 22.44327 17.44351
#
# Velocity S-wave (km/s) = 2.50109 3.35889 2.96122
# Velocity P-wave (km/s) = 4.00732 6.24078 5.24433
#
# Compressibility (1/GPa) = 0.06513262
#
# Stress axis : x y z
#
# Youngs Moduli (GPa) = 78.20091 17.04267 41.28661
#
# Poissons Ratio (x) = 0.16878 0.16189
# Poissons Ratio (y) = 0.77447 0.05992
# Poissons Ratio (z) = 0.30664 0.02473
#
# Static dielectric constant tensor:
#      x y z
#    x 3.628100 -0.062580 -0.058690 
#    y -0.062580 3.157370 -0.271690 
#    z -0.058690 -0.271690 3.532060 
# 
# 
# High freq. dielectric constant tensor:
#      x y z
#    x 1.778330 -0.006310 -0.007980 
#    y -0.006310 1.731800 -0.027650 
#    z -0.007980 -0.027650 1.760400 
# 
# From -- ./inp_files/464531.got.cif
#   From: 2010.06.25/outbox.cif.g09.slc.cpg/sg2_233_cif.got.tgz:464531.got - 2010.06.27 13:26:56.
