data_PCOD8008375
_publ_section_title
;
Structure prediction by ZEFSAII (Michael W. Deem and Ramdas Pophale) SiO2 
 PCOD8008375
Probable space group: P -1
;
_chemical_formula_sum "Si O2"
_cell_formula_units_Z 16
_cell_length_a 9.289010
_cell_length_b 8.049667
_cell_length_c 19.683314
_cell_angle_alpha 30.183130
_cell_angle_beta 97.833735
_cell_angle_gamma 100.838443
_cell_volume 725.737253
_symmetry_space_group_name_H-M "P -1"
_symmetry_group_IT_number 2
_symmetry_cell_setting 'triclinic'
loop_
_space_group_symop_operation_xyz
x,y,z
-x,-y,-z
loop_
_atom_site_type_symbol
_atom_site_label
_atom_site_fract_x
_atom_site_fract_y
_atom_site_fract_z
Si Si1 0.923321 0.346468 0.481599
Si Si2 0.624690 0.994904 0.955928
Si Si3 0.400111 0.776764 0.765192
Si Si4 0.463431 0.189112 0.750475
Si Si5 0.105217 0.789559 0.692495
Si Si6 0.918885 0.258152 0.942253
Si Si7 0.427809 0.872862 0.468375
Si Si8 0.845589 0.766722 0.217878
O O1 0.750573 0.187969 0.525920
O O2 0.944081 0.671359 0.319832
O O3 0.000000 0.500000 0.500000
O O4 0.017360 0.069342 0.556072
O O5 0.657105 0.615306 0.091472
O O6 0.500000 0.000000 0.000000
O O7 0.591231 0.135297 0.830195
O O8 0.760041 0.250181 0.901502
O O9 0.258654 0.960176 0.674366
O O10 0.459112 0.888065 0.803730
O O11 0.519425 0.870235 0.679945
O O12 0.492461 0.522879 0.588097
O O13 0.320009 0.213195 0.777829
O O14 0.148289 0.524992 0.734108
O O15 0.005998 0.625492 0.807285
O O16 0.908737 0.134973 0.063548
O O17 0.000000 0.000000 0.000000
O O18 0.500000 0.000000 0.500000
#
# Coordination Sequence:
#
# PCOD8008375 Si02
#       8
#     2   2   2   2   2   2   2   2
#     4  11  25  44  66 101 137 169 216 281 342 395
#     4  12  22  42  69  92 129 173 228 270 322 402
#     4  12  24  44  65  98 139 171 214 281 336 392
#     4  11  24  41  66  97 132 171 215 279 337 383
#     4  11  22  42  69  95 130 173 224 268 329 400
#     4  10  21  41  65  95 124 166 224 275 311 386
#     4  11  25  45  70  99 132 178 228 268 329 405
#     4  10  20  43  65  94 126 175 219 266 322 395
#
# _framework density 22.046545999999999
#
# number of rings (size 3 to 8) (size 9 to 14) (size 15 to 20)
#    0.000    1.000    3.750    4.875    3.500    0.000 
#    6.750    2.500    0.000    0.000    0.000    0.000 
#    0.000    0.000    0.000    0.000    0.000    0.000 
#
# Total GULP energy -198244.383065 kJ/mol
# GULP energy per Si atom -12390.273942 kJ/mol
# Density = 2.199637 g / cm^3
# Si number density = 22.046546 Si / 1000 Ang^3
#
#
#
# Elastic Constant Matrix: (Units=GPa)
#
#
# Indices 1 2 3 4 5 6 
#
# 1 102.1608 30.1351 22.9769 15.2554 6.8122 9.9435
# 2 30.1351 92.3027 17.9189 20.2434 -0.7470 7.8588
# 3 22.9769 17.9189 94.6168 27.1236 7.8772 -1.5294
# 4 15.2554 20.2434 27.1236 37.5502 3.0307 7.1152
# 5 6.8122 -0.7470 7.8772 3.0307 36.5488 3.4974
# 6 9.9435 7.8588 -1.5294 7.1152 3.4974 28.7199
#
#
#
# Elastic Compliance Matrix: (Units=1/GPa)
#
#
# Indices 1 2 3 4 5 6 
#
# 1 0.011623 -0.002955 -0.001866 -0.001122 -0.001458 -0.002860
# 2 -0.002955 0.013210 -0.000349 -0.005519 0.001490 -0.001424
# 3 -0.001866 -0.000349 0.014193 -0.009922 -0.002301 0.004236
# 4 -0.001122 -0.005519 -0.009922 0.038803 -0.000196 -0.008219
# 5 -0.001458 0.001490 -0.002301 -0.000196 0.028505 -0.003448
# 6 -0.002860 -0.001424 0.004236 -0.008219 -0.003448 0.038881
#
#
# Mechanical properties :
#
#
# Convention : Reuss Voigt Hill
#
# Bulk Modulus (GPa) = 34.86077 47.90469 41.38273
# Shear Modulus (GPa) = 30.28177 35.10040 32.69109
#
# Velocity S-wave (km/s) = 3.71015 3.99445 3.85492
# Velocity P-wave (km/s) = 5.84810 6.56127 6.21492
#
# Compressibility (1/GPa) = 0.02868554
#
# Stress axis : x y z
#
# Youngs Moduli (GPa) = 86.03773 75.69923 70.45880
#
# Poissons Ratio (x) = 0.22367 0.13150
# Poissons Ratio (y) = 0.25422 0.02460
# Poissons Ratio (z) = 0.16057 0.02643
#
# Static dielectric constant tensor:
#      x y z
#    x 4.129060 0.075230 -0.158800 
#    y 0.075230 3.814860 0.032670 
#    z -0.158800 0.032670 5.145550 
# 
# 
# High freq. dielectric constant tensor:
#      x y z
#    x 1.868490 0.002650 0.009350 
#    y 0.002650 1.852430 0.010410 
#    z 0.009350 0.010410 1.883270 
# 
# From -- ./inp_files/587714.got.cif
#   From: 2010.06.25/outbox.cif.g09.slc.cpg/sg2_294_cif.got.tgz:587714.got - 2010.06.27 13:26:56.
