data_PCOD8008738
_publ_section_title
;
Structure prediction by ZEFSAII (Michael W. Deem and Ramdas Pophale) SiO2 
 PCOD8008738
Probable space group: P -1
;
_chemical_formula_sum "Si O2"
_cell_formula_units_Z 16
_cell_length_a 11.716805
_cell_length_b 12.605270
_cell_length_c 8.907717
_cell_angle_alpha 87.080919
_cell_angle_beta 124.046641
_cell_angle_gamma 127.234551
_cell_volume 780.921045
_symmetry_space_group_name_H-M "P -1"
_symmetry_group_IT_number 2
_symmetry_cell_setting 'triclinic'
loop_
_space_group_symop_operation_xyz
x,y,z
-x,-y,-z
loop_
_atom_site_type_symbol
_atom_site_label
_atom_site_fract_x
_atom_site_fract_y
_atom_site_fract_z
Si Si1 0.566422 0.934793 0.855935
Si Si2 0.323353 0.494362 0.487021
Si Si3 0.847093 0.028391 0.815649
Si Si4 0.650083 0.206252 0.015898
Si Si5 0.760446 0.744206 0.765019
Si Si6 0.227180 0.809045 0.415255
Si Si7 0.001246 0.378688 0.471259
Si Si8 0.782302 0.371290 0.814875
O O1 0.502546 0.836588 0.966693
O O2 0.400722 0.840278 0.617731
O O3 0.756213 0.985760 0.920108
O O4 0.575119 0.062716 0.888635
O O5 0.548447 0.614880 0.690829
O O6 0.239566 0.339564 0.366845
O O7 0.208838 0.454460 0.558834
O O8 0.301132 0.576730 0.344768
O O9 0.743976 0.052708 0.621246
O O10 0.806861 0.889142 0.730169
O O11 0.071321 0.183666 0.991345
O O12 0.849693 0.278243 0.234022
O O13 0.670024 0.307090 0.896183
O O14 0.211532 0.738517 0.254010
O O15 0.046442 0.709527 0.403815
O O16 0.000000 0.500000 0.500000
O O17 0.000000 0.500000 0.000000
#
# Coordination Sequence:
#
# PCOD8008738 Si02
#       8
#     2   2   2   2   2   2   2   2
#     4  10  21  36  61  90 129 150 190 263 321 358
#     4  11  22  41  63  87 128 161 211 244 300 379
#     4  11  21  41  63  85 121 165 217 246 294 368
#     4  10  21  34  55 100 123 152 180 245 342 356
#     4  10  25  40  63  82 117 184 209 240 288 363
#     4  11  22  35  64  98 119 155 201 263 319 361
#     4  11  21  38  61  95 128 154 189 260 329 361
#     4  12  20  35  63  94 125 151 196 259 313 366
#
# _framework density 20.488627999999999
#
# number of rings (size 3 to 8) (size 9 to 14) (size 15 to 20)
#    0.000    1.250    3.750    2.625    3.500    0.000 
#    0.000    1.250   11.000    0.000    0.000    0.000 
#    0.000    0.000    0.000    0.000    0.000    0.000 
#
# Total GULP energy -198271.347591 kJ/mol
# GULP energy per Si atom -12391.959224 kJ/mol
# Density = 2.044200 g / cm^3
# Si number density = 20.488628 Si / 1000 Ang^3
#
#
#
# Elastic Constant Matrix: (Units=GPa)
#
#
# Indices 1 2 3 4 5 6 
#
# 1 122.9898 55.2777 27.6210 -5.1585 -3.4393 18.6771
# 2 55.2777 112.4016 30.5368 -8.2887 -14.9702 11.7952
# 3 27.6210 30.5368 60.8184 9.2677 -5.9412 11.0248
# 4 -5.1585 -8.2887 9.2677 41.2786 5.5468 -6.8230
# 5 -3.4393 -14.9702 -5.9412 5.5468 25.1738 2.4173
# 6 18.6771 11.7952 11.0248 -6.8230 2.4173 43.7608
#
#
#
# Elastic Compliance Matrix: (Units=1/GPa)
#
#
# Indices 1 2 3 4 5 6 
#
# 1 0.011211 -0.004725 -0.002543 0.000830 -0.001807 -0.002641
# 2 -0.004725 0.013365 -0.004230 0.002170 0.005875 -0.000506
# 3 -0.002543 -0.004230 0.022177 -0.007541 0.004492 -0.004785
# 4 0.000830 0.002170 -0.007541 0.028379 -0.007184 0.005782
# 5 -0.001807 0.005875 0.004492 -0.007184 0.046153 -0.005613
# 6 -0.002641 -0.000506 -0.004785 0.005782 -0.005613 0.026533
#
#
# Mechanical properties :
#
#
# Convention : Reuss Voigt Hill
#
# Bulk Modulus (GPa) = 42.09336 58.12008 50.10672
# Shear Modulus (GPa) = 27.97499 34.22759 31.10129
#
# Velocity S-wave (km/s) = 3.69913 4.09169 3.90035
# Velocity P-wave (km/s) = 6.23170 7.12398 6.69273
#
# Compressibility (1/GPa) = 0.02375672
#
# Stress axis : x y z
#
# Youngs Moduli (GPa) = 89.19930 74.82287 45.09272
#
# Poissons Ratio (x) = 0.35352 0.11469
# Poissons Ratio (y) = 0.42145 0.19073
# Poissons Ratio (z) = 0.22686 0.31648
#
# Static dielectric constant tensor:
#      x y z
#    x 3.556860 0.302310 -0.375950 
#    y 0.302310 3.767450 0.268450 
#    z -0.375950 0.268450 3.256270 
# 
# 
# High freq. dielectric constant tensor:
#      x y z
#    x 1.794430 0.011150 -0.008490 
#    y 0.011150 1.803140 0.024660 
#    z -0.008490 0.024660 1.796540 
# 
# From -- ./inp_files/262592.got.cif
#   From: 2010.06.25/outbox.cif.g09.slc.cpg/sg2_132_cif.got.tgz:262592.got - 2010.06.27 13:26:56.
