data_PCOD8008071
_publ_section_title
;
Structure prediction by ZEFSAII (Michael W. Deem and Ramdas Pophale) SiO2 
 PCOD8008071
Probable space group: P -1
;
_chemical_formula_sum "Si O2"
_cell_formula_units_Z 16
_cell_length_a 7.473345
_cell_length_b 21.713670
_cell_length_c 18.157312
_cell_angle_alpha 24.669035
_cell_angle_beta 128.194537
_cell_angle_gamma 141.156567
_cell_volume 724.888587
_symmetry_space_group_name_H-M "P -1"
_symmetry_group_IT_number 2
_symmetry_cell_setting 'triclinic'
loop_
_space_group_symop_operation_xyz
x,y,z
-x,-y,-z
loop_
_atom_site_type_symbol
_atom_site_label
_atom_site_fract_x
_atom_site_fract_y
_atom_site_fract_z
Si Si1 0.337986 0.463843 0.114176
Si Si2 0.649132 0.416540 0.359726
Si Si3 0.672733 0.541491 0.392592
Si Si4 0.291705 0.919418 0.605405
Si Si5 0.775651 0.039637 0.890258
Si Si6 0.247200 0.218238 0.229087
Si Si7 0.335656 0.651796 0.261282
Si Si8 0.585796 0.994483 0.294968
O O1 0.517023 0.503097 0.191281
O O2 0.404168 0.363345 0.181188
O O3 0.500918 0.679377 0.885025
O O4 0.975520 0.319774 0.196270
O O5 0.628295 0.446320 0.407297
O O6 0.450156 0.189197 0.539249
O O7 0.983197 0.524628 0.298472
O O8 0.460376 0.594702 0.291004
O O9 0.576448 0.378823 0.604627
O O10 0.033757 0.733059 0.286404
O O11 0.133959 0.010539 0.453930
O O12 0.487657 0.005144 0.637790
O O13 0.500000 0.000000 0.500000
O O14 0.637908 0.997994 0.818079
O O15 0.495933 0.881479 0.045341
O O16 0.000000 0.000000 0.000000
O O17 0.944541 0.180804 0.169609
#
# Coordination Sequence:
#
# PCOD8008071 Si02
#       8
#     2   2   2   2   2   2   2   2
#     4  10  21  40  64  90 123 162 210 261 313 385
#     4  12  21  39  66  93 126 170 213 257 325 382
#     4  10  23  41  59  91 126 165 216 264 312 380
#     4  11  23  42  63  95 133 164 207 267 321 383
#     4  10  22  43  63  91 128 165 213 271 312 375
#     4  10  20  42  65  89 123 163 213 262 313 382
#     4  10  22  41  62  84 127 167 208 269 317 362
#     4  11  21  41  68  90 126 172 212 260 327 378
#
# _framework density 22.072357
#
# number of rings (size 3 to 8) (size 9 to 14) (size 15 to 20)
#    0.000    1.500    3.750    1.875    0.000    2.000 
#    6.750    0.000    0.000    0.000    0.000    0.000 
#    0.000    0.000    0.000    0.000    0.000    0.000 
#
# Total GULP energy -198271.825639 kJ/mol
# GULP energy per Si atom -12391.989102 kJ/mol
# Density = 2.202212 g / cm^3
# Si number density = 22.072357 Si / 1000 Ang^3
#
#
#
# Elastic Constant Matrix: (Units=GPa)
#
#
# Indices 1 2 3 4 5 6 
#
# 1 75.5897 42.4013 20.5773 -6.1942 -33.4898 -11.4046
# 2 42.4013 136.3920 34.3354 14.3764 -15.2783 -10.8174
# 3 20.5773 34.3354 113.1723 2.5763 -32.7039 -14.4317
# 4 -6.1942 14.3764 2.5763 32.4162 7.8188 0.0663
# 5 -33.4898 -15.2783 -32.7039 7.8188 26.8492 1.9160
# 6 -11.4046 -10.8174 -14.4317 0.0663 1.9160 29.4662
#
#
#
# Elastic Compliance Matrix: (Units=1/GPa)
#
#
# Indices 1 2 3 4 5 6 
#
# 1 0.058548 -0.010382 0.023961 -0.009651 0.097385 0.024274
# 2 -0.010382 0.010721 -0.004855 -0.003549 -0.011608 -0.001698
# 3 0.023961 -0.004855 0.025559 -0.009794 0.059958 0.016133
# 4 -0.009651 -0.003549 -0.009794 0.040345 -0.037201 -0.007507
# 5 0.097385 -0.011608 0.059958 -0.037201 0.232569 0.047758
# 6 0.024274 -0.001698 0.016133 -0.007507 0.047758 0.047522
#
#
# Mechanical properties :
#
#
# Convention : Reuss Voigt Hill
#
# Bulk Modulus (GPa) = 8.90660 57.75357 33.33009
# Shear Modulus (GPa) = 11.48792 32.93567 22.21179
#
# Velocity S-wave (km/s) = 2.28385 3.86705 3.17569
# Velocity P-wave (km/s) = 3.31641 6.79420 5.34601
#
# Compressibility (1/GPa) = 0.11227630
#
# Stress axis : x y z
#
# Youngs Moduli (GPa) = 17.08007 93.27767 39.12521
#
# Poissons Ratio (x) = 0.96840 -0.93750
# Poissons Ratio (y) = 0.17732 0.18995
# Poissons Ratio (z) = -0.40926 0.45287
#
# Static dielectric constant tensor:
#      x y z
#    x 3.720110 0.076540 -0.046440 
#    y 0.076540 4.009060 -0.115650 
#    z -0.046440 -0.115650 4.737840 
# 
# 
# High freq. dielectric constant tensor:
#      x y z
#    x 1.841340 0.007090 -0.014550 
#    y 0.007090 1.868220 -0.000160 
#    z -0.014550 -0.000160 1.885990 
# 
# From -- ./inp_files/504914.got.cif
#   From: 2010.06.25/outbox.cif.g09.slc.cpg/sg2_253_cif.got.tgz:504914.got - 2010.06.27 13:26:56.
