data_PCOD8008113
_publ_section_title
;
Structure prediction by ZEFSAII (Michael W. Deem and Ramdas Pophale) SiO2 
 PCOD8008113
Probable space group: P -1
;
_chemical_formula_sum "Si O2"
_cell_formula_units_Z 16
_cell_length_a 8.203307
_cell_length_b 6.165849
_cell_length_c 20.545917
_cell_angle_alpha 131.193586
_cell_angle_beta 100.802295
_cell_angle_gamma 62.469476
_cell_volume 682.708009
_symmetry_space_group_name_H-M "P -1"
_symmetry_group_IT_number 2
_symmetry_cell_setting 'triclinic'
loop_
_space_group_symop_operation_xyz
x,y,z
-x,-y,-z
loop_
_atom_site_type_symbol
_atom_site_label
_atom_site_fract_x
_atom_site_fract_y
_atom_site_fract_z
Si Si1 0.977583 0.941766 0.322820
Si Si2 0.679287 0.068344 0.595946
Si Si3 0.536961 0.630819 0.238734
Si Si4 0.548101 0.951162 0.919067
Si Si5 0.053333 0.251066 0.138553
Si Si6 0.704864 0.686368 0.135251
Si Si7 0.397778 0.499118 0.557931
Si Si8 0.901236 0.135205 0.221793
O O1 0.763426 0.137279 0.369714
O O2 0.002310 0.124581 0.295673
O O3 0.115994 0.951070 0.390528
O O4 0.028950 0.572128 0.238262
O O5 0.605122 0.096609 0.670149
O O6 0.543716 0.382850 0.605797
O O7 0.696331 0.741122 0.500772
O O8 0.465673 0.360392 0.170613
O O9 0.551265 0.783234 0.200752
O O10 0.740459 0.487867 0.259542
O O11 0.755259 0.912864 0.918904
O O12 0.404768 0.274507 0.932926
O O13 0.500000 0.000000 0.000000
O O14 0.877913 0.328141 0.091085
O O15 0.049197 0.011037 0.148188
O O16 0.804303 0.911367 0.184600
O O17 0.500000 0.500000 0.500000
#
# Coordination Sequence:
#
# PCOD8008113 Si02
#       8
#     2   2   2   2   2   2   2   2
#     4  11  22  40  63  92 126 162 210 258 313 370
#     4  11  24  41  64  91 128 162 213 256 312 378
#     4  10  20  42  66  91 123 169 209 253 315 382
#     4  11  24  41  63  98 130 160 211 262 314 374
#     4  10  22  38  65  94 121 167 209 257 311 380
#     4   9  22  39  64  90 126 167 206 258 315 369
#     4  11  27  41  62  94 130 167 205 265 314 363
#     4   9  20  38  63  93 124 157 217 253 307 373
#
# _framework density 23.436078999999999
#
# number of rings (size 3 to 8) (size 9 to 14) (size 15 to 20)
#    0.000    1.750    2.500    0.375    7.000    2.500 
#    0.000    5.625    0.000    0.000    0.000    0.000 
#    0.000    0.000    0.000    0.000    0.000    0.000 
#
# Total GULP energy -198326.942695 kJ/mol
# GULP energy per Si atom -12395.433918 kJ/mol
# Density = 2.338274 g / cm^3
# Si number density = 23.436079 Si / 1000 Ang^3
#
#
#
# Elastic Constant Matrix: (Units=GPa)
#
#
# Indices 1 2 3 4 5 6 
#
# 1 115.5516 46.6064 28.9337 -24.7638 -25.6985 -8.8557
# 2 46.6064 80.0788 27.8139 -37.8207 -3.7996 -3.9940
# 3 28.9337 27.8139 62.4673 -30.0671 -14.9319 -9.4538
# 4 -24.7638 -37.8207 -30.0671 42.0960 6.2345 -0.6257
# 5 -25.6985 -3.7996 -14.9319 6.2345 45.6190 -10.2603
# 6 -8.8557 -3.9940 -9.4538 -0.6257 -10.2603 42.5298
#
#
#
# Elastic Compliance Matrix: (Units=1/GPa)
#
#
# Indices 1 2 3 4 5 6 
#
# 1 0.013775 -0.007183 -0.000695 0.000055 0.007809 0.003924
# 2 -0.007183 0.025676 0.000390 0.019781 -0.004434 0.000224
# 3 -0.000695 0.000390 0.028786 0.019394 0.008344 0.008589
# 4 0.000055 0.019781 0.019394 0.055202 0.002173 0.007516
# 5 0.007809 -0.004434 0.008344 0.002173 0.030750 0.010515
# 6 0.003924 0.000224 0.008589 0.007516 0.010515 0.028907
#
#
# Mechanical properties :
#
#
# Convention : Reuss Voigt Hill
#
# Bulk Modulus (GPa) = 18.77575 51.64508 35.21041
# Shear Modulus (GPa) = 23.16685 36.36522 29.76604
#
# Velocity S-wave (km/s) = 3.14747 3.94341 3.56770
# Velocity P-wave (km/s) = 4.60843 6.54357 5.65933
#
# Compressibility (1/GPa) = 0.05326018
#
# Stress axis : x y z
#
# Youngs Moduli (GPa) = 72.59704 38.94616 34.73950
#
# Poissons Ratio (x) = 0.27977 0.02414
# Poissons Ratio (y) = 0.52150 -0.01355
# Poissons Ratio (z) = 0.05045 -0.01519
#
# Static dielectric constant tensor:
#      x y z
#    x 4.452270 -0.118370 0.132030 
#    y -0.118370 4.735380 -0.473050 
#    z 0.132030 -0.473050 4.074810 
# 
# 
# High freq. dielectric constant tensor:
#      x y z
#    x 1.935190 -0.000380 -0.001130 
#    y -0.000380 1.928360 -0.022830 
#    z -0.001130 -0.022830 1.907300 
# 
# From -- ./inp_files/223136.got.cif
#   From: 2010.06.25/outbox.cif.g09.slc.cpg/sg2_112_cif.got.tgz:223136.got - 2010.06.27 13:26:56.
