data_PCOD8008187
_publ_section_title
;
Structure prediction by ZEFSAII (Michael W. Deem and Ramdas Pophale) SiO2 
 PCOD8008187
Probable space group: P -1
;
_chemical_formula_sum "Si O2"
_cell_formula_units_Z 16
_cell_length_a 15.569118
_cell_length_b 12.870001
_cell_length_c 15.209483
_cell_angle_alpha 28.420595
_cell_angle_beta 146.481527
_cell_angle_gamma 145.531713
_cell_volume 751.175373
_symmetry_space_group_name_H-M "P -1"
_symmetry_group_IT_number 2
_symmetry_cell_setting 'triclinic'
loop_
_space_group_symop_operation_xyz
x,y,z
-x,-y,-z
loop_
_atom_site_type_symbol
_atom_site_label
_atom_site_fract_x
_atom_site_fract_y
_atom_site_fract_z
Si Si1 0.971957 0.758515 0.609577
Si Si2 0.012875 0.017310 0.725226
Si Si3 0.655329 0.963915 0.923691
Si Si4 0.380837 0.557608 0.922184
Si Si5 0.194016 0.047055 0.132254
Si Si6 0.145709 0.731620 0.475566
Si Si7 0.644999 0.402510 0.679404
Si Si8 0.141724 0.508567 0.048735
O O1 0.984089 0.802544 0.483577
O O2 0.794146 0.584477 0.617084
O O3 0.000000 0.000000 0.500000
O O4 0.118427 0.654670 0.835276
O O5 0.946405 0.101433 0.691464
O O6 0.201470 0.029876 0.889990
O O7 0.882457 0.757979 0.793935
O O8 0.494130 0.725851 0.969367
O O9 0.730251 0.985541 0.873132
O O10 0.590303 0.169845 0.746029
O O11 0.276169 0.693215 0.682640
O O12 0.500000 0.500000 0.000000
O O13 0.266746 0.304577 0.047225
O O14 0.237800 0.860967 0.369890
O O15 0.000000 0.000000 0.000000
O O16 0.000000 0.500000 0.500000
O O17 0.500000 0.500000 0.500000
O O18 0.691543 0.361324 0.850920
O O19 0.000000 0.500000 0.000000
#
# Coordination Sequence:
#
# PCOD8008187 Si02
#       8
#     2   2   2   2   2   2   2   2
#     4  11  21  41  73  93 124 180 224 269 330 391
#     4  12  23  41  69 100 129 175 228 273 333 390
#     4  11  23  44  67  97 141 175 214 286 338 392
#     4  10  24  44  63  96 139 169 219 279 336 398
#     4  11  22  45  71  99 130 175 225 275 336 392
#     4  12  25  41  71 101 131 173 230 275 323 411
#     4  11  24  43  65  98 139 173 220 276 334 396
#     4  10  20  42  67  94 131 169 223 278 313 393
#
# _framework density 21.299952999999999
#
# number of rings (size 3 to 8) (size 9 to 14) (size 15 to 20)
#    0.000    1.000    7.500    0.750    3.500    3.000 
#    2.250    3.750    0.000    0.000    0.000    0.000 
#    0.000    0.000    0.000    0.000    0.000    0.000 
#
# Total GULP energy -198270.410240 kJ/mol
# GULP energy per Si atom -12391.900640 kJ/mol
# Density = 2.125147 g / cm^3
# Si number density = 21.299953 Si / 1000 Ang^3
#
#
#
# Elastic Constant Matrix: (Units=GPa)
#
#
# Indices 1 2 3 4 5 6 
#
# 1 67.2073 33.7184 38.5268 -8.2210 3.3498 -11.0119
# 2 33.7184 155.3072 41.4026 -25.1090 5.0784 -9.5220
# 3 38.5268 41.4026 126.0810 -6.3859 -7.9276 -5.7733
# 4 -8.2210 -25.1090 -6.3859 44.6922 -2.4210 3.4619
# 5 3.3498 5.0784 -7.9276 -2.4210 51.0246 -3.9151
# 6 -11.0119 -9.5220 -5.7733 3.4619 -3.9151 30.1743
#
#
#
# Elastic Compliance Matrix: (Units=1/GPa)
#
#
# Indices 1 2 3 4 5 6 
#
# 1 0.020124 -0.002451 -0.005136 0.001105 -0.001418 0.005277
# 2 -0.002451 0.008112 -0.001729 0.003760 -0.000674 0.000816
# 3 -0.005136 -0.001729 0.010173 -0.000338 0.002061 -0.000167
# 4 0.001105 0.003760 -0.000338 0.024770 0.000581 -0.001241
# 5 -0.001418 -0.000674 0.002061 0.000581 0.020277 0.002229
# 6 0.005277 0.000816 -0.000167 -0.001241 0.002229 0.035724
#
#
# Mechanical properties :
#
#
# Convention : Reuss Voigt Hill
#
# Bulk Modulus (GPa) = 50.56583 63.98790 57.27687
# Shear Modulus (GPa) = 34.62470 40.84139 37.73304
#
# Velocity S-wave (km/s) = 4.03622 4.38361 4.21350
# Velocity P-wave (km/s) = 6.74632 7.46511 7.11480
#
# Compressibility (1/GPa) = 0.01977620
#
# Stress axis : x y z
#
# Youngs Moduli (GPa) = 49.69232 123.27443 98.29474
#
# Poissons Ratio (x) = 0.30219 0.50483
# Poissons Ratio (y) = 0.12181 0.16999
# Poissons Ratio (z) = 0.25521 0.21319
#
# Static dielectric constant tensor:
#      x y z
#    x 3.804630 0.131310 0.109130 
#    y 0.131310 -2.303430 -2.048100 
#    z 0.109130 -2.048100 2.241430 
# 
# 
# High freq. dielectric constant tensor:
#      x y z
#    x 1.819140 -0.010500 0.005050 
#    y -0.010500 1.847200 -0.005290 
#    z 0.005050 -0.005290 1.845580 
# 
# From -- ./inp_files/343022.got.cif
#   From: 2010.06.25/outbox.cif.g09.slc.cpg/sg2_172_cif.got.tgz:343022.got - 2010.06.27 13:26:56.
