data_PCOD8008852
_publ_section_title
;
Structure prediction by ZEFSAII (Michael W. Deem and Ramdas Pophale) SiO2 
 PCOD8008852
Probable space group: P -1
;
_chemical_formula_sum "Si O2"
_cell_formula_units_Z 16
_cell_length_a 12.142619
_cell_length_b 11.630435
_cell_length_c 14.546976
_cell_angle_alpha 114.614521
_cell_angle_beta 150.528869
_cell_angle_gamma 82.868748
_cell_volume 777.383201
_symmetry_space_group_name_H-M "P -1"
_symmetry_group_IT_number 2
_symmetry_cell_setting 'triclinic'
loop_
_space_group_symop_operation_xyz
x,y,z
-x,-y,-z
loop_
_atom_site_type_symbol
_atom_site_label
_atom_site_fract_x
_atom_site_fract_y
_atom_site_fract_z
Si Si1 0.510894 0.908915 0.391862
Si Si2 0.446659 0.030802 0.210339
Si Si3 0.493821 0.595118 0.753222
Si Si4 0.217524 0.561193 0.101708
Si Si5 0.394064 0.375836 0.956662
Si Si6 0.717112 0.933010 0.231970
Si Si7 0.883786 0.354644 0.625919
Si Si8 0.116587 0.061945 0.844850
O O1 0.376533 0.738902 0.267329
O O2 0.500000 0.000000 0.500000
O O3 0.358347 0.921089 0.196850
O O4 0.802067 0.976908 0.583887
O O5 0.643152 0.202195 0.444736
O O6 0.571210 0.999808 0.201710
O O7 0.178803 0.007874 0.966590
O O8 0.573569 0.484264 0.730231
O O9 0.240570 0.583575 0.517443
O O10 0.437167 0.546816 0.802574
O O11 0.757423 0.760803 0.998323
O O12 0.060093 0.486476 0.868792
O O13 0.000000 0.500000 0.000000
O O14 0.443732 0.244730 0.924366
O O15 0.078850 0.309104 0.708968
O O16 0.500000 0.500000 0.000000
O O17 0.756372 0.969591 0.162919
O O18 0.000000 0.000000 0.500000
#
# Coordination Sequence:
#
# PCOD8008852 Si02
#       8
#     2   2   2   2   2   2   2   2
#     4  12  25  42  65  92 123 158 204 260 308 362
#     4  11  22  40  65  93 124 164 206 256 305 361
#     4   9  21  40  61  86 118 160 202 245 297 359
#     4  11  24  42  64  87 119 161 202 248 307 365
#     4  10  21  35  55  86 127 163 198 242 296 355
#     4  11  19  36  63  91 126 166 203 250 306 358
#     4  10  21  40  61  85 120 160 202 245 300 357
#     4  10  22  41  64  92 126 161 208 254 304 363
#
# _framework density 20.581871
#
# number of rings (size 3 to 8) (size 9 to 14) (size 15 to 20)
#    0.000    1.500    2.500    3.375    3.500    2.500 
#    0.000    0.000    0.000    0.000    0.000    0.000 
#    0.000    0.000    0.000    0.000    0.000    0.000 
#
# Total GULP energy -198297.503956 kJ/mol
# GULP energy per Si atom -12393.593997 kJ/mol
# Density = 2.053503 g / cm^3
# Si number density = 20.581871 Si / 1000 Ang^3
#
#
#
# Elastic Constant Matrix: (Units=GPa)
#
#
# Indices 1 2 3 4 5 6 
#
# 1 87.3912 41.6421 14.1514 7.3428 -8.9117 9.2190
# 2 41.6421 106.2322 31.5626 -6.5504 -13.0847 10.6919
# 3 14.1514 31.5626 63.6414 -0.3065 -11.5851 4.4626
# 4 7.3428 -6.5504 -0.3065 39.5574 4.2365 -7.1112
# 5 -8.9117 -13.0847 -11.5851 4.2365 19.3220 5.5925
# 6 9.2190 10.6919 4.4626 -7.1112 5.5925 35.7812
#
#
#
# Elastic Compliance Matrix: (Units=1/GPa)
#
#
# Indices 1 2 3 4 5 6 
#
# 1 0.015441 -0.005336 0.000660 -0.005234 0.006354 -0.004499
# 2 -0.005336 0.013810 -0.004717 0.002365 0.004225 -0.002354
# 3 0.000660 -0.004717 0.020081 -0.002511 0.010696 -0.003436
# 4 -0.005234 0.002365 -0.002511 0.029362 -0.011229 0.008546
# 5 0.006354 0.004225 0.010696 -0.011229 0.071528 -0.017645
# 6 -0.004499 -0.002354 -0.003436 0.008546 -0.017645 0.034695
#
#
# Mechanical properties :
#
#
# Convention : Reuss Voigt Hill
#
# Bulk Modulus (GPa) = 32.73750 47.99745 40.36748
# Shear Modulus (GPa) = 23.37707 30.25939 26.81823
#
# Velocity S-wave (km/s) = 3.37383 3.83847 3.61363
# Velocity P-wave (km/s) = 5.57831 6.55866 6.08825
#
# Compressibility (1/GPa) = 0.03054601
#
# Stress axis : x y z
#
# Youngs Moduli (GPa) = 64.76304 72.41365 49.79750
#
# Poissons Ratio (x) = 0.38640 -0.03286
# Poissons Ratio (y) = 0.34558 0.23488
# Poissons Ratio (z) = -0.04273 0.34155
#
# Static dielectric constant tensor:
#      x y z
#    x 13.805700 -5.861170 -0.878970 
#    y -5.861170 6.984620 0.349700 
#    z -0.878970 0.349700 3.820980 
# 
# 
# High freq. dielectric constant tensor:
#      x y z
#    x 1.793660 0.002090 -0.013160 
#    y 0.002090 1.820670 -0.006830 
#    z -0.013160 -0.006830 1.797470 
# 
# From -- ./inp_files/258405.got.cif
#   From: 2010.06.25/outbox.cif.g09.slc.cpg/sg2_130_cif.got.tgz:258405.got - 2010.06.27 13:26:56.
