data_PCOD8008578
_publ_section_title
;
Structure prediction by ZEFSAII (Michael W. Deem and Ramdas Pophale) SiO2 
 PCOD8008578
Probable space group: P -1
;
_chemical_formula_sum "Si O2"
_cell_formula_units_Z 14
_cell_length_a 8.392000
_cell_length_b 8.528300
_cell_length_c 21.210904
_cell_angle_alpha 147.934697
_cell_angle_beta 59.369854
_cell_angle_gamma 129.089120
_cell_volume 624.384217
_symmetry_space_group_name_H-M "P -1"
_symmetry_group_IT_number 2
_symmetry_cell_setting 'triclinic'
loop_
_space_group_symop_operation_xyz
x,y,z
-x,-y,-z
loop_
_atom_site_type_symbol
_atom_site_label
_atom_site_fract_x
_atom_site_fract_y
_atom_site_fract_z
Si Si1 0.919776 0.768393 0.111716
Si Si2 0.216534 0.222383 0.995781
Si Si3 0.680726 0.793906 0.286672
Si Si4 0.480089 0.960379 0.187177
Si Si5 0.336458 0.640340 0.591858
Si Si6 0.300192 0.347740 0.276693
Si Si7 0.086182 0.733252 0.503698
O O1 0.800612 0.757416 0.068930
O O2 0.783843 0.684987 0.173090
O O3 0.097475 0.130500 0.205081
O O4 0.000000 0.500000 0.000000
O O5 0.383465 0.068849 0.910176
O O6 0.324480 0.602720 0.126570
O O7 0.000000 0.000000 0.000000
O O8 0.480278 0.467522 0.230626
O O9 0.629332 0.091692 0.377575
O O10 0.816228 0.899660 0.360859
O O11 0.632647 0.185556 0.287299
O O12 0.340561 0.137036 0.251941
O O13 0.500000 0.500000 0.500000
O O14 0.103327 0.343176 0.532954
O O15 0.269692 0.660711 0.413772
O O16 0.000000 0.500000 0.500000
#
# Coordination Sequence:
#
# PCOD8008578 Si02
#       7
#     2   2   2   2   2   2   2
#     4  12  25  45  68  99 137 181 225 277 334 401
#     4  11  26  45  68  94 138 177 225 281 337 395
#     4  11  25  44  70 101 137 176 230 275 334 410
#     4  11  24  44  64 102 134 172 225 283 332 393
#     4  11  23  43  71  96 138 177 217 282 342 389
#     4  12  24  41  74  98 137 179 228 272 341 404
#     4  10  20  44  68  95 137 177 217 281 330 398
#
# _framework density 22.422093
#
# number of rings (size 3 to 8) (size 9 to 14) (size 15 to 20)
#    0.000    0.857    5.714    2.143    4.000    0.571 
#    0.000    1.429    0.000    0.000    0.000    0.000 
#    0.000    0.000    0.000    0.000    0.000    0.000 
#
# Total GULP energy -173497.636661 kJ/mol
# GULP energy per Si atom -12392.688333 kJ/mol
# Density = 2.237106 g / cm^3
# Si number density = 22.422093 Si / 1000 Ang^3
#
#
#
# Elastic Constant Matrix: (Units=GPa)
#
#
# Indices 1 2 3 4 5 6 
#
# 1 87.8728 12.7969 11.1453 -31.9084 -5.9245 -0.0628
# 2 12.7969 117.5889 32.7174 -15.9586 -4.6504 32.1237
# 3 11.1453 32.7174 41.9687 -83.3915 -11.8044 -17.1428
# 4 -31.9084 -15.9586 -83.3915 -20.1946 -4.7535 -22.4202
# 5 -5.9245 -4.6504 -11.8044 -4.7535 46.2299 -6.4666
# 6 -0.0628 32.1237 -17.1428 -22.4202 -6.4666 23.4557
#
#
#
# Elastic Compliance Matrix: (Units=1/GPa)
#
#
# Indices 1 2 3 4 5 6 
#
# 1 0.011990 0.000817 -0.003986 0.000587 0.000187 -0.003387
# 2 0.000817 0.013009 -0.001281 0.007019 0.000128 -0.012007
# 3 -0.003986 -0.001281 0.005154 -0.009527 -0.000839 -0.003827
# 4 0.000587 0.007019 -0.009527 0.001817 -0.003682 -0.015852
# 5 0.000187 0.000128 -0.000839 -0.003682 0.021294 0.001563
# 6 -0.003387 -0.012007 -0.003827 -0.015852 0.001563 0.041550
#
#
# Mechanical properties :
#
#
# Convention : Reuss Voigt Hill
#
# Bulk Modulus (GPa) = 47.05246 40.08331 43.56788
# Shear Modulus (GPa) = 45.12650 22.61625 33.87137
#
# Velocity S-wave (km/s) = 4.49106 3.17938 3.89089
# Velocity P-wave (km/s) = 6.92266 5.60299 6.29749
#
# Compressibility (1/GPa) = 0.02125288
#
# Stress axis : x y z
#
# Youngs Moduli (GPa) = 83.40331 76.86705 194.01150
#
# Poissons Ratio (x) = -0.06277 0.77334
# Poissons Ratio (y) = -0.06811 0.24852
# Poissons Ratio (z) = 0.33245 0.09846
#
# Static dielectric constant tensor:
#      x y z
#    x 4.441460 0.324560 0.589580 
#    y 0.324560 3.720570 0.115170 
#    z 0.589580 0.115170 2.796070 
# 
# 
# High freq. dielectric constant tensor:
#      x y z
#    x 1.892840 0.020860 0.006650 
#    y 0.020860 1.856880 -0.003410 
#    z 0.006650 -0.003410 1.900710 
# 
# From -- ./inp_files/491968.got.cif
#   From: 2010.06.25/outbox.cif.g09.slc.cpg/sg2_246_cif.got.tgz:491968.got - 2010.06.27 13:26:56.
