data_PCOD8008935
_publ_section_title
;
Structure prediction by ZEFSAII (Michael W. Deem and Ramdas Pophale) SiO2 
 PCOD8008935
Probable space group: P -1
;
_chemical_formula_sum "Si O2"
_cell_formula_units_Z 16
_cell_length_a 31.946195
_cell_length_b 5.205542
_cell_length_c 9.487343
_cell_angle_alpha 120.297427
_cell_angle_beta 144.734613
_cell_angle_gamma 68.336281
_cell_volume 783.606691
_symmetry_space_group_name_H-M "P -1"
_symmetry_group_IT_number 2
_symmetry_cell_setting 'triclinic'
loop_
_space_group_symop_operation_xyz
x,y,z
-x,-y,-z
loop_
_atom_site_type_symbol
_atom_site_label
_atom_site_fract_x
_atom_site_fract_y
_atom_site_fract_z
Si Si1 0.591692 0.211551 0.702886
Si Si2 0.431670 0.103941 0.159765
Si Si3 0.281039 0.768891 0.157312
Si Si4 0.060827 0.873745 0.348645
Si Si5 0.140669 0.416849 0.582971
Si Si6 0.903863 0.666974 0.860993
Si Si7 0.232729 0.280457 0.327890
Si Si8 0.315788 0.830661 0.573192
O O1 0.518138 0.081458 0.385213
O O2 0.587978 0.558876 0.820386
O O3 0.659976 0.155147 0.779275
O O4 0.601364 0.027673 0.821183
O O5 0.396126 0.909140 0.879078
O O6 0.321316 0.686844 0.391716
O O7 0.237506 0.063754 0.145222
O O8 0.224223 0.495286 0.879077
O O9 0.097637 0.716671 0.539051
O O10 0.070159 0.669610 0.176761
O O11 0.101087 0.200740 0.530398
O O12 0.974999 0.897087 0.145556
O O13 0.137923 0.256074 0.377449
O O14 0.850976 0.688830 0.854412
O O15 0.270509 0.606407 0.491193
O O16 0.274155 0.133714 0.531690
#
# Coordination Sequence:
#
# PCOD8008935 Si02
#       8
#     2   2   2   2   2   2   2   2
#     4  10  23  40  64  90 119 147 201 244 285 341
#     4  10  22  41  64  90 114 156 196 244 284 338
#     4  10  26  38  59  88 125 154 191 238 299 346
#     4   9  21  34  61  85 110 151 199 246 286 338
#     4  10  21  35  60  85 113 149 198 243 288 339
#     4   9  21  37  61  82 116 148 204 237 292 341
#     4  10  24  38  56  88 118 159 189 243 284 362
#     4  10  24  39  59  85 123 155 195 232 295 352
#
# _framework density 20.418407999999999
#
# number of rings (size 3 to 8) (size 9 to 14) (size 15 to 20)
#    1.500    0.750    0.000    1.125    8.750    0.500 
#    0.000    1.875    0.000    0.000    0.000    0.000 
#    0.000    0.000    0.000    0.000    0.000    0.000 
#
# Total GULP energy -198279.908036 kJ/mol
# GULP energy per Si atom -12392.494252 kJ/mol
# Density = 2.037194 g / cm^3
# Si number density = 20.418408 Si / 1000 Ang^3
#
#
#
# Elastic Constant Matrix: (Units=GPa)
#
#
# Indices 1 2 3 4 5 6 
#
# 1 78.1599 21.7359 68.7868 12.5936 29.8019 4.8410
# 2 21.7359 85.7017 29.3148 13.0320 13.9412 30.6471
# 3 68.7868 29.3148 146.6124 1.1893 26.3266 14.9907
# 4 12.5936 13.0320 1.1893 17.9430 7.4154 9.3491
# 5 29.8019 13.9412 26.3266 7.4154 24.7570 6.2222
# 6 4.8410 30.6471 14.9907 9.3491 6.2222 28.4374
#
#
#
# Elastic Compliance Matrix: (Units=1/GPa)
#
#
# Indices 1 2 3 4 5 6 
#
# 1 0.039984 -0.003731 -0.014606 -0.022232 -0.028478 0.018454
# 2 -0.003731 0.020396 0.000107 -0.000662 -0.001679 -0.020817
# 3 -0.014606 0.000107 0.014503 0.014310 0.000341 -0.010054
# 4 -0.022232 -0.000662 0.014310 0.090049 -0.007247 -0.031065
# 5 -0.028478 -0.001679 0.000341 -0.007247 0.079576 -0.008552
# 6 0.018454 -0.020817 -0.010054 -0.031065 -0.008552 0.071842
#
#
# Mechanical properties :
#
#
# Convention : Reuss Voigt Hill
#
# Bulk Modulus (GPa) = 26.02559 61.12769 43.57664
# Shear Modulus (GPa) = 13.67548 26.93657 20.30602
#
# Velocity S-wave (km/s) = 2.59078 3.63606 3.15698
# Velocity P-wave (km/s) = 4.66083 6.90148 5.88871
#
# Compressibility (1/GPa) = 0.03842373
#
# Stress axis : x y z
#
# Youngs Moduli (GPa) = 25.00994 49.02976 68.95160
#
# Poissons Ratio (x) = 0.18291 1.00714
# Poissons Ratio (y) = 0.09330 -0.00741
# Poissons Ratio (z) = 0.36531 -0.00527
#
# Static dielectric constant tensor:
#      x y z
#    x 3.305960 0.164240 0.143640 
#    y 0.164240 3.524810 -0.014660 
#    z 0.143640 -0.014660 3.643510 
# 
# 
# High freq. dielectric constant tensor:
#      x y z
#    x 1.770300 0.018810 0.018130 
#    y 0.018810 1.789910 0.000690 
#    z 0.018130 0.000690 1.799150 
# 
# From -- ./inp_files/358176.got.cif
#   From: 2010.06.25/outbox.cif.g09.slc.cpg/sg2_180_cif.got.tgz:358176.got - 2010.06.27 13:26:56.
