data_PCOD8008383
_publ_section_title
;
Structure prediction by ZEFSAII (Michael W. Deem and Ramdas Pophale) SiO2 
 PCOD8008383
Probable space group: P -1
;
_chemical_formula_sum "Si O2"
_cell_formula_units_Z 16
_cell_length_a 18.159376
_cell_length_b 6.060396
_cell_length_c 6.800975
_cell_angle_alpha 76.860284
_cell_angle_beta 106.552398
_cell_angle_gamma 94.254772
_cell_volume 698.631471
_symmetry_space_group_name_H-M "P -1"
_symmetry_group_IT_number 2
_symmetry_cell_setting 'triclinic'
loop_
_space_group_symop_operation_xyz
x,y,z
-x,-y,-z
loop_
_atom_site_type_symbol
_atom_site_label
_atom_site_fract_x
_atom_site_fract_y
_atom_site_fract_z
Si Si1 0.418491 0.368555 0.654700
Si Si2 0.445446 0.829493 0.382440
Si Si3 0.708669 0.620571 0.156992
Si Si4 0.791692 0.214496 0.489594
Si Si5 0.315543 0.130719 0.295232
Si Si6 0.949344 0.786204 0.058924
Si Si7 0.085008 0.476698 0.297678
Si Si8 0.853033 0.881928 0.320943
O O1 0.423022 0.632648 0.556868
O O2 0.505519 0.268154 0.745870
O O3 0.378218 0.336281 0.842011
O O4 0.366805 0.249222 0.474351
O O5 0.500000 0.000000 0.500000
O O6 0.366891 0.956159 0.238377
O O7 0.732000 0.364865 0.287318
O O8 0.766074 0.788909 0.280840
O O9 0.713660 0.673498 0.916399
O O10 0.840707 0.359142 0.655057
O O11 0.752706 0.010066 0.623920
O O12 0.851352 0.116953 0.391884
O O13 0.882578 0.896664 0.117871
O O14 0.005109 0.604962 0.239701
O O15 0.907556 0.654904 0.876413
O O16 0.000000 0.000000 0.000000
O O17 0.085965 0.286680 0.503219
#
# Coordination Sequence:
#
# PCOD8008383 Si02
#       8
#     2   2   2   2   2   2   2   2
#     4  10  20  43  65  98 136 172 231 284 327 405
#     4   9  20  40  70  92 135 179 220 284 338 388
#     4  11  25  40  67 102 135 178 231 272 339 412
#     4  11  24  46  68 100 146 175 224 288 336 405
#     4  11  23  42  68  98 134 184 221 279 343 396
#     4  11  25  45  71  99 133 177 226 275 340 411
#     4  10  25  45  69  97 132 176 222 282 331 411
#     4  11  25  45  66  99 137 178 217 284 340 398
#
# _framework density 22.901914999999999
#
# number of rings (size 3 to 8) (size 9 to 14) (size 15 to 20)
#    0.000    1.500    2.500    1.125    3.500    7.500 
#    0.000    5.625    0.000    0.000    0.000    0.000 
#    0.000    0.000    0.000    0.000    0.000    0.000 
#
# Total GULP energy -198301.726134 kJ/mol
# GULP energy per Si atom -12393.857883 kJ/mol
# Density = 2.284979 g / cm^3
# Si number density = 22.901915 Si / 1000 Ang^3
#
#
#
# Elastic Constant Matrix: (Units=GPa)
#
#
# Indices 1 2 3 4 5 6 
#
# 1 101.0902 44.5656 34.3399 11.3711 -31.1599 -7.6606
# 2 44.5656 115.1185 37.6693 8.2196 -17.8143 6.2923
# 3 34.3399 37.6693 86.3561 1.1155 -18.4936 0.3841
# 4 11.3711 8.2196 1.1155 29.8240 2.6062 -5.4385
# 5 -31.1599 -17.8143 -18.4936 2.6062 33.1432 6.4314
# 6 -7.6606 6.2923 0.3841 -5.4385 6.4314 25.2634
#
#
#
# Elastic Compliance Matrix: (Units=1/GPa)
#
#
# Indices 1 2 3 4 5 6 
#
# 1 0.017080 -0.003409 -0.002420 -0.006381 0.013114 0.001353
# 2 -0.003409 0.011997 -0.003232 -0.003095 0.002718 -0.005331
# 3 -0.002420 -0.003232 0.014908 0.000654 0.004479 -0.001155
# 4 -0.006381 -0.003095 0.000654 0.039810 -0.012481 0.010573
# 5 0.013114 0.002718 0.004479 -0.012481 0.049797 -0.012132
# 6 0.001353 -0.005331 -0.001155 0.010573 -0.012132 0.046703
#
#
# Mechanical properties :
#
#
# Convention : Reuss Voigt Hill
#
# Bulk Modulus (GPa) = 38.66529 59.52384 49.09456
# Shear Modulus (GPa) = 24.15014 30.04543 27.09778
#
# Velocity S-wave (km/s) = 3.25083 3.62597 3.44351
# Velocity P-wave (km/s) = 5.56868 6.60132 6.10687
#
# Compressibility (1/GPa) = 0.02586299
#
# Stress axis : x y z
#
# Youngs Moduli (GPa) = 58.54899 83.35460 67.07864
#
# Poissons Ratio (x) = 0.28417 0.16232
# Poissons Ratio (y) = 0.19960 0.21679
# Poissons Ratio (z) = 0.14168 0.26939
#
# Static dielectric constant tensor:
#      x y z
#    x 4.431550 -0.274350 0.036870 
#    y -0.274350 4.466790 -0.049440 
#    z 0.036870 -0.049440 3.855060 
# 
# 
# High freq. dielectric constant tensor:
#      x y z
#    x 1.914530 -0.004730 -0.002680 
#    y -0.004730 1.916400 -0.004440 
#    z -0.002680 -0.004440 1.879470 
# 
# From -- ./inp_files/10861.got.cif
#   From: 2010.06.25/outbox.cif.g09.slc.cpg/sg2_6_cif.got.tgz:10861.got - 2010.06.27 13:26:56.
