data_PCOD8008228
_publ_section_title
;
Structure prediction by ZEFSAII (Michael W. Deem and Ramdas Pophale) SiO2 
 PCOD8008228
Probable space group: P -1
;
_chemical_formula_sum "Si O2"
_cell_formula_units_Z 16
_cell_length_a 9.939736
_cell_length_b 14.514072
_cell_length_c 8.230847
_cell_angle_alpha 136.163186
_cell_angle_beta 95.402497
_cell_angle_gamma 66.991008
_cell_volume 723.405209
_symmetry_space_group_name_H-M "P -1"
_symmetry_group_IT_number 2
_symmetry_cell_setting 'triclinic'
loop_
_space_group_symop_operation_xyz
x,y,z
-x,-y,-z
loop_
_atom_site_type_symbol
_atom_site_label
_atom_site_fract_x
_atom_site_fract_y
_atom_site_fract_z
Si Si1 0.050157 0.598559 0.922590
Si Si2 0.431757 0.400801 0.290478
Si Si3 0.686226 0.087690 0.883429
Si Si4 0.268966 0.028239 0.897681
Si Si5 0.756224 0.593603 0.008567
Si Si6 0.234060 0.321548 0.392979
Si Si7 0.977116 0.085742 0.772312
Si Si8 0.422586 0.132183 0.467433
O O1 0.171735 0.527871 0.994218
O O2 0.087032 0.478143 0.626340
O O3 0.067514 0.740636 0.042689
O O4 0.880184 0.642629 0.019229
O O5 0.500000 0.500000 0.500000
O O6 0.361587 0.355812 0.375745
O O7 0.573651 0.259043 0.049523
O O8 0.302826 0.478116 0.232807
O O9 0.854674 0.060495 0.829907
O O10 0.630351 0.991354 0.639134
O O11 0.671318 0.049522 0.021036
O O12 0.131735 0.000281 0.784678
O O13 0.405445 0.951519 0.685913
O O14 0.201933 0.211602 0.128757
O O15 0.605929 0.747901 0.240698
O O16 0.298736 0.227312 0.441190
O O17 0.000000 0.000000 0.500000
#
# Coordination Sequence:
#
# PCOD8008228 Si02
#       8
#     2   2   2   2   2   2   2   2
#     4  10  23  46  65  95 133 172 223 270 323 390
#     4  12  24  38  61  99 132 172 213 265 330 389
#     4  11  23  42  64  99 133 162 217 272 327 388
#     4  11  22  43  72  95 126 174 220 270 322 387
#     4  10  24  42  70  95 127 177 223 270 323 385
#     4  10  20  42  68  94 125 165 223 269 316 386
#     4  12  27  41  61  99 138 174 213 267 336 388
#     4  10  20  43  72  95 124 168 222 270 317 390
#
# _framework density 22.117618
#
# number of rings (size 3 to 8) (size 9 to 14) (size 15 to 20)
#    0.000    1.250    2.500    3.375    1.750    5.500 
#    0.000    1.875    0.000    0.000    0.000    0.000 
#    0.000    0.000    0.000    0.000    0.000    0.000 
#
# Total GULP energy -198364.676635 kJ/mol
# GULP energy per Si atom -12397.792290 kJ/mol
# Density = 2.206728 g / cm^3
# Si number density = 22.117618 Si / 1000 Ang^3
#
#
#
# Elastic Constant Matrix: (Units=GPa)
#
#
# Indices 1 2 3 4 5 6 
#
# 1 128.8194 15.0745 39.7765 3.8296 -3.3902 10.8281
# 2 15.0745 42.3976 21.2659 10.0368 8.3042 -2.6482
# 3 39.7765 21.2659 117.2820 7.3196 -7.8523 -6.6193
# 4 3.8296 10.0368 7.3196 21.0820 -4.9019 2.6629
# 5 -3.3902 8.3042 -7.8523 -4.9019 45.2970 -2.0385
# 6 10.8281 -2.6482 -6.6193 2.6629 -2.0385 28.9774
#
#
#
# Elastic Compliance Matrix: (Units=1/GPa)
#
#
# Indices 1 2 3 4 5 6 
#
# 1 0.009338 -0.002495 -0.003006 0.001233 0.000567 -0.004477
# 2 -0.002495 0.032296 -0.004373 -0.015833 -0.008410 0.003748
# 3 -0.003006 -0.004373 0.010761 -0.000963 0.002493 0.003446
# 4 0.001233 -0.015833 -0.000963 0.057991 0.008796 -0.006838
# 5 0.000567 -0.008410 0.002493 0.008796 0.025069 0.000544
# 6 -0.004477 0.003748 0.003446 -0.006838 0.000544 0.037979
#
#
# Mechanical properties :
#
#
# Convention : Reuss Voigt Hill
#
# Bulk Modulus (GPa) = 30.63152 48.97030 39.80091
# Shear Modulus (GPa) = 24.50204 33.23010 28.86607
#
# Velocity S-wave (km/s) = 3.33198 3.88032 3.61656
# Velocity P-wave (km/s) = 5.35558 6.50114 5.95596
#
# Compressibility (1/GPa) = 0.03264611
#
# Stress axis : x y z
#
# Youngs Moduli (GPa) = 107.09399 30.96315 92.93232
#
# Poissons Ratio (x) = 0.07724 0.27937
# Poissons Ratio (y) = 0.26716 0.40643
# Poissons Ratio (z) = 0.32195 0.13542
#
# Static dielectric constant tensor:
#      x y z
#    x 6.063570 0.611880 1.529420 
#    y 0.611880 4.188080 0.470210 
#    z 1.529420 0.470210 5.581000 
# 
# 
# High freq. dielectric constant tensor:
#      x y z
#    x 1.869900 -0.006190 -0.006550 
#    y -0.006190 1.874770 -0.004570 
#    z -0.006550 -0.004570 1.878690 
# 
# From -- ./inp_files/208387.got.cif
#   From: 2010.06.25/outbox.cif.g09.slc.cpg/sg2_105_cif.got.tgz:208387.got - 2010.06.27 13:26:56.
