data_PCOD8008604
_publ_section_title
;
Structure prediction by ZEFSAII (Michael W. Deem and Ramdas Pophale) SiO2 
 PCOD8008604
Probable space group: P -1
;
_chemical_formula_sum "Si O2"
_cell_formula_units_Z 16
_cell_length_a 7.261659
_cell_length_b 12.196160
_cell_length_c 8.889792
_cell_angle_alpha 94.956238
_cell_angle_beta 73.513304
_cell_angle_gamma 130.378638
_cell_volume 569.963174
_symmetry_space_group_name_H-M "P -1"
_symmetry_group_IT_number 2
_symmetry_cell_setting 'triclinic'
loop_
_space_group_symop_operation_xyz
x,y,z
-x,-y,-z
loop_
_atom_site_type_symbol
_atom_site_label
_atom_site_fract_x
_atom_site_fract_y
_atom_site_fract_z
Si Si1 0.960207 0.699075 0.323400
Si Si2 0.239646 0.829893 0.790951
Si Si3 0.447066 0.856234 0.438954
Si Si4 0.763537 0.326309 0.977129
Si Si5 0.719288 0.438168 0.539631
Si Si6 0.745240 0.954951 0.993070
Si Si7 0.268345 0.463694 0.135064
Si Si8 0.940210 0.936316 0.341505
O O1 0.223290 0.798150 0.369078
O O2 0.733028 0.540941 0.426664
O O3 0.830258 0.770225 0.353668
O O4 0.026259 0.678212 0.140671
O O5 0.415078 0.919864 0.609697
O O6 0.293209 0.730895 0.844313
O O7 0.942181 0.709303 0.799328
O O8 0.307274 0.943615 0.915871
O O9 0.431556 0.726638 0.498352
O O10 0.738279 0.951315 0.315636
O O11 0.495565 0.212100 0.935933
O O12 0.849550 0.485017 0.943919
O O13 0.626335 0.446677 0.724499
O O14 0.000000 0.500000 0.500000
O O15 0.798895 0.978839 0.803128
O O16 0.000000 0.000000 0.000000
O O17 0.500000 0.500000 0.000000
O O18 0.000000 0.000000 0.500000
#
# Coordination Sequence:
#
# PCOD8008604 Si02
#       8
#     2   2   2   2   2   2   2   2
#     4  11  23  46  75  98 143 186 233 294 354 419
#     4  12  25  45  72 107 141 187 238 295 365 421
#     4  11  24  46  75 100 144 187 233 294 362 415
#     4  12  24  46  72 100 148 192 230 299 357 425
#     4  10  20  44  71 100 137 182 236 285 352 433
#     4  12  28  47  70 104 148 187 244 294 358 428
#     4  12  25  42  75 108 141 182 241 293 358 428
#     4  12  29  46  70 109 139 187 250 287 345 434
#
# _framework density 28.071987
#
# number of rings (size 3 to 8) (size 9 to 14) (size 15 to 20)
#    0.000    0.500    6.250    3.000    5.250    3.000 
#    0.000    0.000    0.000    0.000    0.000    0.000 
#    0.000    0.000    0.000    0.000    0.000    0.000 
#
# Total GULP energy -198372.596147 kJ/mol
# GULP energy per Si atom -12398.287259 kJ/mol
# Density = 2.800809 g / cm^3
# Si number density = 28.071987 Si / 1000 Ang^3
#
#
#
# Elastic Constant Matrix: (Units=GPa)
#
#
# Indices 1 2 3 4 5 6 
#
# 1 76.1708 -7.4679 18.0146 3.5257 -23.9415 -8.9855
# 2 -7.4679 97.5674 31.8423 -0.5434 -19.1861 -6.1739
# 3 18.0146 31.8423 182.1779 -3.1832 -26.6180 -13.5068
# 4 3.5257 -0.5434 -3.1832 50.9596 -4.6505 1.7155
# 5 -23.9415 -19.1861 -26.6180 -4.6505 48.9170 2.5623
# 6 -8.9855 -6.1739 -13.5068 1.7155 2.5623 40.1561
#
#
#
# Elastic Compliance Matrix: (Units=1/GPa)
#
#
# Indices 1 2 3 4 5 6 
#
# 1 0.016926 0.003529 -0.000715 -0.000471 0.009050 0.003532
# 2 0.003529 0.012239 -0.001530 0.000244 0.005625 0.001788
# 3 -0.000715 -0.001530 0.006312 0.000600 0.002461 0.001545
# 4 -0.000471 0.000244 0.000600 0.019919 0.002130 -0.000853
# 5 0.009050 0.005625 0.002461 0.002130 0.028525 0.001806
# 6 0.003532 0.001788 0.001545 -0.000853 0.001806 0.026409
#
#
# Mechanical properties :
#
#
# Convention : Reuss Voigt Hill
#
# Bulk Modulus (GPa) = 26.28288 48.96601 37.62444
# Shear Modulus (GPa) = 41.51327 48.90835 45.21081
#
# Velocity S-wave (km/s) = 3.84971 4.17855 4.01750
# Velocity P-wave (km/s) = 5.39846 6.38446 5.91205
#
# Compressibility (1/GPa) = 0.03804758
#
# Stress axis : x y z
#
# Youngs Moduli (GPa) = 59.07911 81.70421 158.43404
#
# Poissons Ratio (x) = -0.28836 0.11323
# Poissons Ratio (y) = -0.20851 0.24234
# Poissons Ratio (z) = 0.04222 0.12497
#
# Static dielectric constant tensor:
#      x y z
#    x 4.975540 0.049350 -0.408770 
#    y 0.049350 6.785280 -0.796500 
#    z -0.408770 -0.796500 5.913030 
# 
# 
# High freq. dielectric constant tensor:
#      x y z
#    x 2.132660 0.000070 -0.008570 
#    y 0.000070 2.162490 -0.008910 
#    z -0.008570 -0.008910 2.147730 
# 
# From -- ./inp_files/189058.got.cif
#   From: 2010.06.25/outbox.cif.g09.slc.cpg/sg2_95_cif.got.tgz:189058.got - 2010.06.27 13:26:56.
