data_PCOD8008703
_publ_section_title
;
Structure prediction by ZEFSAII (Michael W. Deem and Ramdas Pophale) SiO2 
 PCOD8008703
Probable space group: P -1
;
_chemical_formula_sum "Si O2"
_cell_formula_units_Z 16
_cell_length_a 9.145292
_cell_length_b 8.008934
_cell_length_c 24.337436
_cell_angle_alpha 51.988204
_cell_angle_beta 131.216447
_cell_angle_gamma 91.385094
_cell_volume 808.347108
_symmetry_space_group_name_H-M "P -1"
_symmetry_group_IT_number 2
_symmetry_cell_setting 'triclinic'
loop_
_space_group_symop_operation_xyz
x,y,z
-x,-y,-z
loop_
_atom_site_type_symbol
_atom_site_label
_atom_site_fract_x
_atom_site_fract_y
_atom_site_fract_z
Si Si1 0.204764 0.186553 0.680777
Si Si2 0.152645 0.861767 0.885479
Si Si3 0.988219 0.777479 0.485775
Si Si4 0.603210 0.745255 0.949280
Si Si5 0.767983 0.847064 0.071548
Si Si6 0.183434 0.245388 0.331359
Si Si7 0.787687 0.215375 0.630338
Si Si8 0.296213 0.970875 0.524638
O O1 0.202260 0.087046 0.640102
O O2 0.178915 0.452181 0.609284
O O3 0.965625 0.275151 0.638942
O O4 0.474313 0.948822 0.823899
O O5 0.384715 0.797190 0.921988
O O6 0.131931 0.992631 0.914124
O O7 0.205281 0.571732 0.961781
O O8 0.885717 0.089387 0.741604
O O9 0.798871 0.917494 0.461011
O O10 0.182707 0.826277 0.510234
O O11 0.752615 0.822230 0.006378
O O12 0.921281 0.542124 0.195317
O O13 0.500000 0.000000 0.000000
O O14 0.209760 0.211387 0.410861
O O15 0.188227 0.008573 0.355489
O O16 0.398743 0.243904 0.357963
O O17 0.500000 0.500000 0.500000
#
# Coordination Sequence:
#
# PCOD8008703 Si02
#       8
#     2   2   2   2   2   2   2   2
#     4  10  21  36  61  82 116 160 206 243 299 364
#     4   9  19  32  52  83 122 154 193 244 307 353
#     4  10  21  40  56  88 117 166 202 240 301 374
#     4   9  18  36  52  83 116 152 199 254 286 358
#     4  10  21  33  57  90 122 156 196 251 311 359
#     4  11  22  38  59  94 125 151 200 261 308 356
#     4  11  21  34  57  93 125 158 191 256 319 355
#     4  10  23  37  59  87 123 156 197 250 306 361
#
# _framework density 19.793478
#
# number of rings (size 3 to 8) (size 9 to 14) (size 15 to 20)
#    0.000    2.000    2.500    0.750   10.500    0.000 
#    2.250    0.000    0.000    1.500    0.000    0.000 
#    0.000    0.000    0.000    0.000    0.000    0.000 
#
# Total GULP energy -198261.796462 kJ/mol
# GULP energy per Si atom -12391.362279 kJ/mol
# Density = 1.974843 g / cm^3
# Si number density = 19.793478 Si / 1000 Ang^3
#
#
#
# Elastic Constant Matrix: (Units=GPa)
#
#
# Indices 1 2 3 4 5 6 
#
# 1 -55.3838 43.4808 -37.4361 -37.4448 18.9098 161.3372
# 2 43.4808 130.6192 74.2741 14.8709 -13.3703 -45.0432
# 3 -37.4361 74.2741 130.4102 -15.9885 9.7060 72.7047
# 4 -37.4448 14.8709 -15.9885 20.8083 -0.7645 45.6677
# 5 18.9098 -13.3703 9.7060 -0.7645 22.7833 -22.6880
# 6 161.3372 -45.0432 72.7047 45.6677 -22.6880 -172.8009
#
#
#
# Elastic Compliance Matrix: (Units=1/GPa)
#
#
# Indices 1 2 3 4 5 6 
#
# 1 0.011363 0.000909 -0.002433 -0.001453 0.000900 0.008847
# 2 0.000909 0.008326 -0.003034 -0.000086 0.002486 -0.002947
# 3 -0.002433 -0.003034 0.007722 -0.000353 -0.001233 0.001837
# 4 -0.001453 -0.000086 -0.000353 0.032406 0.008353 0.005984
# 5 0.000900 0.002486 -0.001233 0.008353 0.041815 -0.003610
# 6 0.008847 -0.002947 0.001837 0.005984 -0.003610 0.006069
#
#
# Mechanical properties :
#
#
# Convention : Reuss Voigt Hill
#
# Bulk Modulus (GPa) = 54.65539 40.69811 47.67675
# Shear Modulus (GPa) = 40.67815 -17.48674 11.59571
#
# Velocity S-wave (km/s) = 4.53827 -2.97553 2.42303
# Velocity P-wave (km/s) = 7.42523 2.96664 5.65398
#
# Compressibility (1/GPa) = 0.01829646
#
# Stress axis : x y z
#
# Youngs Moduli (GPa) = 88.00160 120.10184 129.50018
#
# Poissons Ratio (x) = -0.10918 0.31507
# Poissons Ratio (y) = -0.08000 0.39287
# Poissons Ratio (z) = 0.21411 0.36435
#
# Static dielectric constant tensor:
#      x y z
#    x 3.231690 -0.067520 -0.103850 
#    y -0.067520 4.229540 0.232470 
#    z -0.103850 0.232470 3.666750 
# 
# 
# High freq. dielectric constant tensor:
#      x y z
#    x 1.726470 -0.006560 -0.002340 
#    y -0.006560 1.791390 0.007780 
#    z -0.002340 0.007780 1.777900 
# 
# From -- ./inp_files/254373.got.cif
#   From: 2010.06.25/outbox.cif.g09.slc.cpg/sg2_128_cif.got.tgz:254373.got - 2010.06.27 13:26:56.
