data_PCOD8008875
_publ_section_title
;
Structure prediction by ZEFSAII (Michael W. Deem and Ramdas Pophale) SiO2 
 PCOD8008875
Probable space group: P -1
;
_chemical_formula_sum "Si O2"
_cell_formula_units_Z 14
_cell_length_a 6.157272
_cell_length_b 6.493495
_cell_length_c 16.550777
_cell_angle_alpha 76.311769
_cell_angle_beta 94.014687
_cell_angle_gamma 92.639829
_cell_volume 641.067270
_symmetry_space_group_name_H-M "P -1"
_symmetry_group_IT_number 2
_symmetry_cell_setting 'triclinic'
loop_
_space_group_symop_operation_xyz
x,y,z
-x,-y,-z
loop_
_atom_site_type_symbol
_atom_site_label
_atom_site_fract_x
_atom_site_fract_y
_atom_site_fract_z
Si Si1 0.690667 0.157612 0.963965
Si Si2 0.954336 0.016510 0.121586
Si Si3 0.349887 0.862838 0.602097
Si Si4 0.073371 0.714255 0.754174
Si Si5 0.385961 0.371473 0.832445
Si Si6 0.331091 0.499875 0.313324
Si Si7 0.394910 0.714420 0.451030
O O1 0.572479 0.367543 0.908130
O O2 0.855273 0.192150 0.040683
O O3 0.820298 0.061719 0.900729
O O4 0.500000 0.000000 0.000000
O O5 0.013008 0.116411 0.200401
O O6 0.780682 0.825680 0.145846
O O7 0.158951 0.829265 0.664823
O O8 0.559525 0.719443 0.637114
O O9 0.255512 0.802182 0.515171
O O10 0.421201 0.108744 0.583832
O O11 0.263176 0.591167 0.816531
O O12 0.882012 0.549635 0.740370
O O13 0.497678 0.361861 0.748350
O O14 0.259287 0.648855 0.372918
O O15 0.500000 0.500000 0.500000
#
# Coordination Sequence:
#
# PCOD8008875 Si02
#       7
#     2   2   2   2   2   2   2
#     4   9  20  39  61  84 115 156 196 241 295 345
#     4  10  21  39  60  85 118 154 196 244 293 349
#     4   9  20  38  58  84 116 153 193 236 287 342
#     4  11  23  36  59  91 117 151 198 241 291 348
#     4  10  21  39  59  84 118 155 198 241 289 345
#     4  10  21  35  56  87 118 152 192 239 290 340
#     4   9  18  38  61  81 116 156 191 234 285 342
#
# _framework density 21.838581999999999
#
# number of rings (size 3 to 8) (size 9 to 14) (size 15 to 20)
#    0.000    2.286    0.000    1.714    0.000    8.000 
#    0.000   16.429    0.000    0.000    0.000    0.000 
#    0.000    0.000    0.000    0.000    0.000    0.000 
#
# Total GULP energy -173499.174936 kJ/mol
# GULP energy per Si atom -12392.798210 kJ/mol
# Density = 2.178888 g / cm^3
# Si number density = 21.838582 Si / 1000 Ang^3
#
#
#
# Elastic Constant Matrix: (Units=GPa)
#
#
# Indices 1 2 3 4 5 6 
#
# 1 96.2391 29.0066 47.6655 3.9967 -19.5623 1.6441
# 2 29.0066 80.5666 46.1159 5.4342 -18.8878 14.0502
# 3 47.6655 46.1159 109.6750 9.0243 -33.2391 3.2542
# 4 3.9967 5.4342 9.0243 46.2516 -5.6939 2.4993
# 5 -19.5623 -18.8878 -33.2391 -5.6939 28.7832 -0.1938
# 6 1.6441 14.0502 3.2542 2.4993 -0.1938 18.2876
#
#
#
# Elastic Compliance Matrix: (Units=1/GPa)
#
#
# Indices 1 2 3 4 5 6 
#
# 1 0.013689 -0.001967 -0.004195 0.000207 0.003216 0.001033
# 2 -0.001967 0.019998 -0.005534 0.000327 0.005365 -0.014191
# 3 -0.004195 -0.005534 0.017341 -0.000819 0.013393 0.001797
# 4 0.000207 0.000327 -0.000819 0.022363 0.003812 -0.003140
# 5 0.003216 0.005365 0.013393 0.003812 0.056624 -0.006715
# 6 0.001033 -0.014191 0.001797 -0.003140 -0.006715 0.065530
#
#
# Mechanical properties :
#
#
# Convention : Reuss Voigt Hill
#
# Bulk Modulus (GPa) = 36.18508 59.11739 47.65123
# Shear Modulus (GPa) = 21.91537 29.57731 25.74634
#
# Velocity S-wave (km/s) = 3.17127 3.68416 3.43729
# Velocity P-wave (km/s) = 5.47856 6.72505 6.13355
#
# Compressibility (1/GPa) = 0.02763570
#
# Stress axis : x y z
#
# Youngs Moduli (GPa) = 73.05143 50.00417 57.66665
#
# Poissons Ratio (x) = 0.09838 0.24192
# Poissons Ratio (y) = 0.14372 0.31912
# Poissons Ratio (z) = 0.30646 0.27671
#
# Static dielectric constant tensor:
#      x y z
#    x 3.800470 -0.138150 0.069500 
#    y -0.138150 3.769020 -0.074670 
#    z 0.069500 -0.074670 4.683540 
# 
# 
# High freq. dielectric constant tensor:
#      x y z
#    x 1.839820 -0.002760 -0.009480 
#    y -0.002760 1.838440 -0.010650 
#    z -0.009480 -0.010650 1.886770 
# 
# From -- ./inp_files/7796.got.cif
#   From: 2010.06.25/outbox.cif.g09.slc.cpg/sg2_4_cif.got.tgz:7796.got - 2010.06.27 13:26:56.
