data_PCOD8008927
_publ_section_title
;
Structure prediction by ZEFSAII (Michael W. Deem and Ramdas Pophale) SiO2 
 PCOD8008927
Probable space group: P -1
;
_chemical_formula_sum "Si O2"
_cell_formula_units_Z 16
_cell_length_a 5.078631
_cell_length_b 12.738917
_cell_length_c 11.956885
_cell_angle_alpha 100.029980
_cell_angle_beta 82.061090
_cell_angle_gamma 80.595205
_cell_volume 740.374264
_symmetry_space_group_name_H-M "P -1"
_symmetry_group_IT_number 2
_symmetry_cell_setting 'triclinic'
loop_
_space_group_symop_operation_xyz
x,y,z
-x,-y,-z
loop_
_atom_site_type_symbol
_atom_site_label
_atom_site_fract_x
_atom_site_fract_y
_atom_site_fract_z
Si Si1 0.552245 0.140369 0.917157
Si Si2 0.005318 0.587703 0.418765
Si Si3 0.777632 0.077518 0.673888
Si Si4 0.319487 0.936782 0.652240
Si Si5 0.282446 0.371301 0.933307
Si Si6 0.579907 0.262158 0.545697
Si Si7 0.249007 0.946375 0.902374
Si Si8 0.771082 0.468292 0.845055
O O1 0.800028 0.117372 0.808917
O O2 0.336052 0.242376 0.909668
O O3 0.444231 0.030155 0.892400
O O4 0.626265 0.157333 0.045880
O O5 0.713712 0.659205 0.416221
O O6 0.000000 0.500000 0.500000
O O7 0.195725 0.664895 0.470707
O O8 0.132342 0.525402 0.287154
O O9 0.664004 0.188601 0.636046
O O10 0.572882 0.995808 0.652056
O O11 0.079281 0.013927 0.609956
O O12 0.417370 0.819026 0.572529
O O13 0.193638 0.909224 0.774089
O O14 0.500587 0.417278 0.853058
O O15 0.992312 0.395502 0.896980
O O16 0.285186 0.414302 0.069226
O O17 0.000000 0.000000 0.000000
#
# Coordination Sequence:
#
# PCOD8008927 Si02
#       8
#     2   2   2   2   2   2   2   2
#     4  10  21  35  59  89 120 166 199 238 310 364
#     4  12  26  45  66  89 129 166 214 260 316 370
#     4  11  21  38  65  92 128 157 203 257 305 366
#     4  11  23  40  62  92 129 162 205 254 302 368
#     4  10  22  39  67  95 121 157 206 259 313 364
#     4  12  25  43  66  93 119 169 213 255 311 371
#     4  10  21  38  54  86 130 160 198 242 293 370
#     4  10  22  43  63  94 124 151 206 270 310 359
#
# _framework density 21.610692
#
# number of rings (size 3 to 8) (size 9 to 14) (size 15 to 20)
#    0.000    1.250    1.250    4.875    1.750    2.000 
#    2.250    0.000    0.000    0.000    0.000    0.000 
#    0.000    0.000    0.000    0.000    0.000    0.000 
#
# Total GULP energy -198266.849964 kJ/mol
# GULP energy per Si atom -12391.678123 kJ/mol
# Density = 2.156151 g / cm^3
# Si number density = 21.610692 Si / 1000 Ang^3
#
#
#
# Elastic Constant Matrix: (Units=GPa)
#
#
# Indices 1 2 3 4 5 6 
#
# 1 90.8862 15.9076 6.6776 3.1820 -4.8978 -4.9334
# 2 15.9076 77.9913 42.8664 4.9084 -2.8534 6.8236
# 3 6.6776 42.8664 135.7049 -7.7431 -5.7620 1.5180
# 4 3.1820 4.9084 -7.7431 17.4835 -3.8619 -7.7744
# 5 -4.8978 -2.8534 -5.7620 -3.8619 27.6241 3.5454
# 6 -4.9334 6.8236 1.5180 -7.7744 3.5454 24.4579
#
#
#
# Elastic Compliance Matrix: (Units=1/GPa)
#
#
# Indices 1 2 3 4 5 6 
#
# 1 0.011704 -0.002847 0.000386 0.000552 0.001543 0.003083
# 2 -0.002847 0.018290 -0.006203 -0.011383 -0.000364 -0.008858
# 3 0.000386 -0.006203 0.009820 0.008026 0.002157 0.003437
# 4 0.000552 -0.011383 0.008026 0.077265 0.008037 0.026184
# 5 0.001543 -0.000364 0.002157 0.008037 0.038360 -0.002727
# 6 0.003083 -0.008858 0.003437 0.026184 -0.002727 0.052485
#
#
# Mechanical properties :
#
#
# Convention : Reuss Voigt Hill
#
# Bulk Modulus (GPa) = 44.47331 48.38730 46.43030
# Shear Modulus (GPa) = 21.48241 29.85516 25.66878
#
# Velocity S-wave (km/s) = 3.15630 3.72088 3.45016
# Velocity P-wave (km/s) = 5.82297 6.39523 6.11580
#
# Compressibility (1/GPa) = 0.02248540
#
# Stress axis : x y z
#
# Youngs Moduli (GPa) = 85.44118 54.67371 101.82794
#
# Poissons Ratio (x) = 0.15568 -0.03931
# Poissons Ratio (y) = 0.24329 0.63167
# Poissons Ratio (z) = -0.03299 0.33916
#
# Static dielectric constant tensor:
#      x y z
#    x 4.038180 -0.324990 0.302160 
#    y -0.324990 3.953600 -0.206040 
#    z 0.302160 -0.206040 4.760070 
# 
# 
# High freq. dielectric constant tensor:
#      x y z
#    x 1.855920 -0.008860 -0.001250 
#    y -0.008860 1.835450 0.002140 
#    z -0.001250 0.002140 1.865350 
# 
# From -- ./inp_files/363047.got.cif
#   From: 2010.06.25/outbox.cif.g09.slc.cpg/sg2_182_cif.got.tgz:363047.got - 2010.06.27 13:26:56.
