data_PCOD8008951
_publ_section_title
;
Structure prediction by ZEFSAII (Michael W. Deem and Ramdas Pophale) SiO2 
 PCOD8008951
Probable space group: P -1
;
_chemical_formula_sum "Si O2"
_cell_formula_units_Z 12
_cell_length_a 4.938421
_cell_length_b 15.046853
_cell_length_c 8.849061
_cell_angle_alpha 118.104246
_cell_angle_beta 104.992016
_cell_angle_gamma 58.412986
_cell_volume 494.027300
_symmetry_space_group_name_H-M "P -1"
_symmetry_group_IT_number 2
_symmetry_cell_setting 'triclinic'
loop_
_space_group_symop_operation_xyz
x,y,z
-x,-y,-z
loop_
_atom_site_type_symbol
_atom_site_label
_atom_site_fract_x
_atom_site_fract_y
_atom_site_fract_z
Si Si1 0.423093 0.776845 0.700336
Si Si2 0.938759 0.364558 0.462588
Si Si3 0.520510 0.512375 0.261937
Si Si4 0.497294 0.827594 0.080143
Si Si5 0.327154 0.393813 0.914849
Si Si6 0.759168 0.975654 0.146846
O O1 0.159805 0.735556 0.651453
O O2 0.685398 0.690180 0.552114
O O3 0.269626 0.903766 0.706162
O O4 0.590635 0.772030 0.881728
O O5 0.771516 0.465611 0.396565
O O6 0.835881 0.420564 0.660836
O O7 0.580175 0.602010 0.242154
O O8 0.573480 0.407024 0.076540
O O9 0.643707 0.730055 0.150657
O O10 0.666251 0.907052 0.203579
O O11 0.116738 0.898788 0.081244
O O12 0.000000 0.500000 0.000000
O O13 0.500000 0.000000 0.000000
#
# Coordination Sequence:
#
# PCOD8008951 Si02
#       6
#     2   2   2   2   2   2
#     4  11  20  37  62  90 123 155 202 251 312 353
#     4  11  23  39  64  91 126 159 201 253 308 365
#     4  10  25  39  59  93 122 164 204 248 305 369
#     4  11  21  37  61  92 124 159 201 259 302 357
#     4  11  24  40  64  88 128 164 209 243 309 366
#     4  10  21  35  60  92 124 154 206 256 309 351
#
# _framework density 24.290156
#
# number of rings (size 3 to 8) (size 9 to 14) (size 15 to 20)
#    0.000    1.333    1.667    6.000    7.000    1.333 
#    0.000    0.000    0.000    6.000    0.000    0.000 
#    0.000    0.000    0.000    0.000    0.000    0.000 
#
# Total GULP energy -148787.125626 kJ/mol
# GULP energy per Si atom -12398.927135 kJ/mol
# Density = 2.423487 g / cm^3
# Si number density = 24.290156 Si / 1000 Ang^3
#
#
#
# Elastic Constant Matrix: (Units=GPa)
#
#
# Indices 1 2 3 4 5 6 
#
# 1 86.6416 28.3624 22.9894 -6.3615 -27.3668 4.2200
# 2 28.3624 168.3922 49.1908 0.3945 -22.5755 35.7400
# 3 22.9894 49.1908 89.2616 -4.9639 -29.5892 7.0784
# 4 -6.3615 0.3945 -4.9639 25.9552 7.5747 -12.5500
# 5 -27.3668 -22.5755 -29.5892 7.5747 39.1313 11.1031
# 6 4.2200 35.7400 7.0784 -12.5500 11.1031 49.4825
#
#
#
# Elastic Compliance Matrix: (Units=1/GPa)
#
#
# Indices 1 2 3 4 5 6 
#
# 1 0.015645 0.000048 0.000638 -0.002387 0.013349 -0.005061
# 2 0.000048 0.010236 -0.002188 -0.008744 0.009203 -0.011368
# 3 0.000638 -0.002188 0.017134 -0.002990 0.014094 -0.004846
# 4 -0.002387 -0.008744 -0.002990 0.059624 -0.028599 0.028487
# 5 0.013349 0.009203 0.014094 -0.028599 0.065396 -0.031729
# 6 -0.005061 -0.011368 -0.004846 0.028487 -0.031729 0.043889
#
#
# Mechanical properties :
#
#
# Convention : Reuss Voigt Hill
#
# Bulk Modulus (GPa) = 24.99247 60.59784 42.79515
# Shear Modulus (GPa) = 21.90432 39.16399 30.53415
#
# Velocity S-wave (km/s) = 3.00622 4.01975 3.54935
# Velocity P-wave (km/s) = 4.72877 6.82248 5.86973
#
# Compressibility (1/GPa) = 0.04001206
#
# Stress axis : x y z
#
# Youngs Moduli (GPa) = 63.91999 97.68998 58.36239
#
# Poissons Ratio (x) = -0.00469 -0.03723
# Poissons Ratio (y) = -0.00307 0.12768
# Poissons Ratio (z) = -0.04078 0.21371
#
# Static dielectric constant tensor:
#      x y z
#    x 4.641130 0.586850 0.060520 
#    y 0.586850 4.783240 0.245280 
#    z 0.060520 0.245280 4.438410 
# 
# 
# High freq. dielectric constant tensor:
#      x y z
#    x 1.979060 0.023160 -0.008960 
#    y 0.023160 1.967870 0.012910 
#    z -0.008960 0.012910 1.936950 
# 
# From -- ./inp_files/99050.got.cif
#   From: 2010.06.25/outbox.cif.g09.slc.cpg/sg2_50_cif.got.tgz:99050.got - 2010.06.27 13:26:56.
