data_PCOD8008778
_publ_section_title
;
Structure prediction by ZEFSAII (Michael W. Deem and Ramdas Pophale) SiO2 
 PCOD8008778
Probable space group: P -1
;
_chemical_formula_sum "Si O2"
_cell_formula_units_Z 14
_cell_length_a 8.803200
_cell_length_b 15.268223
_cell_length_c 6.778796
_cell_angle_alpha 86.832962
_cell_angle_beta 87.327427
_cell_angle_gamma 48.150612
_cell_volume 677.608787
_symmetry_space_group_name_H-M "P -1"
_symmetry_group_IT_number 2
_symmetry_cell_setting 'triclinic'
loop_
_space_group_symop_operation_xyz
x,y,z
-x,-y,-z
loop_
_atom_site_type_symbol
_atom_site_label
_atom_site_fract_x
_atom_site_fract_y
_atom_site_fract_z
Si Si1 0.106238 0.359540 0.100284
Si Si2 0.567736 0.736975 0.242546
Si Si3 0.527723 0.387311 0.467665
Si Si4 0.018804 0.849828 0.522808
Si Si5 0.115007 0.961738 0.201118
Si Si6 0.150769 0.263557 0.504981
Si Si7 0.150946 0.523718 0.236471
O O1 0.166242 0.262712 0.265649
O O2 0.049579 0.466673 0.221631
O O3 0.290755 0.315386 0.950725
O O4 0.912378 0.401455 0.973222
O O5 0.551783 0.644797 0.345488
O O6 0.353390 0.855863 0.167701
O O7 0.649634 0.772819 0.400395
O O8 0.500000 0.500000 0.500000
O O9 0.760591 0.275171 0.419928
O O10 0.392415 0.422244 0.273768
O O11 0.024924 0.921130 0.348950
O O12 0.872536 0.830984 0.442923
O O13 0.924566 0.927392 0.716764
O O14 0.000000 0.000000 0.000000
O O15 0.949714 0.390875 0.579812
#
# Coordination Sequence:
#
# PCOD8008778 Si02
#       7
#     2   2   2   2   2   2   2
#     4  10  22  35  60  91 128 164 199 246 302 356
#     4  10  24  40  64  91 119 166 207 250 303 360
#     4  11  21  40  63  91 131 164 196 249 306 367
#     4  10  24  42  66  90 118 167 201 250 313 354
#     4  10  24  46  65  87 122 157 208 258 302 361
#     4  11  21  41  62  90 126 156 206 252 302 362
#     4  10  21  34  58  91 127 166 197 238 299 368
#
# _framework density 20.660889999999998
#
# number of rings (size 3 to 8) (size 9 to 14) (size 15 to 20)
#    0.000    1.714    2.857    0.429    6.000    4.000 
#    0.000    2.857    0.000    0.000    0.000    0.000 
#    0.000    0.000    0.000    0.000    0.000    0.000 
#
# Total GULP energy -173528.648411 kJ/mol
# GULP energy per Si atom -12394.903458 kJ/mol
# Density = 2.061386 g / cm^3
# Si number density = 20.660890 Si / 1000 Ang^3
#
#
#
# Elastic Constant Matrix: (Units=GPa)
#
#
# Indices 1 2 3 4 5 6 
#
# 1 95.4817 50.8155 38.7978 -9.4304 18.7338 11.1250
# 2 50.8155 116.8111 46.7391 -2.1929 13.1720 5.8422
# 3 38.7978 46.7391 105.8073 -7.0949 21.1512 0.5802
# 4 -9.4304 -2.1929 -7.0949 28.2247 -8.7241 14.6226
# 5 18.7338 13.1720 21.1512 -8.7241 28.1064 -8.1817
# 6 11.1250 5.8422 0.5802 14.6226 -8.1817 27.7958
#
#
#
# Elastic Compliance Matrix: (Units=1/GPa)
#
#
# Indices 1 2 3 4 5 6 
#
# 1 0.018569 -0.005389 -0.001772 0.009726 -0.009637 -0.014216
# 2 -0.005389 0.012253 -0.003614 -0.002139 0.000145 0.000825
# 3 -0.001772 -0.003614 0.013205 0.000968 -0.007178 -0.001429
# 4 0.009726 -0.002139 0.000968 0.056123 0.001759 -0.032470
# 5 -0.009637 0.000145 -0.007178 0.001759 0.053342 0.018752
# 6 -0.014216 0.000825 -0.001429 -0.032470 0.018752 0.064124
#
#
# Mechanical properties :
#
#
# Convention : Reuss Voigt Hill
#
# Bulk Modulus (GPa) = 44.48689 65.64499 55.06594
# Shear Modulus (GPa) = 20.27108 28.94188 24.60648
#
# Velocity S-wave (km/s) = 3.13570 3.74679 3.45479
# Velocity P-wave (km/s) = 5.88972 7.11052 6.52872
#
# Compressibility (1/GPa) = 0.02247853
#
# Stress axis : x y z
#
# Youngs Moduli (GPa) = 53.85362 81.61141 75.72962
#
# Poissons Ratio (x) = 0.43977 0.13419
# Poissons Ratio (y) = 0.29020 0.27366
# Poissons Ratio (z) = 0.09542 0.29492
#
# Static dielectric constant tensor:
#      x y z
#    x 3.808250 -0.003460 0.156240 
#    y -0.003460 3.830160 -0.118770 
#    z 0.156240 -0.118770 3.852560 
# 
# 
# High freq. dielectric constant tensor:
#      x y z
#    x 1.804680 -0.000930 0.014070 
#    y -0.000930 1.804550 -0.004580 
#    z 0.014070 -0.004580 1.807430 
# 
# From -- ./inp_files/38703.got.cif
#   From: 2010.06.25/outbox.cif.g09.slc.cpg/sg2_20_cif.got.tgz:38703.got - 2010.06.27 13:26:56.
