data_PCOD8008340
_publ_section_title
;
Structure prediction by ZEFSAII (Michael W. Deem and Ramdas Pophale) SiO2 
 PCOD8008340
Probable space group: P -1
;
_chemical_formula_sum "Si O2"
_cell_formula_units_Z 16
_cell_length_a 23.492726
_cell_length_b 17.243055
_cell_length_c 6.833386
_cell_angle_alpha 88.883066
_cell_angle_beta 103.511959
_cell_angle_gamma 160.340422
_cell_volume 715.396413
_symmetry_space_group_name_H-M "P -1"
_symmetry_group_IT_number 2
_symmetry_cell_setting 'triclinic'
loop_
_space_group_symop_operation_xyz
x,y,z
-x,-y,-z
loop_
_atom_site_type_symbol
_atom_site_label
_atom_site_fract_x
_atom_site_fract_y
_atom_site_fract_z
Si Si1 0.638484 0.072245 0.702844
Si Si2 0.046462 0.139984 0.634933
Si Si3 0.763079 0.118993 0.507410
Si Si4 0.781338 0.387807 0.567293
Si Si5 0.532158 0.384604 0.881267
Si Si6 0.271560 0.237370 0.240522
Si Si7 0.851177 0.020732 0.202068
Si Si8 0.260899 0.769679 0.798461
O O1 0.691094 0.052798 0.672662
O O2 0.821449 0.362718 0.735913
O O3 0.392031 0.779996 0.446767
O O4 0.611491 0.046226 0.912828
O O5 0.983563 0.130831 0.443317
O O6 0.309332 0.472309 0.878182
O O7 0.000000 0.000000 0.500000
O O8 0.904502 0.968638 0.724534
O O9 0.702053 0.106827 0.304677
O O10 0.020544 0.437497 0.691410
O O11 0.641462 0.883927 0.375083
O O12 0.670806 0.217289 0.279525
O O13 0.013046 0.725838 0.710081
O O14 0.691996 0.637705 0.857851
O O15 0.394476 0.270246 0.908116
O O16 0.500000 0.500000 0.500000
O O17 0.170641 0.042621 0.028052
#
# Coordination Sequence:
#
# PCOD8008340 Si02
#       8
#     2   2   2   2   2   2   2   2
#     4  10  22  40  64  95 135 177 226 278 336 406
#     4  12  27  47  74 103 138 186 227 291 348 406
#     4  10  23  39  63  98 131 173 230 276 334 405
#     4  10  23  40  65  97 134 177 225 281 335 401
#     4  12  25  48  71 101 144 181 235 287 343 414
#     4  12  26  48  74 103 141 182 227 288 348 414
#     4  12  26  48  71 104 142 181 237 283 344 417
#     4  10  20  43  62  92 134 177 221 281 338 397
#
# _framework density 22.365223
#
# number of rings (size 3 to 8) (size 9 to 14) (size 15 to 20)
#    0.000    1.000    3.750    2.250    3.500    2.000 
#    2.250    0.000    0.000    0.000    0.000    0.000 
#    0.000    0.000    0.000    0.000    0.000    0.000 
#
# Total GULP energy -198305.974805 kJ/mol
# GULP energy per Si atom -12394.123425 kJ/mol
# Density = 2.231432 g / cm^3
# Si number density = 22.365223 Si / 1000 Ang^3
#
#
#
# Elastic Constant Matrix: (Units=GPa)
#
#
# Indices 1 2 3 4 5 6 
#
# 1 108.7530 36.0324 40.3012 -8.8035 -16.2387 15.9434
# 2 36.0324 70.9220 24.6886 -14.9978 -13.2973 4.5492
# 3 40.3012 24.6886 98.5413 -17.6485 -15.3128 2.4366
# 4 -8.8035 -14.9978 -17.6485 29.9225 8.2232 -1.7739
# 5 -16.2387 -13.2973 -15.3128 8.2232 48.5117 9.4224
# 6 15.9434 4.5492 2.4366 -1.7739 9.4224 44.7289
#
#
#
# Elastic Compliance Matrix: (Units=1/GPa)
#
#
# Indices 1 2 3 4 5 6 
#
# 1 0.013292 -0.004911 -0.003967 -0.002030 0.003120 -0.004760
# 2 -0.004911 0.018829 -0.001180 0.006715 0.002058 -0.000268
# 3 -0.003967 -0.001180 0.013297 0.005735 0.001431 0.000735
# 4 -0.002030 0.006715 0.005735 0.040917 -0.004407 0.002279
# 5 0.003120 0.002058 0.001431 -0.004407 0.024739 -0.006785
# 6 -0.004760 -0.000268 0.000735 0.002279 -0.006785 0.025560
#
#
# Mechanical properties :
#
#
# Convention : Reuss Voigt Hill
#
# Bulk Modulus (GPa) = 39.52154 53.36232 46.44193
# Shear Modulus (GPa) = 30.26951 36.44558 33.35755
#
# Velocity S-wave (km/s) = 3.68287 4.04117 3.86617
# Velocity P-wave (km/s) = 5.98282 6.75914 6.38279
#
# Compressibility (1/GPa) = 0.02530266
#
# Stress axis : x y z
#
# Youngs Moduli (GPa) = 75.23597 53.10972 75.20412
#
# Poissons Ratio (x) = 0.26083 0.29831
# Poissons Ratio (y) = 0.36949 0.08872
# Poissons Ratio (z) = 0.29843 0.06265
#
# Static dielectric constant tensor:
#      x y z
#    x 4.135480 0.171540 -0.031430 
#    y 0.171540 3.944690 -0.120130 
#    z -0.031430 -0.120130 4.171550 
# 
# 
# High freq. dielectric constant tensor:
#      x y z
#    x 1.891610 0.017010 -0.008770 
#    y 0.017010 1.880420 -0.003780 
#    z -0.008770 -0.003780 1.879950 
# 
# From -- ./inp_files/124815.got.cif
#   From: 2010.06.25/outbox.cif.g09.slc.cpg/sg2_63_cif.got.tgz:124815.got - 2010.06.27 13:26:56.
