data_PCOD8008466
_publ_section_title
;
Structure prediction by ZEFSAII (Michael W. Deem and Ramdas Pophale) SiO2 
 PCOD8008466
Probable space group: P -1
;
_chemical_formula_sum "Si O2"
_cell_formula_units_Z 16
_cell_length_a 11.306177
_cell_length_b 8.569124
_cell_length_c 11.623081
_cell_angle_alpha 93.334116
_cell_angle_beta 93.736981
_cell_angle_gamma 37.428025
_cell_volume 682.904694
_symmetry_space_group_name_H-M "P -1"
_symmetry_group_IT_number 2
_symmetry_cell_setting 'triclinic'
loop_
_space_group_symop_operation_xyz
x,y,z
-x,-y,-z
loop_
_atom_site_type_symbol
_atom_site_label
_atom_site_fract_x
_atom_site_fract_y
_atom_site_fract_z
Si Si1 0.597714 0.256900 0.396856
Si Si2 0.502930 0.829487 0.938098
Si Si3 0.294945 0.892106 0.354281
Si Si4 0.273859 0.167647 0.746667
Si Si5 0.104846 0.404612 0.380592
Si Si6 0.237488 0.547168 0.262659
Si Si7 0.915864 0.111778 0.281547
Si Si8 0.586237 0.640939 0.174993
O O1 0.576095 0.297500 0.535285
O O2 0.394771 0.507320 0.325415
O O3 0.769122 0.194729 0.369111
O O4 0.652150 0.017754 0.362564
O O5 0.682506 0.623899 0.851920
O O6 0.304854 0.024829 0.857090
O O7 0.522460 0.688538 0.039013
O O8 0.500000 0.000000 0.000000
O O9 0.419398 0.727159 0.240312
O O10 0.272163 0.102493 0.368210
O O11 0.074591 0.057109 0.350080
O O12 0.397982 0.196501 0.772669
O O13 0.051851 0.449620 0.726818
O O14 0.202081 0.470800 0.366426
O O15 0.000000 0.500000 0.500000
O O16 0.040950 0.839509 0.222301
O O17 0.793264 0.335606 0.188535
#
# Coordination Sequence:
#
# PCOD8008466 Si02
#       8
#     2   2   2   2   2   2   2   2
#     4  11  24  43  68  96 138 173 215 276 329 397
#     4   9  21  46  69  97 131 167 222 277 325 385
#     4  12  25  41  68 100 133 179 216 268 340 384
#     4  10  20  43  69  94 133 167 210 285 321 372
#     4  12  22  40  70 106 131 165 227 275 323 397
#     4  11  25  44  71  96 131 181 213 264 346 382
#     4  12  25  44  62  99 138 172 223 264 326 404
#     4  11  25  44  67  97 134 171 224 277 319 390
#
# _framework density 23.42933
#
# number of rings (size 3 to 8) (size 9 to 14) (size 15 to 20)
#    0.000    1.000    3.750    3.375    1.750    4.500 
#    2.250    7.500    0.000    0.000    0.000    0.000 
#    0.000    0.000    0.000    0.000    0.000    0.000 
#
# Total GULP energy -198308.453082 kJ/mol
# GULP energy per Si atom -12394.278318 kJ/mol
# Density = 2.337600 g / cm^3
# Si number density = 23.429330 Si / 1000 Ang^3
#
#
#
# Elastic Constant Matrix: (Units=GPa)
#
#
# Indices 1 2 3 4 5 6 
#
# 1 110.7751 24.6139 47.1227 -3.9196 -15.9904 -8.9626
# 2 24.6139 136.3301 72.9830 -28.9246 -17.1206 -14.0635
# 3 47.1227 72.9830 175.7699 -16.1203 -18.3766 -9.8435
# 4 -3.9196 -28.9246 -16.1203 44.6659 0.1902 3.1736
# 5 -15.9904 -17.1206 -18.3766 0.1902 25.5424 -3.0566
# 6 -8.9626 -14.0635 -9.8435 3.1736 -3.0566 38.8029
#
#
#
# Elastic Compliance Matrix: (Units=1/GPa)
#
#
# Indices 1 2 3 4 5 6 
#
# 1 0.010976 0.000236 -0.002301 0.000085 0.005669 0.002476
# 2 0.000236 0.011480 -0.003510 0.005931 0.005667 0.003286
# 3 -0.002301 -0.003510 0.008031 0.000389 0.002025 0.000361
# 4 0.000085 0.005931 0.000389 0.026328 0.004166 0.000443
# 5 0.005669 0.005667 0.002025 0.004166 0.048808 0.007381
# 6 0.002476 0.003286 0.000361 0.000443 0.007381 0.028171
#
#
# Mechanical properties :
#
#
# Convention : Reuss Voigt Hill
#
# Bulk Modulus (GPa) = 51.71410 79.14603 65.43007
# Shear Modulus (GPa) = 33.02736 40.34593 36.68665
#
# Velocity S-wave (km/s) = 3.75862 4.15423 3.96137
# Velocity P-wave (km/s) = 6.39973 7.54084 6.99360
#
# Compressibility (1/GPa) = 0.01933709
#
# Stress axis : x y z
#
# Youngs Moduli (GPa) = 91.11173 87.10493 124.51472
#
# Poissons Ratio (x) = -0.02054 0.28653
# Poissons Ratio (y) = -0.02149 0.43701
# Poissons Ratio (z) = 0.20966 0.30571
#
# Static dielectric constant tensor:
#      x y z
#    x 4.252360 0.088600 0.112330 
#    y 0.088600 4.799530 -0.478530 
#    z 0.112330 -0.478530 4.552520 
# 
# 
# High freq. dielectric constant tensor:
#      x y z
#    x 1.922480 0.015040 0.001890 
#    y 0.015040 1.959720 -0.013420 
#    z 0.001890 -0.013420 1.907990 
# 
# From -- ./inp_files/417373.got.cif
#   From: 2010.06.25/outbox.cif.g09.slc.cpg/sg2_209_cif.got.tgz:417373.got - 2010.06.27 13:26:56.
