data_PCOD8008900
_publ_section_title
;
Structure prediction by ZEFSAII (Michael W. Deem and Ramdas Pophale) SiO2 
 PCOD8008900
Probable space group: P -1
;
_chemical_formula_sum "Si O2"
_cell_formula_units_Z 14
_cell_length_a 9.376309
_cell_length_b 9.010713
_cell_length_c 14.698096
_cell_angle_alpha 104.351297
_cell_angle_beta 131.771636
_cell_angle_gamma 101.917068
_cell_volume 769.471300
_symmetry_space_group_name_H-M "P -1"
_symmetry_group_IT_number 2
_symmetry_cell_setting 'triclinic'
loop_
_space_group_symop_operation_xyz
x,y,z
-x,-y,-z
loop_
_atom_site_type_symbol
_atom_site_label
_atom_site_fract_x
_atom_site_fract_y
_atom_site_fract_z
Si Si1 0.850554 0.196079 0.671877
Si Si2 0.664483 0.713534 0.110390
Si Si3 0.787942 0.770414 0.809516
Si Si4 0.418769 0.867682 0.129190
Si Si5 0.237814 0.067134 0.994432
Si Si6 0.045741 0.468262 0.117144
Si Si7 0.461751 0.073275 0.357788
O O1 0.887226 0.363795 0.768278
O O2 0.710875 0.171063 0.517516
O O3 0.088793 0.232502 0.746742
O O4 0.719920 0.023310 0.654364
O O5 0.597872 0.811025 0.173149
O O6 0.500000 0.500000 0.000000
O O7 0.668640 0.797079 0.027912
O O8 0.826756 0.845608 0.938955
O O9 0.757823 0.575751 0.785702
O O10 0.575772 0.772035 0.676717
O O11 0.999475 0.885940 0.849402
O O12 0.435152 0.028610 0.099244
O O13 0.435341 0.925230 0.250467
O O14 0.183167 0.701258 0.974872
O O15 0.000000 0.500000 0.000000
#
# Coordination Sequence:
#
# PCOD8008900 Si02
#       7
#     2   2   2   2   2   2   2
#     4  11  22  36  57  82 118 144 193 232 270 340
#     4  12  22  34  56  88 117 145 178 239 284 330
#     4   9  18  33  60  79 113 145 186 239 273 321
#     4  10  21  35  58  80 112 151 184 230 280 333
#     4   9  18  34  54  86 109 143 190 228 278 330
#     4  11  19  33  57  89 112 139 189 240 274 320
#     4  10  21  39  57  81 109 157 188 228 279 327
#
# _framework density 18.194310999999999
#
# number of rings (size 3 to 8) (size 9 to 14) (size 15 to 20)
#    0.000    1.714    4.286    2.143    0.000    1.143 
#    0.000    0.000    0.000    3.429    0.000    0.000 
#    0.000    0.000    0.000    0.000    0.000    0.000 
#
# Total GULP energy -173456.687441 kJ/mol
# GULP energy per Si atom -12389.763389 kJ/mol
# Density = 1.815290 g / cm^3
# Si number density = 18.194311 Si / 1000 Ang^3
#
#
#
# Elastic Constant Matrix: (Units=GPa)
#
#
# Indices 1 2 3 4 5 6 
#
# 1 85.1850 34.4678 25.5326 -10.5579 11.6769 -18.6425
# 2 34.4678 99.4224 29.2259 -18.3876 5.3387 -12.4576
# 3 25.5326 29.2259 92.0580 -13.1551 10.3605 -8.8845
# 4 -10.5579 -18.3876 -13.1551 24.2789 -3.0104 1.7153
# 5 11.6769 5.3387 10.3605 -3.0104 24.0109 -3.4652
# 6 -18.6425 -12.4576 -8.8845 1.7153 -3.4652 37.9790
#
#
#
# Elastic Compliance Matrix: (Units=1/GPa)
#
#
# Indices 1 2 3 4 5 6 
#
# 1 0.015955 -0.003603 -0.001854 0.002177 -0.005069 0.005655
# 2 -0.003603 0.013510 -0.002136 0.007483 0.000883 0.001906
# 3 -0.001854 -0.002136 0.013154 0.004185 -0.003638 0.000945
# 4 0.002177 0.007483 0.004185 0.050160 0.002111 0.002429
# 5 -0.005069 0.000883 -0.003638 0.002111 0.045902 0.001043
# 6 0.005655 0.001906 0.000945 0.002429 0.001043 0.029938
#
#
# Mechanical properties :
#
#
# Convention : Reuss Voigt Hill
#
# Bulk Modulus (GPa) = 36.45196 50.56866 43.51031
# Shear Modulus (GPa) = 25.91361 29.74970 27.83166
#
# Velocity S-wave (km/s) = 3.77804 4.04804 3.91537
# Velocity P-wave (km/s) = 6.25378 7.05002 6.66381
#
# Compressibility (1/GPa) = 0.02743336
#
# Stress axis : x y z
#
# Youngs Moduli (GPa) = 62.67637 74.01738 76.02351
#
# Poissons Ratio (x) = 0.26667 0.14095
# Poissons Ratio (y) = 0.22581 0.16239
# Poissons Ratio (z) = 0.11620 0.15810
#
# Static dielectric constant tensor:
#      x y z
#    x 3.411080 -0.180390 0.026670 
#    y -0.180390 3.745320 -0.136870 
#    z 0.026670 -0.136870 3.317580 
# 
# 
# High freq. dielectric constant tensor:
#      x y z
#    x 1.696040 -0.015270 -0.000420 
#    y -0.015270 1.720310 -0.013000 
#    z -0.000420 -0.013000 1.677790 
# 
# From -- ./inp_files/153727.got.cif
#   From: 2010.06.25/outbox.cif.g09.slc.cpg/sg2_77_cif.got.tgz:153727.got - 2010.06.27 13:26:56.
