data_PCOD8008819
_publ_section_title
;
Structure prediction by ZEFSAII (Michael W. Deem and Ramdas Pophale) SiO2 
 PCOD8008819
Probable space group: P -1
;
_chemical_formula_sum "Si O2"
_cell_formula_units_Z 16
_cell_length_a 12.398415
_cell_length_b 14.952100
_cell_length_c 14.702496
_cell_angle_alpha 160.621314
_cell_angle_beta 67.478066
_cell_angle_gamma 115.939557
_cell_volume 809.253240
_symmetry_space_group_name_H-M "P -1"
_symmetry_group_IT_number 2
_symmetry_cell_setting 'triclinic'
loop_
_space_group_symop_operation_xyz
x,y,z
-x,-y,-z
loop_
_atom_site_type_symbol
_atom_site_label
_atom_site_fract_x
_atom_site_fract_y
_atom_site_fract_z
Si Si1 0.526001 0.506553 0.146033
Si Si2 0.544912 0.808495 0.871276
Si Si3 0.457332 0.011242 0.256399
Si Si4 0.117483 0.731613 0.155081
Si Si5 0.669980 0.720785 0.582922
Si Si6 0.309701 0.283010 0.874764
Si Si7 0.163823 0.721027 0.327476
Si Si8 0.892833 0.703364 0.393033
O O1 0.613831 0.666375 0.193818
O O2 0.504576 0.718722 0.433706
O O3 0.584921 0.265770 0.934819
O O4 0.394869 0.364750 0.012371
O O5 0.662321 0.761189 0.734257
O O6 0.441401 0.528548 0.651537
O O7 0.568936 0.967407 0.113627
O O8 0.500000 0.000000 0.000000
O O9 0.347333 0.031828 0.243036
O O10 0.192974 0.819033 0.306849
O O11 0.086461 0.004643 0.386144
O O12 0.176734 0.560684 0.899281
O O13 0.000000 0.500000 0.000000
O O14 0.804116 0.685355 0.490473
O O15 0.246196 0.957103 0.590251
O O16 0.202636 0.437835 0.060026
O O17 0.023062 0.669132 0.350038
#
# Coordination Sequence:
#
# PCOD8008819 Si02
#       8
#     2   2   2   2   2   2   2   2
#     4  11  24  38  56  84 105 151 200 237 283 320
#     4   9  20  38  57  87 121 145 174 231 287 345
#     4  11  21  37  59  84 113 147 186 225 290 340
#     4  10  21  35  49  78 115 150 196 225 255 327
#     4  10  22  36  57  89 125 142 182 226 281 352
#     4  11  24  39  55  77 116 147 198 250 269 310
#     4  11  21  37  54  75 112 156 186 231 280 311
#     4  11  23  34  54  85 112 155 189 219 272 352
#
# _framework density 19.771315000000001
#
# number of rings (size 3 to 8) (size 9 to 14) (size 15 to 20)
#    0.000    1.500    1.250    5.250    8.750    2.000 
#    0.000    0.000    0.000    0.000    0.000    5.250 
#    0.000    0.000    0.000    0.000    0.000    0.000 
#
# Total GULP energy -198234.427319 kJ/mol
# GULP energy per Si atom -12389.651707 kJ/mol
# Density = 1.972631 g / cm^3
# Si number density = 19.771315 Si / 1000 Ang^3
#
#
#
# Elastic Constant Matrix: (Units=GPa)
#
#
# Indices 1 2 3 4 5 6 
#
# 1 72.0580 34.6339 29.0879 -19.7624 -1.8707 17.9965
# 2 34.6339 69.6320 28.7891 -25.8854 -0.4317 10.7047
# 3 29.0879 28.7891 117.8800 -22.9621 2.7290 3.0231
# 4 -19.7624 -25.8854 -22.9621 38.3638 -4.1723 -10.6636
# 5 -1.8707 -0.4317 2.7290 -4.1723 28.8933 -3.6951
# 6 17.9965 10.7047 3.0231 -10.6636 -3.6951 24.3591
#
#
#
# Elastic Compliance Matrix: (Units=1/GPa)
#
#
# Indices 1 2 3 4 5 6 
#
# 1 0.022022 -0.007374 -0.003099 0.001178 0.000232 -0.012094
# 2 -0.007374 0.022658 -0.001651 0.010882 0.001680 0.000714
# 3 -0.003099 -0.001651 0.010447 0.004563 -0.000079 0.003704
# 4 0.001178 0.010882 0.004563 0.041141 0.007400 0.012914
# 5 0.000232 0.001680 -0.000079 0.007400 0.036738 0.007913
# 6 -0.012094 0.000714 0.003704 0.012914 0.007913 0.056068
#
#
# Mechanical properties :
#
#
# Convention : Reuss Voigt Hill
#
# Bulk Modulus (GPa) = 32.38521 49.39910 40.89216
# Shear Modulus (GPa) = 22.35976 29.46051 25.91013
#
# Velocity S-wave (km/s) = 3.36656 3.86432 3.62400
# Velocity P-wave (km/s) = 5.61490 6.70449 6.18374
#
# Compressibility (1/GPa) = 0.03087829
#
# Stress axis : x y z
#
# Youngs Moduli (GPa) = 45.40820 44.13523 95.72144
#
# Poissons Ratio (x) = 0.32544 0.29666
# Poissons Ratio (y) = 0.33483 0.15808
# Poissons Ratio (z) = 0.14073 0.07289
#
# Static dielectric constant tensor:
#      x y z
#    x 3.300840 0.072480 -0.077810 
#    y 0.072480 4.357930 -0.772320 
#    z -0.077810 -0.772320 4.279320 
# 
# 
# High freq. dielectric constant tensor:
#      x y z
#    x 1.727400 0.011150 -0.010080 
#    y 0.011150 1.756390 -0.003970 
#    z -0.010080 -0.003970 1.803760 
# 
# From -- ./inp_files/522038.got.cif
#   From: 2010.06.25/outbox.cif.g09.slc.cpg/sg2_262_cif.got.tgz:522038.got - 2010.06.27 13:26:56.
