data_PCOD8008160
_publ_section_title
;
Structure prediction by ZEFSAII (Michael W. Deem and Ramdas Pophale) SiO2 
 PCOD8008160
Probable space group: P -1
;
_chemical_formula_sum "Si O2"
_cell_formula_units_Z 14
_cell_length_a 8.979386
_cell_length_b 5.175832
_cell_length_c 18.396743
_cell_angle_alpha 118.718388
_cell_angle_beta 121.942986
_cell_angle_gamma 76.331503
_cell_volume 636.103341
_symmetry_space_group_name_H-M "P -1"
_symmetry_group_IT_number 2
_symmetry_cell_setting 'triclinic'
loop_
_space_group_symop_operation_xyz
x,y,z
-x,-y,-z
loop_
_atom_site_type_symbol
_atom_site_label
_atom_site_fract_x
_atom_site_fract_y
_atom_site_fract_z
Si Si1 0.979219 0.455099 0.598736
Si Si2 0.007678 0.575766 0.780529
Si Si3 0.224006 0.123210 0.855931
Si Si4 0.827747 0.861944 0.899833
Si Si5 0.515840 0.896756 0.192118
Si Si6 0.416851 0.290064 0.053243
Si Si7 0.187298 0.885503 0.609676
O O1 0.908229 0.527732 0.670973
O O2 0.077920 0.745629 0.630545
O O3 0.819387 0.351779 0.490372
O O4 0.114419 0.191382 0.603558
O O5 0.111474 0.278135 0.784837
O O6 0.874482 0.619811 0.818772
O O7 0.125896 0.871538 0.843723
O O8 0.389682 0.959079 0.836401
O O9 0.286479 0.376424 0.963979
O O10 0.704512 0.722729 0.909587
O O11 0.695595 0.085537 0.855224
O O12 0.000000 0.000000 0.000000
O O13 0.558548 0.550814 0.142487
O O14 0.610308 0.042732 0.306373
O O15 0.500000 0.000000 0.000000
#
# Coordination Sequence:
#
# PCOD8008160 Si02
#       7
#     2   2   2   2   2   2   2
#     4  10  20  42  67 105 130 167 219 283 335 392
#     4  12  24  43  68  98 137 173 217 277 342 392
#     4  12  24  42  69  93 129 179 224 271 326 398
#     4  12  28  42  63  96 140 183 221 279 334 399
#     4  12  25  42  67 100 131 179 229 278 331 397
#     4  12  26  43  66  95 132 181 231 280 321 400
#     4  10  22  38  73 100 130 167 226 279 329 392
#
# _framework density 22.009003
#
# number of rings (size 3 to 8) (size 9 to 14) (size 15 to 20)
#    0.000    0.571    5.714    2.143    4.000    1.143 
#    0.000    0.714    0.000    0.857    0.000    0.000 
#    0.000    0.000    0.000    0.000    0.000    0.000 
#
# Total GULP energy -173439.195390 kJ/mol
# GULP energy per Si atom -12388.513956 kJ/mol
# Density = 2.195891 g / cm^3
# Si number density = 22.009003 Si / 1000 Ang^3
#
#
#
# Elastic Constant Matrix: (Units=GPa)
#
#
# Indices 1 2 3 4 5 6 
#
# 1 108.6264 21.9740 58.9186 -5.5506 -10.4927 -9.7197
# 2 21.9740 87.9894 30.3078 1.0071 11.5322 5.7373
# 3 58.9186 30.3078 198.2722 1.6477 0.5779 -4.3573
# 4 -5.5506 1.0071 1.6477 30.2519 7.1801 -3.0830
# 5 -10.4927 11.5322 0.5779 7.1801 42.0003 -3.6699
# 6 -9.7197 5.7373 -4.3573 -3.0830 -3.6699 24.1922
#
#
#
# Elastic Compliance Matrix: (Units=1/GPa)
#
#
# Indices 1 2 3 4 5 6 
#
# 1 0.012608 -0.003026 -0.003180 0.002220 0.004181 0.006128
# 2 -0.003026 0.013559 -0.001276 -0.000334 -0.004880 -0.005444
# 3 -0.003180 -0.001276 0.006191 -0.000786 -0.000397 -0.000020
# 4 0.002220 -0.000334 -0.000786 0.035158 -0.004955 0.004558
# 5 0.004181 -0.004880 -0.000397 -0.004955 0.027599 0.006321
# 6 0.006128 -0.005444 -0.000020 0.004558 0.006321 0.046625
#
#
# Mechanical properties :
#
#
# Convention : Reuss Voigt Hill
#
# Bulk Modulus (GPa) = 57.49319 68.58763 63.04041
# Shear Modulus (GPa) = 30.76903 38.20138 34.48520
#
# Velocity S-wave (km/s) = 3.74307 4.17071 3.96266
# Velocity P-wave (km/s) = 6.69776 7.37728 7.04572
#
# Compressibility (1/GPa) = 0.01739336
#
# Stress axis : x y z
#
# Youngs Moduli (GPa) = 79.31187 73.75375 161.52871
#
# Poissons Ratio (x) = 0.22320 0.51368
# Poissons Ratio (y) = 0.24002 0.20610
# Poissons Ratio (z) = 0.25222 0.09410
#
# Static dielectric constant tensor:
#      x y z
#    x 4.189240 -0.068630 0.089670 
#    y -0.068630 4.100980 -0.298070 
#    z 0.089670 -0.298070 4.666410 
# 
# 
# High freq. dielectric constant tensor:
#      x y z
#    x 1.828420 0.016230 -0.009870 
#    y 0.016230 1.871550 -0.009330 
#    z -0.009870 -0.009330 1.887690 
# 
# From -- ./inp_files/36430.got.cif
#   From: 2010.06.25/outbox.cif.g09.slc.cpg/sg2_19_cif.got.tgz:36430.got - 2010.06.27 13:26:56.
