data_PCOD8008658
_publ_section_title
;
Structure prediction by ZEFSAII (Michael W. Deem and Ramdas Pophale) SiO2 
 PCOD8008658
Probable space group: P -1
;
_chemical_formula_sum "Si O2"
_cell_formula_units_Z 14
_cell_length_a 5.182918
_cell_length_b 11.687290
_cell_length_c 13.046926
_cell_angle_alpha 97.290905
_cell_angle_beta 104.670458
_cell_angle_gamma 72.900029
_cell_volume 729.568569
_symmetry_space_group_name_H-M "P -1"
_symmetry_group_IT_number 2
_symmetry_cell_setting 'triclinic'
loop_
_space_group_symop_operation_xyz
x,y,z
-x,-y,-z
loop_
_atom_site_type_symbol
_atom_site_label
_atom_site_fract_x
_atom_site_fract_y
_atom_site_fract_z
Si Si1 0.477417 0.960530 0.628549
Si Si2 0.949571 0.731802 0.651837
Si Si3 0.148484 0.051772 0.784289
Si Si4 0.293242 0.853941 0.418675
Si Si5 0.103016 0.830604 0.874111
Si Si6 0.545269 0.363431 0.461751
Si Si7 0.350571 0.139415 0.997953
O O1 0.779835 0.869628 0.626826
O O2 0.247236 0.916335 0.534810
O O3 0.414661 0.961302 0.744415
O O4 0.475094 0.094319 0.607963
O O5 0.729828 0.652416 0.623963
O O6 0.092732 0.731015 0.776907
O O7 0.184766 0.681742 0.586600
O O8 0.971424 0.118085 0.677996
O O9 0.018408 0.966540 0.833077
O O10 0.222380 0.156468 0.871532
O O11 0.406272 0.711581 0.434691
O O12 0.414070 0.792874 0.949030
O O13 0.893508 0.821488 0.941054
O O14 0.500000 0.500000 0.500000
O O15 0.500000 0.000000 0.000000
#
# Coordination Sequence:
#
# PCOD8008658 Si02
#       7
#     2   2   2   2   2   2   2
#     4  10  21  32  52  86 114 146 182 215 273 344
#     4  11  21  38  61  79 112 149 180 226 275 326
#     4  11  20  31  51  79 121 151 179 220 272 330
#     4  10  22  32  55  78 115 150 180 220 275 331
#     4  11  20  34  51  80 110 150 184 215 269 330
#     4  11  25  41  57  83 111 144 188 229 271 326
#     4  10  21  31  48  75 118 152 178 216 265 326
#
# _framework density 19.189423000000001
#
# number of rings (size 3 to 8) (size 9 to 14) (size 15 to 20)
#    0.000    1.429    1.429    6.857    8.000    0.000 
#    0.000    0.000    0.000    0.000    0.000    6.000 
#    0.000    0.000    0.000    0.000    0.000    0.000 
#
# Total GULP energy -173461.232139 kJ/mol
# GULP energy per Si atom -12390.088010 kJ/mol
# Density = 1.914575 g / cm^3
# Si number density = 19.189423 Si / 1000 Ang^3
#
#
#
# Elastic Constant Matrix: (Units=GPa)
#
#
# Indices 1 2 3 4 5 6 
#
# 1 131.2690 36.5976 60.9111 10.0051 13.9455 -2.8661
# 2 36.5976 89.2811 37.8485 8.5005 4.1028 7.4148
# 3 60.9111 37.8485 143.9126 11.9089 21.2854 -5.6176
# 4 10.0051 8.5005 11.9089 11.6688 5.5808 0.0144
# 5 13.9455 4.1028 21.2854 5.5808 34.8974 8.2723
# 6 -2.8661 7.4148 -5.6176 0.0144 8.2723 18.9356
#
#
#
# Elastic Compliance Matrix: (Units=1/GPa)
#
#
# Indices 1 2 3 4 5 6 
#
# 1 0.010274 -0.002833 -0.002949 -0.002689 -0.002196 0.002751
# 2 -0.002833 0.014977 -0.003180 -0.007476 0.004708 -0.009288
# 3 -0.002949 -0.003180 0.010394 -0.002980 -0.005836 0.006434
# 4 -0.002689 -0.007476 -0.002980 0.103497 -0.014669 0.007966
# 5 -0.002196 0.004708 -0.005836 -0.014669 0.039945 -0.021347
# 6 0.002751 -0.009288 0.006434 0.007966 -0.021347 0.068093
#
#
# Mechanical properties :
#
#
# Convention : Reuss Voigt Hill
#
# Bulk Modulus (GPa) = 56.42892 70.57524 63.50208
# Shear Modulus (GPa) = 18.44943 28.37406 23.41174
#
# Velocity S-wave (km/s) = 3.10407 3.84947 3.49669
# Velocity P-wave (km/s) = 6.50516 7.52435 7.03324
#
# Compressibility (1/GPa) = 0.01772141
#
# Stress axis : x y z
#
# Youngs Moduli (GPa) = 97.32865 66.76995 96.20906
#
# Poissons Ratio (x) = 0.18917 0.28370
# Poissons Ratio (y) = 0.27574 0.30595
# Poissons Ratio (z) = 0.28700 0.21233
#
# Static dielectric constant tensor:
#      x y z
#    x 3.820140 0.115240 0.443280 
#    y 0.115240 3.014080 0.137070 
#    z 0.443280 0.137070 4.652270 
# 
# 
# High freq. dielectric constant tensor:
#      x y z
#    x 1.767000 0.005060 0.010430 
#    y 0.005060 1.665680 0.011220 
#    z 0.010430 0.011220 1.763170 
# 
# From -- ./inp_files/63894.got.cif
#   From: 2010.06.25/outbox.cif.g09.slc.cpg/sg2_32_cif.got.tgz:63894.got - 2010.06.27 13:26:56.
