data_PCOD8008580
_publ_section_title
;
Structure prediction by ZEFSAII (Michael W. Deem and Ramdas Pophale) SiO2 
 PCOD8008580
Probable space group: P -1
;
_chemical_formula_sum "Si O2"
_cell_formula_units_Z 16
_cell_length_a 12.797803
_cell_length_b 19.366863
_cell_length_c 22.854244
_cell_angle_alpha 161.792408
_cell_angle_beta 27.500340
_cell_angle_gamma 153.080961
_cell_volume 768.593856
_symmetry_space_group_name_H-M "P -1"
_symmetry_group_IT_number 2
_symmetry_cell_setting 'triclinic'
loop_
_space_group_symop_operation_xyz
x,y,z
-x,-y,-z
loop_
_atom_site_type_symbol
_atom_site_label
_atom_site_fract_x
_atom_site_fract_y
_atom_site_fract_z
Si Si1 0.503583 0.878308 0.047619
Si Si2 0.876666 0.629094 0.396277
Si Si3 0.563223 0.369643 0.448572
Si Si4 0.113677 0.919088 0.185492
Si Si5 0.165028 0.190520 0.264161
Si Si6 0.377049 0.486899 0.888442
Si Si7 0.607062 0.104584 0.468610
Si Si8 0.607191 0.341276 0.857664
O O1 0.332769 0.883243 0.082362
O O2 0.548183 0.099838 0.247645
O O3 0.751876 0.876391 0.893625
O O4 0.380536 0.644345 0.957333
O O5 0.720762 0.446957 0.374281
O O6 0.705397 0.620056 0.418354
O O7 0.102444 0.555576 0.206654
O O8 0.977473 0.891008 0.583599
O O9 0.682684 0.535865 0.577307
O O10 0.894207 0.678096 0.097226
O O11 0.205056 0.016812 0.154122
O O12 0.889854 0.166034 0.378173
O O13 0.553205 0.340643 0.671785
O O14 0.472805 0.650440 0.029137
O O15 0.500000 0.000000 0.500000
O O16 0.494139 0.924420 0.327674
O O17 0.500000 0.500000 0.000000
#
# Coordination Sequence:
#
# PCOD8008580 Si02
#       8
#     2   2   2   2   2   2   2   2
#     4  11  26  41  63 101 137 171 210 268 335 390
#     4   9  19  39  66  97 124 164 217 277 310 368
#     4   9  21  39  63  95 133 159 211 272 323 376
#     4  10  20  44  68  96 132 171 220 273 312 387
#     4  11  23  41  73  93 125 179 219 268 321 381
#     4  12  26  42  65  98 137 171 215 270 328 382
#     4  12  23  45  67  98 129 165 229 275 309 380
#     4  12  24  38  70  97 121 173 222 264 319 380
#
# _framework density 20.817238
#
# number of rings (size 3 to 8) (size 9 to 14) (size 15 to 20)
#    0.000    1.250    3.750    2.250    5.250    1.500 
#    0.000    2.500    0.000    0.000    0.000    0.000 
#    0.000    0.000    0.000    0.000    0.000    0.000 
#
# Total GULP energy -198450.406693 kJ/mol
# GULP energy per Si atom -12403.150418 kJ/mol
# Density = 2.076986 g / cm^3
# Si number density = 20.817238 Si / 1000 Ang^3
#
#
#
# Elastic Constant Matrix: (Units=GPa)
#
#
# Indices 1 2 3 4 5 6 
#
# 1 66.9470 46.0777 45.7986 2.4101 1.6380 9.2692
# 2 46.0777 86.8496 53.5818 6.0700 -2.4604 8.8016
# 3 45.7986 53.5818 114.3775 -1.9155 -9.2512 5.1371
# 4 2.4101 6.0700 -1.9155 36.1933 2.3329 -8.1033
# 5 1.6380 -2.4604 -9.2512 2.3329 30.2586 1.4723
# 6 9.2692 8.8016 5.1371 -8.1033 1.4723 35.2988
#
#
#
# Elastic Compliance Matrix: (Units=1/GPa)
#
#
# Indices 1 2 3 4 5 6 
#
# 1 0.026693 -0.010033 -0.006154 -0.000993 -0.003887 -0.003678
# 2 -0.010033 0.020869 -0.005627 -0.003786 0.000941 -0.002658
# 3 -0.006154 -0.005627 0.014143 0.002134 0.003972 0.001285
# 4 -0.000993 -0.003786 0.002134 0.030377 -0.002331 0.007965
# 5 -0.003887 0.000941 0.003972 -0.002331 0.034816 -0.001779
# 6 -0.003678 -0.002658 0.001285 0.007965 -0.001779 0.031674
#
#
# Mechanical properties :
#
#
# Convention : Reuss Voigt Hill
#
# Bulk Modulus (GPa) = 55.32013 62.12115 58.72064
# Shear Modulus (GPa) = 24.01252 28.53122 26.27187
#
# Velocity S-wave (km/s) = 3.39999 3.70612 3.55635
# Velocity P-wave (km/s) = 6.48422 6.94404 6.71807
#
# Compressibility (1/GPa) = 0.01807660
#
# Stress axis : x y z
#
# Youngs Moduli (GPa) = 37.46370 47.91710 70.70880
#
# Poissons Ratio (x) = 0.48075 0.43513
# Poissons Ratio (y) = 0.37587 0.39789
# Poissons Ratio (z) = 0.23055 0.26964
#
# Static dielectric constant tensor:
#      x y z
#    x 3.690250 0.219130 0.053840 
#    y 0.219130 3.650410 0.055770 
#    z 0.053840 0.055770 4.038230 
# 
# 
# High freq. dielectric constant tensor:
#      x y z
#    x 1.801010 0.021540 0.001160 
#    y 0.021540 1.804440 0.001030 
#    z 0.001160 0.001030 1.830120 
# 
# From -- ./inp_files/273652.got.cif
#   From: 2010.06.25/outbox.cif.g09.slc.cpg/sg2_137_cif.got.tgz:273652.got - 2010.06.27 13:26:56.
