data_PCOD8008344
_publ_section_title
;
Structure prediction by ZEFSAII (Michael W. Deem and Ramdas Pophale) SiO2 
 PCOD8008344
Probable space group: P -1
;
_chemical_formula_sum "Si O2"
_cell_formula_units_Z 16
_cell_length_a 17.034374
_cell_length_b 12.591669
_cell_length_c 9.292387
_cell_angle_alpha 123.777725
_cell_angle_beta 147.546740
_cell_angle_gamma 48.148430
_cell_volume 796.550443
_symmetry_space_group_name_H-M "P -1"
_symmetry_group_IT_number 2
_symmetry_cell_setting 'triclinic'
loop_
_space_group_symop_operation_xyz
x,y,z
-x,-y,-z
loop_
_atom_site_type_symbol
_atom_site_label
_atom_site_fract_x
_atom_site_fract_y
_atom_site_fract_z
Si Si1 0.873858 0.124865 0.804782
Si Si2 0.118639 0.595792 0.883802
Si Si3 0.535888 0.134317 0.309007
Si Si4 0.509173 0.127434 0.939924
Si Si5 0.393731 0.447063 0.395547
Si Si6 0.216077 0.408270 0.613662
Si Si7 0.150674 0.874602 0.560897
Si Si8 0.669658 0.439810 0.303756
O O1 0.724129 0.087375 0.542923
O O2 0.914458 0.138561 0.709875
O O3 0.844870 0.267886 0.951810
O O4 0.000000 0.000000 0.000000
O O5 0.189661 0.517111 0.784791
O O6 0.927656 0.640446 0.644645
O O7 0.216199 0.492414 0.086793
O O8 0.465625 0.278033 0.401854
O O9 0.512603 0.007867 0.257725
O O10 0.450489 0.158636 0.038749
O O11 0.390744 0.270388 0.781929
O O12 0.698195 0.086958 0.183110
O O13 0.500000 0.500000 0.500000
O O14 0.381848 0.520734 0.583037
O O15 0.217686 0.490392 0.531902
O O16 0.215545 0.730148 0.647167
O O17 0.000000 0.000000 0.500000
O O18 0.500000 0.500000 0.000000
#
# Coordination Sequence:
#
# PCOD8008344 Si02
#       8
#     2   2   2   2   2   2   2   2
#     4  11  23  41  65  94 130 170 218 271 329 399
#     4  11  23  41  68  97 130 169 225 275 323 400
#     4  10  21  36  70  93 122 173 214 267 328 390
#     4  10  20  43  62  96 133 165 219 270 327 392
#     4  12  21  42  68  97 129 171 223 271 323 395
#     4  11  24  41  67  98 133 170 222 276 336 390
#     4  11  25  43  65  96 135 176 216 275 334 395
#     4  12  25  43  70  97 133 178 221 275 339 394
#
# _framework density 20.086613
#
# number of rings (size 3 to 8) (size 9 to 14) (size 15 to 20)
#    0.000    1.000    5.000    2.250    1.750    1.500 
#    2.250    0.625    0.000    0.000    0.000    0.000 
#    0.000    0.000    0.000    0.000    0.000    0.000 
#
# Total GULP energy -198360.066350 kJ/mol
# GULP energy per Si atom -12397.504147 kJ/mol
# Density = 2.004090 g / cm^3
# Si number density = 20.086613 Si / 1000 Ang^3
#
#
#
# Elastic Constant Matrix: (Units=GPa)
#
#
# Indices 1 2 3 4 5 6 
#
# 1 93.6011 51.4507 38.0321 -1.1112 1.3719 0.5430
# 2 51.4507 151.8126 38.2093 -3.7822 6.1576 2.6513
# 3 38.0321 38.2093 95.1996 -7.5442 -2.2982 -3.0766
# 4 -1.1112 -3.7822 -7.5442 43.1774 5.0476 4.0627
# 5 1.3719 6.1576 -2.2982 5.0476 27.7129 -2.0839
# 6 0.5430 2.6513 -3.0766 4.0627 -2.0839 35.3295
#
#
#
# Elastic Compliance Matrix: (Units=1/GPa)
#
#
# Indices 1 2 3 4 5 6 
#
# 1 0.014556 -0.003850 -0.004335 -0.000684 -0.000118 -0.000241
# 2 -0.003850 0.008484 -0.001896 0.000639 -0.002039 -0.000936
# 3 -0.004335 -0.001896 0.013211 0.001737 0.001509 0.001249
# 4 -0.000684 0.000639 0.001737 0.024320 -0.004616 -0.002955
# 5 -0.000118 -0.002039 0.001509 -0.004616 0.037738 0.003043
# 6 -0.000241 -0.000936 0.001249 -0.002955 0.003043 0.029007
#
#
# Mechanical properties :
#
#
# Convention : Reuss Voigt Hill
#
# Bulk Modulus (GPa) = 62.14994 66.22194 64.18594
# Shear Modulus (GPa) = 32.71366 35.43869 34.07618
#
# Velocity S-wave (km/s) = 4.04001 4.20491 4.12328
# Velocity P-wave (km/s) = 7.26432 7.52428 7.39544
#
# Compressibility (1/GPa) = 0.01609012
#
# Stress axis : x y z
#
# Youngs Moduli (GPa) = 68.69845 117.86765 75.69304
#
# Poissons Ratio (x) = 0.45383 0.32810
# Poissons Ratio (y) = 0.26451 0.14350
# Poissons Ratio (z) = 0.29779 0.22345
#
# Static dielectric constant tensor:
#      x y z
#    x 4.019080 -0.151880 -0.590530 
#    y -0.151880 3.827630 -0.333130 
#    z -0.590530 -0.333130 3.426790 
# 
# 
# High freq. dielectric constant tensor:
#      x y z
#    x 1.764260 0.002850 0.005250 
#    y 0.002850 1.798530 -0.002570 
#    z 0.005250 -0.002570 1.791610 
# 
# From -- ./inp_files/263606.got.cif
#   From: 2010.06.25/outbox.cif.g09.slc.cpg/sg2_132_cif.got.tgz:263606.got - 2010.06.27 13:26:56.
