data_PCOD8008704
_publ_section_title
;
Structure prediction by ZEFSAII (Michael W. Deem and Ramdas Pophale) SiO2 
 PCOD8008704
Probable space group: P -1
;
_chemical_formula_sum "Si O2"
_cell_formula_units_Z 14
_cell_length_a 5.093096
_cell_length_b 17.135616
_cell_length_c 25.760549
_cell_angle_alpha 20.710377
_cell_angle_beta 113.650038
_cell_angle_gamma 120.662557
_cell_volume 662.288214
_symmetry_space_group_name_H-M "P -1"
_symmetry_group_IT_number 2
_symmetry_cell_setting 'triclinic'
loop_
_space_group_symop_operation_xyz
x,y,z
-x,-y,-z
loop_
_atom_site_type_symbol
_atom_site_label
_atom_site_fract_x
_atom_site_fract_y
_atom_site_fract_z
Si Si1 0.282286 0.094910 0.063970
Si Si2 0.066503 0.625109 0.091576
Si Si3 0.206092 0.666721 0.839668
Si Si4 0.138923 0.424544 0.652546
Si Si5 0.572639 0.794380 0.104462
Si Si6 0.339708 0.358465 0.523728
Si Si7 0.907939 0.825022 0.807152
O O1 0.657870 0.175795 0.046793
O O2 0.185603 0.089490 0.997735
O O3 0.201913 0.282884 0.974525
O O4 0.085979 0.826630 0.237819
O O5 0.240001 0.602034 0.172498
O O6 0.907195 0.369792 0.206891
O O7 0.574236 0.841698 0.764296
O O8 0.014897 0.785527 0.782825
O O9 0.130407 0.394832 0.021666
O O10 0.315649 0.367839 0.749708
O O11 0.390494 0.597010 0.524745
O O12 0.915270 0.550063 0.576224
O O13 0.500000 0.000000 0.000000
O O14 0.500000 0.500000 0.500000
O O15 0.163014 0.071657 0.698739
#
# Coordination Sequence:
#
# PCOD8008704 Si02
#       7
#     2   2   2   2   2   2   2
#     4  10  21  33  57  96 123 162 195 257 301 375
#     4  10  21  33  62  95 123 153 200 272 306 363
#     4  10  21  42  67  90 113 163 205 279 305 343
#     4  12  23  39  61  87 133 173 193 248 323 367
#     4  10  21  36  60  95 133 160 208 255 318 367
#     4  12  28  43  61  93 127 174 204 247 307 400
#     4  10  23  42  64  88 121 157 219 254 311 360
#
# _framework density 21.138832000000001
#
# number of rings (size 3 to 8) (size 9 to 14) (size 15 to 20)
#    0.857    0.571    1.429    4.286    6.000    0.000 
#    0.000    0.000    0.000    5.143    0.000    0.000 
#    0.000    0.000    0.000    0.000    0.000    0.000 
#
# Total GULP energy -173533.879002 kJ/mol
# GULP energy per Si atom -12395.277072 kJ/mol
# Density = 2.109072 g / cm^3
# Si number density = 21.138832 Si / 1000 Ang^3
#
#
#
# Elastic Constant Matrix: (Units=GPa)
#
#
# Indices 1 2 3 4 5 6 
#
# 1 115.1222 22.6907 17.6307 -0.0976 -7.4068 -17.0533
# 2 22.6907 100.5854 22.8151 -21.3211 -3.7077 0.0248
# 3 17.6307 22.8151 65.1365 -12.4774 -12.4596 4.0965
# 4 -0.0976 -21.3211 -12.4774 26.2232 4.9025 2.3992
# 5 -7.4068 -3.7077 -12.4596 4.9025 37.3340 -4.4362
# 6 -17.0533 0.0248 4.0965 2.3992 -4.4362 30.1382
#
#
#
# Elastic Compliance Matrix: (Units=1/GPa)
#
#
# Indices 1 2 3 4 5 6 
#
# 1 0.010890 -0.002699 -0.002890 -0.004644 0.002403 0.007280
# 2 -0.002699 0.013119 -0.002065 0.010169 -0.001529 -0.002292
# 3 -0.002890 -0.002065 0.019287 0.007081 0.004230 -0.004196
# 4 -0.004644 0.010169 0.007081 0.051526 -0.005322 -0.008484
# 5 0.002403 -0.001529 0.004230 -0.005322 0.029887 0.005609
# 6 0.007280 -0.002292 -0.004196 -0.008484 0.005609 0.039373
#
#
# Mechanical properties :
#
#
# Convention : Reuss Voigt Hill
#
# Bulk Modulus (GPa) = 35.72924 45.23522 40.48223
# Shear Modulus (GPa) = 26.49435 33.25294 29.87364
#
# Velocity S-wave (km/s) = 3.54411 3.97050 3.76335
# Velocity P-wave (km/s) = 5.80401 6.51655 6.17057
#
# Compressibility (1/GPa) = 0.02798828
#
# Stress axis : x y z
#
# Youngs Moduli (GPa) = 91.82640 76.22666 51.84742
#
# Poissons Ratio (x) = 0.20572 0.14985
# Poissons Ratio (y) = 0.24782 0.10706
# Poissons Ratio (z) = 0.26540 0.15741
#
# Static dielectric constant tensor:
#      x y z
#    x 4.059390 0.035350 -0.094560 
#    y 0.035350 3.845200 -0.087360 
#    z -0.094560 -0.087360 3.420730 
# 
# 
# High freq. dielectric constant tensor:
#      x y z
#    x 1.852710 0.001300 -0.007190 
#    y 0.001300 1.829910 -0.015170 
#    z -0.007190 -0.015170 1.780430 
# 
# From -- ./inp_files/604729.got.cif
#   From: 2010.06.25/outbox.cif.g09.slc.cpg/sg2_303_cif.got.tgz:604729.got - 2010.06.27 13:26:56.
