data_PCOD8008961
_publ_section_title
;
Structure prediction by ZEFSAII (Michael W. Deem and Ramdas Pophale) SiO2 
 PCOD8008961
Probable space group: P -1
;
_chemical_formula_sum "Si O2"
_cell_formula_units_Z 16
_cell_length_a 10.233292
_cell_length_b 13.898859
_cell_length_c 7.944732
_cell_angle_alpha 138.540454
_cell_angle_beta 111.066451
_cell_angle_gamma 57.460125
_cell_volume 628.775498
_symmetry_space_group_name_H-M "P -1"
_symmetry_group_IT_number 2
_symmetry_cell_setting 'triclinic'
loop_
_space_group_symop_operation_xyz
x,y,z
-x,-y,-z
loop_
_atom_site_type_symbol
_atom_site_label
_atom_site_fract_x
_atom_site_fract_y
_atom_site_fract_z
Si Si1 0.461655 0.235608 0.769351
Si Si2 0.319597 0.590404 0.239576
Si Si3 0.794880 0.300711 0.023513
Si Si4 0.284385 0.070942 0.640480
Si Si5 0.800913 0.631103 0.436543
Si Si6 0.990913 0.304140 0.616383
Si Si7 0.147344 0.123268 0.996329
Si Si8 0.233342 0.801389 0.779211
O O1 0.393658 0.163089 0.789349
O O2 0.362126 0.257776 0.581926
O O3 0.637592 0.106550 0.641327
O O4 0.454135 0.408415 0.050660
O O5 0.350739 0.687722 0.536649
O O6 0.154306 0.580543 0.182259
O O7 0.300960 0.683239 0.173900
O O8 0.798249 0.469793 0.292776
O O9 0.705751 0.258041 0.081229
O O10 0.971788 0.165262 0.911639
O O11 0.116922 0.166442 0.606402
O O12 0.263229 0.050342 0.799391
O O13 0.940136 0.588590 0.308927
O O14 0.832181 0.722593 0.726661
O O15 0.930651 0.211835 0.331282
O O16 0.205910 0.984692 0.984415
#
# Coordination Sequence:
#
# PCOD8008961 Si02
#       8
#     2   2   2   2   2   2   2   2
#     4   9  21  40  56  89 120 152 204 254 290 356
#     4   9  20  38  62  84 119 157 196 247 299 348
#     4  11  21  35  59  89 124 156 192 251 305 344
#     4  10  21  35  61  86 119 159 198 243 310 346
#     4  10  22  34  59  90 118 155 201 248 300 356
#     4   9  19  36  58  90 119 148 205 241 299 363
#     4  12  21  35  57  89 124 156 194 245 302 363
#     4  10  23  37  56  93 126 152 197 248 300 359
#
# _framework density 25.446283999999999
#
# number of rings (size 3 to 8) (size 9 to 14) (size 15 to 20)
#    0.750    1.250    2.500    0.750    3.500    4.000 
#    2.250    0.625    0.000    3.000    0.000    0.000 
#    0.000    0.000    0.000    0.000    0.000    0.000 
#
# Total GULP energy -198369.533134 kJ/mol
# GULP energy per Si atom -12398.095821 kJ/mol
# Density = 2.538837 g / cm^3
# Si number density = 25.446284 Si / 1000 Ang^3
#
#
#
# Elastic Constant Matrix: (Units=GPa)
#
#
# Indices 1 2 3 4 5 6 
#
# 1 44.4735 38.3635 16.3265 3.1979 -16.0922 13.5635
# 2 38.3635 132.3484 44.1550 2.5690 -23.3341 39.0546
# 3 16.3265 44.1550 90.7338 -1.1648 -16.5808 23.9133
# 4 3.1979 2.5690 -1.1648 42.7213 1.3383 -0.9398
# 5 -16.0922 -23.3341 -16.5808 1.3383 35.7160 1.7804
# 6 13.5635 39.0546 23.9133 -0.9398 1.7804 42.6781
#
#
#
# Elastic Compliance Matrix: (Units=1/GPa)
#
#
# Indices 1 2 3 4 5 6 
#
# 1 0.033885 -0.006048 0.000627 -0.002667 0.012013 -0.006146
# 2 -0.006048 0.014028 -0.001989 -0.000856 0.006050 -0.010071
# 3 0.000627 -0.001989 0.014847 0.000130 0.006217 -0.006954
# 4 -0.002667 -0.000856 0.000130 0.023795 -0.002702 0.002195
# 5 0.012013 0.006050 0.006217 -0.002702 0.041080 -0.014612
# 6 -0.006146 -0.010071 -0.006954 0.002195 -0.014612 0.039155
#
#
# Mechanical properties :
#
#
# Convention : Reuss Voigt Hill
#
# Bulk Modulus (GPa) = 20.85967 51.69398 36.27682
# Shear Modulus (GPa) = 25.30466 35.47045 30.38755
#
# Velocity S-wave (km/s) = 3.15689 3.73759 3.45945
# Velocity P-wave (km/s) = 4.63716 6.24381 5.49947
#
# Compressibility (1/GPa) = 0.04793939
#
# Stress axis : x y z
#
# Youngs Moduli (GPa) = 29.51136 71.28625 67.35253
#
# Poissons Ratio (x) = 0.43114 -0.04221
# Poissons Ratio (y) = 0.17848 0.13398
# Poissons Ratio (z) = -0.01850 0.14181
#
# Static dielectric constant tensor:
#      x y z
#    x 4.416030 0.145950 -0.171240 
#    y 0.145950 4.513030 -0.008230 
#    z -0.171240 -0.008230 4.352290 
# 
# 
# High freq. dielectric constant tensor:
#      x y z
#    x 2.010250 0.010530 -0.004600 
#    y 0.010530 2.019840 0.003520 
#    z -0.004600 0.003520 2.010620 
# 
# From -- ./inp_files/271225.got.cif
#   From: 2010.06.25/outbox.cif.g09.slc.cpg/sg2_136_cif.got.tgz:271225.got - 2010.06.27 13:26:56.
