data_PCOD8008251
_publ_section_title
;
Structure prediction by ZEFSAII (Michael W. Deem and Ramdas Pophale) SiO2 
 PCOD8008251
Probable space group: P -1
;
_chemical_formula_sum "Si O2"
_cell_formula_units_Z 12
_cell_length_a 7.617838
_cell_length_b 11.067615
_cell_length_c 8.209771
_cell_angle_alpha 116.992413
_cell_angle_beta 131.120432
_cell_angle_gamma 64.136699
_cell_volume 454.748003
_symmetry_space_group_name_H-M "P -1"
_symmetry_group_IT_number 2
_symmetry_cell_setting 'triclinic'
loop_
_space_group_symop_operation_xyz
x,y,z
-x,-y,-z
loop_
_atom_site_type_symbol
_atom_site_label
_atom_site_fract_x
_atom_site_fract_y
_atom_site_fract_z
Si Si1 0.047178 0.959019 0.694509
Si Si2 0.927777 0.648013 0.124957
Si Si3 0.326727 0.800953 0.362682
Si Si4 0.304328 0.404768 0.718660
Si Si5 0.921770 0.302579 0.247685
Si Si6 0.731769 0.842561 0.875103
O O1 0.088478 0.796476 0.662771
O O2 0.000000 0.000000 0.500000
O O3 0.814311 0.049746 0.699878
O O4 0.271769 0.011535 0.944719
O O5 0.150240 0.726164 0.314117
O O6 0.821056 0.645164 0.234787
O O7 0.000000 0.500000 0.000000
O O8 0.713222 0.731785 0.935995
O O9 0.441118 0.697872 0.223093
O O10 0.516360 0.849204 0.626791
O O11 0.137839 0.385076 0.451283
O O12 0.316596 0.570799 0.837702
O O13 0.001361 0.210980 0.078444
#
# Coordination Sequence:
#
# PCOD8008251 Si02
#       6
#     2   2   2   2   2   2
#     4  11  24  46  71 101 145 186 234 300 347 415
#     4  11  22  44  69 105 150 176 230 298 346 412
#     4  10  25  46  73 102 139 190 238 283 356 422
#     4  10  22  43  71 107 140 184 232 290 353 419
#     4  10  20  42  69 101 146 180 230 297 346 411
#     4  10  22  43  69 104 138 186 239 287 350 422
#
# _framework density 26.388242999999999
#
# number of rings (size 3 to 8) (size 9 to 14) (size 15 to 20)
#    0.000    1.667    1.667    2.500    0.000    4.667 
#    3.000    5.000    0.000    0.000    0.000    0.000 
#    0.000    0.000    0.000    0.000    0.000    0.000 
#
# Total GULP energy -148668.417212 kJ/mol
# GULP energy per Si atom -12389.034768 kJ/mol
# Density = 2.632818 g / cm^3
# Si number density = 26.388243 Si / 1000 Ang^3
#
#
#
# Elastic Constant Matrix: (Units=GPa)
#
#
# Indices 1 2 3 4 5 6 
#
# 1 129.2107 52.5386 24.2082 -10.8900 -12.3465 -5.6195
# 2 52.5386 175.0698 20.4294 -10.3152 -0.7817 2.9434
# 3 24.2082 20.4294 61.7530 27.6652 -11.2720 -8.8381
# 4 -10.8900 -10.3152 27.6652 41.5722 1.4778 2.4072
# 5 -12.3465 -0.7817 -11.2720 1.4778 40.4336 -9.4514
# 6 -5.6195 2.9434 -8.8381 2.4072 -9.4514 37.3593
#
#
#
# Elastic Compliance Matrix: (Units=1/GPa)
#
#
# Indices 1 2 3 4 5 6 
#
# 1 0.010294 -0.002077 -0.005693 0.005901 0.001378 0.000334
# 2 -0.002077 0.007145 -0.004398 0.004411 -0.002548 -0.002844
# 3 -0.005693 -0.004398 0.036675 -0.028195 0.012504 0.013147
# 4 0.005901 0.004411 -0.028195 0.046509 -0.010422 -0.011763
# 5 0.001378 -0.002548 0.012504 -0.010422 0.031795 0.012081
# 6 0.000334 -0.002844 0.013147 -0.011763 0.012081 0.033966
#
#
# Mechanical properties :
#
#
# Convention : Reuss Voigt Hill
#
# Bulk Modulus (GPa) = 33.58016 62.26509 47.92263
# Shear Modulus (GPa) = 24.91972 41.79684 33.35828
#
# Velocity S-wave (km/s) = 3.07636 3.98417 3.55932
# Velocity P-wave (km/s) = 5.03703 6.69416 5.92383
#
# Compressibility (1/GPa) = 0.02977948
#
# Stress axis : x y z
#
# Youngs Moduli (GPa) = 97.14548 139.96356 27.26633
#
# Poissons Ratio (x) = 0.29065 0.15522
# Poissons Ratio (y) = 0.20174 0.11991
# Poissons Ratio (z) = 0.55303 0.61553
#
# Static dielectric constant tensor:
#      x y z
#    x 4.547190 -0.231540 -0.015160 
#    y -0.231540 5.206760 0.173570 
#    z -0.015160 0.173570 4.910670 
# 
# 
# High freq. dielectric constant tensor:
#      x y z
#    x 2.032030 -0.018420 -0.007760 
#    y -0.018420 2.071080 0.016970 
#    z -0.007760 0.016970 2.089310 
# 
# From -- ./inp_files/172478.got.cif
#   From: 2010.06.25/outbox.cif.g09.slc.cpg/sg2_87_cif.got.tgz:172478.got - 2010.06.27 13:26:56.
