data_PCOD8008235
_publ_section_title
;
Structure prediction by ZEFSAII (Michael W. Deem and Ramdas Pophale) SiO2 
 PCOD8008235
Probable space group: P -1
;
_chemical_formula_sum "Si O2"
_cell_formula_units_Z 12
_cell_length_a 7.377947
_cell_length_b 9.496770
_cell_length_c 12.328159
_cell_angle_alpha 143.755754
_cell_angle_beta 110.580977
_cell_angle_gamma 80.988434
_cell_volume 465.373695
_symmetry_space_group_name_H-M "P -1"
_symmetry_group_IT_number 2
_symmetry_cell_setting 'triclinic'
loop_
_space_group_symop_operation_xyz
x,y,z
-x,-y,-z
loop_
_atom_site_type_symbol
_atom_site_label
_atom_site_fract_x
_atom_site_fract_y
_atom_site_fract_z
Si Si1 0.783918 0.567742 0.016277
Si Si2 0.832771 0.930955 0.073834
Si Si3 0.107365 0.781894 0.378070
Si Si4 0.719370 0.849026 0.761606
Si Si5 0.479598 0.111864 0.724145
Si Si6 0.838881 0.381827 0.480099
O O1 0.992594 0.387021 0.851066
O O2 0.673246 0.280700 0.813161
O O3 0.792443 0.662805 0.953175
O O4 0.657621 0.715475 0.152767
O O5 0.746866 0.106959 0.248277
O O6 0.714061 0.918751 0.929881
O O7 0.068095 0.024488 0.165754
O O8 0.068553 0.623859 0.383155
O O9 0.342763 0.910082 0.490184
O O10 0.000000 0.000000 0.500000
O O11 0.680639 0.553401 0.556673
O O12 0.545613 0.946289 0.728484
O O13 0.000000 0.500000 0.500000
#
# Coordination Sequence:
#
# PCOD8008235 Si02
#       6
#     2   2   2   2   2   2
#     4  10  22  42  73  94 138 186 222 279 352 401
#     4  10  21  44  67  99 133 190 219 278 355 402
#     4  10  20  42  68  95 137 180 223 278 341 409
#     4  10  24  40  68 103 137 170 240 282 331 417
#     4  10  22  42  67 104 134 175 233 287 329 413
#     4  10  21  41  68  97 134 186 222 274 351 402
#
# _framework density 25.785726
#
# number of rings (size 3 to 8) (size 9 to 14) (size 15 to 20)
#    0.000    2.000    3.333    0.000    7.000    2.000 
#    0.000    0.833    0.000    0.000    0.000    0.000 
#    0.000    0.000    0.000    0.000    0.000    0.000 
#
# Total GULP energy -148761.183823 kJ/mol
# GULP energy per Si atom -12396.765319 kJ/mol
# Density = 2.572704 g / cm^3
# Si number density = 25.785726 Si / 1000 Ang^3
#
#
#
# Elastic Constant Matrix: (Units=GPa)
#
#
# Indices 1 2 3 4 5 6 
#
# 1 111.7652 61.0367 55.9935 -9.2530 36.4219 -2.2717
# 2 61.0367 192.0443 86.1727 2.8796 29.4770 5.9828
# 3 55.9935 86.1727 158.0528 -32.3425 5.8007 -3.1695
# 4 -9.2530 2.8796 -32.3425 39.8584 -5.1649 3.9017
# 5 36.4219 29.4770 5.8007 -5.1649 27.8581 -4.3041
# 6 -2.2717 5.9828 -3.1695 3.9017 -4.3041 43.8347
#
#
#
# Elastic Compliance Matrix: (Units=1/GPa)
#
#
# Indices 1 2 3 4 5 6 
#
# 1 0.021429 0.001786 -0.008721 -0.005845 -0.029504 -0.002140
# 2 0.001786 0.010175 -0.007326 -0.007761 -0.013393 -0.002450
# 3 -0.008721 -0.007326 0.015485 0.013272 0.018750 0.002327
# 4 -0.005845 -0.007761 0.013272 0.037636 0.020120 0.000342
# 5 -0.029504 -0.013393 0.018750 0.020120 0.089809 0.008682
# 6 -0.002140 -0.002450 0.002327 0.000342 0.008682 0.024027
#
#
# Mechanical properties :
#
#
# Convention : Reuss Voigt Hill
#
# Bulk Modulus (GPa) = 53.86175 96.47425 75.16800
# Shear Modulus (GPa) = 21.43412 39.55417 30.49415
#
# Velocity S-wave (km/s) = 2.88625 3.92082 3.44262
# Velocity P-wave (km/s) = 5.66046 7.61526 6.70943
#
# Compressibility (1/GPa) = 0.01856605
#
# Stress axis : x y z
#
# Youngs Moduli (GPa) = 46.66623 98.27699 64.57736
#
# Poissons Ratio (x) = -0.17548 0.56319
# Poissons Ratio (y) = -0.08333 0.47310
# Poissons Ratio (z) = 0.40699 0.71998
#
# Static dielectric constant tensor:
#      x y z
#    x 4.924480 -0.007110 0.257740 
#    y -0.007110 4.959990 0.358780 
#    z 0.257740 0.358780 5.714900 
# 
# 
# High freq. dielectric constant tensor:
#      x y z
#    x 2.046120 0.004160 -0.014280 
#    y 0.004160 2.043700 0.016210 
#    z -0.014280 0.016210 2.047070 
# 
# From -- ./inp_files/380804.got.cif
#   From: 2010.06.25/outbox.cif.g09.slc.cpg/sg2_191_cif.got.tgz:380804.got - 2010.06.27 13:26:56.
