data_PCOD8008438
_publ_section_title
;
Structure prediction by ZEFSAII (Michael W. Deem and Ramdas Pophale) SiO2 
 PCOD8008438
Probable space group: P -1
;
_chemical_formula_sum "Si O2"
_cell_formula_units_Z 16
_cell_length_a 7.930237
_cell_length_b 15.476320
_cell_length_c 13.302654
_cell_angle_alpha 123.461674
_cell_angle_beta 36.549841
_cell_angle_gamma 121.078437
_cell_volume 802.257793
_symmetry_space_group_name_H-M "P -1"
_symmetry_group_IT_number 2
_symmetry_cell_setting 'triclinic'
loop_
_space_group_symop_operation_xyz
x,y,z
-x,-y,-z
loop_
_atom_site_type_symbol
_atom_site_label
_atom_site_fract_x
_atom_site_fract_y
_atom_site_fract_z
Si Si1 0.281374 0.082477 0.752169
Si Si2 0.372483 0.275798 0.213129
Si Si3 0.330407 0.584595 0.183664
Si Si4 0.502733 0.672396 0.370163
Si Si5 0.194561 0.858440 0.593910
Si Si6 0.919767 0.203416 0.856662
Si Si7 0.701980 0.514118 0.506404
Si Si8 0.508445 0.221998 0.905665
O O1 0.610952 0.102678 0.570456
O O2 0.284996 0.143530 0.895386
O O3 0.067977 0.120065 0.795198
O O4 0.179594 0.958792 0.737671
O O5 0.345559 0.388999 0.339838
O O6 0.122114 0.189872 0.324762
O O7 0.691360 0.249536 0.069410
O O8 0.326504 0.272677 0.111512
O O9 0.483390 0.630019 0.239753
O O10 0.319492 0.683320 0.179612
O O11 0.018718 0.526056 0.320178
O O12 0.500000 0.500000 0.000000
O O13 0.334907 0.770857 0.530291
O O14 0.362191 0.588249 0.461661
O O15 0.841918 0.705678 0.243811
O O16 0.737560 0.159484 0.815717
O O17 0.500000 0.500000 0.500000
#
# Coordination Sequence:
#
# PCOD8008438 Si02
#       8
#     2   2   2   2   2   2   2   2
#     4  10  20  43  68  91 125 175 218 260 332 368
#     4  10  23  41  62  92 131 168 213 267 316 382
#     4  12  24  38  67  92 124 174 211 258 324 384
#     4  11  22  43  62  90 130 169 216 256 320 385
#     4  10  21  40  67  90 127 171 213 276 312 382
#     4   9  22  39  64  91 127 165 215 262 309 382
#     4  12  26  40  61  96 132 167 213 265 321 382
#     4  10  21  40  66  91 131 164 215 262 317 378
#
# _framework density 19.943715999999998
#
# number of rings (size 3 to 8) (size 9 to 14) (size 15 to 20)
#    0.750    0.750    3.750    1.875    3.500    1.500 
#    0.000    6.875    0.000    0.000    0.000    0.000 
#    0.000    0.000    0.000    0.000    0.000    0.000 
#
# Total GULP energy -198275.063769 kJ/mol
# GULP energy per Si atom -12392.191486 kJ/mol
# Density = 1.989832 g / cm^3
# Si number density = 19.943716 Si / 1000 Ang^3
#
#
#
# Elastic Constant Matrix: (Units=GPa)
#
#
# Indices 1 2 3 4 5 6 
#
# 1 112.6613 50.1169 27.0519 21.0867 10.7693 -2.7211
# 2 50.1169 145.3521 54.1785 18.0349 1.2154 6.9008
# 3 27.0519 54.1785 109.2149 10.6733 -11.4362 0.0562
# 4 21.0867 18.0349 10.6733 25.8657 8.0043 2.0326
# 5 10.7693 1.2154 -11.4362 8.0043 36.5742 -2.6803
# 6 -2.7211 6.9008 0.0562 2.0326 -2.6803 23.0980
#
#
#
# Elastic Compliance Matrix: (Units=1/GPa)
#
#
# Indices 1 2 3 4 5 6 
#
# 1 0.012006 -0.003020 -0.001026 -0.006831 -0.002064 0.002681
# 2 -0.003020 0.009838 -0.003933 -0.002416 -0.000367 -0.003115
# 3 -0.001026 -0.003933 0.012203 -0.003179 0.005083 0.001894
# 4 -0.006831 -0.002416 -0.003179 0.050920 -0.010469 -0.005771
# 5 -0.002064 -0.000367 0.005083 -0.010469 0.032173 0.004509
# 6 0.002681 -0.003115 0.001894 -0.005771 0.004509 0.045567
#
#
# Mechanical properties :
#
#
# Convention : Reuss Voigt Hill
#
# Bulk Modulus (GPa) = 55.27804 69.99145 62.63474
# Shear Modulus (GPa) = 27.07175 32.83298 29.95237
#
# Velocity S-wave (km/s) = 3.68830 4.06184 3.87957
# Velocity P-wave (km/s) = 6.77608 7.56100 7.17928
#
# Compressibility (1/GPa) = 0.01809037
#
# Stress axis : x y z
#
# Youngs Moduli (GPa) = 83.28824 101.64849 81.94477
#
# Poissons Ratio (x) = 0.30696 0.08406
# Poissons Ratio (y) = 0.25152 0.32229
# Poissons Ratio (z) = 0.08544 0.39978
#
# Static dielectric constant tensor:
#      x y z
#    x 3.580640 0.189380 -0.034270 
#    y 0.189380 3.572160 0.023280 
#    z -0.034270 0.023280 3.657140 
# 
# 
# High freq. dielectric constant tensor:
#      x y z
#    x 1.766380 0.010400 -0.004320 
#    y 0.010400 1.779200 -0.007560 
#    z -0.004320 -0.007560 1.783700 
# 
# From -- ./inp_files/505445.got.cif
#   From: 2010.06.25/outbox.cif.g09.slc.cpg/sg2_253_cif.got.tgz:505445.got - 2010.06.27 13:26:56.
