data_PCOD8008381
_publ_section_title
;
Structure prediction by ZEFSAII (Michael W. Deem and Ramdas Pophale) SiO2 
 PCOD8008381
Probable space group: P -1
;
_chemical_formula_sum "Si O2"
_cell_formula_units_Z 16
_cell_length_a 15.036823
_cell_length_b 12.423297
_cell_length_c 19.338639
_cell_angle_alpha 154.901710
_cell_angle_beta 152.098579
_cell_angle_gamma 42.920680
_cell_volume 673.661037
_symmetry_space_group_name_H-M "P -1"
_symmetry_group_IT_number 2
_symmetry_cell_setting 'triclinic'
loop_
_space_group_symop_operation_xyz
x,y,z
-x,-y,-z
loop_
_atom_site_type_symbol
_atom_site_label
_atom_site_fract_x
_atom_site_fract_y
_atom_site_fract_z
Si Si1 0.713245 0.050057 0.455763
Si Si2 0.439859 0.509111 0.343410
Si Si3 0.027574 0.411643 0.391397
Si Si4 0.201376 0.027887 0.117249
Si Si5 0.006478 0.226268 0.540760
Si Si6 0.421853 0.952345 0.787228
Si Si7 0.460931 0.472891 0.732072
Si Si8 0.595501 0.304097 0.863774
O O1 0.722979 0.351633 0.662529
O O2 0.569919 0.987757 0.253532
O O3 0.942195 0.049812 0.599151
O O4 0.608533 0.789924 0.283533
O O5 0.424089 0.210290 0.183637
O O6 0.422777 0.513351 0.251450
O O7 0.659337 0.665416 0.621774
O O8 0.222838 0.320728 0.467755
O O9 0.000000 0.500000 0.500000
O O10 0.053996 0.665799 0.508524
O O11 0.837543 0.154966 0.085197
O O12 0.328468 0.944527 0.215849
O O13 0.000000 0.000000 0.000000
O O14 0.817687 0.183704 0.437207
O O15 0.220941 0.422000 0.832657
O O16 0.514771 0.228031 0.052529
O O17 0.540085 0.313298 0.750977
#
# Coordination Sequence:
#
# PCOD8008381 Si02
#       8
#     2   2   2   2   2   2   2   2
#     4  11  24  41  71  99 132 172 238 282 329 397
#     4  11  24  44  65 102 138 181 222 279 350 400
#     4  11  24  40  71 102 135 173 233 285 332 396
#     4  10  20  43  65  96 137 175 222 276 342 402
#     4  11  22  45  66 102 132 181 230 271 342 412
#     4  12  25  44  72  95 140 188 226 269 340 421
#     4  12  24  43  70 101 138 179 230 279 339 408
#     4  10  23  40  73  99 132 175 232 281 335 390
#
# _framework density 23.750816
#
# number of rings (size 3 to 8) (size 9 to 14) (size 15 to 20)
#    0.000    1.000    3.750    3.000    5.250    2.000 
#    2.250    0.625    0.000    0.000    0.000    0.000 
#    0.000    0.000    0.000    0.000    0.000    0.000 
#
# Total GULP energy -198221.154888 kJ/mol
# GULP energy per Si atom -12388.822180 kJ/mol
# Density = 2.369676 g / cm^3
# Si number density = 23.750816 Si / 1000 Ang^3
#
#
#
# Elastic Constant Matrix: (Units=GPa)
#
#
# Indices 1 2 3 4 5 6 
#
# 1 64.6107 21.1054 6.5198 -4.2046 -30.3891 11.8356
# 2 21.1054 77.7367 26.8914 -21.0216 -16.6922 9.8669
# 3 6.5198 26.8914 50.5738 1.3153 -20.3492 11.2017
# 4 -4.2046 -21.0216 1.3153 38.1577 -1.2051 -6.7661
# 5 -30.3891 -16.6922 -20.3492 -1.2051 39.3298 -5.7894
# 6 11.8356 9.8669 11.2017 -6.7661 -5.7894 51.9394
#
#
#
# Elastic Compliance Matrix: (Units=1/GPa)
#
#
# Indices 1 2 3 4 5 6 
#
# 1 0.028517 -0.005507 0.010092 -0.000359 0.024174 -0.004981
# 2 -0.005507 0.021143 -0.011336 0.011612 -0.000625 0.001126
# 3 0.010092 -0.011336 0.033840 -0.006781 0.019379 -0.006168
# 4 -0.000359 0.011612 -0.006781 0.033599 0.002764 0.004023
# 5 0.024174 -0.000625 0.019379 0.002764 0.053473 -0.003249
# 6 -0.004981 0.001126 -0.006168 0.004023 -0.003249 0.021666
#
#
# Mechanical properties :
#
#
# Convention : Reuss Voigt Hill
#
# Bulk Modulus (GPa) = 14.28627 33.55049 23.91838
# Shear Modulus (GPa) = 21.82705 35.11235 28.46970
#
# Velocity S-wave (km/s) = 3.03479 3.84912 3.46596
# Velocity P-wave (km/s) = 4.27879 5.82332 5.10975
#
# Compressibility (1/GPa) = 0.06999727
#
# Stress axis : x y z
#
# Youngs Moduli (GPa) = 35.06660 47.29599 29.55125
#
# Poissons Ratio (x) = 0.26048 -0.29822
# Poissons Ratio (y) = 0.19313 0.33498
# Poissons Ratio (z) = -0.35388 0.53612
#
# Static dielectric constant tensor:
#      x y z
#    x 4.446480 -0.143250 -0.272550 
#    y -0.143250 4.547730 -0.014240 
#    z -0.272550 -0.014240 4.624700 
# 
# 
# High freq. dielectric constant tensor:
#      x y z
#    x 1.944590 -0.006790 -0.009870 
#    y -0.006790 1.952810 -0.003500 
#    z -0.009870 -0.003500 1.924750 
# 
# From -- ./inp_files/306883.got.cif
#   From: 2010.06.25/outbox.cif.g09.slc.cpg/sg2_154_cif.got.tgz:306883.got - 2010.06.27 13:26:56.
