data_PCOD8008317
_publ_section_title
;
Structure prediction by ZEFSAII (Michael W. Deem and Ramdas Pophale) SiO2 
 PCOD8008317
Probable space group: P -1
;
_chemical_formula_sum "Si O2"
_cell_formula_units_Z 16
_cell_length_a 27.325754
_cell_length_b 5.885972
_cell_length_c 7.969518
_cell_angle_alpha 57.628065
_cell_angle_beta 137.919248
_cell_angle_gamma 104.371503
_cell_volume 699.883950
_symmetry_space_group_name_H-M "P -1"
_symmetry_group_IT_number 2
_symmetry_cell_setting 'triclinic'
loop_
_space_group_symop_operation_xyz
x,y,z
-x,-y,-z
loop_
_atom_site_type_symbol
_atom_site_label
_atom_site_fract_x
_atom_site_fract_y
_atom_site_fract_z
Si Si1 0.834520 0.154214 0.350081
Si Si2 0.995049 0.828691 0.879667
Si Si3 0.584801 0.645596 0.831065
Si Si4 0.231474 0.244652 0.119416
Si Si5 0.844835 0.194229 0.758046
Si Si6 0.737515 0.761435 0.186176
Si Si7 0.615615 0.051084 0.230589
Si Si8 0.512397 0.091178 0.233037
O O1 0.842959 0.148534 0.572991
O O2 0.761546 0.039925 0.177929
O O3 0.821066 0.446900 0.100817
O O4 0.912488 0.973144 0.535530
O O5 0.067567 0.852233 0.945784
O O6 0.000000 0.500000 0.000000
O O7 0.000000 0.000000 0.000000
O O8 0.514753 0.704246 0.760438
O O9 0.548777 0.773253 0.513215
O O10 0.650483 0.787581 0.006880
O O11 0.622248 0.315958 0.032259
O O12 0.184283 0.019302 0.115443
O O13 0.302705 0.163668 0.458180
O O14 0.259093 0.272299 0.991177
O O15 0.793166 0.508295 0.531904
O O16 0.579082 0.177315 0.267122
O O17 0.560447 0.885542 0.077057
#
# Coordination Sequence:
#
# PCOD8008317 Si02
#       8
#     2   2   2   2   2   2   2   2
#     4  10  24  41  65  95 131 169 219 266 330 393
#     4  10  20  42  73 101 138 183 229 281 338 408
#     4  11  22  40  63  89 120 164 213 266 327 392
#     4  11  24  40  61  96 129 168 219 269 324 400
#     4  10  22  42  67  91 129 175 218 259 336 392
#     4  11  22  40  62  91 130 166 211 273 320 395
#     4  11  22  42  61  85 126 164 208 268 326 392
#     4  10  24  40  59  91 119 160 214 264 331 391
#
# _framework density 22.860934
#
# number of rings (size 3 to 8) (size 9 to 14) (size 15 to 20)
#    0.000    1.500    3.750    0.750    1.750    2.500 
#    9.000    0.625    0.000    0.000    0.000    0.000 
#    0.000    0.000    0.000    0.000    0.000    0.000 
#
# Total GULP energy -198222.763257 kJ/mol
# GULP energy per Si atom -12388.922704 kJ/mol
# Density = 2.280890 g / cm^3
# Si number density = 22.860934 Si / 1000 Ang^3
#
#
#
# Elastic Constant Matrix: (Units=GPa)
#
#
# Indices 1 2 3 4 5 6 
#
# 1 61.0234 0.2950 26.2600 -6.9077 15.8392 14.3335
# 2 0.2950 81.3634 23.9139 -16.6264 1.3088 10.6333
# 3 26.2600 23.9139 112.8547 -27.2242 11.7461 5.3912
# 4 -6.9077 -16.6264 -27.2242 40.0266 12.4498 1.3631
# 5 15.8392 1.3088 11.7461 12.4498 31.7813 1.5643
# 6 14.3335 10.6333 5.3912 1.3631 1.5643 26.0409
#
#
#
# Elastic Compliance Matrix: (Units=1/GPa)
#
#
# Indices 1 2 3 4 5 6 
#
# 1 0.026328 0.005030 -0.002238 0.010583 -0.015875 -0.015682
# 2 0.005030 0.015679 -0.001476 0.008376 -0.005446 -0.008976
# 3 -0.002238 -0.001476 0.012998 0.010234 -0.007591 -0.000936
# 4 0.010583 0.008376 0.010234 0.046008 -0.026826 -0.012161
# 5 -0.015875 -0.005446 -0.007591 -0.026826 0.052384 0.010791
# 6 -0.015682 -0.008976 -0.000936 -0.012161 0.010791 0.050880
#
#
# Mechanical properties :
#
#
# Convention : Reuss Voigt Hill
#
# Bulk Modulus (GPa) = 17.35038 39.57546 28.46292
# Shear Modulus (GPa) = 22.63903 33.22127 27.93015
#
# Velocity S-wave (km/s) = 3.15031 3.81621 3.49913
# Velocity P-wave (km/s) = 4.56493 6.06357 5.36682
#
# Compressibility (1/GPa) = 0.05763561
#
# Stress axis : x y z
#
# Youngs Moduli (GPa) = 37.98278 63.78144 76.93423
#
# Poissons Ratio (x) = -0.32080 0.17215
# Poissons Ratio (y) = -0.19104 0.11359
# Poissons Ratio (z) = 0.08499 0.09417
#
# Static dielectric constant tensor:
#      x y z
#    x 4.253140 0.183190 0.266850 
#    y 0.183190 3.939130 -0.084330 
#    z 0.266850 -0.084330 4.444030 
# 
# 
# High freq. dielectric constant tensor:
#      x y z
#    x 1.898280 0.015600 0.016880 
#    y 0.015600 1.887790 -0.005890 
#    z 0.016880 -0.005890 1.911700 
# 
# From -- ./inp_files/13705.got.cif
#   From: 2010.06.25/outbox.cif.g09.slc.cpg/sg2_7_cif.got.tgz:13705.got - 2010.06.27 13:26:56.
