data_PCOD8008063
_publ_section_title
;
Structure prediction by ZEFSAII (Michael W. Deem and Ramdas Pophale) SiO2 
 PCOD8008063
Probable space group: P -1
;
_chemical_formula_sum "Si O2"
_cell_formula_units_Z 16
_cell_length_a 8.459818
_cell_length_b 8.222056
_cell_length_c 11.829858
_cell_angle_alpha 115.129351
_cell_angle_beta 106.704049
_cell_angle_gamma 91.660495
_cell_volume 702.626029
_symmetry_space_group_name_H-M "P -1"
_symmetry_group_IT_number 2
_symmetry_cell_setting 'triclinic'
loop_
_space_group_symop_operation_xyz
x,y,z
-x,-y,-z
loop_
_atom_site_type_symbol
_atom_site_label
_atom_site_fract_x
_atom_site_fract_y
_atom_site_fract_z
Si Si1 0.170529 0.944973 0.563652
Si Si2 0.317778 0.798515 0.124988
Si Si3 0.365158 0.298821 0.798467
Si Si4 0.739728 0.330813 0.680703
Si Si5 0.803310 0.947194 0.972185
Si Si6 0.104900 0.519088 0.843764
Si Si7 0.551103 0.615223 0.781058
Si Si8 0.762191 0.216955 0.239922
O O1 0.240607 0.804318 0.455433
O O2 0.140947 0.842493 0.648491
O O3 0.308179 0.128735 0.651735
O O4 0.000000 0.000000 0.500000
O O5 0.498150 0.759343 0.103303
O O6 0.331502 0.786136 0.258998
O O7 0.162127 0.666535 0.996103
O O8 0.293975 0.998992 0.143560
O O9 0.197452 0.345611 0.834763
O O10 0.454243 0.489297 0.820532
O O11 0.614945 0.473169 0.663087
O O12 0.910945 0.448959 0.793906
O O13 0.747826 0.048674 0.100462
O O14 0.723060 0.733968 0.903615
O O15 0.000000 0.000000 0.000000
O O16 0.135846 0.604152 0.748400
O O17 0.420212 0.740391 0.745309
#
# Coordination Sequence:
#
# PCOD8008063 Si02
#       8
#     2   2   2   2   2   2   2   2
#     4  12  26  45  65  92 130 178 227 267 317 385
#     4  10  22  38  66  97 133 162 210 270 329 390
#     4  10  22  41  66  94 129 175 214 269 324 384
#     4  11  24  42  65  97 135 174 219 264 321 382
#     4  11  23  41  68 103 133 168 210 268 334 389
#     4  10  20  42  65 103 128 167 213 270 332 381
#     4  10  22  43  67 100 132 168 216 272 326 386
#     4  10  24  42  68  95 134 173 216 263 328 389
#
# _framework density 22.771715
#
# number of rings (size 3 to 8) (size 9 to 14) (size 15 to 20)
#    0.000    1.500    1.250    3.375    1.750    9.000 
#    0.000    0.000    0.000    0.000    0.000    0.000 
#    0.000    0.000    0.000    0.000    0.000    0.000 
#
# Total GULP energy -198212.612798 kJ/mol
# GULP energy per Si atom -12388.288300 kJ/mol
# Density = 2.271989 g / cm^3
# Si number density = 22.771715 Si / 1000 Ang^3
#
#
#
# Elastic Constant Matrix: (Units=GPa)
#
#
# Indices 1 2 3 4 5 6 
#
# 1 99.6816 43.8705 17.0995 2.1120 -2.7454 -19.8943
# 2 43.8705 96.0481 41.3254 -5.0904 -2.1350 -22.9959
# 3 17.0995 41.3254 89.1462 6.1275 -13.1282 -6.3755
# 4 2.1120 -5.0904 6.1275 41.5240 -6.3287 2.1169
# 5 -2.7454 -2.1350 -13.1282 -6.3287 40.0159 11.1489
# 6 -19.8943 -22.9959 -6.3755 2.1169 11.1489 37.5545
#
#
#
# Elastic Compliance Matrix: (Units=1/GPa)
#
#
# Indices 1 2 3 4 5 6 
#
# 1 0.013121 -0.005196 0.000193 -0.001652 -0.000720 0.004109
# 2 -0.005196 0.017951 -0.007475 0.002610 -0.003640 0.007904
# 3 0.000193 -0.007475 0.015330 -0.002227 0.005209 -0.003293
# 4 -0.001652 0.002610 -0.002227 0.025535 0.003967 -0.002272
# 5 -0.000720 -0.003640 0.005209 0.003967 0.030117 -0.010890
# 6 0.004109 0.007904 -0.003293 -0.002272 -0.010890 0.036446
#
#
# Mechanical properties :
#
#
# Convention : Reuss Voigt Hill
#
# Bulk Modulus (GPa) = 46.62775 54.38520 50.50647
# Shear Modulus (GPa) = 29.30752 35.99090 32.64921
#
# Velocity S-wave (km/s) = 3.59139 3.97987 3.79061
# Velocity P-wave (km/s) = 6.14150 6.71222 6.43319
#
# Compressibility (1/GPa) = 0.02144646
#
# Stress axis : x y z
#
# Youngs Moduli (GPa) = 76.21516 55.70818 65.23044
#
# Poissons Ratio (x) = 0.28946 -0.01262
# Poissons Ratio (y) = 0.39602 0.48759
# Poissons Ratio (z) = -0.01474 0.41642
#
# Static dielectric constant tensor:
#      x y z
#    x 4.459090 -0.236410 -0.006490 
#    y -0.236410 4.565660 0.171580 
#    z -0.006490 0.171580 3.716770 
# 
# 
# High freq. dielectric constant tensor:
#      x y z
#    x 1.915280 -0.014180 0.002290 
#    y -0.014180 1.912140 0.018870 
#    z 0.002290 0.018870 1.862700 
# 
# From -- ./inp_files/380403.got.cif
#   From: 2010.06.25/outbox.cif.g09.slc.cpg/sg2_191_cif.got.tgz:380403.got - 2010.06.27 13:26:56.
