data_PCOD8008651
_publ_section_title
;
Structure prediction by ZEFSAII (Michael W. Deem and Ramdas Pophale) SiO2 
 PCOD8008651
Probable space group: P -1
;
_chemical_formula_sum "Si O2"
_cell_formula_units_Z 16
_cell_length_a 9.706405
_cell_length_b 17.737159
_cell_length_c 9.155847
_cell_angle_alpha 41.352301
_cell_angle_beta 105.208351
_cell_angle_gamma 131.936447
_cell_volume 676.646623
_symmetry_space_group_name_H-M "P -1"
_symmetry_group_IT_number 2
_symmetry_cell_setting 'triclinic'
loop_
_space_group_symop_operation_xyz
x,y,z
-x,-y,-z
loop_
_atom_site_type_symbol
_atom_site_label
_atom_site_fract_x
_atom_site_fract_y
_atom_site_fract_z
Si Si1 0.883289 0.765436 0.057406
Si Si2 0.359689 0.148352 0.131682
Si Si3 0.846344 0.094297 0.325821
Si Si4 0.216993 0.350257 0.254996
Si Si5 0.789789 0.312958 0.900861
Si Si6 0.602684 0.433549 0.278278
Si Si7 0.228206 0.694467 0.428406
Si Si8 0.085858 0.823302 0.333833
O O1 0.782370 0.592013 0.206524
O O2 0.953877 0.784834 0.212817
O O3 0.705239 0.757916 0.013554
O O4 0.097683 0.921340 0.797271
O O5 0.342781 0.082614 0.385238
O O6 0.208637 0.999799 0.185830
O O7 0.601803 0.282043 0.953336
O O8 0.056911 0.188847 0.339638
O O9 0.798272 0.201358 0.158358
O O10 0.375353 0.352241 0.369122
O O11 0.086171 0.331533 0.376529
O O12 0.344897 0.517678 0.950082
O O13 0.757113 0.259552 0.801501
O O14 0.004601 0.510752 0.685393
O O15 0.589133 0.289733 0.510180
O O16 0.259085 0.828408 0.335456
#
# Coordination Sequence:
#
# PCOD8008651 Si02
#       8
#     2   2   2   2   2   2   2   2
#     4  11  21  42  67  92 131 172 214 265 321 385
#     4  11  26  40  65  98 130 173 218 263 317 386
#     4  10  20  47  65  91 135 171 215 262 321 388
#     4   9  21  39  63  96 132 158 214 267 320 377
#     4  11  22  43  67  97 128 171 223 257 324 386
#     4  10  21  42  66  96 129 169 215 265 326 386
#     4  11  22  42  69  93 130 171 208 275 321 376
#     4  11  24  42  63  99 133 168 211 273 322 380
#
# _framework density 23.646021000000001
#
# number of rings (size 3 to 8) (size 9 to 14) (size 15 to 20)
#    0.000    1.500    3.750    1.875    3.500    1.500 
#    0.000    3.750    0.000    0.000    0.000    0.000 
#    0.000    0.000    0.000    0.000    0.000    0.000 
#
# Total GULP energy -198382.690531 kJ/mol
# GULP energy per Si atom -12398.918158 kJ/mol
# Density = 2.359220 g / cm^3
# Si number density = 23.646021 Si / 1000 Ang^3
#
#
#
# Elastic Constant Matrix: (Units=GPa)
#
#
# Indices 1 2 3 4 5 6 
#
# 1 113.5324 17.2489 14.3656 -0.6922 13.4620 -7.3227
# 2 17.2489 40.5391 22.0474 21.6071 1.6036 -1.0774
# 3 14.3656 22.0474 68.1757 12.7493 6.6032 -3.1627
# 4 -0.6922 21.6071 12.7493 23.6531 0.5431 -0.4209
# 5 13.4620 1.6036 6.6032 0.5431 40.2875 3.7519
# 6 -7.3227 -1.0774 -3.1627 -0.4209 3.7519 33.7286
#
#
#
# Elastic Compliance Matrix: (Units=1/GPa)
#
#
# Indices 1 2 3 4 5 6 
#
# 1 0.010850 -0.008734 -0.000643 0.008769 -0.003525 0.002518
# 2 -0.008734 0.059565 -0.008372 -0.050250 0.002757 -0.001712
# 3 -0.000643 -0.008372 0.018225 -0.002108 -0.002556 0.001560
# 4 0.008769 -0.050250 -0.002108 0.089643 -0.001926 0.001434
# 5 -0.003525 0.002757 -0.002556 -0.001926 0.026699 -0.003911
# 6 0.002518 -0.001712 0.001560 0.001434 -0.003911 0.030740
#
#
# Mechanical properties :
#
#
# Convention : Reuss Voigt Hill
#
# Bulk Modulus (GPa) = 18.81752 36.61900 27.71826
# Shear Modulus (GPa) = 17.30494 30.77287 24.03890
#
# Velocity S-wave (km/s) = 2.70818 3.61140 3.19190
# Velocity P-wave (km/s) = 4.21358 5.73669 5.03308
#
# Compressibility (1/GPa) = 0.05314197
#
# Stress axis : x y z
#
# Youngs Moduli (GPa) = 92.16344 16.78835 54.86934
#
# Poissons Ratio (x) = 0.14663 0.03530
# Poissons Ratio (y) = 0.80496 0.45936
# Poissons Ratio (z) = 0.05929 0.14055
#
# Static dielectric constant tensor:
#      x y z
#    x 4.457400 -0.023140 -0.160380 
#    y -0.023140 3.942280 0.277430 
#    z -0.160380 0.277430 4.383750 
# 
# 
# High freq. dielectric constant tensor:
#      x y z
#    x 1.951100 -0.000320 -0.005990 
#    y -0.000320 1.911930 0.020830 
#    z -0.005990 0.020830 1.933940 
# 
# From -- ./inp_files/216521.got.cif
#   From: 2010.06.25/outbox.cif.g09.slc.cpg/sg2_109_cif.got.tgz:216521.got - 2010.06.27 13:26:56.
