data_PCOD8008926
_publ_section_title
;
Structure prediction by ZEFSAII (Michael W. Deem and Ramdas Pophale) SiO2 
 PCOD8008926
Probable space group: P -1
;
_chemical_formula_sum "Si O2"
_cell_formula_units_Z 16
_cell_length_a 12.952903
_cell_length_b 9.080289
_cell_length_c 15.619528
_cell_angle_alpha 103.789996
_cell_angle_beta 26.874965
_cell_angle_gamma 111.600024
_cell_volume 754.227141
_symmetry_space_group_name_H-M "P -1"
_symmetry_group_IT_number 2
_symmetry_cell_setting 'triclinic'
loop_
_space_group_symop_operation_xyz
x,y,z
-x,-y,-z
loop_
_atom_site_type_symbol
_atom_site_label
_atom_site_fract_x
_atom_site_fract_y
_atom_site_fract_z
Si Si1 0.575214 0.311069 0.477951
Si Si2 0.173195 0.890343 0.101539
Si Si3 0.921545 0.857562 0.105923
Si Si4 0.083531 0.335706 0.070744
Si Si5 0.698630 0.743113 0.941523
Si Si6 0.222875 0.462636 0.285284
Si Si7 0.539320 0.327257 0.155242
Si Si8 0.665806 0.655013 0.510987
O O1 0.346445 0.163941 0.663396
O O2 0.655829 0.470516 0.500942
O O3 0.518773 0.348875 0.428860
O O4 0.805553 0.255274 0.296010
O O5 0.114286 0.880163 0.042305
O O6 0.937586 0.780858 0.312695
O O7 0.257128 0.075462 0.098101
O O8 0.400439 0.829495 0.942069
O O9 0.894324 0.695912 0.050561
O O10 0.000000 0.000000 0.000000
O O11 0.222946 0.248661 0.016041
O O12 0.197084 0.528967 0.022685
O O13 0.854541 0.659758 0.756130
O O14 0.411230 0.633742 0.134582
O O15 0.347931 0.372179 0.244426
O O16 0.000000 0.500000 0.500000
O O17 0.428810 0.289756 0.325745
#
# Coordination Sequence:
#
# PCOD8008926 Si02
#       8
#     2   2   2   2   2   2   2   2
#     4  10  21  35  59  88 130 169 211 248 290 367
#     4  11  23  41  62  95 136 159 208 258 310 373
#     4  11  22  38  58  94 133 174 210 248 301 363
#     4  11  21  38  64  89 127 172 210 250 306 368
#     4  10  24  44  65  94 123 162 204 270 323 364
#     4  10  25  46  70  91 116 158 217 264 324 384
#     4  11  23  39  67  92 119 171 208 261 314 372
#     4  10  21  36  57  94 126 168 207 247 302 362
#
# _framework density 21.213771000000001
#
# number of rings (size 3 to 8) (size 9 to 14) (size 15 to 20)
#    0.000    1.500    3.750    0.750    1.750    4.000 
#    2.250    1.250    0.000    0.000    0.000    0.000 
#    0.000    0.000    0.000    0.000    0.000    0.000 
#
# Total GULP energy -198361.616238 kJ/mol
# GULP energy per Si atom -12397.601015 kJ/mol
# Density = 2.116549 g / cm^3
# Si number density = 21.213771 Si / 1000 Ang^3
#
#
#
# Elastic Constant Matrix: (Units=GPa)
#
#
# Indices 1 2 3 4 5 6 
#
# 1 55.5206 32.4698 39.2402 0.4210 0.6813 3.0684
# 2 32.4698 109.4330 42.9801 0.3742 -3.8503 -3.2480
# 3 39.2402 42.9801 117.7408 9.0159 0.6748 -7.3532
# 4 0.4210 0.3742 9.0159 32.0319 -3.9534 7.4918
# 5 0.6813 -3.8503 0.6748 -3.9534 29.5638 1.0374
# 6 3.0684 -3.2480 -7.3532 7.4918 1.0374 27.9048
#
#
#
# Elastic Compliance Matrix: (Units=1/GPa)
#
#
# Indices 1 2 3 4 5 6 
#
# 1 0.026808 -0.005143 -0.007713 0.003335 -0.000439 -0.006458
# 2 -0.005143 0.011766 -0.002576 0.000633 0.001759 0.001021
# 3 -0.007713 -0.002576 0.012708 -0.004829 -0.001277 0.005241
# 4 0.003335 0.000633 -0.004829 0.035845 0.005309 -0.011387
# 5 -0.000439 0.001759 -0.001277 0.005309 0.034902 -0.002807
# 6 -0.006458 0.001021 0.005241 -0.011387 -0.002807 0.041208
#
#
# Mechanical properties :
#
#
# Convention : Reuss Voigt Hill
#
# Bulk Modulus (GPa) = 48.97674 56.89718 52.93696
# Shear Modulus (GPa) = 24.88726 29.10037 26.99381
#
# Velocity S-wave (km/s) = 3.42887 3.70776 3.57103
# Velocity P-wave (km/s) = 6.23005 6.72377 6.48161
#
# Compressibility (1/GPa) = 0.02041786
#
# Stress axis : x y z
#
# Youngs Moduli (GPa) = 37.30292 84.99300 78.68811
#
# Poissons Ratio (x) = 0.43714 0.60692
# Poissons Ratio (y) = 0.19186 0.20267
# Poissons Ratio (z) = 0.28772 0.21891
#
# Static dielectric constant tensor:
#      x y z
#    x 3.838730 0.188090 0.175390 
#    y 0.188090 3.884110 0.006090 
#    z 0.175390 0.006090 3.804980 
# 
# 
# High freq. dielectric constant tensor:
#      x y z
#    x 1.824790 0.003460 0.010760 
#    y 0.003460 1.826880 -0.002240 
#    z 0.010760 -0.002240 1.832230 
# 
# From -- ./inp_files/83488.got.cif
#   From: 2010.06.25/outbox.cif.g09.slc.cpg/sg2_42_cif.got.tgz:83488.got - 2010.06.27 13:26:56.
