data_PCOD8008109
_publ_section_title
;
Structure prediction by ZEFSAII (Michael W. Deem and Ramdas Pophale) SiO2 
 PCOD8008109
Probable space group: P -1
;
_chemical_formula_sum "Si O2"
_cell_formula_units_Z 12
_cell_length_a 10.513224
_cell_length_b 9.815287
_cell_length_c 8.956960
_cell_angle_alpha 123.193900
_cell_angle_beta 119.823063
_cell_angle_gamma 96.850609
_cell_volume 565.061878
_symmetry_space_group_name_H-M "P -1"
_symmetry_group_IT_number 2
_symmetry_cell_setting 'triclinic'
loop_
_space_group_symop_operation_xyz
x,y,z
-x,-y,-z
loop_
_atom_site_type_symbol
_atom_site_label
_atom_site_fract_x
_atom_site_fract_y
_atom_site_fract_z
Si Si1 0.069082 0.183473 0.047736
Si Si2 0.837423 0.310030 0.859595
Si Si3 0.690835 0.774821 0.048585
Si Si4 0.816055 0.581270 0.212822
Si Si5 0.226676 0.824501 0.568697
Si Si6 0.691640 0.454236 0.395103
O O1 0.148274 0.156059 0.927093
O O2 0.216418 0.378570 0.329093
O O3 0.900731 0.190572 0.915729
O O4 0.000000 0.000000 0.000000
O O5 0.715233 0.185570 0.573992
O O6 0.743322 0.379182 0.959138
O O7 0.000000 0.500000 0.000000
O O8 0.510716 0.619133 0.770417
O O9 0.716813 0.680764 0.154409
O O10 0.676460 0.953060 0.195990
O O11 0.780562 0.537602 0.338884
O O12 0.020545 0.727665 0.396636
O O13 0.285484 0.720278 0.653811
#
# Coordination Sequence:
#
# PCOD8008109 Si02
#       6
#     2   2   2   2   2   2
#     4  12  25  42  68  96 123 168 225 256 306 384
#     4  10  20  42  66  90 121 169 214 262 305 357
#     4  12  25  42  64  98 133 164 204 269 324 368
#     4  11  22  42  68  91 128 171 216 252 311 383
#     4  11  22  42  68  91 128 171 216 252 311 383
#     4  12  25  42  64  98 133 164 204 269 324 368
#
# _framework density 21.236611
#
# number of rings (size 3 to 8) (size 9 to 14) (size 15 to 20)
#    0.000    0.667    6.667    3.500    4.667    0.000 
#    0.000    0.833    0.000    0.000    0.000    0.000 
#    0.000    0.000    0.000    0.000    0.000    0.000 
#
# Total GULP energy -148846.837189 kJ/mol
# GULP energy per Si atom -12403.903099 kJ/mol
# Density = 2.118828 g / cm^3
# Si number density = 21.236611 Si / 1000 Ang^3
#
#
#
# Elastic Constant Matrix: (Units=GPa)
#
#
# Indices 1 2 3 4 5 6 
#
# 1 29.5917 9.1167 12.0389 1.6668 -7.9934 -3.1275
# 2 9.1167 143.4467 19.9394 -24.8479 0.1505 -18.3162
# 3 12.0389 19.9394 66.4455 -14.3353 -9.6554 -0.9606
# 4 1.6668 -24.8479 -14.3353 33.0882 -6.0448 -2.7452
# 5 -7.9934 0.1505 -9.6554 -6.0448 41.9882 -8.0236
# 6 -3.1275 -18.3162 -0.9606 -2.7452 -8.0236 29.1808
#
#
#
# Elastic Compliance Matrix: (Units=1/GPa)
#
#
# Indices 1 2 3 4 5 6 
#
# 1 0.039435 -0.001919 -0.006689 -0.004891 0.006036 0.004001
# 2 -0.001919 0.009411 -0.000371 0.007947 0.001995 0.006985
# 3 -0.006689 -0.000371 0.019129 0.009387 0.004840 0.001894
# 4 -0.004891 0.007947 0.009387 0.043213 0.009614 0.011482
# 5 0.006036 0.001995 0.004840 0.009614 0.029575 0.011095
# 6 0.004001 0.006985 0.001894 0.011482 0.011095 0.043276
#
#
# Mechanical properties :
#
#
# Convention : Reuss Voigt Hill
#
# Bulk Modulus (GPa) = 19.99338 35.74156 27.86747
# Shear Modulus (GPa) = 22.86548 34.07736 28.47142
#
# Velocity S-wave (km/s) = 3.28487 4.01016 3.66550
# Velocity P-wave (km/s) = 4.88080 6.18939 5.57363
#
# Compressibility (1/GPa) = 0.05001654
#
# Stress axis : x y z
#
# Youngs Moduli (GPa) = 25.35827 106.25566 52.27608
#
# Poissons Ratio (x) = 0.20391 0.34969
# Poissons Ratio (y) = 0.04866 0.01940
# Poissons Ratio (z) = 0.16963 0.03943
#
# Static dielectric constant tensor:
#      x y z
#    x 1.783320 1.689590 -2.779790 
#    y 1.689590 2.324040 1.960640 
#    z -2.779790 1.960640 1.581790 
# 
# 
# High freq. dielectric constant tensor:
#      x y z
#    x 1.816620 -0.012110 -0.021380 
#    y -0.012110 1.848000 -0.012510 
#    z -0.021380 -0.012510 1.837480 
# 
# From -- ./inp_files/146307.got.cif
#   From: 2010.06.25/outbox.cif.g09.slc.cpg/sg2_74_cif.got.tgz:146307.got - 2010.06.27 13:26:56.
