data_PCOD8008563
_publ_section_title
;
Structure prediction by ZEFSAII (Michael W. Deem and Ramdas Pophale) SiO2 
 PCOD8008563
Probable space group: P -1
;
_chemical_formula_sum "Si O2"
_cell_formula_units_Z 16
_cell_length_a 14.854118
_cell_length_b 13.992927
_cell_length_c 8.989141
_cell_angle_alpha 95.967182
_cell_angle_beta 127.085257
_cell_angle_gamma 40.391067
_cell_volume 701.530495
_symmetry_space_group_name_H-M "P -1"
_symmetry_group_IT_number 2
_symmetry_cell_setting 'triclinic'
loop_
_space_group_symop_operation_xyz
x,y,z
-x,-y,-z
loop_
_atom_site_type_symbol
_atom_site_label
_atom_site_fract_x
_atom_site_fract_y
_atom_site_fract_z
Si Si1 0.827754 0.612782 0.490278
Si Si2 0.763072 0.833284 0.194776
Si Si3 0.173846 0.884810 0.791163
Si Si4 0.465574 0.820060 0.933408
Si Si5 0.298934 0.626543 0.096783
Si Si6 0.201947 0.722872 0.345410
Si Si7 0.877603 0.450097 0.089569
Si Si8 0.086753 0.592283 0.220764
O O1 0.955013 0.611045 0.416314
O O2 0.600720 0.782950 0.186258
O O3 0.758895 0.602205 0.566482
O O4 0.904846 0.663180 0.623906
O O5 0.825104 0.793321 0.072726
O O6 0.500000 0.000000 0.000000
O O7 0.774222 0.934321 0.293094
O O8 0.408424 0.759246 0.936456
O O9 0.253567 0.727656 0.925821
O O10 0.000000 0.000000 0.500000
O O11 0.047667 0.048285 0.811308
O O12 0.626715 0.688619 0.925403
O O13 0.218278 0.736935 0.188991
O O14 0.581601 0.392207 0.361828
O O15 0.144604 0.646467 0.915495
O O16 0.218158 0.596078 0.362006
O O17 0.930862 0.430671 0.967931
#
# Coordination Sequence:
#
# PCOD8008563 Si02
#       8
#     2   2   2   2   2   2   2   2
#     4  10  22  39  66  91 128 168 210 262 324 389
#     4  10  21  39  67  92 124 168 211 260 321 385
#     4  12  25  41  65  95 129 168 225 274 322 388
#     4  12  23  41  65  91 124 170 219 260 330 380
#     4  10  24  41  67  94 129 176 212 270 332 383
#     4  10  20  44  67  93 130 169 219 268 327 391
#     4  11  22  39  64  94 131 166 211 265 321 385
#     4   9  20  40  67  90 129 166 209 266 321 382
#
# _framework density 22.807275000000001
#
# number of rings (size 3 to 8) (size 9 to 14) (size 15 to 20)
#    0.750    0.750    2.500    2.625    0.000    4.000 
#    0.000    1.875    2.750    0.000    0.000    0.000 
#    0.000    0.000    0.000    0.000    0.000    0.000 
#
# Total GULP energy -198220.647144 kJ/mol
# GULP energy per Si atom -12388.790447 kJ/mol
# Density = 2.275536 g / cm^3
# Si number density = 22.807275 Si / 1000 Ang^3
#
#
#
# Elastic Constant Matrix: (Units=GPa)
#
#
# Indices 1 2 3 4 5 6 
#
# 1 137.1863 36.0557 38.4218 8.2233 -6.0779 0.8936
# 2 36.0557 101.9129 24.9255 4.0633 -9.6016 -11.2106
# 3 38.4218 24.9255 74.5811 13.1690 -2.8884 7.3978
# 4 8.2233 4.0633 13.1690 29.8399 1.5843 1.7833
# 5 -6.0779 -9.6016 -2.8884 1.5843 35.7212 -2.2188
# 6 0.8936 -11.2106 7.3978 1.7833 -2.2188 53.6569
#
#
#
# Elastic Compliance Matrix: (Units=1/GPa)
#
#
# Indices 1 2 3 4 5 6 
#
# 1 0.008980 -0.002174 -0.003774 -0.000546 0.000660 -0.000038
# 2 -0.002174 0.011930 -0.003063 -0.000005 0.002780 0.003066
# 3 -0.003774 -0.003063 0.017755 -0.006214 0.000071 -0.002815
# 4 -0.000546 -0.000005 -0.006214 0.036551 -0.002245 -0.000443
# 5 0.000660 0.002780 0.000071 -0.002245 0.029074 0.001837
# 6 -0.000038 0.003066 -0.002815 -0.000443 0.001837 0.019757
#
#
# Mechanical properties :
#
#
# Convention : Reuss Voigt Hill
#
# Bulk Modulus (GPa) = 48.44081 56.94290 52.69186
# Shear Modulus (GPa) = 33.56842 38.12876 35.84859
#
# Velocity S-wave (km/s) = 3.84061 4.09318 3.96890
# Velocity P-wave (km/s) = 6.39940 6.88186 6.64501
#
# Compressibility (1/GPa) = 0.02064375
#
# Stress axis : x y z
#
# Youngs Moduli (GPa) = 111.35922 83.82283 56.32158
#
# Poissons Ratio (x) = 0.18225 0.21255
# Poissons Ratio (y) = 0.24212 0.17249
# Poissons Ratio (z) = 0.42024 0.25672
#
# Static dielectric constant tensor:
#      x y z
#    x 4.864170 0.175230 -0.135490 
#    y 0.175230 4.410390 0.009460 
#    z -0.135490 0.009460 3.739310 
# 
# 
# High freq. dielectric constant tensor:
#      x y z
#    x 1.937530 -0.001870 -0.005190 
#    y -0.001870 1.902490 0.008230 
#    z -0.005190 0.008230 1.864300 
# 
# From -- ./inp_files/313408.got.cif
#   From: 2010.06.25/outbox.cif.g09.slc.cpg/sg2_157_cif.got.tgz:313408.got - 2010.06.27 13:26:56.
