data_PCOD8008517
_publ_section_title
;
Structure prediction by ZEFSAII (Michael W. Deem and Ramdas Pophale) SiO2 
 PCOD8008517
Probable space group: P -1
;
_chemical_formula_sum "Si O2"
_cell_formula_units_Z 14
_cell_length_a 11.218247
_cell_length_b 11.192735
_cell_length_c 10.528814
_cell_angle_alpha 105.624993
_cell_angle_beta 82.412727
_cell_angle_gamma 155.826965
_cell_volume 499.222773
_symmetry_space_group_name_H-M "P -1"
_symmetry_group_IT_number 2
_symmetry_cell_setting 'triclinic'
loop_
_space_group_symop_operation_xyz
x,y,z
-x,-y,-z
loop_
_atom_site_type_symbol
_atom_site_label
_atom_site_fract_x
_atom_site_fract_y
_atom_site_fract_z
Si Si1 0.625522 0.731772 0.964209
Si Si2 0.014867 0.991375 0.772656
Si Si3 0.035330 0.317478 0.972256
Si Si4 0.036755 0.816713 0.313772
Si Si5 0.792157 0.061356 0.410374
Si Si6 0.265471 0.697665 0.254255
Si Si7 0.773046 0.363468 0.364194
O O1 0.690361 0.724796 0.090256
O O2 0.282884 0.454489 0.920754
O O3 0.838511 0.057803 0.030569
O O4 0.718024 0.734384 0.829264
O O5 0.037109 0.111397 0.689819
O O6 0.012616 0.855517 0.669164
O O7 0.192720 0.588464 0.086951
O O8 0.850440 0.160132 0.819879
O O9 0.744328 0.462272 0.309981
O O10 0.280032 0.048469 0.463630
O O11 0.009678 0.391783 0.475641
O O12 0.466703 0.778816 0.310967
O O13 0.935324 0.404174 0.276990
O O14 0.440485 0.994779 0.338043
#
# Coordination Sequence:
#
# PCOD8008517 Si02
#       7
#     2   2   2   2   2   2   2
#     4  10  23  41  71 104 133 171 230 272 333 402
#     4  10  20  43  72  99 139 173 221 278 341 400
#     4  11  23  45  69 103 132 178 224 281 329 399
#     4   9  24  42  68 102 144 166 225 274 350 391
#     4  10  22  45  69 103 132 183 217 284 332 403
#     4  12  23  46  72  94 134 181 234 268 327 392
#     4  10  26  43  69  99 135 178 226 278 322 405
#
# _framework density 28.043593999999999
#
# number of rings (size 3 to 8) (size 9 to 14) (size 15 to 20)
#    0.857    0.857    1.429    2.143    0.000    8.571 
#    0.000    0.714    0.000    0.000    0.000    0.000 
#    0.000    0.000    0.000    0.000    0.000    0.000 
#
# Total GULP energy -173446.367216 kJ/mol
# GULP energy per Si atom -12389.026230 kJ/mol
# Density = 2.797977 g / cm^3
# Si number density = 28.043594 Si / 1000 Ang^3
#
#
#
# Elastic Constant Matrix: (Units=GPa)
#
#
# Indices 1 2 3 4 5 6 
#
# 1 78.2991 15.6457 32.6092 -9.8625 -15.7042 -5.1918
# 2 15.6457 81.6800 9.7870 -4.3653 10.0458 -4.0961
# 3 32.6092 9.7870 166.5103 -4.0890 -12.6809 -4.6685
# 4 -9.8625 -4.3653 -4.0890 38.7056 -11.2481 7.4454
# 5 -15.7042 10.0458 -12.6809 -11.2481 52.5991 5.0609
# 6 -5.1918 -4.0961 -4.6685 7.4454 5.0609 30.2870
#
#
#
# Elastic Compliance Matrix: (Units=1/GPa)
#
#
# Indices 1 2 3 4 5 6 
#
# 1 0.016318 -0.003319 -0.002414 0.005374 0.006108 -0.000365
# 2 -0.003319 0.013484 -0.000417 -0.000958 -0.004074 0.002107
# 3 -0.002414 -0.000417 0.006592 0.000255 0.000972 0.000321
# 4 0.005374 -0.000958 0.000255 0.031487 0.009398 -0.008480
# 5 0.006108 -0.004074 0.000972 0.009398 0.024410 -0.005743
# 6 -0.000365 0.002107 0.000321 -0.008480 -0.005743 0.036333
#
#
# Mechanical properties :
#
#
# Convention : Reuss Voigt Hill
#
# Bulk Modulus (GPa) = 41.50350 49.17478 45.33914
# Shear Modulus (GPa) = 33.56707 42.21484 37.89095
#
# Velocity S-wave (km/s) = 3.46346 3.88407 3.67978
# Velocity P-wave (km/s) = 5.55211 6.13904 5.85294
#
# Compressibility (1/GPa) = 0.02409435
#
# Stress axis : x y z
#
# Youngs Moduli (GPa) = 61.28320 74.16098 151.69580
#
# Poissons Ratio (x) = 0.24612 0.36614
# Poissons Ratio (y) = 0.20339 0.06331
# Poissons Ratio (z) = 0.14792 0.03095
#
# Static dielectric constant tensor:
#      x y z
#    x 4.983650 -0.161950 0.153700 
#    y -0.161950 4.699490 -0.116070 
#    z 0.153700 -0.116070 5.150710 
# 
# 
# High freq. dielectric constant tensor:
#      x y z
#    x 2.146380 -0.012660 0.005440 
#    y -0.012660 2.123890 0.000060 
#    z 0.005440 0.000060 2.145030 
# 
# From -- ./inp_files/423788.got.cif
#   From: 2010.06.25/outbox.cif.g09.slc.cpg/sg2_212_cif.got.tgz:423788.got - 2010.06.27 13:26:56.
