data_PCOD8008675
_publ_section_title
;
Structure prediction by ZEFSAII (Michael W. Deem and Ramdas Pophale) SiO2 
 PCOD8008675
Probable space group: P -1
;
_chemical_formula_sum "Si O2"
_cell_formula_units_Z 16
_cell_length_a 9.744470
_cell_length_b 5.346124
_cell_length_c 14.809484
_cell_angle_alpha 100.597005
_cell_angle_beta 98.490728
_cell_angle_gamma 89.332443
_cell_volume 749.937231
_symmetry_space_group_name_H-M "P -1"
_symmetry_group_IT_number 2
_symmetry_cell_setting 'triclinic'
loop_
_space_group_symop_operation_xyz
x,y,z
-x,-y,-z
loop_
_atom_site_type_symbol
_atom_site_label
_atom_site_fract_x
_atom_site_fract_y
_atom_site_fract_z
Si Si1 0.883297 0.605517 0.707664
Si Si2 0.939052 0.734205 0.062226
Si Si3 0.186035 0.056572 0.604044
Si Si4 0.790486 0.388573 0.292729
Si Si5 0.820782 0.913657 0.883295
Si Si6 0.435815 0.837100 0.063380
Si Si7 0.316342 0.472240 0.887054
Si Si8 0.860357 0.053364 0.604762
O O1 0.836936 0.655233 0.810406
O O2 0.819739 0.330920 0.656606
O O3 0.048131 0.617302 0.716085
O O4 0.817168 0.828136 0.654656
O O5 0.832897 0.670633 0.128515
O O6 0.854485 0.896525 0.991720
O O7 0.064743 0.887943 0.133223
O O8 0.000000 0.500000 0.000000
O O9 0.253106 0.838702 0.658965
O O10 0.222308 0.994402 0.499692
O O11 0.247247 0.336097 0.651466
O O12 0.022499 0.048141 0.601105
O O13 0.697718 0.348293 0.190240
O O14 0.662160 0.005844 0.868323
O O15 0.557374 0.720500 0.128307
O O16 0.340820 0.617994 0.993279
O O17 0.500000 0.000000 0.000000
#
# Coordination Sequence:
#
# PCOD8008675 Si02
#       8
#     2   2   2   2   2   2   2   2
#     4  10  21  32  56  86 122 151 200 244 294 363
#     4  11  22  37  58  82 119 149 203 252 301 352
#     4   9  18  33  55  83 121 156 188 238 309 363
#     4  10  21  33  57  88 117 152 203 247 290 360
#     4  11  24  36  58  87 113 164 200 249 302 350
#     4  11  24  43  57  79 121 163 206 249 297 357
#     4  11  24  38  60  84 116 164 202 254 297 347
#     4   9  18  34  52  84 123 157 183 240 310 363
#
# _framework density 21.335118999999999
#
# number of rings (size 3 to 8) (size 9 to 14) (size 15 to 20)
#    0.000    1.750    2.500    1.500   10.500    3.000 
#    0.000    0.000    0.000    0.000    0.000    5.250 
#    0.000    0.000    0.000    0.000    0.000    0.000 
#
# Total GULP energy -198397.219003 kJ/mol
# GULP energy per Si atom -12399.826188 kJ/mol
# Density = 2.128656 g / cm^3
# Si number density = 21.335119 Si / 1000 Ang^3
#
#
#
# Elastic Constant Matrix: (Units=GPa)
#
#
# Indices 1 2 3 4 5 6 
#
# 1 72.1716 30.5013 20.0585 2.6573 -4.0414 -10.8399
# 2 30.5013 144.4192 46.3307 -0.2253 -0.7596 -11.4423
# 3 20.0585 46.3307 103.8784 -0.1616 -4.1403 -13.9790
# 4 2.6573 -0.2253 -0.1616 45.9062 -8.4906 -1.8713
# 5 -4.0414 -0.7596 -4.1403 -8.4906 13.6579 -0.8882
# 6 -10.8399 -11.4423 -13.9790 -1.8713 -0.8882 23.3481
#
#
#
# Elastic Compliance Matrix: (Units=1/GPa)
#
#
# Indices 1 2 3 4 5 6 
#
# 1 0.016411 -0.002652 -0.000993 0.000183 0.004906 0.005926
# 2 -0.002652 0.008595 -0.003236 -0.000001 -0.001224 0.000997
# 3 -0.000993 -0.003236 0.012172 0.001095 0.004254 0.005490
# 4 0.000183 -0.000001 0.001095 0.024886 0.016074 0.003346
# 5 0.004906 -0.001224 0.004254 0.016074 0.086456 0.008802
# 6 0.005926 0.000997 0.005490 0.003346 0.008802 0.049960
#
#
# Mechanical properties :
#
#
# Convention : Reuss Voigt Hill
#
# Bulk Modulus (GPa) = 42.70545 57.13889 49.92217
# Shear Modulus (GPa) = 22.72248 31.48771 27.10509
#
# Velocity S-wave (km/s) = 3.26702 3.84586 3.56820
# Velocity P-wave (km/s) = 5.85586 6.82354 6.35814
#
# Compressibility (1/GPa) = 0.02341622
#
# Stress axis : x y z
#
# Youngs Moduli (GPa) = 60.93621 116.34621 82.15771
#
# Poissons Ratio (x) = 0.30853 0.08156
# Poissons Ratio (y) = 0.16159 0.26586
# Poissons Ratio (z) = 0.06049 0.37650
#
# Static dielectric constant tensor:
#      x y z
#    x 3.449600 -0.036740 0.108770 
#    y -0.036740 4.194010 -0.059930 
#    z 0.108770 -0.059930 3.990320 
# 
# 
# High freq. dielectric constant tensor:
#      x y z
#    x 1.784190 -0.005490 0.000070 
#    y -0.005490 1.853570 -0.000210 
#    z 0.000070 -0.000210 1.828480 
# 
# From -- ./inp_files/80131.got.cif
#   From: 2010.06.25/outbox.cif.g09.slc.cpg/sg2_41_cif.got.tgz:80131.got - 2010.06.27 13:26:56.
