data_PCOD8008451
_publ_section_title
;
Structure prediction by ZEFSAII (Michael W. Deem and Ramdas Pophale) SiO2 
 PCOD8008451
Probable space group: P -1
;
_chemical_formula_sum "Si O2"
_cell_formula_units_Z 14
_cell_length_a 12.654710
_cell_length_b 10.927001
_cell_length_c 11.497260
_cell_angle_alpha 144.496236
_cell_angle_beta 72.291232
_cell_angle_gamma 82.194334
_cell_volume 634.029207
_symmetry_space_group_name_H-M "P -1"
_symmetry_group_IT_number 2
_symmetry_cell_setting 'triclinic'
loop_
_space_group_symop_operation_xyz
x,y,z
-x,-y,-z
loop_
_atom_site_type_symbol
_atom_site_label
_atom_site_fract_x
_atom_site_fract_y
_atom_site_fract_z
Si Si1 0.471063 0.525240 0.666276
Si Si2 0.471049 0.292538 0.859609
Si Si3 0.053073 0.707727 0.705376
Si Si4 0.325758 0.346822 0.710414
Si Si5 0.730885 0.380517 0.611393
Si Si6 0.022217 0.950469 0.318471
Si Si7 0.833868 0.855309 0.705460
O O1 0.500000 0.500000 0.500000
O O2 0.403475 0.385992 0.613948
O O3 0.630326 0.347052 0.545080
O O4 0.349821 0.864505 0.011443
O O5 0.381196 0.342444 0.814963
O O6 0.631346 0.954038 0.557412
O O7 0.500000 0.500000 0.000000
O O8 0.372786 0.363257 0.060987
O O9 0.192834 0.550727 0.446321
O O10 0.122234 0.447335 0.574093
O O11 0.900689 0.812730 0.778995
O O12 0.000000 0.000000 0.000000
O O13 0.142450 0.613101 0.977536
O O14 0.866951 0.084448 0.408049
O O15 0.084318 0.099060 0.377557
O O16 0.000000 0.000000 0.500000
#
# Coordination Sequence:
#
# PCOD8008451 Si02
#       7
#     2   2   2   2   2   2   2
#     4  11  23  42  66  98 131 170 223 269 329 392
#     4  11  22  44  68  99 134 170 224 273 328 391
#     4  10  21  43  63  93 130 172 217 265 327 389
#     4  10  23  43  70  95 135 177 209 278 335 383
#     4  11  23  40  70  95 132 172 222 271 324 390
#     4  10  20  43  68  97 130 171 221 269 327 395
#     4   9  22  41  63  90 131 171 206 274 327 374
#
# _framework density 22.081002000000002
#
# number of rings (size 3 to 8) (size 9 to 14) (size 15 to 20)
#    0.000    1.714    2.857    0.857    2.000    0.571 
#   12.857    0.714    0.000    0.000    0.000    0.000 
#    0.000    0.000    0.000    0.000    0.000    0.000 
#
# Total GULP energy -173551.532401 kJ/mol
# GULP energy per Si atom -12396.538029 kJ/mol
# Density = 2.203074 g / cm^3
# Si number density = 22.081002 Si / 1000 Ang^3
#
#
#
# Elastic Constant Matrix: (Units=GPa)
#
#
# Indices 1 2 3 4 5 6 
#
# 1 87.8540 36.3983 67.6648 12.6854 -18.7459 -10.5263
# 2 36.3983 130.2318 78.7558 0.4577 -4.1758 1.3584
# 3 67.6648 78.7558 171.2223 24.8222 1.0904 9.6799
# 4 12.6854 0.4577 24.8222 51.5782 5.1419 -2.1384
# 5 -18.7459 -4.1758 1.0904 5.1419 35.3512 10.1692
# 6 -10.5263 1.3584 9.6799 -2.1384 10.1692 32.9190
#
#
#
# Elastic Compliance Matrix: (Units=1/GPa)
#
#
# Indices 1 2 3 4 5 6 
#
# 1 0.021020 -0.000727 -0.008079 -0.002015 0.009894 0.005940
# 2 -0.000727 0.011030 -0.005213 0.002581 0.000452 0.000873
# 3 -0.008079 -0.005213 0.012295 -0.003779 -0.003224 -0.005233
# 4 -0.002015 0.002581 -0.003779 0.022299 -0.004841 0.003304
# 5 0.009894 0.000452 -0.003224 -0.004841 0.036552 -0.007513
# 6 0.005940 0.000873 -0.005233 0.003304 -0.007513 0.036315
#
#
# Mechanical properties :
#
#
# Convention : Reuss Voigt Hill
#
# Bulk Modulus (GPa) = 61.31889 83.88287 72.60088
# Shear Modulus (GPa) = 28.90411 37.73563 33.31987
#
# Velocity S-wave (km/s) = 3.62194 4.13845 3.88878
# Velocity P-wave (km/s) = 6.73213 7.80428 7.28795
#
# Compressibility (1/GPa) = 0.01630819
#
# Stress axis : x y z
#
# Youngs Moduli (GPa) = 47.57363 90.65894 81.33305
#
# Poissons Ratio (x) = 0.06588 0.65711
# Poissons Ratio (y) = 0.03457 0.42397
# Poissons Ratio (z) = 0.38436 0.47258
#
# Static dielectric constant tensor:
#      x y z
#    x 3.818290 -0.070920 -0.357120 
#    y -0.070920 4.297860 0.135020 
#    z -0.357120 0.135020 3.923750 
# 
# 
# High freq. dielectric constant tensor:
#      x y z
#    x 1.852190 -0.006820 -0.018400 
#    y -0.006820 1.882790 0.002270 
#    z -0.018400 0.002270 1.871120 
# 
# From -- ./inp_files/273375.got.cif
#   From: 2010.06.25/outbox.cif.g09.slc.cpg/sg2_137_cif.got.tgz:273375.got - 2010.06.27 13:26:56.
