data_PCOD8008189
_publ_section_title
;
Structure prediction by ZEFSAII (Michael W. Deem and Ramdas Pophale) SiO2 
 PCOD8008189
Probable space group: P -1
;
_chemical_formula_sum "Si O2"
_cell_formula_units_Z 16
_cell_length_a 17.639473
_cell_length_b 8.565781
_cell_length_c 11.318922
_cell_angle_alpha 58.823509
_cell_angle_beta 53.660999
_cell_angle_gamma 30.908755
_cell_volume 707.479724
_symmetry_space_group_name_H-M "P -1"
_symmetry_group_IT_number 2
_symmetry_cell_setting 'triclinic'
loop_
_space_group_symop_operation_xyz
x,y,z
-x,-y,-z
loop_
_atom_site_type_symbol
_atom_site_label
_atom_site_fract_x
_atom_site_fract_y
_atom_site_fract_z
Si Si1 0.514612 0.244129 0.352551
Si Si2 0.750868 0.587339 0.448984
Si Si3 0.792831 0.685677 0.912982
Si Si4 0.799487 0.320207 0.905612
Si Si5 0.269775 0.795471 0.758443
Si Si6 0.959953 0.535461 0.385847
Si Si7 0.509761 0.273396 0.083827
Si Si8 0.135848 0.675475 0.804228
O O1 0.326068 0.495702 0.429736
O O2 0.557551 0.378960 0.313414
O O3 0.575152 0.118418 0.212188
O O4 0.608553 0.950239 0.457066
O O5 0.882428 0.453311 0.473082
O O6 0.826147 0.476576 0.294185
O O7 0.769038 0.565335 0.888303
O O8 0.890872 0.690535 0.752382
O O9 0.880094 0.465141 0.032720
O O10 0.623455 0.025160 0.973361
O O11 0.668673 0.515397 0.849010
O O12 0.786315 0.182466 0.069764
O O13 0.972393 0.037322 0.802016
O O14 0.270026 0.616508 0.742823
O O15 0.153311 0.127593 0.685167
O O16 0.000000 0.500000 0.500000
O O17 0.500000 0.500000 0.000000
#
# Coordination Sequence:
#
# PCOD8008189 Si02
#       8
#     2   2   2   2   2   2   2   2
#     4  10  22  44  61  95 138 178 216 279 328 401
#     4  10  24  41  69  94 130 180 226 269 340 389
#     4  11  23  44  69  97 133 177 225 273 335 393
#     4  11  22  41  68 101 134 171 222 287 331 389
#     4  10  20  42  67  94 132 167 228 268 337 394
#     4  11  24  43  66  98 133 177 219 276 333 403
#     4  12  25  41  66 101 136 176 224 279 332 393
#     4  11  21  42  75 102 122 179 228 282 329 394
#
# _framework density 22.615490000000001
#
# number of rings (size 3 to 8) (size 9 to 14) (size 15 to 20)
#    0.000    1.250    5.000    1.125    3.500    1.000 
#    2.250    1.250    0.000    0.000    0.000    0.000 
#    0.000    0.000    0.000    0.000    0.000    0.000 
#
# Total GULP energy -198256.536917 kJ/mol
# GULP energy per Si atom -12391.033557 kJ/mol
# Density = 2.256402 g / cm^3
# Si number density = 22.615490 Si / 1000 Ang^3
#
#
#
# Elastic Constant Matrix: (Units=GPa)
#
#
# Indices 1 2 3 4 5 6 
#
# 1 163.3484 33.7245 52.4986 20.3967 -19.0137 -22.0268
# 2 33.7245 75.1500 14.3294 9.4327 -7.1161 -2.2330
# 3 52.4986 14.3294 82.1365 15.3118 -19.0640 -10.8450
# 4 20.3967 9.4327 15.3118 23.6541 -2.6752 1.7727
# 5 -19.0137 -7.1161 -19.0640 -2.6752 39.7768 1.8675
# 6 -22.0268 -2.2330 -10.8450 1.7727 1.8675 28.7429
#
#
#
# Elastic Compliance Matrix: (Units=1/GPa)
#
#
# Indices 1 2 3 4 5 6 
#
# 1 0.009391 -0.002580 -0.003409 -0.005104 0.001773 0.005909
# 2 -0.002580 0.015020 -0.000143 -0.003484 0.001185 -0.000726
# 3 -0.003409 -0.000143 0.017901 -0.008211 0.006174 0.004236
# 4 -0.005104 -0.003484 -0.008211 0.053836 -0.002889 -0.010413
# 5 0.001773 0.001185 0.006174 -0.002889 0.028867 0.002083
# 6 0.005909 -0.000726 0.004236 -0.010413 0.002083 0.041369
#
#
# Mechanical properties :
#
#
# Convention : Reuss Voigt Hill
#
# Bulk Modulus (GPa) = 33.27896 57.97109 45.62503
# Shear Modulus (GPa) = 26.50245 33.10691 29.80468
#
# Velocity S-wave (km/s) = 3.42697 3.83025 3.63421
# Velocity P-wave (km/s) = 5.51416 6.72682 6.15045
#
# Compressibility (1/GPa) = 0.03004901
#
# Stress axis : x y z
#
# Youngs Moduli (GPa) = 106.48839 66.57925 55.86149
#
# Poissons Ratio (x) = 0.17178 0.19042
# Poissons Ratio (y) = 0.27475 0.00796
# Poissons Ratio (z) = 0.36300 0.00949
#
# Static dielectric constant tensor:
#      x y z
#    x 4.378640 -0.158290 -0.400700 
#    y -0.158290 3.692480 -0.031840 
#    z -0.400700 -0.031840 3.978300 
# 
# 
# High freq. dielectric constant tensor:
#      x y z
#    x 1.908740 -0.005650 -0.010290 
#    y -0.005650 1.863940 -0.002880 
#    z -0.010290 -0.002880 1.885060 
# 
# From -- ./inp_files/461990.got.cif
#   From: 2010.06.25/outbox.cif.g09.slc.cpg/sg2_231_cif.got.tgz:461990.got - 2010.06.27 13:26:56.
