data_PCOD8008289
_publ_section_title
;
Structure prediction by ZEFSAII (Michael W. Deem and Ramdas Pophale) SiO2 
 PCOD8008289
Probable space group: P -1
;
_chemical_formula_sum "Si O2"
_cell_formula_units_Z 14
_cell_length_a 8.601747
_cell_length_b 9.156812
_cell_length_c 11.444180
_cell_angle_alpha 63.178330
_cell_angle_beta 106.326152
_cell_angle_gamma 66.527290
_cell_volume 609.819293
_symmetry_space_group_name_H-M "P -1"
_symmetry_group_IT_number 2
_symmetry_cell_setting 'triclinic'
loop_
_space_group_symop_operation_xyz
x,y,z
-x,-y,-z
loop_
_atom_site_type_symbol
_atom_site_label
_atom_site_fract_x
_atom_site_fract_y
_atom_site_fract_z
Si Si1 0.924761 0.460110 0.646946
Si Si2 0.567926 0.234516 0.215161
Si Si3 0.294672 0.124068 0.198101
Si Si4 0.657766 0.717128 0.298845
Si Si5 0.437665 0.660210 0.072477
Si Si6 0.055080 0.783491 0.059457
Si Si7 0.732846 0.900236 0.551253
O O1 0.789903 0.513117 0.482726
O O2 0.858202 0.358497 0.756397
O O3 0.874229 0.668731 0.614886
O O4 0.169265 0.290529 0.734412
O O5 0.345289 0.285483 0.175933
O O6 0.595064 0.413041 0.173453
O O7 0.737577 0.045238 0.404951
O O8 0.594848 0.194028 0.094721
O O9 0.191279 0.101939 0.299413
O O10 0.520574 0.914234 0.285041
O O11 0.137691 0.201582 0.031494
O O12 0.505300 0.717213 0.180500
O O13 0.230825 0.685596 0.036543
O O14 0.000000 0.000000 0.000000
O O15 0.500000 0.000000 0.500000
#
# Coordination Sequence:
#
# PCOD8008289 Si02
#       7
#     2   2   2   2   2   2   2
#     4  11  25  43  70 100 134 177 229 267 338 403
#     4  10  23  43  70  94 137 179 218 274 335 402
#     4  11  23  44  73  95 132 183 224 272 332 399
#     4  11  24  44  71 101 131 177 226 281 327 393
#     4  11  25  42  65 103 140 170 220 280 339 388
#     4  12  26  40  64 102 137 171 218 279 334 392
#     4  10  20  42  70  96 127 175 227 270 321 399
#
# _framework density 22.957621
#
# number of rings (size 3 to 8) (size 9 to 14) (size 15 to 20)
#    0.000    1.143    4.286    2.571    2.000    7.429 
#    0.000    1.429    0.000    0.000    0.000    0.000 
#    0.000    0.000    0.000    0.000    0.000    0.000 
#
# Total GULP energy -173450.503050 kJ/mol
# GULP energy per Si atom -12389.321646 kJ/mol
# Density = 2.290537 g / cm^3
# Si number density = 22.957621 Si / 1000 Ang^3
#
#
#
# Elastic Constant Matrix: (Units=GPa)
#
#
# Indices 1 2 3 4 5 6 
#
# 1 77.0877 8.5430 47.7401 6.7764 -18.2411 -12.9857
# 2 8.5430 86.2681 34.6930 7.7056 -16.9680 -11.8923
# 3 47.7401 34.6930 124.7425 13.4105 -42.1388 -7.6080
# 4 6.7764 7.7056 13.4105 35.3458 0.2358 -0.3241
# 5 -18.2411 -16.9680 -42.1388 0.2358 50.2539 1.1538
# 6 -12.9857 -11.8923 -7.6080 -0.3241 1.1538 34.5768
#
#
#
# Elastic Compliance Matrix: (Units=1/GPa)
#
#
# Indices 1 2 3 4 5 6 
#
# 1 0.018326 0.002114 -0.006455 -0.001482 0.001820 0.006115
# 2 0.002114 0.014091 -0.003301 -0.002199 0.002657 0.004805
# 3 -0.006455 -0.003301 0.014802 -0.003725 0.008986 -0.000637
# 4 -0.001482 -0.002199 -0.003725 0.030483 -0.004507 -0.001696
# 5 0.001820 0.002657 0.008986 -0.004507 0.028954 0.002566
# 6 0.006115 0.004805 -0.000637 -0.001696 0.002566 0.032629
#
#
# Mechanical properties :
#
#
# Convention : Reuss Voigt Hill
#
# Bulk Modulus (GPa) = 31.31190 52.22782 41.76986
# Shear Modulus (GPa) = 30.26379 37.17678 33.72028
#
# Velocity S-wave (km/s) = 3.63470 4.02850 3.83666
# Velocity P-wave (km/s) = 5.59315 6.66614 6.15308
#
# Compressibility (1/GPa) = 0.03193674
#
# Stress axis : x y z
#
# Youngs Moduli (GPa) = 54.56663 70.96550 67.55819
#
# Poissons Ratio (x) = -0.15004 0.43605
# Poissons Ratio (y) = -0.11536 0.22302
# Poissons Ratio (z) = 0.35220 0.23427
#
# Static dielectric constant tensor:
#      x y z
#    x 3.777120 -0.162570 -0.406970 
#    y -0.162570 4.047060 0.576320 
#    z -0.406970 0.576320 4.493130 
# 
# 
# High freq. dielectric constant tensor:
#      x y z
#    x 1.883950 -0.016650 -0.015490 
#    y -0.016650 1.906070 0.012990 
#    z -0.015490 0.012990 1.922660 
# 
# From -- ./inp_files/381401.got.cif
#   From: 2010.06.25/outbox.cif.g09.slc.cpg/sg2_191_cif.got.tgz:381401.got - 2010.06.27 13:26:56.
