data_PCOD8008065
_publ_section_title
;
Structure prediction by ZEFSAII (Michael W. Deem and Ramdas Pophale) SiO2 
 PCOD8008065
Probable space group: P -1
;
_chemical_formula_sum "Si O2"
_cell_formula_units_Z 16
_cell_length_a 13.572503
_cell_length_b 11.453388
_cell_length_c 7.053933
_cell_angle_alpha 126.812364
_cell_angle_beta 100.005613
_cell_angle_gamma 106.208648
_cell_volume 755.532075
_symmetry_space_group_name_H-M "P -1"
_symmetry_group_IT_number 2
_symmetry_cell_setting 'triclinic'
loop_
_space_group_symop_operation_xyz
x,y,z
-x,-y,-z
loop_
_atom_site_type_symbol
_atom_site_label
_atom_site_fract_x
_atom_site_fract_y
_atom_site_fract_z
Si Si1 0.536093 0.181846 0.757033
Si Si2 0.770895 0.235308 0.792371
Si Si3 0.821578 0.973776 0.409237
Si Si4 0.889610 0.489667 0.369920
Si Si5 0.591815 0.745857 0.921036
Si Si6 0.466392 0.611191 0.373513
Si Si7 0.787403 0.466504 0.710792
Si Si8 0.074677 0.247301 0.671123
O O1 0.672290 0.264712 0.886575
O O2 0.494988 0.281035 0.699483
O O3 0.500000 0.000000 0.500000
O O4 0.478803 0.169543 0.929537
O O5 0.756712 0.049919 0.591627
O O6 0.797119 0.315615 0.668722
O O7 0.867990 0.339215 0.075305
O O8 0.937542 0.127669 0.515532
O O9 0.858739 0.859463 0.432595
O O10 0.729150 0.861191 0.108107
O O11 0.805710 0.463662 0.490485
O O12 0.899959 0.645583 0.405892
O O13 0.000000 0.500000 0.500000
O O14 0.564630 0.721233 0.665669
O O15 0.540398 0.566612 0.833414
O O16 0.341499 0.569872 0.358126
O O17 0.877542 0.639480 0.012899
#
# Coordination Sequence:
#
# PCOD8008065 Si02
#       8
#     2   2   2   2   2   2   2   2
#     4  11  22  41  63  93 124 156 202 253 307 362
#     4  10  22  40  63  90 124 161 200 251 307 361
#     4  11  21  42  62  88 129 164 196 255 312 351
#     4  11  22  40  65  93 118 162 209 249 300 363
#     4  11  22  42  63  89 124 163 205 250 302 365
#     4  10  23  41  64  91 118 164 206 250 302 366
#     4  10  20  42  65  86 122 162 205 251 300 361
#     4  10  23  41  64  89 124 163 205 250 302 363
#
# _framework density 21.177128
#
# number of rings (size 3 to 8) (size 9 to 14) (size 15 to 20)
#    0.000    1.500    2.500    2.625    0.000    2.500 
#    9.000    6.875    0.000    0.000    0.000    0.000 
#    0.000    0.000    0.000    0.000    0.000    0.000 
#
# Total GULP energy -198273.501416 kJ/mol
# GULP energy per Si atom -12392.093838 kJ/mol
# Density = 2.112893 g / cm^3
# Si number density = 21.177128 Si / 1000 Ang^3
#
#
#
# Elastic Constant Matrix: (Units=GPa)
#
#
# Indices 1 2 3 4 5 6 
#
# 1 86.5780 18.7967 46.4044 -1.3174 10.7639 -10.8485
# 2 18.7967 57.5985 33.3718 -0.3359 0.1781 -6.1143
# 3 46.4044 33.3718 99.4647 8.8690 12.4794 -5.2527
# 4 -1.3174 -0.3359 8.8690 31.9633 1.2677 -3.4474
# 5 10.7639 0.1781 12.4794 1.2677 44.6667 6.2464
# 6 -10.8485 -6.1143 -5.2527 -3.4474 6.2464 33.7977
#
#
#
# Elastic Compliance Matrix: (Units=1/GPa)
#
#
# Indices 1 2 3 4 5 6 
#
# 1 0.016561 -0.000693 -0.007182 0.003309 -0.002764 0.004923
# 2 -0.000693 0.022165 -0.007414 0.002470 0.001721 0.002569
# 3 -0.007182 -0.007414 0.016604 -0.004997 -0.002583 -0.001098
# 4 0.003309 0.002470 -0.004997 0.033338 -0.000960 0.004310
# 5 -0.002764 0.001721 -0.002583 -0.000960 0.024582 -0.005618
# 6 0.004923 0.002569 -0.001098 0.004310 -0.005618 0.032940
#
#
# Mechanical properties :
#
#
# Convention : Reuss Voigt Hill
#
# Bulk Modulus (GPa) = 40.40108 48.97633 44.68870
# Shear Modulus (GPa) = 27.02440 31.75675 29.39058
#
# Velocity S-wave (km/s) = 3.57615 3.87664 3.72942
# Velocity P-wave (km/s) = 6.01422 6.57381 6.30023
#
# Compressibility (1/GPa) = 0.02475181
#
# Stress axis : x y z
#
# Youngs Moduli (GPa) = 60.38266 45.11620 60.22735
#
# Poissons Ratio (x) = 0.03126 0.43257
# Poissons Ratio (y) = 0.04184 0.44652
# Poissons Ratio (z) = 0.43368 0.33449
#
# Static dielectric constant tensor:
#      x y z
#    x 3.711830 -0.145120 -0.116290 
#    y -0.145120 3.748760 0.268030 
#    z -0.116290 0.268030 3.604750 
# 
# 
# High freq. dielectric constant tensor:
#      x y z
#    x 1.845970 -0.011460 0.009250 
#    y -0.011460 1.818990 0.015120 
#    z 0.009250 0.015120 1.833140 
# 
# From -- ./inp_files/47479.got.cif
#   From: 2010.06.25/outbox.cif.g09.slc.cpg/sg2_24_cif.got.tgz:47479.got - 2010.06.27 13:26:56.
