data_PCOD8008120
_publ_section_title
;
Structure prediction by ZEFSAII (Michael W. Deem and Ramdas Pophale) SiO2 
 PCOD8008120
Probable space group: P -1
;
_chemical_formula_sum "Si O2"
_cell_formula_units_Z 16
_cell_length_a 14.741536
_cell_length_b 8.990178
_cell_length_c 14.187612
_cell_angle_alpha 72.860518
_cell_angle_beta 148.298881
_cell_angle_gamma 86.079856
_cell_volume 729.035264
_symmetry_space_group_name_H-M "P -1"
_symmetry_group_IT_number 2
_symmetry_cell_setting 'triclinic'
loop_
_space_group_symop_operation_xyz
x,y,z
-x,-y,-z
loop_
_atom_site_type_symbol
_atom_site_label
_atom_site_fract_x
_atom_site_fract_y
_atom_site_fract_z
Si Si1 0.417774 0.321103 0.766187
Si Si2 0.817874 0.064242 0.042989
Si Si3 0.970423 0.875086 0.927376
Si Si4 0.767396 0.259705 0.428092
Si Si5 0.120145 0.267398 0.961149
Si Si6 0.084646 0.306776 0.387467
Si Si7 0.794983 0.223965 0.250269
Si Si8 0.622455 0.054942 0.431984
O O1 0.265243 0.561734 0.576220
O O2 0.247168 0.270561 0.625463
O O3 0.561763 0.209469 0.819577
O O4 0.592920 0.239767 0.022126
O O5 0.846287 0.205997 0.979104
O O6 0.915053 0.859177 0.113854
O O7 0.986450 0.963852 0.301557
O O8 0.732669 0.017842 0.638294
O O9 0.990079 0.705408 0.038053
O O10 0.000000 0.000000 0.000000
O O11 0.707322 0.336305 0.252743
O O12 0.588572 0.238734 0.313895
O O13 0.017939 0.482104 0.790358
O O14 0.385102 0.120804 0.233236
O O15 0.881638 0.317226 0.244998
O O16 0.229454 0.140137 0.467399
O O17 0.000000 0.000000 0.500000
#
# Coordination Sequence:
#
# PCOD8008120 Si02
#       8
#     2   2   2   2   2   2   2   2
#     4  12  24  43  70  96 133 178 223 267 337 388
#     4  10  20  42  66  92 132 173 214 271 324 388
#     4   9  21  40  68  96 131 173 216 267 330 391
#     4  11  23  44  66  94 135 175 217 273 330 392
#     4  11  22  42  64  98 133 165 221 272 322 393
#     4  12  26  43  69 100 132 175 222 272 329 392
#     4  12  24  45  66  97 137 172 220 279 327 392
#     4  11  22  41  70  94 134 176 211 273 336 382
#
# _framework density 21.946812000000001
#
# number of rings (size 3 to 8) (size 9 to 14) (size 15 to 20)
#    0.000    1.000    5.000    2.250    0.000    1.500 
#    2.250    3.125    0.000    0.000    0.000    0.000 
#    0.000    0.000    0.000    0.000    0.000    0.000 
#
# Total GULP energy -198212.698323 kJ/mol
# GULP energy per Si atom -12388.293645 kJ/mol
# Density = 2.189686 g / cm^3
# Si number density = 21.946812 Si / 1000 Ang^3
#
#
#
# Elastic Constant Matrix: (Units=GPa)
#
#
# Indices 1 2 3 4 5 6 
#
# 1 88.0438 22.8470 21.9196 2.4587 -27.7527 9.9934
# 2 22.8470 80.6655 26.1315 3.4980 -18.9735 1.1552
# 3 21.9196 26.1315 81.9484 20.3879 -19.1595 0.0159
# 4 2.4587 3.4980 20.3879 39.6852 -2.4665 -1.1773
# 5 -27.7527 -18.9735 -19.1595 -2.4665 17.5384 -1.8407
# 6 9.9934 1.1552 0.0159 -1.1773 -1.8407 31.5183
#
#
#
# Elastic Compliance Matrix: (Units=1/GPa)
#
#
# Indices 1 2 3 4 5 6 
#
# 1 0.024515 0.002575 0.003201 -0.000788 0.044407 -0.005305
# 2 0.002575 0.017041 -0.001245 0.000288 0.021170 -0.000193
# 3 0.003201 -0.001245 0.019434 -0.008594 0.023750 0.000087
# 4 -0.000788 0.000288 -0.008594 0.029287 -0.006102 0.000981
# 5 0.044407 0.021170 0.023750 -0.006102 0.174764 -0.004890
# 6 -0.005305 -0.000193 0.000087 0.000981 -0.004890 0.033168
#
#
# Mechanical properties :
#
#
# Convention : Reuss Voigt Hill
#
# Bulk Modulus (GPa) = 14.27506 43.60597 28.94052
# Shear Modulus (GPa) = 16.00021 29.73234 22.86628
#
# Velocity S-wave (km/s) = 2.70301 3.68468 3.23134
# Velocity P-wave (km/s) = 4.03239 6.16559 5.20936
#
# Compressibility (1/GPa) = 0.07005226
#
# Stress axis : x y z
#
# Youngs Moduli (GPa) = 40.79178 58.68370 51.45528
#
# Poissons Ratio (x) = -0.15110 -0.16471
# Poissons Ratio (y) = -0.10503 0.06404
# Poissons Ratio (z) = -0.13058 0.07304
#
# Static dielectric constant tensor:
#      x y z
#    x 4.533890 0.007830 -0.031080 
#    y 0.007830 4.037670 0.284670 
#    z -0.031080 0.284670 3.923310 
# 
# 
# High freq. dielectric constant tensor:
#      x y z
#    x 1.861180 -0.002140 -0.001700 
#    y -0.002140 1.867580 0.018180 
#    z -0.001700 0.018180 1.864870 
# 
# From -- ./inp_files/214835.got.cif
#   From: 2010.06.25/outbox.cif.g09.slc.cpg/sg2_108_cif.got.tgz:214835.got - 2010.06.27 13:26:56.
