data_PCOD8008677
_publ_section_title
;
Structure prediction by ZEFSAII (Michael W. Deem and Ramdas Pophale) SiO2 
 PCOD8008677
Probable space group: P -1
;
_chemical_formula_sum "Si O2"
_cell_formula_units_Z 14
_cell_length_a 8.910836
_cell_length_b 16.367513
_cell_length_c 7.637861
_cell_angle_alpha 132.940781
_cell_angle_beta 58.912190
_cell_angle_gamma 109.921001
_cell_volume 698.258418
_symmetry_space_group_name_H-M "P -1"
_symmetry_group_IT_number 2
_symmetry_cell_setting 'triclinic'
loop_
_space_group_symop_operation_xyz
x,y,z
-x,-y,-z
loop_
_atom_site_type_symbol
_atom_site_label
_atom_site_fract_x
_atom_site_fract_y
_atom_site_fract_z
Si Si1 0.191976 0.957021 0.865780
Si Si2 0.670256 0.223627 0.258688
Si Si3 0.187293 0.398851 0.579140
Si Si4 0.388501 0.180977 0.077223
Si Si5 0.404670 0.777237 0.316799
Si Si6 0.225474 0.554794 0.088987
Si Si7 0.197086 0.537140 0.457144
O O1 0.195858 0.879899 0.927246
O O2 0.265226 0.882013 0.549154
O O3 0.318581 0.059049 0.975118
O O4 0.000000 0.000000 0.000000
O O5 0.560852 0.197584 0.114119
O O6 0.544458 0.240443 0.532657
O O7 0.787324 0.332339 0.311661
O O8 0.237852 0.269172 0.352987
O O9 0.279478 0.461345 0.450940
O O10 0.979543 0.413784 0.726083
O O11 0.267071 0.453704 0.785453
O O12 0.432010 0.194939 0.865083
O O13 0.318913 0.665733 0.128781
O O14 0.294997 0.515437 0.181274
O O15 0.000000 0.500000 0.500000
#
# Coordination Sequence:
#
# PCOD8008677 Si02
#       7
#     2   2   2   2   2   2   2
#     4  10  22  42  66  82 116 159 199 240 292 348
#     4   9  22  38  61  87 119 154 192 246 296 335
#     4  10  21  32  60  86 117 156 194 232 297 341
#     4  12  22  38  62  90 121 152 196 242 293 354
#     4   9  21  37  61  82 120 151 193 241 299 333
#     4   9  18  38  54  84 120 154 192 244 279 349
#     4   9  18  35  58  83 119 152 192 238 284 345
#
# _framework density 20.049883000000001
#
# number of rings (size 3 to 8) (size 9 to 14) (size 15 to 20)
#    0.857    1.429    0.000    2.571    2.000    3.429 
#    0.000    3.571    3.143    0.000    0.000    0.000 
#    0.000    0.000    0.000    0.000    0.000    0.000 
#
# Total GULP energy -173473.681643 kJ/mol
# GULP energy per Si atom -12390.977260 kJ/mol
# Density = 2.000425 g / cm^3
# Si number density = 20.049883 Si / 1000 Ang^3
#
#
#
# Elastic Constant Matrix: (Units=GPa)
#
#
# Indices 1 2 3 4 5 6 
#
# 1 41.6750 26.9370 -1.5013 -7.6306 11.4809 3.4686
# 2 26.9370 98.7375 19.4420 21.0643 13.0376 4.1940
# 3 -1.5013 19.4420 75.4323 0.3246 2.6700 4.3995
# 4 -7.6306 21.0643 0.3246 27.2643 0.3479 10.1863
# 5 11.4809 13.0376 2.6700 0.3479 27.8661 5.4907
# 6 3.4686 4.1940 4.3995 10.1863 5.4907 30.7656
#
#
#
# Elastic Compliance Matrix: (Units=1/GPa)
#
#
# Indices 1 2 3 4 5 6 
#
# 1 0.045928 -0.019104 0.006744 0.032404 -0.008524 -0.012746
# 2 -0.019104 0.022152 -0.006395 -0.025773 -0.003368 0.009183
# 3 0.006744 -0.006395 0.015298 0.008444 -0.000412 -0.004798
# 4 0.032404 -0.025773 0.008444 0.075525 0.002226 -0.026751
# 5 -0.008524 -0.003368 -0.000412 0.002226 0.042328 -0.006812
# 6 -0.012746 0.009183 -0.004798 -0.026751 -0.006812 0.043448
#
#
# Mechanical properties :
#
#
# Convention : Reuss Voigt Hill
#
# Bulk Modulus (GPa) = 21.80217 33.95558 27.87888
# Shear Modulus (GPa) = 16.80798 28.57699 22.69249
#
# Velocity S-wave (km/s) = 2.89850 3.77940 3.36788
# Velocity P-wave (km/s) = 4.70099 6.00146 5.39058
#
# Compressibility (1/GPa) = 0.04586699
#
# Stress axis : x y z
#
# Youngs Moduli (GPa) = 21.77304 45.14294 65.37008
#
# Poissons Ratio (x) = 0.86240 -0.44083
# Poissons Ratio (y) = 0.41595 0.41805
# Poissons Ratio (z) = -0.14683 0.28869
#
# Static dielectric constant tensor:
#      x y z
#    x 3.439090 -0.170070 0.301660 
#    y -0.170070 3.955970 0.045230 
#    z 0.301660 0.045230 3.596330 
# 
# 
# High freq. dielectric constant tensor:
#      x y z
#    x 1.763470 -0.001940 0.018340 
#    y -0.001940 1.792570 0.011760 
#    z 0.018340 0.011760 1.774220 
# 
# From -- ./inp_files/211255.got.cif
#   From: 2010.06.25/outbox.cif.g09.slc.cpg/sg2_106_cif.got.tgz:211255.got - 2010.06.27 13:26:56.
