data_PCOD8008553
_publ_section_title
;
Structure prediction by ZEFSAII (Michael W. Deem and Ramdas Pophale) SiO2 
 PCOD8008553
Probable space group: P -1
;
_chemical_formula_sum "Si O2"
_cell_formula_units_Z 16
_cell_length_a 11.844052
_cell_length_b 12.574562
_cell_length_c 11.381111
_cell_angle_alpha 130.268668
_cell_angle_beta 37.872640
_cell_angle_gamma 118.936562
_cell_volume 792.734951
_symmetry_space_group_name_H-M "P -1"
_symmetry_group_IT_number 2
_symmetry_cell_setting 'triclinic'
loop_
_space_group_symop_operation_xyz
x,y,z
-x,-y,-z
loop_
_atom_site_type_symbol
_atom_site_label
_atom_site_fract_x
_atom_site_fract_y
_atom_site_fract_z
Si Si1 0.712685 0.196921 0.379764
Si Si2 0.191934 0.569608 0.110801
Si Si3 0.308490 0.082488 0.917252
Si Si4 0.332871 0.311068 0.690999
Si Si5 0.303882 0.813180 0.344114
Si Si6 0.895038 0.704821 0.917131
Si Si7 0.922151 0.973322 0.711065
Si Si8 0.082779 0.217925 0.632728
O O1 0.545553 0.260980 0.484774
O O2 0.681006 0.237793 0.570454
O O3 0.894993 0.258003 0.222107
O O4 0.725413 0.029370 0.237148
O O5 0.313706 0.677647 0.156001
O O6 0.112408 0.463841 0.198128
O O7 0.024454 0.645881 0.233404
O O8 0.314660 0.478726 0.850016
O O9 0.525133 0.097172 0.767325
O O10 0.204323 0.228814 0.069575
O O11 0.227445 0.026568 0.064108
O O12 0.256440 0.271227 0.598416
O O13 0.214238 0.234565 0.834206
O O14 0.118308 0.906651 0.544606
O O15 0.843382 0.884714 0.605089
O O16 0.945552 0.132676 0.766456
#
# Coordination Sequence:
#
# PCOD8008553 Si02
#       8
#     2   2   2   2   2   2   2   2
#     4  12  23  37  64  98 125 161 202 255 318 370
#     4   9  23  43  62  89 125 174 199 255 301 364
#     4  12  23  39  64 100 125 155 204 262 320 360
#     4  10  22  41  62  90 124 166 203 252 302 366
#     4  11  22  40  63  96 128 157 206 251 319 372
#     4  10  23  39  63  95 125 161 200 256 313 369
#     4  10  23  40  67  92 124 164 203 264 303 361
#     4  10  20  44  66  86 125 171 211 243 308 365
#
# _framework density 20.183292000000002
#
# number of rings (size 3 to 8) (size 9 to 14) (size 15 to 20)
#    0.750    0.750    2.500    2.625    1.750    2.500 
#    4.500   13.125    0.000    0.000    0.000    0.000 
#    0.000    0.000    0.000    0.000    0.000    0.000 
#
# Total GULP energy -198407.044892 kJ/mol
# GULP energy per Si atom -12400.440306 kJ/mol
# Density = 2.013735 g / cm^3
# Si number density = 20.183292 Si / 1000 Ang^3
#
#
#
# Elastic Constant Matrix: (Units=GPa)
#
#
# Indices 1 2 3 4 5 6 
#
# 1 93.3680 9.6629 22.2311 -6.2842 11.8369 13.2196
# 2 9.6629 69.2872 16.1080 3.3362 -1.4294 10.8676
# 3 22.2311 16.1080 63.5760 -10.3358 -2.8738 16.8056
# 4 -6.2842 3.3362 -10.3358 35.5019 7.8221 -7.1226
# 5 11.8369 -1.4294 -2.8738 7.8221 27.2170 -0.4779
# 6 13.2196 10.8676 16.8056 -7.1226 -0.4779 32.2553
#
#
#
# Elastic Compliance Matrix: (Units=1/GPa)
#
#
# Indices 1 2 3 4 5 6 
#
# 1 0.013055 -0.000802 -0.003551 0.002284 -0.006801 -0.002827
# 2 -0.000802 0.016193 -0.003239 -0.003881 0.001898 -0.004268
# 3 -0.003551 -0.003239 0.020406 0.003644 0.002354 -0.007246
# 4 0.002284 -0.003881 0.003644 0.033414 -0.010315 0.005698
# 5 -0.006801 0.001898 0.002354 -0.010315 0.043000 -0.000719
# 6 -0.002827 -0.004268 -0.007246 0.005698 -0.000719 0.038622
#
#
# Mechanical properties :
#
#
# Convention : Reuss Voigt Hill
#
# Bulk Modulus (GPa) = 29.01106 35.80391 32.40748
# Shear Modulus (GPa) = 26.12840 30.87677 28.50259
#
# Velocity S-wave (km/s) = 3.60190 3.91553 3.76198
# Velocity P-wave (km/s) = 5.63056 6.18221 5.91282
#
# Compressibility (1/GPa) = 0.03446962
#
# Stress axis : x y z
#
# Youngs Moduli (GPa) = 76.59994 61.75457 49.00593
#
# Poissons Ratio (x) = 0.04953 0.17401
# Poissons Ratio (y) = 0.06144 0.15874
# Poissons Ratio (z) = 0.27198 0.20004
#
# Static dielectric constant tensor:
#      x y z
#    x 3.670520 0.007750 0.072770 
#    y 0.007750 3.619930 0.106430 
#    z 0.072770 0.106430 3.517350 
# 
# 
# High freq. dielectric constant tensor:
#      x y z
#    x 1.795580 0.001950 -0.000050 
#    y 0.001950 1.784230 0.009410 
#    z -0.000050 0.009410 1.775440 
# 
# From -- ./inp_files/426378.got.cif
#   From: 2010.06.25/outbox.cif.g09.slc.cpg/sg2_214_cif.got.tgz:426378.got - 2010.06.27 13:26:56.
