data_PCOD8008958
_publ_section_title
;
Structure prediction by ZEFSAII (Michael W. Deem and Ramdas Pophale) SiO2 
 PCOD8008958
Probable space group: P -1
;
_chemical_formula_sum "Si O2"
_cell_formula_units_Z 16
_cell_length_a 8.746382
_cell_length_b 12.279495
_cell_length_c 20.463785
_cell_angle_alpha 28.711552
_cell_angle_beta 123.052331
_cell_angle_gamma 129.607950
_cell_volume 812.884677
_symmetry_space_group_name_H-M "P -1"
_symmetry_group_IT_number 2
_symmetry_cell_setting 'triclinic'
loop_
_space_group_symop_operation_xyz
x,y,z
-x,-y,-z
loop_
_atom_site_type_symbol
_atom_site_label
_atom_site_fract_x
_atom_site_fract_y
_atom_site_fract_z
Si Si1 0.414290 0.693653 0.720692
Si Si2 0.590398 0.828991 0.240514
Si Si3 0.189691 0.866086 0.975690
Si Si4 0.762125 0.043711 0.546606
Si Si5 0.454350 0.196298 0.962860
Si Si6 0.270875 0.334934 0.376289
Si Si7 0.814309 0.899376 0.380981
Si Si8 0.898415 0.381726 0.206242
O O1 0.627152 0.925575 0.641291
O O2 0.449304 0.443555 0.859459
O O3 0.309064 0.690246 0.766834
O O4 0.280705 0.725648 0.612870
O O5 0.461486 0.588628 0.295254
O O6 0.644566 0.763812 0.359281
O O7 0.795555 0.975028 0.170585
O O8 0.473389 0.013540 0.120656
O O9 0.354928 0.741478 0.074524
O O10 0.971647 0.653941 0.047491
O O11 0.248190 0.051255 0.953225
O O12 0.703433 0.828121 0.591162
O O13 0.990458 0.148751 0.566081
O O14 0.068038 0.377715 0.298069
O O15 0.257554 0.188097 0.517173
O O16 0.867073 0.192573 0.238577
#
# Coordination Sequence:
#
# PCOD8008958 Si02
#       8
#     2   2   2   2   2   2   2   2
#     4  11  20  34  58  85 115 144 188 237 276 327
#     4  10  21  35  61  85 112 147 190 226 285 323
#     4   9  18  37  58  81 108 150 191 228 263 335
#     4  10  21  36  60  84 110 149 192 231 278 325
#     4   9  18  36  57  85 105 151 186 227 277 330
#     4  11  18  39  60  85 109 146 198 232 264 334
#     4  11  21  36  58  88 111 147 191 233 274 330
#     4  11  19  35  58  85 113 141 196 229 271 324
#
# _framework density 19.682988999999999
#
# number of rings (size 3 to 8) (size 9 to 14) (size 15 to 20)
#    0.750    1.000    3.750    3.375    0.000    1.000 
#    0.000    0.625    0.000    6.750    0.000    0.000 
#    0.000    0.000    0.000    0.000    0.000    0.000 
#
# Total GULP energy -198256.478075 kJ/mol
# GULP energy per Si atom -12391.029880 kJ/mol
# Density = 1.963819 g / cm^3
# Si number density = 19.682989 Si / 1000 Ang^3
#
#
#
# Elastic Constant Matrix: (Units=GPa)
#
#
# Indices 1 2 3 4 5 6 
#
# 1 73.6990 2.4328 15.5227 1.2454 -12.5410 7.9565
# 2 2.4328 65.3042 14.7040 10.2576 1.2665 0.5157
# 3 15.5227 14.7040 63.3033 -7.3620 -3.9926 6.9361
# 4 1.2454 10.2576 -7.3620 18.6201 1.8105 -4.8110
# 5 -12.5410 1.2665 -3.9926 1.8105 33.9842 -0.5899
# 6 7.9565 0.5157 6.9361 -4.8110 -0.5899 8.7428
#
#
#
# Elastic Compliance Matrix: (Units=1/GPa)
#
#
# Indices 1 2 3 4 5 6 
#
# 1 0.017252 0.001406 -0.003235 -0.008285 0.006074 -0.017366
# 2 0.001406 0.018835 -0.005765 -0.014186 -0.000202 -0.005637
# 3 -0.003235 -0.005765 0.019856 0.009282 0.000732 -0.007312
# 4 -0.008285 -0.014186 0.009282 0.077394 -0.004810 0.043276
# 5 0.006074 -0.000202 0.000732 -0.004810 0.031902 -0.006591
# 6 -0.017366 -0.005637 -0.007312 0.043276 -0.006591 0.159687
#
#
# Mechanical properties :
#
#
# Convention : Reuss Voigt Hill
#
# Bulk Modulus (GPa) = 24.53558 29.73616 27.13587
# Shear Modulus (GPa) = 14.13632 23.57921 18.85776
#
# Velocity S-wave (km/s) = 2.68283 3.46489 3.09864
# Velocity P-wave (km/s) = 4.69992 5.58101 5.15931
#
# Compressibility (1/GPa) = 0.04075713
#
# Stress axis : x y z
#
# Youngs Moduli (GPa) = 57.96424 53.09174 50.36249
#
# Poissons Ratio (x) = -0.07467 0.16291
# Poissons Ratio (y) = -0.08152 0.29033
# Poissons Ratio (z) = 0.18750 0.30606
#
# Static dielectric constant tensor:
#      x y z
#    x 3.436800 0.087800 -0.109090 
#    y 0.087800 3.182630 -0.130000 
#    z -0.109090 -0.130000 3.695540 
# 
# 
# High freq. dielectric constant tensor:
#      x y z
#    x 1.745300 0.002900 -0.013320 
#    y 0.002900 1.727080 -0.010650 
#    z -0.013320 -0.010650 1.776010 
# 
# From -- ./inp_files/218936.got.cif
#   From: 2010.06.25/outbox.cif.g09.slc.cpg/sg2_110_cif.got.tgz:218936.got - 2010.06.27 13:26:56.
