data_PCOD8008147
_publ_section_title
;
Structure prediction by ZEFSAII (Michael W. Deem and Ramdas Pophale) SiO2 
 PCOD8008147
Probable space group: P -1
;
_chemical_formula_sum "Si O2"
_cell_formula_units_Z 16
_cell_length_a 11.592770
_cell_length_b 5.143416
_cell_length_c 13.919245
_cell_angle_alpha 102.782346
_cell_angle_beta 60.474265
_cell_angle_gamma 87.545125
_cell_volume 692.904672
_symmetry_space_group_name_H-M "P -1"
_symmetry_group_IT_number 2
_symmetry_cell_setting 'triclinic'
loop_
_space_group_symop_operation_xyz
x,y,z
-x,-y,-z
loop_
_atom_site_type_symbol
_atom_site_label
_atom_site_fract_x
_atom_site_fract_y
_atom_site_fract_z
Si Si1 0.184009 0.130162 0.121281
Si Si2 0.656048 0.122270 0.805582
Si Si3 0.281262 0.016747 0.869524
Si Si4 0.832989 0.699145 0.390798
Si Si5 0.121026 0.617939 0.330976
Si Si6 0.454504 0.444323 0.792779
Si Si7 0.887166 0.099479 0.245881
Si Si8 0.321630 0.362152 0.373074
O O1 0.316192 0.936279 0.097524
O O2 0.162552 0.410539 0.209554
O O3 0.048542 0.998818 0.174462
O O4 0.214888 0.186267 0.002531
O O5 0.803955 0.132664 0.701757
O O6 0.541661 0.388030 0.853147
O O7 0.608599 0.880367 0.745424
O O8 0.373779 0.197417 0.790230
O O9 0.355127 0.729706 0.857386
O O10 0.163912 0.967618 0.842700
O O11 0.848625 0.420598 0.303154
O O12 0.701932 0.728403 0.515859
O O13 0.961364 0.714534 0.407502
O O14 0.815030 0.948445 0.344839
O O15 0.175701 0.499744 0.402030
O O16 0.566969 0.438846 0.660748
#
# Coordination Sequence:
#
# PCOD8008147 Si02
#       8
#     2   2   2   2   2   2   2   2
#     4  10  23  42  68  99 130 166 210 272 334 372
#     4  10  20  42  66  98 136 160 212 271 315 397
#     4  12  26  45  69  88 132 182 214 265 317 371
#     4  11  23  41  69  97 130 170 210 268 332 373
#     4   9  20  38  62 105 134 157 209 267 325 406
#     4  11  25  44  64  97 132 168 226 257 311 393
#     4  11  25  45  65 101 128 162 229 266 309 392
#     4  10  22  41  67  95 136 170 207 267 327 380
#
# _framework density 23.091200000000001
#
# number of rings (size 3 to 8) (size 9 to 14) (size 15 to 20)
#    0.000    1.500    2.500    1.500    5.250    1.500 
#    0.000    6.875    0.000    0.000    0.000    0.000 
#    0.000    0.000    0.000    0.000    0.000    0.000 
#
# Total GULP energy -198308.795916 kJ/mol
# GULP energy per Si atom -12394.299745 kJ/mol
# Density = 2.303864 g / cm^3
# Si number density = 23.091200 Si / 1000 Ang^3
#
#
#
# Elastic Constant Matrix: (Units=GPa)
#
#
# Indices 1 2 3 4 5 6 
#
# 1 93.7792 26.4195 27.9031 -2.2327 2.3023 5.4000
# 2 26.4195 88.2980 1.4039 -16.4855 -2.8249 6.7958
# 3 27.9031 1.4039 57.7024 -16.2940 7.3922 -0.7674
# 4 -2.2327 -16.4855 -16.2940 23.4732 -1.2282 -3.3935
# 5 2.3023 -2.8249 7.3922 -1.2282 17.9840 -2.1592
# 6 5.4000 6.7958 -0.7674 -3.3935 -2.1592 34.6431
#
#
#
# Elastic Compliance Matrix: (Units=1/GPa)
#
#
# Indices 1 2 3 4 5 6 
#
# 1 0.015331 -0.006154 -0.010243 -0.010306 0.000289 -0.002401
# 2 -0.006154 0.016005 0.006714 0.015334 0.001537 -0.000434
# 3 -0.010243 0.006714 0.030147 0.024664 -0.007998 0.002865
# 4 -0.010306 0.015334 0.024664 0.070329 -0.000889 0.005979
# 5 0.000289 0.001537 -0.007998 -0.000889 0.059407 0.003092
# 6 -0.002401 -0.000434 0.002865 0.005979 0.003092 0.030167
#
#
# Mechanical properties :
#
#
# Convention : Reuss Voigt Hill
#
# Bulk Modulus (GPa) = 23.74369 39.02584 31.38477
# Shear Modulus (GPa) = 19.62384 27.49025 23.55705
#
# Velocity S-wave (km/s) = 2.91837 3.45412 3.19748
# Velocity P-wave (km/s) = 4.65411 5.73108 5.22044
#
# Compressibility (1/GPa) = 0.04211644
#
# Stress axis : x y z
#
# Youngs Moduli (GPa) = 65.22893 62.47896 33.17045
#
# Poissons Ratio (x) = 0.38452 0.33976
# Poissons Ratio (y) = 0.40144 -0.22270
# Poissons Ratio (z) = 0.66813 -0.41947
#
# Static dielectric constant tensor:
#      x y z
#    x 4.301710 0.089310 -0.010380 
#    y 0.089310 4.194360 -0.275440 
#    z -0.010380 -0.275440 3.699700 
# 
# 
# High freq. dielectric constant tensor:
#      x y z
#    x 1.911550 0.007270 -0.005310 
#    y 0.007270 1.918420 -0.021900 
#    z -0.005310 -0.021900 1.881140 
# 
# From -- ./inp_files/70777.got.cif
#   From: 2010.06.25/outbox.cif.g09.slc.cpg/sg2_36_cif.got.tgz:70777.got - 2010.06.27 13:26:56.
