data_PCOD8008909
_publ_section_title
;
Structure prediction by ZEFSAII (Michael W. Deem and Ramdas Pophale) SiO2 
 PCOD8008909
Probable space group: P -1
;
_chemical_formula_sum "Si O2"
_cell_formula_units_Z 16
_cell_length_a 18.027913
_cell_length_b 10.966713
_cell_length_c 15.414728
_cell_angle_alpha 132.460408
_cell_angle_beta 159.966187
_cell_angle_gamma 49.358411
_cell_volume 768.463258
_symmetry_space_group_name_H-M "P -1"
_symmetry_group_IT_number 2
_symmetry_cell_setting 'triclinic'
loop_
_space_group_symop_operation_xyz
x,y,z
-x,-y,-z
loop_
_atom_site_type_symbol
_atom_site_label
_atom_site_fract_x
_atom_site_fract_y
_atom_site_fract_z
Si Si1 0.892890 0.249963 0.548319
Si Si2 0.481676 0.663286 0.503031
Si Si3 0.701142 0.748234 0.108841
Si Si4 0.831006 0.900867 0.062595
Si Si5 0.913812 0.088114 0.815957
Si Si6 0.420880 0.966211 0.004575
Si Si7 0.308607 0.116983 0.389821
Si Si8 0.433163 0.455633 0.650409
O O1 0.727997 0.121710 0.271298
O O2 0.787064 0.428508 0.545441
O O3 0.046618 0.275608 0.646621
O O4 0.014145 0.176561 0.730112
O O5 0.500000 0.500000 0.500000
O O6 0.251107 0.758069 0.318061
O O7 0.479845 0.618482 0.379437
O O8 0.689718 0.765297 0.798584
O O9 0.579798 0.842132 0.936708
O O10 0.654392 0.863023 0.199388
O O11 0.614780 0.567356 0.943472
O O12 0.973158 0.981722 0.182514
O O13 0.664485 0.038973 0.992719
O O14 0.768664 0.954663 0.638073
O O15 0.101652 0.142929 0.112063
O O16 0.395270 0.296798 0.592747
O O17 0.500000 0.000000 0.500000
#
# Coordination Sequence:
#
# PCOD8008909 Si02
#       8
#     2   2   2   2   2   2   2   2
#     4  10  21  35  58  89 120 161 197 241 298 362
#     4  12  24  35  55  92 131 156 187 241 310 370
#     4   9  18  32  55  79 113 156 189 242 293 340
#     4  11  21  35  56  87 124 156 199 242 300 361
#     4  11  24  39  61  83 116 170 199 250 297 344
#     4   9  19  36  54  86 120 158 202 237 292 367
#     4  11  23  44  61  80 117 161 221 247 285 354
#     4  11  22  35  56  86 119 151 203 244 290 356
#
# _framework density 20.820775999999999
#
# number of rings (size 3 to 8) (size 9 to 14) (size 15 to 20)
#    0.000    1.500    2.500    3.750    3.500    5.000 
#    0.000    0.000    0.000    3.000    0.000   21.875 
#    0.000    0.000    0.000    0.000    0.000    0.000 
#
# Total GULP energy -198281.567353 kJ/mol
# GULP energy per Si atom -12392.597960 kJ/mol
# Density = 2.077339 g / cm^3
# Si number density = 20.820776 Si / 1000 Ang^3
#
#
#
# Elastic Constant Matrix: (Units=GPa)
#
#
# Indices 1 2 3 4 5 6 
#
# 1 167.3375 44.5334 12.2500 0.9167 29.9008 -8.8749
# 2 44.5334 82.6366 20.0734 18.5825 4.1362 13.3890
# 3 12.2500 20.0734 45.2086 -0.3161 12.8878 13.0362
# 4 0.9167 18.5825 -0.3161 28.8578 1.5395 4.7916
# 5 29.9008 4.1362 12.8878 1.5395 28.5903 1.7574
# 6 -8.8749 13.3890 13.0362 4.7916 1.7574 35.0622
#
#
#
# Elastic Compliance Matrix: (Units=1/GPa)
#
#
# Indices 1 2 3 4 5 6 
#
# 1 0.009748 -0.006850 0.002256 0.003993 -0.010696 0.004235
# 2 -0.006850 0.021285 -0.008755 -0.013195 0.009065 -0.005258
# 3 0.002256 -0.008755 0.032329 0.008153 -0.015586 -0.008439
# 4 0.003993 -0.013195 0.008153 0.043975 -0.008152 -0.002583
# 5 -0.010696 0.009065 -0.015586 -0.008152 0.052432 -0.001888
# 6 0.004235 -0.005258 -0.008439 -0.002583 -0.001888 0.035186
#
#
# Mechanical properties :
#
#
# Convention : Reuss Voigt Hill
#
# Bulk Modulus (GPa) = 27.27448 49.87735 38.57592
# Shear Modulus (GPa) = 21.37908 33.05711 27.21809
#
# Velocity S-wave (km/s) = 3.20787 3.98892 3.61952
# Velocity P-wave (km/s) = 5.18157 6.72479 6.00298
#
# Compressibility (1/GPa) = 0.03666431
#
# Stress axis : x y z
#
# Youngs Moduli (GPa) = 102.58931 46.98247 30.93162
#
# Poissons Ratio (x) = 0.32182 -0.06978
# Poissons Ratio (y) = 0.70272 0.27080
# Poissons Ratio (z) = -0.23145 0.41133
#
# Static dielectric constant tensor:
#      x y z
#    x 4.177730 -0.315250 0.455690 
#    y -0.315250 3.769850 -0.055940 
#    z 0.455690 -0.055940 3.747770 
# 
# 
# High freq. dielectric constant tensor:
#      x y z
#    x 1.821880 -0.019560 0.037530 
#    y -0.019560 1.799000 0.006510 
#    z 0.037530 0.006510 1.804570 
# 
# From -- ./inp_files/538475.got.cif
#   From: 2010.06.25/outbox.cif.g09.slc.cpg/sg2_270_cif.got.tgz:538475.got - 2010.06.27 13:26:56.
