data_PCOD8008191
_publ_section_title
;
Structure prediction by ZEFSAII (Michael W. Deem and Ramdas Pophale) SiO2 
 PCOD8008191
Probable space group: P -1
;
_chemical_formula_sum "Si O2"
_cell_formula_units_Z 16
_cell_length_a 14.373426
_cell_length_b 12.055544
_cell_length_c 9.445121
_cell_angle_alpha 79.869342
_cell_angle_beta 69.546972
_cell_angle_gamma 30.360473
_cell_volume 747.307422
_symmetry_space_group_name_H-M "P -1"
_symmetry_group_IT_number 2
_symmetry_cell_setting 'triclinic'
loop_
_space_group_symop_operation_xyz
x,y,z
-x,-y,-z
loop_
_atom_site_type_symbol
_atom_site_label
_atom_site_fract_x
_atom_site_fract_y
_atom_site_fract_z
Si Si1 0.463350 0.408341 0.492304
Si Si2 0.882069 0.203501 0.922654
Si Si3 0.691242 0.799036 0.345661
Si Si4 0.151945 0.117132 0.674140
Si Si5 0.030737 0.362043 0.421338
Si Si6 0.801937 0.210203 0.648799
Si Si7 0.462047 0.367629 0.804006
Si Si8 0.534398 0.049044 0.844540
O O1 0.500000 0.500000 0.500000
O O2 0.310766 0.568417 0.405543
O O3 0.372818 0.438894 0.675158
O O4 0.654831 0.151553 0.392209
O O5 0.849387 0.182242 0.792528
O O6 0.001787 0.202120 0.841322
O O7 0.674007 0.427451 0.063446
O O8 0.000000 0.000000 0.000000
O O9 0.800613 0.812385 0.288085
O O10 0.837873 0.551942 0.376059
O O11 0.500000 0.000000 0.500000
O O12 0.618178 0.839133 0.220762
O O13 0.048806 0.237719 0.546814
O O14 0.235081 0.178348 0.270258
O O15 0.000000 0.500000 0.500000
O O16 0.674444 0.220925 0.705445
O O17 0.000000 0.000000 0.500000
O O18 0.485909 0.220919 0.889628
O O19 0.500000 0.000000 0.000000
#
# Coordination Sequence:
#
# PCOD8008191 Si02
#       8
#     2   2   2   2   2   2   2   2
#     4  10  20  42  67  95 132 173 229 285 331 411
#     4  12  26  44  67  99 142 180 226 286 350 414
#     4  11  23  45  73 103 135 183 240 288 341 418
#     4  11  23  43  73 101 130 187 236 283 346 413
#     4  10  22  45  72  98 138 177 248 282 337 422
#     4  11  24  43  72 100 132 181 236 281 339 417
#     4  11  24  45  64 100 142 174 222 289 356 402
#     4  12  27  45  68 106 147 178 226 298 351 412
#
# _framework density 21.4102
#
# number of rings (size 3 to 8) (size 9 to 14) (size 15 to 20)
#    0.000    1.000    3.750    4.125    3.500    4.500 
#    2.250    0.000    0.000    0.000    0.000    0.000 
#    0.000    0.000    0.000    0.000    0.000    0.000 
#
# Total GULP energy -198334.264595 kJ/mol
# GULP energy per Si atom -12395.891537 kJ/mol
# Density = 2.136147 g / cm^3
# Si number density = 21.410200 Si / 1000 Ang^3
#
#
#
# Elastic Constant Matrix: (Units=GPa)
#
#
# Indices 1 2 3 4 5 6 
#
# 1 94.9529 50.3310 47.7073 -11.8211 -7.1241 -4.0916
# 2 50.3310 174.9706 67.0294 -14.8150 -0.5846 -6.7218
# 3 47.7073 67.0294 143.8972 -11.8556 -9.2448 -10.8369
# 4 -11.8211 -14.8150 -11.8556 45.6397 3.0822 3.6554
# 5 -7.1241 -0.5846 -9.2448 3.0822 44.1676 -7.4952
# 6 -4.0916 -6.7218 -10.8369 3.6554 -7.4952 37.5155
#
#
#
# Elastic Compliance Matrix: (Units=1/GPa)
#
#
# Indices 1 2 3 4 5 6 
#
# 1 0.013824 -0.002621 -0.003100 0.001805 0.001464 0.000259
# 2 -0.002621 0.007569 -0.002621 0.001160 -0.000951 0.000010
# 3 -0.003100 -0.002621 0.009527 0.000518 0.001806 0.002254
# 4 0.001805 0.001160 0.000518 0.023155 -0.001542 -0.002010
# 5 0.001464 -0.000951 0.001806 -0.001542 0.024286 0.005513
# 6 0.000259 0.000010 0.002254 -0.002010 0.005513 0.028634
#
#
# Mechanical properties :
#
#
# Convention : Reuss Voigt Hill
#
# Bulk Modulus (GPa) = 70.25102 82.66177 76.45640
# Shear Modulus (GPa) = 38.93331 42.04810 40.49071
#
# Velocity S-wave (km/s) = 4.26895 4.43643 4.35350
# Velocity P-wave (km/s) = 7.56186 8.05822 7.81399
#
# Compressibility (1/GPa) = 0.01423467
#
# Stress axis : x y z
#
# Youngs Moduli (GPa) = 72.33675 132.11814 104.96820
#
# Poissons Ratio (x) = 0.34633 0.32539
# Poissons Ratio (y) = 0.18962 0.27516
# Poissons Ratio (z) = 0.22423 0.34633
#
# Static dielectric constant tensor:
#      x y z
#    x 3.828750 0.023460 -0.082810 
#    y 0.023460 4.586310 -0.460770 
#    z -0.082810 -0.460770 4.096170 
# 
# 
# High freq. dielectric constant tensor:
#      x y z
#    x 1.836020 0.005160 -0.002790 
#    y 0.005160 1.860180 -0.007630 
#    z -0.002790 -0.007630 1.843810 
# 
# From -- ./inp_files/307312.got.cif
#   From: 2010.06.25/outbox.cif.g09.slc.cpg/sg2_154_cif.got.tgz:307312.got - 2010.06.27 13:26:56.
