data_PCOD8008668
_publ_section_title
;
Structure prediction by ZEFSAII (Michael W. Deem and Ramdas Pophale) SiO2 
 PCOD8008668
Probable space group: P -1
;
_chemical_formula_sum "Si O2"
_cell_formula_units_Z 16
_cell_length_a 14.951168
_cell_length_b 18.089167
_cell_length_c 12.189464
_cell_angle_alpha 51.971748
_cell_angle_beta 127.025999
_cell_angle_gamma 159.719654
_cell_volume 896.519216
_symmetry_space_group_name_H-M "P -1"
_symmetry_group_IT_number 2
_symmetry_cell_setting 'triclinic'
loop_
_space_group_symop_operation_xyz
x,y,z
-x,-y,-z
loop_
_atom_site_type_symbol
_atom_site_label
_atom_site_fract_x
_atom_site_fract_y
_atom_site_fract_z
Si Si1 0.358951 0.941260 0.288218
Si Si2 0.869832 0.655050 0.813356
Si Si3 0.674745 0.323547 0.048964
Si Si4 0.126413 0.752709 0.516443
Si Si5 0.462993 0.082214 0.894280
Si Si6 0.245314 0.248264 0.457909
Si Si7 0.211789 0.390283 0.444542
Si Si8 0.156393 0.634719 0.259999
O O1 0.172184 0.819152 0.364779
O O2 0.203304 0.766257 0.240879
O O3 0.448161 0.110916 0.154355
O O4 0.602927 0.062253 0.392581
O O5 0.752858 0.672468 0.712011
O O6 0.869888 0.617160 0.721104
O O7 0.690958 0.449918 0.941693
O O8 0.162747 0.881870 0.866298
O O9 0.950892 0.496814 0.137588
O O10 0.627768 0.251355 0.958640
O O11 0.984664 0.731047 0.493303
O O12 0.946050 0.523912 0.590012
O O13 0.583483 0.206775 0.752655
O O14 0.500000 0.000000 0.000000
O O15 0.222571 0.285888 0.524095
O O16 0.490865 0.363671 0.526147
O O17 0.000000 0.000000 0.500000
#
# Coordination Sequence:
#
# PCOD8008668 Si02
#       8
#     2   2   2   2   2   2   2   2
#     4  10  21  36  49  80 108 149 184 208 252 307
#     4  10  21  32  53  77 108 138 164 216 275 312
#     4  11  21  33  48  73 111 145 171 216 254 318
#     4  10  21  34  57  74 109 144 182 222 250 303
#     4  12  21  30  50  80 111 143 175 205 266 324
#     4   9  21  36  53  80 106 129 173 222 272 324
#     4   9  20  36  54  81 104 135 174 216 275 310
#     4  11  21  33  49  76 113 144 180 210 254 314
#
# _framework density 17.846800999999999
#
# number of rings (size 3 to 8) (size 9 to 14) (size 15 to 20)
#    0.750    1.000    2.500    2.250    5.250    0.000 
#    0.000    0.000    0.000    0.750    0.000    4.375 
#    0.000    0.000    0.000    0.000    0.000    0.000 
#
# Total GULP energy -198260.213671 kJ/mol
# GULP energy per Si atom -12391.263354 kJ/mol
# Density = 1.780618 g / cm^3
# Si number density = 17.846801 Si / 1000 Ang^3
#
#
#
# Elastic Constant Matrix: (Units=GPa)
#
#
# Indices 1 2 3 4 5 6 
#
# 1 71.9598 35.8993 34.7248 -4.0992 -10.8801 10.3309
# 2 35.8993 107.2512 43.6707 -7.3550 -7.0910 -4.2258
# 3 34.7248 43.6707 82.4624 -17.3507 -10.5373 -0.2820
# 4 -4.0992 -7.3550 -17.3507 38.9353 1.7745 -0.2785
# 5 -10.8801 -7.0910 -10.5373 1.7745 26.3827 -3.5469
# 6 10.3309 -4.2258 -0.2820 -0.2785 -3.5469 23.0394
#
#
#
# Elastic Compliance Matrix: (Units=1/GPa)
#
#
# Indices 1 2 3 4 5 6 
#
# 1 0.021228 -0.004795 -0.006322 -0.001729 0.003723 -0.009923
# 2 -0.004795 0.013112 -0.004926 -0.000200 0.000201 0.004523
# 3 -0.006322 -0.004926 0.019326 0.006867 0.003705 0.002821
# 4 -0.001729 -0.000200 0.006867 0.028523 0.000219 0.001201
# 5 0.003723 0.000201 0.003705 0.000219 0.041606 0.004821
# 6 -0.009923 0.004523 0.002821 0.001201 0.004821 0.049474
#
#
# Mechanical properties :
#
#
# Convention : Reuss Voigt Hill
#
# Bulk Modulus (GPa) = 46.33684 54.47369 50.40526
# Shear Modulus (GPa) = 23.52402 27.49673 25.51038
#
# Velocity S-wave (km/s) = 3.63451 3.92945 3.78485
# Velocity P-wave (km/s) = 6.60553 7.15378 6.88511
#
# Compressibility (1/GPa) = 0.02158110
#
# Stress axis : x y z
#
# Youngs Moduli (GPa) = 47.10649 76.26381 51.74494
#
# Poissons Ratio (x) = 0.36567 0.32713
# Poissons Ratio (y) = 0.22587 0.25489
# Poissons Ratio (z) = 0.29781 0.37566
#
# Static dielectric constant tensor:
#      x y z
#    x 3.218450 0.151440 0.305390 
#    y 0.151440 3.818580 0.215420 
#    z 0.305390 0.215420 3.850550 
# 
# 
# High freq. dielectric constant tensor:
#      x y z
#    x 1.647180 -0.013830 0.001110 
#    y -0.013830 1.710420 -0.003160 
#    z 0.001110 -0.003160 1.680120 
# 
# From -- ./inp_files/97495.got.cif
#   From: 2010.06.25/outbox.cif.g09.slc.cpg/sg2_49_cif.got.tgz:97495.got - 2010.06.27 13:26:56.
