data_PCOD8008494
_publ_section_title
;
Structure prediction by ZEFSAII (Michael W. Deem and Ramdas Pophale) SiO2 
 PCOD8008494
Probable space group: P -1
;
_chemical_formula_sum "Si O2"
_cell_formula_units_Z 16
_cell_length_a 24.017594
_cell_length_b 9.573018
_cell_length_c 8.584402
_cell_angle_alpha 132.077289
_cell_angle_beta 134.868564
_cell_angle_gamma 29.202827
_cell_volume 674.023872
_symmetry_space_group_name_H-M "P -1"
_symmetry_group_IT_number 2
_symmetry_cell_setting 'triclinic'
loop_
_space_group_symop_operation_xyz
x,y,z
-x,-y,-z
loop_
_atom_site_type_symbol
_atom_site_label
_atom_site_fract_x
_atom_site_fract_y
_atom_site_fract_z
Si Si1 0.822016 0.655723 0.930843
Si Si2 0.604614 0.240515 0.798323
Si Si3 0.410719 0.416514 0.231976
Si Si4 0.055390 0.267156 0.560296
Si Si5 0.595724 0.566909 0.274238
Si Si6 0.626961 0.795259 0.268667
Si Si7 0.222885 0.664864 0.305975
Si Si8 0.906257 0.342037 0.568617
O O1 0.796762 0.523984 0.899240
O O2 0.924873 0.402752 0.822218
O O3 0.716569 0.893509 0.771950
O O4 0.847900 0.790787 0.188647
O O5 0.592952 0.383442 0.724183
O O6 0.486644 0.327139 0.658793
O O7 0.622025 0.333547 0.055003
O O8 0.305089 0.614442 0.299754
O O9 0.550701 0.132908 0.363547
O O10 0.378995 0.291412 0.975519
O O11 0.000000 0.500000 0.500000
O O12 0.947223 0.408047 0.565079
O O13 0.102595 0.006099 0.353536
O O14 0.546095 0.817470 0.246388
O O15 0.719737 0.423379 0.475926
O O16 0.767289 0.543973 0.405564
O O17 0.000000 0.000000 0.500000
#
# Coordination Sequence:
#
# PCOD8008494 Si02
#       8
#     2   2   2   2   2   2   2   2
#     4  12  26  48  76 103 140 199 243 298 368 430
#     4  10  23  41  71 109 143 193 234 299 358 447
#     4  10  25  41  72 113 155 185 239 306 375 430
#     4  12  30  50  71 110 145 190 250 308 363 431
#     4  10  20  43  71 101 147 183 242 284 366 438
#     4  10  22  46  71 108 146 197 240 302 368 435
#     4  12  25  47  73 108 148 192 239 305 364 441
#     4  12  26  49  78 104 143 199 252 298 356 441
#
# _framework density 23.738032
#
# number of rings (size 3 to 8) (size 9 to 14) (size 15 to 20)
#    0.000    1.000    3.750    1.125    7.000    5.000 
#    0.000    0.000    0.000    0.000    0.000    0.000 
#    0.000    0.000    0.000    0.000    0.000    0.000 
#
# Total GULP energy -198218.605828 kJ/mol
# GULP energy per Si atom -12388.662864 kJ/mol
# Density = 2.368400 g / cm^3
# Si number density = 23.738032 Si / 1000 Ang^3
#
#
#
# Elastic Constant Matrix: (Units=GPa)
#
#
# Indices 1 2 3 4 5 6 
#
# 1 174.9207 64.7167 21.1238 -1.5596 -7.4534 9.0134
# 2 64.7167 136.9754 25.2310 6.5928 1.3071 13.3202
# 3 21.1238 25.2310 36.2993 14.1661 4.0072 -2.9904
# 4 -1.5596 6.5928 14.1661 35.6283 2.1921 -0.3483
# 5 -7.4534 1.3071 4.0072 2.1921 34.3877 1.9774
# 6 9.0134 13.3202 -2.9904 -0.3483 1.9774 33.2176
#
#
#
# Elastic Compliance Matrix: (Units=1/GPa)
#
#
# Indices 1 2 3 4 5 6 
#
# 1 0.007353 -0.002835 -0.003451 0.002080 0.002044 -0.001269
# 2 -0.002835 0.010052 -0.005738 0.000268 -0.000128 -0.003768
# 3 -0.003451 -0.005738 0.040417 -0.014802 -0.004699 0.007000
# 4 0.002080 0.000268 -0.014802 0.033972 0.000095 -0.001654
# 5 0.002044 -0.000128 -0.004699 0.000095 0.030226 -0.002725
# 6 -0.001269 -0.003768 0.007000 -0.001654 -0.002725 0.032735
#
#
# Mechanical properties :
#
#
# Convention : Reuss Voigt Hill
#
# Bulk Modulus (GPa) = 29.60773 63.37094 46.48933
# Shear Modulus (GPa) = 26.30730 36.45497 31.38113
#
# Velocity S-wave (km/s) = 3.33263 3.92308 3.63984
# Velocity P-wave (km/s) = 5.22574 6.87565 6.10667
#
# Compressibility (1/GPa) = 0.03377496
#
# Stress axis : x y z
#
# Youngs Moduli (GPa) = 135.98978 99.48675 24.74192
#
# Poissons Ratio (x) = 0.28203 0.08538
# Poissons Ratio (y) = 0.38551 0.14197
# Poissons Ratio (z) = 0.46928 0.57085
#
# Static dielectric constant tensor:
#      x y z
#    x 4.107440 0.466960 -0.120000 
#    y 0.466960 3.905070 0.311420 
#    z -0.120000 0.311420 4.547630 
# 
# 
# High freq. dielectric constant tensor:
#      x y z
#    x 1.947320 0.011880 -0.010560 
#    y 0.011880 1.941580 0.012920 
#    z -0.010560 0.012920 1.956890 
# 
# From -- ./inp_files/352442.got.cif
#   From: 2010.06.25/outbox.cif.g09.slc.cpg/sg2_177_cif.got.tgz:352442.got - 2010.06.27 13:26:56.
