data_PCOD8008286
_publ_section_title
;
Structure prediction by ZEFSAII (Michael W. Deem and Ramdas Pophale) SiO2 
 PCOD8008286
Probable space group: P -1
;
_chemical_formula_sum "Si O2"
_cell_formula_units_Z 14
_cell_length_a 11.506537
_cell_length_b 8.324302
_cell_length_c 9.344083
_cell_angle_alpha 106.428423
_cell_angle_beta 53.251984
_cell_angle_gamma 87.646324
_cell_volume 661.625986
_symmetry_space_group_name_H-M "P -1"
_symmetry_group_IT_number 2
_symmetry_cell_setting 'triclinic'
loop_
_space_group_symop_operation_xyz
x,y,z
-x,-y,-z
loop_
_atom_site_type_symbol
_atom_site_label
_atom_site_fract_x
_atom_site_fract_y
_atom_site_fract_z
Si Si1 0.767873 0.756560 0.895366
Si Si2 0.281370 0.529916 0.348720
Si Si3 0.999738 0.184025 0.484423
Si Si4 0.786191 0.721743 0.451850
Si Si5 0.511149 0.069260 0.166961
Si Si6 0.165380 0.414598 0.909157
Si Si7 0.558123 0.441884 0.282521
O O1 0.700716 0.627172 0.816854
O O2 0.880365 0.833859 0.736766
O O3 0.858741 0.657159 0.936758
O O4 0.636067 0.908981 0.104722
O O5 0.236606 0.459526 0.516291
O O6 0.444087 0.560168 0.276031
O O7 0.164236 0.705555 0.422981
O O8 0.049910 0.278838 0.607640
O O9 0.000000 0.000000 0.500000
O O10 0.657602 0.894568 0.638232
O O11 0.770964 0.732209 0.294658
O O12 0.566236 0.241933 0.192095
O O13 0.500000 0.000000 0.000000
O O14 0.275635 0.539961 0.865766
O O15 0.000000 0.500000 0.000000
O O16 0.500000 0.500000 0.500000
#
# Coordination Sequence:
#
# PCOD8008286 Si02
#       7
#     2   2   2   2   2   2   2
#     4  11  24  41  68 100 137 186 228 292 345 407
#     4  10  20  42  70  95 133 180 233 275 348 411
#     4  11  23  41  68  98 136 184 238 290 341 410
#     4  10  21  43  67  96 142 186 216 292 352 402
#     4  11  20  44  72 100 140 176 239 286 338 412
#     4  12  25  44  68 102 143 183 231 285 351 413
#     4  11  23  44  74 101 135 189 230 283 348 413
#
# _framework density 21.159991000000002
#
# number of rings (size 3 to 8) (size 9 to 14) (size 15 to 20)
#    0.000    1.143    7.143    3.429    0.000    4.571 
#    2.571    1.429    0.000    0.000    0.000    0.000 
#    0.000    0.000    0.000    0.000    0.000    0.000 
#
# Total GULP energy -173437.022684 kJ/mol
# GULP energy per Si atom -12388.358763 kJ/mol
# Density = 2.111183 g / cm^3
# Si number density = 21.159991 Si / 1000 Ang^3
#
#
#
# Elastic Constant Matrix: (Units=GPa)
#
#
# Indices 1 2 3 4 5 6 
#
# 1 174.1216 60.1362 55.8912 1.1470 -8.6001 -11.1150
# 2 60.1362 108.9259 50.1725 3.2630 -1.8440 -12.2086
# 3 55.8912 50.1725 105.8924 7.4466 11.9141 -1.9824
# 4 1.1470 3.2630 7.4466 38.8405 -10.5485 -4.6696
# 5 -8.6001 -1.8440 11.9141 -10.5485 44.1384 4.2041
# 6 -11.1150 -12.2086 -1.9824 -4.6696 4.2041 28.7922
#
#
#
# Elastic Compliance Matrix: (Units=1/GPa)
#
#
# Indices 1 2 3 4 5 6 
#
# 1 0.007942 -0.002705 -0.003270 0.001494 0.002525 0.001568
# 2 -0.002705 0.013484 -0.005066 0.000752 0.001176 0.004275
# 3 -0.003270 -0.005066 0.014426 -0.004006 -0.005484 -0.002266
# 4 0.001494 0.000752 -0.004006 0.029069 0.007953 0.004173
# 5 0.002525 0.001176 -0.005484 0.007953 0.026723 -0.001516
# 6 0.001568 0.004275 -0.002266 0.004173 -0.001516 0.037891
#
#
# Mechanical properties :
#
#
# Convention : Reuss Voigt Hill
#
# Bulk Modulus (GPa) = 72.62285 80.14886 76.38586
# Shear Modulus (GPa) = 32.00883 37.20354 34.60619
#
# Velocity S-wave (km/s) = 3.89357 4.19764 4.04846
# Velocity P-wave (km/s) = 7.38976 7.83922 7.61780
#
# Compressibility (1/GPa) = 0.01376977
#
# Stress axis : x y z
#
# Youngs Moduli (GPa) = 125.91631 74.16252 69.31773
#
# Poissons Ratio (x) = 0.20058 0.22667
# Poissons Ratio (y) = 0.34056 0.35119
# Poissons Ratio (z) = 0.41175 0.37574
#
# Static dielectric constant tensor:
#      x y z
#    x 4.544410 -0.219610 -0.355880 
#    y -0.219610 3.803890 0.154510 
#    z -0.355880 0.154510 2.759500 
# 
# 
# High freq. dielectric constant tensor:
#      x y z
#    x 1.854160 -0.012680 0.000680 
#    y -0.012680 1.799450 0.004370 
#    z 0.000680 0.004370 1.831260 
# 
# From -- ./inp_files/158204.got.cif
#   From: 2010.06.25/outbox.cif.g09.slc.cpg/sg2_80_cif.got.tgz:158204.got - 2010.06.27 13:26:56.
