data_PCOD8008307
_publ_section_title
;
Structure prediction by ZEFSAII (Michael W. Deem and Ramdas Pophale) SiO2 
 PCOD8008307
Probable space group: P -1
;
_chemical_formula_sum "Si O2"
_cell_formula_units_Z 16
_cell_length_a 14.335124
_cell_length_b 11.845065
_cell_length_c 8.963036
_cell_angle_alpha 68.180390
_cell_angle_beta 79.177883
_cell_angle_gamma 31.395780
_cell_volume 709.162302
_symmetry_space_group_name_H-M "P -1"
_symmetry_group_IT_number 2
_symmetry_cell_setting 'triclinic'
loop_
_space_group_symop_operation_xyz
x,y,z
-x,-y,-z
loop_
_atom_site_type_symbol
_atom_site_label
_atom_site_fract_x
_atom_site_fract_y
_atom_site_fract_z
Si Si1 0.157624 0.632682 0.707665
Si Si2 0.207230 0.334779 0.374720
Si Si3 0.544141 0.091565 0.932324
Si Si4 0.401975 0.478684 0.204480
Si Si5 0.098470 0.294475 0.171203
Si Si6 0.926712 0.266154 0.659627
Si Si7 0.738053 0.268473 0.181145
Si Si8 0.438941 0.938402 0.722058
O O1 0.366872 0.358031 0.796880
O O2 0.088471 0.703488 0.526121
O O3 0.152361 0.774497 0.706313
O O4 0.016624 0.703119 0.806533
O O5 0.094155 0.355806 0.309406
O O6 0.090283 0.584851 0.324996
O O7 0.377464 0.179812 0.288806
O O8 0.269331 0.203636 0.575841
O O9 0.699258 0.956174 0.832331
O O10 0.604266 0.059217 0.098621
O O11 0.500000 0.000000 0.000000
O O12 0.233753 0.652862 0.285576
O O13 0.540783 0.436602 0.222370
O O14 0.525484 0.221006 0.307226
O O15 0.308600 0.595711 0.012592
O O16 0.000000 0.500000 0.000000
O O17 0.127926 0.990636 0.778843
#
# Coordination Sequence:
#
# PCOD8008307 Si02
#       8
#     2   2   2   2   2   2   2   2
#     4  12  27  46  66 106 138 183 233 284 342 412
#     4  10  23  41  69 107 137 174 226 282 345 419
#     4  12  22  43  68  96 140 183 218 276 346 407
#     4  10  24  46  72 101 131 187 230 286 345 400
#     4  12  27  43  69 105 144 182 225 281 352 415
#     4  11  26  45  73 100 142 181 229 287 345 402
#     4  11  25  49  70  98 140 179 243 283 332 412
#     4  10  20  42  71  99 140 174 226 286 339 414
#
# _framework density 22.56183
#
# number of rings (size 3 to 8) (size 9 to 14) (size 15 to 20)
#    0.000    1.000    3.750    1.500    7.000    3.000 
#    0.000    0.000    0.000    0.000    0.000    0.000 
#    0.000    0.000    0.000    0.000    0.000    0.000 
#
# Total GULP energy -198429.217987 kJ/mol
# GULP energy per Si atom -12401.826124 kJ/mol
# Density = 2.251048 g / cm^3
# Si number density = 22.561830 Si / 1000 Ang^3
#
#
#
# Elastic Constant Matrix: (Units=GPa)
#
#
# Indices 1 2 3 4 5 6 
#
# 1 100.6550 31.3501 29.9497 6.7534 8.1044 -13.9148
# 2 31.3501 115.8164 31.8884 -10.4793 -3.9287 -7.5094
# 3 29.9497 31.8884 64.5312 -5.1336 -9.3597 2.2778
# 4 6.7534 -10.4793 -5.1336 37.3145 1.6358 -8.5854
# 5 8.1044 -3.9287 -9.3597 1.6358 31.9144 8.8240
# 6 -13.9148 -7.5094 2.2778 -8.5854 8.8240 31.6679
#
#
#
# Elastic Compliance Matrix: (Units=1/GPa)
#
#
# Indices 1 2 3 4 5 6 
#
# 1 0.014736 -0.001804 -0.007620 -0.001914 -0.008431 0.008426
# 2 -0.001804 0.010855 -0.004444 0.003530 -0.000580 0.003220
# 3 -0.007620 -0.004444 0.023137 0.000830 0.010559 -0.008783
# 4 -0.001914 0.003530 0.000830 0.030447 -0.002883 0.008994
# 5 -0.008431 -0.000580 0.010559 -0.002883 0.041320 -0.016896
# 6 0.008426 0.003220 -0.008783 0.008994 -0.016896 0.043822
#
#
# Mechanical properties :
#
#
# Convention : Reuss Voigt Hill
#
# Bulk Modulus (GPa) = 47.63751 51.93101 49.78426
# Shear Modulus (GPa) = 25.11956 32.70032 28.90994
#
# Velocity S-wave (km/s) = 3.34033 3.81118 3.58350
# Velocity P-wave (km/s) = 6.00309 6.51414 6.26383
#
# Compressibility (1/GPa) = 0.02099186
#
# Stress axis : x y z
#
# Youngs Moduli (GPa) = 67.86066 92.12746 43.22142
#
# Poissons Ratio (x) = 0.16615 0.32936
# Poissons Ratio (y) = 0.12239 0.19207
# Poissons Ratio (z) = 0.51712 0.40939
#
# Static dielectric constant tensor:
#      x y z
#    x 3.995400 -0.068860 -0.099500 
#    y -0.068860 4.353390 0.162340 
#    z -0.099500 0.162340 4.146500 
# 
# 
# High freq. dielectric constant tensor:
#      x y z
#    x 1.891050 -0.004040 -0.007860 
#    y -0.004040 1.889830 -0.006550 
#    z -0.007860 -0.006550 1.891340 
# 
# From -- ./inp_files/307017.got.cif
#   From: 2010.06.25/outbox.cif.g09.slc.cpg/sg2_154_cif.got.tgz:307017.got - 2010.06.27 13:26:56.
