data_PCOD8008056
_publ_section_title
;
Structure prediction by ZEFSAII (Michael W. Deem and Ramdas Pophale) SiO2 
 PCOD8008056
Probable space group: P -1
;
_chemical_formula_sum "Si O2"
_cell_formula_units_Z 14
_cell_length_a 8.905190
_cell_length_b 15.162053
_cell_length_c 12.406594
_cell_angle_alpha 30.859402
_cell_angle_beta 132.276228
_cell_angle_gamma 119.678899
_cell_volume 620.621013
_symmetry_space_group_name_H-M "P -1"
_symmetry_group_IT_number 2
_symmetry_cell_setting 'triclinic'
loop_
_space_group_symop_operation_xyz
x,y,z
-x,-y,-z
loop_
_atom_site_type_symbol
_atom_site_label
_atom_site_fract_x
_atom_site_fract_y
_atom_site_fract_z
Si Si1 0.302231 0.542077 0.154608
Si Si2 0.014386 0.321532 0.558021
Si Si3 0.761286 0.371581 0.597947
Si Si4 0.879834 0.531018 0.076766
Si Si5 0.764176 0.053583 0.290952
Si Si6 0.704099 0.924440 0.613322
Si Si7 0.114931 0.982929 0.840266
O O1 0.513238 0.411142 0.429488
O O2 0.117095 0.512348 0.172654
O O3 0.263137 0.504164 0.051924
O O4 0.328710 0.739971 0.967635
O O5 0.169906 0.451491 0.516451
O O6 0.868894 0.308512 0.602699
O O7 0.871411 0.390098 0.313820
O O8 0.141211 0.123640 0.797465
O O9 0.824046 0.215644 0.877820
O O10 0.785895 0.718374 0.887810
O O11 0.743222 0.991042 0.222972
O O12 0.645793 0.959434 0.421007
O O13 0.000000 0.000000 0.500000
O O14 0.879184 0.021092 0.641800
O O15 0.500000 0.000000 0.500000
#
# Coordination Sequence:
#
# PCOD8008056 Si02
#       7
#     2   2   2   2   2   2   2
#     4  11  24  42  70  97 141 177 227 283 341 403
#     4  11  25  45  71  96 140 183 225 285 339 400
#     4  11  26  47  67 102 142 180 227 281 344 407
#     4  11  23  44  68 102 134 176 231 283 336 406
#     4  10  20  42  64  97 133 174 221 280 331 395
#     4  11  24  40  71 103 139 172 229 289 341 397
#     4  11  23  47  69  97 141 180 227 281 337 411
#
# _framework density 22.558049
#
# number of rings (size 3 to 8) (size 9 to 14) (size 15 to 20)
#    0.000    1.143    4.286    2.143    6.000    2.857 
#    2.571    1.429    0.000    0.000    0.000    0.000 
#    0.000    0.000    0.000    0.000    0.000    0.000 
#
# Total GULP energy -173588.116964 kJ/mol
# GULP energy per Si atom -12399.151212 kJ/mol
# Density = 2.250671 g / cm^3
# Si number density = 22.558049 Si / 1000 Ang^3
#
#
#
# Elastic Constant Matrix: (Units=GPa)
#
#
# Indices 1 2 3 4 5 6 
#
# 1 128.0433 37.5154 57.2653 15.6919 6.7776 -22.9155
# 2 37.5154 85.2697 36.4491 -11.5365 25.9798 -17.2317
# 3 57.2653 36.4491 105.0748 8.9580 -6.1862 -8.5605
# 4 15.6919 -11.5365 8.9580 35.3036 -4.2134 2.0460
# 5 6.7776 25.9798 -6.1862 -4.2134 30.1475 -3.5795
# 6 -22.9155 -17.2317 -8.5605 2.0460 -3.5795 25.3002
#
#
#
# Elastic Compliance Matrix: (Units=1/GPa)
#
#
# Indices 1 2 3 4 5 6 
#
# 1 0.013257 -0.001679 -0.005543 -0.005851 -0.002406 0.009122
# 2 -0.001679 0.026185 -0.009420 0.008548 -0.021816 0.009349
# 3 -0.005543 -0.009420 0.016449 -0.003148 0.011831 -0.003942
# 4 -0.005851 0.008548 -0.003148 0.034454 -0.002316 -0.003656
# 5 -0.002406 -0.021816 0.011831 -0.002316 0.053997 -0.005208
# 6 0.009122 0.009349 -0.003942 -0.003656 -0.005208 0.052380
#
#
# Mechanical properties :
#
#
# Convention : Reuss Voigt Hill
#
# Bulk Modulus (GPa) = 44.22938 64.53861 54.38399
# Shear Modulus (GPa) = 21.04891 30.62745 25.83818
#
# Velocity S-wave (km/s) = 3.05798 3.68872 3.38806
# Velocity P-wave (km/s) = 5.66726 6.84210 6.28220
#
# Compressibility (1/GPa) = 0.02260941
#
# Stress axis : x y z
#
# Youngs Moduli (GPa) = 75.42963 38.18924 60.79337
#
# Poissons Ratio (x) = 0.06411 0.33695
# Poissons Ratio (y) = 0.12663 0.57267
# Poissons Ratio (z) = 0.41807 0.35974
#
# Static dielectric constant tensor:
#      x y z
#    x 4.013640 -0.260530 -0.093380 
#    y -0.260530 4.016090 -0.065450 
#    z -0.093380 -0.065450 4.098750 
# 
# 
# High freq. dielectric constant tensor:
#      x y z
#    x 1.885220 -0.027200 -0.008480 
#    y -0.027200 1.883630 -0.005160 
#    z -0.008480 -0.005160 1.899380 
# 
# From -- ./inp_files/154989.got.cif
#   From: 2010.06.25/outbox.cif.g09.slc.cpg/sg2_78_cif.got.tgz:154989.got - 2010.06.27 13:26:56.
