data_PCOD8008681
_publ_section_title
;
Structure prediction by ZEFSAII (Michael W. Deem and Ramdas Pophale) SiO2 
 PCOD8008681
Probable space group: P -1
;
_chemical_formula_sum "Si O2"
_cell_formula_units_Z 16
_cell_length_a 9.174064
_cell_length_b 12.898644
_cell_length_c 9.111046
_cell_angle_alpha 106.629783
_cell_angle_beta 77.550837
_cell_angle_gamma 104.685492
_cell_volume 987.327222
_symmetry_space_group_name_H-M "P -1"
_symmetry_group_IT_number 2
_symmetry_cell_setting 'triclinic'
loop_
_space_group_symop_operation_xyz
x,y,z
-x,-y,-z
loop_
_atom_site_type_symbol
_atom_site_label
_atom_site_fract_x
_atom_site_fract_y
_atom_site_fract_z
Si Si1 0.358986 0.597130 0.477691
Si Si2 0.206539 0.944144 0.395294
Si Si3 0.620195 0.824278 0.242635
Si Si4 0.694887 0.603392 0.410298
Si Si5 0.379597 0.838975 0.549752
Si Si6 0.499769 0.992753 0.170180
Si Si7 0.521498 0.580635 0.162937
Si Si8 0.125579 0.165314 0.598864
O O1 0.532329 0.623038 0.517706
O O2 0.254516 0.497547 0.552757
O O3 0.296045 0.710958 0.544367
O O4 0.368962 0.559374 0.289751
O O5 0.266447 0.908509 0.525558
O O6 0.330030 0.939336 0.240647
O O7 0.055744 0.854630 0.348299
O O8 0.168818 0.065786 0.454819
O O9 0.528160 0.846428 0.418288
O O10 0.613037 0.911653 0.153073
O O11 0.548790 0.704474 0.143643
O O12 0.794450 0.831301 0.257723
O O13 0.667101 0.569818 0.229966
O O14 0.819543 0.716750 0.447944
O O15 0.435783 0.891094 0.716177
O O16 0.500000 0.000000 0.000000
O O17 0.500000 0.500000 0.000000
#
# Coordination Sequence:
#
# PCOD8008681 Si02
#       8
#     2   2   2   2   2   2   2   2
#     4   8  15  27  47  68  95 119 157 195 237 269
#     4  10  19  30  53  70  92 130 165 196 232 292
#     4   9  16  31  49  68  96 125 161 199 225 288
#     4   8  15  27  43  69  95 119 152 202 230 274
#     4  10  16  32  51  69  94 128 163 196 233 278
#     4  11  20  31  46  75  99 121 158 203 246 276
#     4   8  14  24  42  68  93 117 155 192 236 268
#     4  10  16  31  53  71  91 127 171 191 234 284
#
# _framework density 16.205366000000001
#
# number of rings (size 3 to 8) (size 9 to 14) (size 15 to 20)
#    0.750    2.000    3.750    0.750    0.000    1.000 
#    2.250    1.250    0.000    0.000    0.000   32.375 
#    0.000    0.000    0.000    0.000    0.000    0.000 
#
# Total GULP energy -198220.021176 kJ/mol
# GULP energy per Si atom -12388.751323 kJ/mol
# Density = 1.616848 g / cm^3
# Si number density = 16.205366 Si / 1000 Ang^3
#
#
#
# Elastic Constant Matrix: (Units=GPa)
#
#
# Indices 1 2 3 4 5 6 
#
# 1 58.8756 36.4656 24.1467 -1.0707 7.4135 7.4040
# 2 36.4656 135.8004 56.5503 0.6160 9.2463 -8.4286
# 3 24.1467 56.5503 100.4643 10.6673 11.8591 -6.9121
# 4 -1.0707 0.6160 10.6673 23.4344 -2.8373 3.7841
# 5 7.4135 9.2463 11.8591 -2.8373 12.9914 -0.3005
# 6 7.4040 -8.4286 -6.9121 3.7841 -0.3005 25.8685
#
#
#
# Elastic Compliance Matrix: (Units=1/GPa)
#
#
# Indices 1 2 3 4 5 6 
#
# 1 0.023587 -0.005284 -0.002964 0.003368 -0.006486 -0.009833
# 2 -0.005284 0.010998 -0.004758 0.001022 -0.000161 0.003673
# 3 -0.002964 -0.004758 0.016046 -0.009492 -0.011532 0.004840
# 4 0.003368 0.001022 -0.009492 0.050844 0.016879 -0.010409
# 5 -0.006486 -0.000161 -0.011532 0.016879 0.094942 -0.002643
# 6 -0.009833 0.003673 0.004840 -0.010409 -0.002643 0.045453
#
#
# Mechanical properties :
#
#
# Convention : Reuss Voigt Hill
#
# Bulk Modulus (GPa) = 40.61407 58.82949 49.72178
# Shear Modulus (GPa) = 18.11018 24.32404 21.21711
#
# Velocity S-wave (km/s) = 3.34659 3.87846 3.62230
# Velocity P-wave (km/s) = 6.32846 7.51252 6.94577
#
# Compressibility (1/GPa) = 0.02462201
#
# Stress axis : x y z
#
# Youngs Moduli (GPa) = 42.39555 90.92586 62.32008
#
# Poissons Ratio (x) = 0.48041 0.18470
# Poissons Ratio (y) = 0.22400 0.29649
# Poissons Ratio (z) = 0.12565 0.43258
#
# Static dielectric constant tensor:
#      x y z
#    x 2.937280 -0.193810 0.123520 
#    y -0.193810 3.286320 0.007510 
#    z 0.123520 0.007510 2.650250 
# 
# 
# High freq. dielectric constant tensor:
#      x y z
#    x 1.591990 -0.017120 0.015230 
#    y -0.017120 1.634810 0.008160 
#    z 0.015230 0.008160 1.581690 
# 
# From -- ./inp_files/203053.got.cif
#   From: 2010.06.25/outbox.cif.g09.slc.cpg/sg2_102_cif.got.tgz:203053.got - 2010.06.27 13:26:56.
