data_PCOD8008518
_publ_section_title
;
Structure prediction by ZEFSAII (Michael W. Deem and Ramdas Pophale) SiO2 
 PCOD8008518
Probable space group: P -1
;
_chemical_formula_sum "Si O2"
_cell_formula_units_Z 10
_cell_length_a 8.915469
_cell_length_b 7.750901
_cell_length_c 9.244386
_cell_angle_alpha 130.209778
_cell_angle_beta 47.668416
_cell_angle_gamma 103.543806
_cell_volume 337.125052
_symmetry_space_group_name_H-M "P -1"
_symmetry_group_IT_number 2
_symmetry_cell_setting 'triclinic'
loop_
_space_group_symop_operation_xyz
x,y,z
-x,-y,-z
loop_
_atom_site_type_symbol
_atom_site_label
_atom_site_fract_x
_atom_site_fract_y
_atom_site_fract_z
Si Si1 0.980774 0.965579 0.323628
Si Si2 0.160055 0.340253 0.949742
Si Si3 0.684970 0.089632 0.154058
Si Si4 0.417381 0.595340 0.259249
Si Si5 0.745058 0.580547 0.483710
O O1 0.966354 0.707109 0.138052
O O2 0.758550 0.141640 0.496228
O O3 0.000000 0.000000 0.500000
O O4 0.184533 0.006012 0.133416
O O5 0.365610 0.405787 0.796619
O O6 0.246759 0.108846 0.873437
O O7 0.992834 0.559526 0.277245
O O8 0.735489 0.322911 0.299694
O O9 0.424323 0.177143 0.347081
O O10 0.319004 0.410882 0.299996
O O11 0.500000 0.500000 0.000000
#
# Coordination Sequence:
#
# PCOD8008518 Si02
#       5
#     2   2   2   2   2
#     4  11  22  44  70 105 142 177 231 288 344 417
#     4  11  23  47  77  97 137 195 227 279 358 409
#     4  10  20  43  73 101 138 184 227 289 345 413
#     4  12  25  44  70 105 144 180 235 294 340 409
#     4  10  21  43  70 104 141 173 236 289 342 415
#
# _framework density 29.662585
#
# number of rings (size 3 to 8) (size 9 to 14) (size 15 to 20)
#    0.000    1.200    4.000    3.000    0.000    0.800 
#    7.200    8.000    0.000    0.000    0.000    0.000 
#    0.000    0.000    0.000    0.000    0.000    0.000 
#
# Total GULP energy -123971.656969 kJ/mol
# GULP energy per Si atom -12397.165697 kJ/mol
# Density = 2.959507 g / cm^3
# Si number density = 29.662585 Si / 1000 Ang^3
#
#
#
# Elastic Constant Matrix: (Units=GPa)
#
#
# Indices 1 2 3 4 5 6 
#
# 1 123.7232 32.4716 52.3021 -8.6724 -18.4191 -17.2048
# 2 32.4716 108.7247 53.0062 -27.8646 4.5915 -17.7920
# 3 52.3021 53.0062 182.7480 -9.7646 -35.3611 -28.0823
# 4 -8.6724 -27.8646 -9.7646 32.1938 -14.6004 7.2933
# 5 -18.4191 4.5915 -35.3611 -14.6004 63.8448 -8.0421
# 6 -17.2048 -17.7920 -28.0823 7.2933 -8.0421 45.4755
#
#
#
# Elastic Compliance Matrix: (Units=1/GPa)
#
#
# Indices 1 2 3 4 5 6 
#
# 1 0.009984 -0.001613 -0.001332 0.001647 0.002961 0.002583
# 2 -0.001613 0.013974 -0.002972 0.010186 -0.000626 0.001277
# 3 -0.001332 -0.002972 0.008463 0.001061 0.005305 0.004328
# 4 0.001647 0.010186 0.001061 0.045541 0.010727 -0.000143
# 5 0.002961 -0.000626 0.005305 0.010727 0.022767 0.006457
# 6 0.002583 0.001277 0.004328 -0.000143 0.006457 0.027304
#
#
# Mechanical properties :
#
#
# Convention : Reuss Voigt Hill
#
# Bulk Modulus (GPa) = 48.57100 76.75061 62.66081
# Shear Modulus (GPa) = 34.07609 46.79722 40.43666
#
# Velocity S-wave (km/s) = 3.39306 3.97628 3.69619
# Velocity P-wave (km/s) = 5.63565 6.85651 6.27584
#
# Compressibility (1/GPa) = 0.02058842
#
# Stress axis : x y z
#
# Youngs Moduli (GPa) = 100.15678 71.56041 118.15450
#
# Poissons Ratio (x) = 0.11541 0.15736
# Poissons Ratio (y) = 0.16152 0.35119
# Poissons Ratio (z) = 0.13339 0.21270
#
# Static dielectric constant tensor:
#      x y z
#    x 6.677580 0.625610 -0.561390 
#    y 0.625610 6.062430 -0.512950 
#    z -0.561390 -0.512950 4.851240 
# 
# 
# High freq. dielectric constant tensor:
#      x y z
#    x 2.189870 -0.024800 -0.006160 
#    y -0.024800 2.230230 -0.006090 
#    z -0.006160 -0.006090 2.248960 
# 
# From -- ./inp_files/144111.got.cif
#   From: 2010.06.25/outbox.cif.g09.slc.cpg/sg2_73_cif.got.tgz:144111.got - 2010.06.27 13:26:56.
