data_PCOD8008626
_publ_section_title
;
Structure prediction by ZEFSAII (Michael W. Deem and Ramdas Pophale) SiO2 
 PCOD8008626
Probable space group: P -1
;
_chemical_formula_sum "Si O2"
_cell_formula_units_Z 16
_cell_length_a 12.118684
_cell_length_b 11.505661
_cell_length_c 18.795371
_cell_angle_alpha 48.999154
_cell_angle_beta 27.580159
_cell_angle_gamma 67.314407
_cell_volume 758.368410
_symmetry_space_group_name_H-M "P -1"
_symmetry_group_IT_number 2
_symmetry_cell_setting 'triclinic'
loop_
_space_group_symop_operation_xyz
x,y,z
-x,-y,-z
loop_
_atom_site_type_symbol
_atom_site_label
_atom_site_fract_x
_atom_site_fract_y
_atom_site_fract_z
Si Si1 0.743892 0.682369 0.979000
Si Si2 0.736170 0.671687 0.153498
Si Si3 0.106282 0.430821 0.403824
Si Si4 0.229051 0.630401 0.672499
Si Si5 0.642122 0.969650 0.693563
Si Si6 0.903451 0.024276 0.660719
Si Si7 0.190791 0.632102 0.541088
Si Si8 0.780465 0.025453 0.156838
O O1 0.978295 0.636900 0.849642
O O2 0.687446 0.675846 0.096913
O O3 0.447579 0.528371 0.171754
O O4 0.853069 0.888562 0.808107
O O5 0.678983 0.474698 0.286610
O O6 0.514666 0.704388 0.306092
O O7 0.060296 0.833975 0.925125
O O8 0.935115 0.207774 0.600037
O O9 0.000000 0.500000 0.500000
O O10 0.029960 0.483996 0.350065
O O11 0.118887 0.523574 0.701433
O O12 0.512423 0.836387 0.418029
O O13 0.827889 0.194467 0.498207
O O14 0.634351 0.912176 0.803748
O O15 0.804369 0.905885 0.577056
O O16 0.328409 0.885052 0.873397
O O17 0.000000 0.000000 0.000000
#
# Coordination Sequence:
#
# PCOD8008626 Si02
#       8
#     2   2   2   2   2   2   2   2
#     4  12  26  45  66 101 137 181 222 276 345 399
#     4  12  25  42  67  96 141 182 218 281 334 393
#     4  11  25  45  68 100 137 174 219 277 345 406
#     4  11  25  44  66 100 135 171 237 276 323 404
#     4   9  19  42  68 100 127 168 226 282 321 395
#     4  10  22  44  71  93 137 173 221 287 329 394
#     4  10  20  45  68  96 138 166 230 281 319 406
#     4  11  22  41  70  97 131 175 223 274 335 391
#
# _framework density 21.097925
#
# number of rings (size 3 to 8) (size 9 to 14) (size 15 to 20)
#    0.000    1.250    6.250    0.750    1.750    3.500 
#    0.000    0.000    0.000    0.000    0.000    0.000 
#    0.000    0.000    0.000    0.000    0.000    0.000 
#
# Total GULP energy -198375.476274 kJ/mol
# GULP energy per Si atom -12398.467267 kJ/mol
# Density = 2.104991 g / cm^3
# Si number density = 21.097925 Si / 1000 Ang^3
#
#
#
# Elastic Constant Matrix: (Units=GPa)
#
#
# Indices 1 2 3 4 5 6 
#
# 1 121.1976 33.4052 9.7066 -9.1773 -2.0857 -6.7796
# 2 33.4052 95.7938 25.2781 6.1847 5.4424 -3.2935
# 3 9.7066 25.2781 53.0914 2.5787 -8.1750 -4.3541
# 4 -9.1773 6.1847 2.5787 25.5072 -1.0376 -3.3720
# 5 -2.0857 5.4424 -8.1750 -1.0376 45.3179 1.4163
# 6 -6.7796 -3.2935 -4.3541 -3.3720 1.4163 32.7885
#
#
#
# Elastic Compliance Matrix: (Units=1/GPa)
#
#
# Indices 1 2 3 4 5 6 
#
# 1 0.009758 -0.003708 0.000071 0.004719 0.000950 0.002099
# 2 -0.003708 0.013794 -0.006191 -0.004243 -0.003025 -0.000509
# 3 0.000071 -0.006191 0.022696 -0.000287 0.004767 0.002171
# 4 0.004719 -0.004243 -0.000287 0.042660 0.001501 0.004834
# 5 0.000950 -0.003025 0.004767 0.001501 0.023378 -0.000330
# 6 0.002099 -0.000509 0.002171 0.004834 -0.000330 0.031681
#
#
# Mechanical properties :
#
#
# Convention : Reuss Voigt Hill
#
# Bulk Modulus (GPa) = 37.60618 45.20693 41.40656
# Shear Modulus (GPa) = 28.98719 34.16891 31.57805
#
# Velocity S-wave (km/s) = 3.71068 4.02872 3.87297
# Velocity P-wave (km/s) = 6.01849 6.56616 6.29828
#
# Compressibility (1/GPa) = 0.02659138
#
# Stress axis : x y z
#
# Youngs Moduli (GPa) = 102.47517 72.49392 44.05991
#
# Poissons Ratio (x) = 0.26881 -0.00311
# Poissons Ratio (y) = 0.37998 0.27279
# Poissons Ratio (z) = -0.00723 0.44883
#
# Static dielectric constant tensor:
#      x y z
#    x 4.403540 -0.113260 -0.201150 
#    y -0.113260 3.751260 0.030080 
#    z -0.201150 0.030080 3.764460 
# 
# 
# High freq. dielectric constant tensor:
#      x y z
#    x 1.848490 -0.008220 -0.006850 
#    y -0.008220 1.830230 0.011220 
#    z -0.006850 0.011220 1.803510 
# 
# From -- ./inp_files/532202.got.cif
#   From: 2010.06.25/outbox.cif.g09.slc.cpg/sg2_267_cif.got.tgz:532202.got - 2010.06.27 13:26:56.
