data_PCOD8008794
_publ_section_title
;
Structure prediction by ZEFSAII (Michael W. Deem and Ramdas Pophale) SiO2 
 PCOD8008794
Probable space group: P -1
;
_chemical_formula_sum "Si O2"
_cell_formula_units_Z 16
_cell_length_a 11.657797
_cell_length_b 9.505933
_cell_length_c 17.492864
_cell_angle_alpha 45.044137
_cell_angle_beta 48.773309
_cell_angle_gamma 84.222765
_cell_volume 750.914411
_symmetry_space_group_name_H-M "P -1"
_symmetry_group_IT_number 2
_symmetry_cell_setting 'triclinic'
loop_
_space_group_symop_operation_xyz
x,y,z
-x,-y,-z
loop_
_atom_site_type_symbol
_atom_site_label
_atom_site_fract_x
_atom_site_fract_y
_atom_site_fract_z
Si Si1 0.240382 0.525575 0.292813
Si Si2 0.180919 0.798598 0.772253
Si Si3 0.972523 0.004597 0.332859
Si Si4 0.986712 0.334732 0.331001
Si Si5 0.708369 0.991628 0.883632
Si Si6 0.708582 0.676380 0.292013
Si Si7 0.623716 0.184483 0.474702
Si Si8 0.134596 0.899817 0.058977
O O1 0.054800 0.325850 0.388662
O O2 0.219064 0.714616 0.276261
O O3 0.219961 0.314774 0.437431
O O4 0.464263 0.734332 0.071868
O O5 0.089547 0.935404 0.741210
O O6 0.291186 0.837028 0.630859
O O7 0.372809 0.961941 0.685653
O O8 0.000000 0.500000 0.000000
O O9 0.039499 0.215285 0.290248
O O10 0.170059 0.042119 0.214215
O O11 0.736906 0.166626 0.501770
O O12 0.106964 0.648134 0.140592
O O13 0.744691 0.975430 0.962556
O O14 0.500000 0.500000 0.500000
O O15 0.698499 0.476066 0.319416
O O16 0.722013 0.881243 0.154697
O O17 0.919101 0.833937 0.189601
#
# Coordination Sequence:
#
# PCOD8008794 Si02
#       8
#     2   2   2   2   2   2   2   2
#     4  10  22  43  62  88 126 160 204 260 316 355
#     4  10  23  38  59  90 128 161 198 251 311 369
#     4  11  23  37  65  93 117 163 213 250 306 375
#     4   9  20  43  61  85 126 167 200 257 308 363
#     4  10  23  39  64  92 120 160 201 266 309 360
#     4  10  21  34  60  86 115 166 204 243 299 364
#     4   9  21  39  58  87 123 161 202 252 303 364
#     4   9  21  39  57  85 127 154 204 251 301 363
#
# _framework density 21.307357
#
# number of rings (size 3 to 8) (size 9 to 14) (size 15 to 20)
#    0.000    2.250    0.000    0.750    5.250    5.500 
#    0.000   11.250    0.000    0.000    0.000    0.000 
#    0.000    0.000    0.000    0.000    0.000    0.000 
#
# Total GULP energy -198269.007465 kJ/mol
# GULP energy per Si atom -12391.812967 kJ/mol
# Density = 2.125886 g / cm^3
# Si number density = 21.307357 Si / 1000 Ang^3
#
#
#
# Elastic Constant Matrix: (Units=GPa)
#
#
# Indices 1 2 3 4 5 6 
#
# 1 102.1908 23.4676 59.8097 -14.7716 -8.7347 -2.6924
# 2 23.4676 90.0727 23.5231 -12.4174 2.5141 -18.2010
# 3 59.8097 23.5231 123.4478 -4.6599 5.6941 -7.5046
# 4 -14.7716 -12.4174 -4.6599 25.0302 -6.4459 -2.9684
# 5 -8.7347 2.5141 5.6941 -6.4459 37.0977 -6.1967
# 6 -2.6924 -18.2010 -7.5046 -2.9684 -6.1967 26.4793
#
#
#
# Elastic Compliance Matrix: (Units=1/GPa)
#
#
# Indices 1 2 3 4 5 6 
#
# 1 0.016607 -0.000760 -0.007746 0.010045 0.007193 0.001780
# 2 -0.000760 0.015178 -0.001610 0.008780 0.002480 0.011464
# 3 -0.007746 -0.001610 0.012206 -0.004195 -0.004302 0.000088
# 4 0.010045 0.008780 -0.004195 0.055035 0.014556 0.015443
# 5 0.007193 0.002480 -0.004302 0.014556 0.033455 0.010678
# 6 0.001780 0.011464 0.000088 0.015443 0.010678 0.050081
#
#
# Mechanical properties :
#
#
# Convention : Reuss Voigt Hill
#
# Bulk Modulus (GPa) = 42.08847 58.81245 50.45046
# Shear Modulus (GPa) = 23.72891 31.64882 27.68887
#
# Velocity S-wave (km/s) = 3.34076 3.85820 3.60877
# Velocity P-wave (km/s) = 5.88870 6.89271 6.41039
#
# Compressibility (1/GPa) = 0.02375947
#
# Stress axis : x y z
#
# Youngs Moduli (GPa) = 60.21431 65.88322 81.92992
#
# Poissons Ratio (x) = 0.05009 0.63460
# Poissons Ratio (y) = 0.04578 0.13190
# Poissons Ratio (z) = 0.46640 0.10607
#
# Static dielectric constant tensor:
#      x y z
#    x 4.415640 -0.186360 -0.160230 
#    y -0.186360 3.834440 -0.302080 
#    z -0.160230 -0.302080 3.734260 
# 
# 
# High freq. dielectric constant tensor:
#      x y z
#    x 1.843940 -0.014750 -0.008080 
#    y -0.014750 1.832680 -0.018530 
#    z -0.008080 -0.018530 1.823210 
# 
# From -- ./inp_files/566436.got.cif
#   From: 2010.06.25/outbox.cif.g09.slc.cpg/sg2_284_cif.got.tgz:566436.got - 2010.06.27 13:26:56.
