data_PCOD8008574
_publ_section_title
;
Structure prediction by ZEFSAII (Michael W. Deem and Ramdas Pophale) SiO2 
 PCOD8008574
Probable space group: P -1
;
_chemical_formula_sum "Si O2"
_cell_formula_units_Z 16
_cell_length_a 9.039284
_cell_length_b 9.005122
_cell_length_c 18.231457
_cell_angle_alpha 140.467195
_cell_angle_beta 89.413262
_cell_angle_gamma 112.257193
_cell_volume 767.654975
_symmetry_space_group_name_H-M "P -1"
_symmetry_group_IT_number 2
_symmetry_cell_setting 'triclinic'
loop_
_space_group_symop_operation_xyz
x,y,z
-x,-y,-z
loop_
_atom_site_type_symbol
_atom_site_label
_atom_site_fract_x
_atom_site_fract_y
_atom_site_fract_z
Si Si1 0.311754 0.726744 0.920208
Si Si2 0.974588 0.985688 0.787486
Si Si3 0.791449 0.128514 0.725934
Si Si4 0.017581 0.241894 0.640571
Si Si5 0.994989 0.211623 0.026017
Si Si6 0.505981 0.137273 0.667076
Si Si7 0.227736 0.623436 0.377225
Si Si8 0.630939 0.639912 0.123364
O O1 0.218120 0.485308 0.764027
O O2 0.201166 0.851961 0.992144
O O3 0.338432 0.596764 0.942508
O O4 0.500000 0.000000 0.000000
O O5 0.835744 0.650884 0.677727
O O6 0.852320 0.070952 0.779663
O O7 0.163422 0.071278 0.781415
O O8 0.044548 0.167550 0.929511
O O9 0.577249 0.973948 0.651621
O O10 0.882012 0.048829 0.633814
O O11 0.857961 0.454150 0.832591
O O12 0.953202 0.414956 0.665050
O O13 0.000000 0.000000 0.500000
O O14 0.000000 0.000000 0.000000
O O15 0.646144 0.342575 0.679040
O O16 0.464475 0.305639 0.789080
O O17 0.324171 0.893474 0.534003
O O18 0.500000 0.500000 0.000000
#
# Coordination Sequence:
#
# PCOD8008574 Si02
#       8
#     2   2   2   2   2   2   2   2
#     4  11  26  42  64 105 131 172 232 279 333 401
#     4  12  24  42  66 100 130 179 218 274 354 398
#     4  10  22  41  64  93 134 170 219 277 339 396
#     4  10  20  44  68  93 133 183 222 274 336 412
#     4  11  23  42  68  91 133 181 222 271 330 419
#     4  10  23  47  66  97 132 176 230 278 328 410
#     4  10  24  42  75  95 127 181 232 271 339 413
#     4  12  27  42  66  98 142 172 216 286 345 396
#
# _framework density 20.842697000000001
#
# number of rings (size 3 to 8) (size 9 to 14) (size 15 to 20)
#    0.000    1.250    2.500    4.125    8.750    1.000 
#    0.000    0.000    0.000    0.000    0.000    0.000 
#    0.000    0.000    0.000    0.000    0.000    0.000 
#
# Total GULP energy -198246.026054 kJ/mol
# GULP energy per Si atom -12390.376628 kJ/mol
# Density = 2.079526 g / cm^3
# Si number density = 20.842697 Si / 1000 Ang^3
#
#
#
# Elastic Constant Matrix: (Units=GPa)
#
#
# Indices 1 2 3 4 5 6 
#
# 1 109.1885 58.7899 42.8060 -1.1468 5.3181 -14.9031
# 2 58.7899 123.0636 46.0028 1.4493 -3.1897 -17.4422
# 3 42.8060 46.0028 92.4782 -8.9486 -6.5512 -1.4116
# 4 -1.1468 1.4493 -8.9486 36.0130 3.5177 1.5323
# 5 5.3181 -3.1897 -6.5512 3.5177 42.6144 -7.4609
# 6 -14.9031 -17.4422 -1.4116 1.5323 -7.4609 46.6610
#
#
#
# Elastic Compliance Matrix: (Units=1/GPa)
#
#
# Indices 1 2 3 4 5 6 
#
# 1 0.013757 -0.004778 -0.004149 -0.000264 -0.002319 0.002120
# 2 -0.004778 0.012441 -0.003998 -0.001950 0.001657 0.003333
# 3 -0.004149 -0.003998 0.015180 0.003712 0.001863 -0.002184
# 4 -0.000264 -0.001950 0.003712 0.029070 -0.002296 -0.002023
# 5 -0.002319 0.001657 0.001863 -0.002296 0.025059 0.004017
# 6 0.002120 0.003333 -0.002184 -0.002023 0.004017 0.023997
#
#
# Mechanical properties :
#
#
# Convention : Reuss Voigt Hill
#
# Bulk Modulus (GPa) = 64.39097 68.88086 66.63591
# Shear Modulus (GPa) = 33.21631 36.86647 35.04139
#
# Velocity S-wave (km/s) = 3.99641 4.21027 4.10473
# Velocity P-wave (km/s) = 7.22882 7.53358 7.38277
#
# Compressibility (1/GPa) = 0.01553013
#
# Stress axis : x y z
#
# Youngs Moduli (GPa) = 72.69115 80.38030 65.87580
#
# Poissons Ratio (x) = 0.38402 0.27329
# Poissons Ratio (y) = 0.34729 0.26335
# Poissons Ratio (z) = 0.30157 0.32133
#
# Static dielectric constant tensor:
#      x y z
#    x 5.503220 0.723780 -0.648370 
#    y 0.723780 4.334670 -0.586970 
#    z -0.648370 -0.586970 4.151100 
# 
# 
# High freq. dielectric constant tensor:
#      x y z
#    x 1.832710 -0.008770 0.009650 
#    y -0.008770 1.810090 -0.015940 
#    z 0.009650 -0.015940 1.814970 
# 
# From -- ./inp_files/277856.got.cif
#   From: 2010.06.25/outbox.cif.g09.slc.cpg/sg2_139_cif.got.tgz:277856.got - 2010.06.27 13:26:56.
