data_PCOD8008702
_publ_section_title
;
Structure prediction by ZEFSAII (Michael W. Deem and Ramdas Pophale) SiO2 
 PCOD8008702
Probable space group: P -1
;
_chemical_formula_sum "Si O2"
_cell_formula_units_Z 16
_cell_length_a 11.713849
_cell_length_b 22.115713
_cell_length_c 13.197984
_cell_angle_alpha 146.893506
_cell_angle_beta 53.507516
_cell_angle_gamma 149.524565
_cell_volume 841.350693
_symmetry_space_group_name_H-M "P -1"
_symmetry_group_IT_number 2
_symmetry_cell_setting 'triclinic'
loop_
_space_group_symop_operation_xyz
x,y,z
-x,-y,-z
loop_
_atom_site_type_symbol
_atom_site_label
_atom_site_fract_x
_atom_site_fract_y
_atom_site_fract_z
Si Si1 0.751110 0.894575 0.206663
Si Si2 0.421114 0.547872 0.748170
Si Si3 0.620297 0.255110 0.440555
Si Si4 0.186226 0.016411 0.188230
Si Si5 0.460365 0.851513 0.435335
Si Si6 0.419006 0.590758 0.576292
Si Si7 0.125739 0.788644 0.400649
Si Si8 0.012634 0.344887 0.283701
O O1 0.530056 0.778599 0.243259
O O2 0.851914 0.077299 0.365192
O O3 0.655201 0.761264 0.975457
O O4 0.973998 0.973005 0.256773
O O5 0.380262 0.561655 0.674992
O O6 0.468202 0.447932 0.586006
O O7 0.168557 0.417392 0.761185
O O8 0.338700 0.096402 0.324379
O O9 0.590349 0.197298 0.489526
O O10 0.798972 0.479067 0.652217
O O11 0.749889 0.242065 0.287054
O O12 0.385631 0.183848 0.232522
O O13 0.045146 0.815600 0.945186
O O14 0.211511 0.743432 0.363633
O O15 0.697150 0.089928 0.623631
O O16 0.148595 0.438083 0.452379
#
# Coordination Sequence:
#
# PCOD8008702 Si02
#       8
#     2   2   2   2   2   2   2   2
#     4  10  21  37  58  85 119 150 190 233 281 342
#     4  11  20  34  57  86 116 153 184 232 289 340
#     4  10  22  39  61  84 115 152 196 231 285 338
#     4  11  21  39  59  86 117 151 190 239 286 335
#     4   9  20  42  59  84 117 154 187 236 283 341
#     4  10  21  33  57  87 116 148 187 233 292 338
#     4   9  20  40  58  81 122 149 183 239 284 333
#     4  10  21  40  59  85 115 150 189 246 280 335
#
# _framework density 19.017040999999999
#
# number of rings (size 3 to 8) (size 9 to 14) (size 15 to 20)
#    0.750    1.250    2.500    1.125    0.000    3.500 
#    2.250    0.625    0.000    0.000    0.000    0.000 
#    0.000    0.000    0.000    0.000    0.000    0.000 
#
# Total GULP energy -198324.073945 kJ/mol
# GULP energy per Si atom -12395.254622 kJ/mol
# Density = 1.897376 g / cm^3
# Si number density = 19.017041 Si / 1000 Ang^3
#
#
#
# Elastic Constant Matrix: (Units=GPa)
#
#
# Indices 1 2 3 4 5 6 
#
# 1 124.8174 49.0790 37.5128 3.2636 1.9163 7.3068
# 2 49.0790 66.7454 29.8805 3.5446 4.2716 7.1341
# 3 37.5128 29.8805 78.1232 7.0703 -5.7559 0.2791
# 4 3.2636 3.5446 7.0703 19.7604 2.8931 -1.4927
# 5 1.9163 4.2716 -5.7559 2.8931 25.2563 0.0489
# 6 7.3068 7.1341 0.2791 -1.4927 0.0489 42.9728
#
#
#
# Elastic Compliance Matrix: (Units=1/GPa)
#
#
# Indices 1 2 3 4 5 6 
#
# 1 0.011796 -0.007270 -0.002946 0.000408 -0.000382 -0.000765
# 2 -0.007270 0.023535 -0.005806 -0.000456 -0.004695 -0.002644
# 3 -0.002946 -0.005806 0.017349 -0.005439 0.005780 0.001157
# 4 0.000408 -0.000456 -0.005439 0.053789 -0.007359 0.001918
# 5 -0.000382 -0.004695 0.005780 -0.007359 0.042576 0.000503
# 6 -0.000765 -0.002644 0.001157 0.001918 0.000503 0.023898
#
#
# Mechanical properties :
#
#
# Convention : Reuss Voigt Hill
#
# Bulk Modulus (GPa) = 48.45828 55.84787 52.15307
# Shear Modulus (GPa) = 23.59999 27.81215 25.70607
#
# Velocity S-wave (km/s) = 3.52659 3.82839 3.68059
# Velocity P-wave (km/s) = 6.48994 6.99808 6.74879
#
# Compressibility (1/GPa) = 0.02063631
#
# Stress axis : x y z
#
# Youngs Moduli (GPa) = 84.77666 42.49059 57.63974
#
# Poissons Ratio (x) = 0.30892 0.16978
# Poissons Ratio (y) = 0.61636 0.33464
# Poissons Ratio (z) = 0.24971 0.24669
#
# Static dielectric constant tensor:
#      x y z
#    x 3.610770 0.209610 -0.153320 
#    y 0.209610 3.324030 0.167140 
#    z -0.153320 0.167140 3.222620 
# 
# 
# High freq. dielectric constant tensor:
#      x y z
#    x 1.752160 0.020780 -0.011530 
#    y 0.020780 1.729460 0.015940 
#    z -0.011530 0.015940 1.718440 
# 
# From -- ./inp_files/78567.got.cif
#   From: 2010.06.25/outbox.cif.g09.slc.cpg/sg2_40_cif.got.tgz:78567.got - 2010.06.27 13:26:56.
