data_PCOD8008698
_publ_section_title
;
Structure prediction by ZEFSAII (Michael W. Deem and Ramdas Pophale) SiO2 
 PCOD8008698
Probable space group: P -1
;
_chemical_formula_sum "Si O2"
_cell_formula_units_Z 16
_cell_length_a 9.586710
_cell_length_b 13.945110
_cell_length_c 11.371833
_cell_angle_alpha 68.215116
_cell_angle_beta 62.736235
_cell_angle_gamma 43.719264
_cell_volume 931.988575
_symmetry_space_group_name_H-M "P -1"
_symmetry_group_IT_number 2
_symmetry_cell_setting 'triclinic'
loop_
_space_group_symop_operation_xyz
x,y,z
-x,-y,-z
loop_
_atom_site_type_symbol
_atom_site_label
_atom_site_fract_x
_atom_site_fract_y
_atom_site_fract_z
Si Si1 0.238395 0.419754 0.474757
Si Si2 0.281490 0.372456 0.083609
Si Si3 0.546469 0.331380 0.207357
Si Si4 0.142090 0.628364 0.879329
Si Si5 0.284218 0.104096 0.379913
Si Si6 0.670084 0.868406 0.913695
Si Si7 0.925872 0.401879 0.331904
Si Si8 0.439015 0.873834 0.584587
O O1 0.347404 0.442550 0.320757
O O2 0.250002 0.472806 0.571508
O O3 0.362999 0.256249 0.509593
O O4 0.000000 0.500000 0.500000
O O5 0.463125 0.346731 0.101617
O O6 0.383294 0.229757 0.040156
O O7 0.095158 0.413469 0.220920
O O8 0.180989 0.498360 0.976251
O O9 0.703693 0.357608 0.126993
O O10 0.668263 0.175757 0.282517
O O11 0.188933 0.599055 0.735065
O O12 0.901435 0.771149 0.929182
O O13 0.325487 0.073400 0.238914
O O14 0.478359 0.083334 0.368441
O O15 0.058102 0.257532 0.418596
O O16 0.276608 0.997785 0.499394
O O17 0.500000 0.000000 0.000000
#
# Coordination Sequence:
#
# PCOD8008698 Si02
#       8
#     2   2   2   2   2   2   2   2
#     4  10  16  31  53  77 102 130 169 216 249 302
#     4  10  18  36  57  75 104 143 175 211 257 318
#     4  10  19  35  55  78 108 136 171 220 260 307
#     4  10  22  34  55  77 106 141 175 209 271 306
#     4   9  16  31  52  74  95 136 168 211 251 305
#     4  10  20  37  54  78 103 135 178 221 249 309
#     4  10  17  33  52  78 106 129 173 217 252 308
#     4   9  17  29  53  73  97 133 171 205 254 302
#
# _framework density 17.167591000000002
#
# number of rings (size 3 to 8) (size 9 to 14) (size 15 to 20)
#    0.750    1.750    5.000    1.875    0.000    2.500 
#    0.000    3.125    2.750    0.000    0.000    0.000 
#    0.000    0.000    0.000    0.000    0.000    0.000 
#
# Total GULP energy -198250.457914 kJ/mol
# GULP energy per Si atom -12390.653620 kJ/mol
# Density = 1.712852 g / cm^3
# Si number density = 17.167591 Si / 1000 Ang^3
#
#
#
# Elastic Constant Matrix: (Units=GPa)
#
#
# Indices 1 2 3 4 5 6 
#
# 1 91.9378 26.5193 16.7997 5.8979 8.6657 2.2993
# 2 26.5193 94.1356 52.4343 -2.4343 4.4894 -0.6173
# 3 16.7997 52.4343 60.4821 -3.8536 12.0904 -4.7775
# 4 5.8979 -2.4343 -3.8536 42.6054 0.3623 7.0018
# 5 8.6657 4.4894 12.0904 0.3623 19.2249 -2.1540
# 6 2.2993 -0.6173 -4.7775 7.0018 -2.1540 15.7589
#
#
#
# Elastic Compliance Matrix: (Units=1/GPa)
#
#
# Indices 1 2 3 4 5 6 
#
# 1 0.012462 -0.003540 0.000407 -0.001540 -0.005226 -0.001864
# 2 -0.003540 0.022785 -0.020833 0.000472 0.008931 -0.003896
# 3 0.000407 -0.020833 0.038966 0.001152 -0.018968 0.007833
# 4 -0.001540 0.000472 0.001152 0.025649 -0.001863 -0.011058
# 5 -0.005226 0.008931 -0.018968 -0.001863 0.064816 0.005049
# 6 -0.001864 -0.003896 0.007833 -0.011058 0.005049 0.071553
#
#
# Mechanical properties :
#
#
# Convention : Reuss Voigt Hill
#
# Bulk Modulus (GPa) = 38.05151 48.67357 43.36254
# Shear Modulus (GPa) = 17.06937 25.57131 21.32034
#
# Velocity S-wave (km/s) = 3.15664 3.86361 3.52788
# Velocity P-wave (km/s) = 5.95808 6.95103 6.47362
#
# Compressibility (1/GPa) = 0.02628016
#
# Stress axis : x y z
#
# Youngs Moduli (GPa) = 80.24597 43.88812 25.66373
#
# Poissons Ratio (x) = 0.15537 -0.01045
# Poissons Ratio (y) = 0.28409 0.53465
# Poissons Ratio (z) = -0.03267 0.91432
#
# Static dielectric constant tensor:
#      x y z
#    x 2.964540 0.099530 0.257610 
#    y 0.099530 3.260210 -0.102920 
#    z 0.257610 -0.102920 3.177310 
# 
# 
# High freq. dielectric constant tensor:
#      x y z
#    x 1.642470 0.009190 0.023840 
#    y 0.009190 1.654570 -0.013530 
#    z 0.023840 -0.013530 1.652630 
# 
# From -- ./inp_files/387296.got.cif
#   From: 2010.06.25/outbox.cif.g09.slc.cpg/sg2_194_cif.got.tgz:387296.got - 2010.06.27 13:26:56.
