data_PCOD8008865
_publ_section_title
;
Structure prediction by ZEFSAII (Michael W. Deem and Ramdas Pophale) SiO2 
 PCOD8008865
Probable space group: P -1
;
_chemical_formula_sum "Si O2"
_cell_formula_units_Z 16
_cell_length_a 19.360694
_cell_length_b 5.157181
_cell_length_c 9.750354
_cell_angle_alpha 77.608446
_cell_angle_beta 81.194832
_cell_angle_gamma 119.720036
_cell_volume 786.200743
_symmetry_space_group_name_H-M "P -1"
_symmetry_group_IT_number 2
_symmetry_cell_setting 'triclinic'
loop_
_space_group_symop_operation_xyz
x,y,z
-x,-y,-z
loop_
_atom_site_type_symbol
_atom_site_label
_atom_site_fract_x
_atom_site_fract_y
_atom_site_fract_z
Si Si1 0.794504 0.122190 0.631156
Si Si2 0.838299 0.635277 0.776878
Si Si3 0.304538 0.569136 0.969306
Si Si4 0.859025 0.410200 0.283659
Si Si5 0.819685 0.909199 0.134103
Si Si6 0.455599 0.143604 0.919750
Si Si7 0.964098 0.109489 0.881470
Si Si8 0.378359 0.300474 0.168036
O O1 0.843154 0.401031 0.696947
O O2 0.823868 0.262662 0.457346
O O3 0.814289 0.855873 0.680340
O O4 0.694533 0.980004 0.685036
O O5 0.928978 0.863010 0.793204
O O6 0.773640 0.427269 0.944376
O O7 0.271062 0.316651 0.884276
O O8 0.385985 0.909253 0.854096
O O9 0.338900 0.487674 0.100858
O O10 0.843345 0.688035 0.230859
O O11 0.958534 0.550226 0.233646
O O12 0.811605 0.135660 0.215440
O O13 0.888609 0.124193 0.970822
O O14 0.534156 0.477552 0.797571
O O15 0.399253 0.176004 0.042885
O O16 0.500000 0.000000 0.000000
O O17 0.000000 0.000000 0.000000
#
# Coordination Sequence:
#
# PCOD8008865 Si02
#       8
#     2   2   2   2   2   2   2   2
#     4  11  22  37  55  79 117 144 182 218 266 338
#     4  10  21  35  56  83 107 147 178 225 277 312
#     4   9  18  31  55  80 111 134 181 231 271 316
#     4  11  23  38  55  79 108 153 184 220 273 319
#     4  10  22  37  58  80 106 145 190 228 267 311
#     4   9  16  30  51  85 106 136 172 219 282 316
#     4   9  21  38  59  81 112 140 186 235 269 312
#     4   9  18  30  53  82 111 137 172 222 279 319
#
# _framework density 20.351036000000001
#
# number of rings (size 3 to 8) (size 9 to 14) (size 15 to 20)
#    0.000    2.250    1.250    1.125    1.750    9.000 
#    0.000    0.000    0.000    1.500    0.000    0.000 
#    0.000    0.000    0.000    0.000    0.000    0.000 
#
# Total GULP energy -198218.258446 kJ/mol
# GULP energy per Si atom -12388.641153 kJ/mol
# Density = 2.030472 g / cm^3
# Si number density = 20.351036 Si / 1000 Ang^3
#
#
#
# Elastic Constant Matrix: (Units=GPa)
#
#
# Indices 1 2 3 4 5 6 
#
# 1 41.0940 26.3153 15.5440 -5.6282 -10.0941 24.3310
# 2 26.3153 136.2765 47.8676 9.9326 -12.6232 42.3865
# 3 15.5440 47.8676 95.3481 -3.7093 -15.8024 25.9717
# 4 -5.6282 9.9326 -3.7093 28.1741 -2.2563 -0.7826
# 5 -10.0941 -12.6232 -15.8024 -2.2563 16.8998 -1.2660
# 6 24.3310 42.3865 25.9717 -0.7826 -1.2660 49.1329
#
#
#
# Elastic Compliance Matrix: (Units=1/GPa)
#
#
# Indices 1 2 3 4 5 6 
#
# 1 0.046788 -0.001518 0.005311 0.012460 0.031670 -0.023653
# 2 -0.001518 0.011863 -0.003143 -0.004812 0.003789 -0.007800
# 3 0.005311 -0.003143 0.016271 0.005382 0.016157 -0.008018
# 4 0.012460 -0.004812 0.005382 0.041412 0.014122 -0.003840
# 5 0.031670 0.003789 0.016157 0.014122 0.096055 -0.024793
# 6 -0.023653 -0.007800 -0.008018 -0.003840 -0.024793 0.042333
#
#
# Mechanical properties :
#
#
# Convention : Reuss Voigt Hill
#
# Bulk Modulus (GPa) = 13.11955 50.24136 31.68045
# Shear Modulus (GPa) = 17.93214 31.04079 24.48646
#
# Velocity S-wave (km/s) = 2.97162 3.90970 3.47249
# Velocity P-wave (km/s) = 4.27021 6.71729 5.62835
#
# Compressibility (1/GPa) = 0.07622215
#
# Stress axis : x y z
#
# Youngs Moduli (GPa) = 21.37292 84.29712 61.45975
#
# Poissons Ratio (x) = 0.12796 -0.32640
# Poissons Ratio (y) = 0.03244 0.19315
# Poissons Ratio (z) = -0.11351 0.26492
#
# Static dielectric constant tensor:
#      x y z
#    x 3.841180 0.597970 -0.257720 
#    y 0.597970 4.459150 -0.240680 
#    z -0.257720 -0.240680 3.395240 
# 
# 
# High freq. dielectric constant tensor:
#      x y z
#    x 1.794560 0.013480 -0.008590 
#    y 0.013480 1.819550 -0.000110 
#    z -0.008590 -0.000110 1.739690 
# 
# From -- ./inp_files/39982.got.cif
#   From: 2010.06.25/outbox.cif.g09.slc.cpg/sg2_20_cif.got.tgz:39982.got - 2010.06.27 13:26:56.
