data_PCOD8008417
_publ_section_title
;
Structure prediction by ZEFSAII (Michael W. Deem and Ramdas Pophale) SiO2 
 PCOD8008417
Probable space group: P -1
;
_chemical_formula_sum "Si O2"
_cell_formula_units_Z 16
_cell_length_a 15.750729
_cell_length_b 19.728066
_cell_length_c 12.798981
_cell_angle_alpha 130.575809
_cell_angle_beta 152.001833
_cell_angle_gamma 29.743080
_cell_volume 802.746719
_symmetry_space_group_name_H-M "P -1"
_symmetry_group_IT_number 2
_symmetry_cell_setting 'triclinic'
loop_
_space_group_symop_operation_xyz
x,y,z
-x,-y,-z
loop_
_atom_site_type_symbol
_atom_site_label
_atom_site_fract_x
_atom_site_fract_y
_atom_site_fract_z
Si Si1 0.183292 0.982910 0.889056
Si Si2 0.568106 0.724990 0.198730
Si Si3 0.781575 0.229309 0.298206
Si Si4 0.354770 0.116562 0.866607
Si Si5 0.625120 0.335214 0.688751
Si Si6 0.165972 0.567958 0.039473
Si Si7 0.782437 0.587837 0.509011
Si Si8 0.934613 0.423723 0.832734
O O1 0.842319 0.161465 0.727360
O O2 0.128155 0.907509 0.700670
O O3 0.391074 0.885909 0.124539
O O4 0.363167 0.975599 0.998818
O O5 0.565431 0.722676 0.318914
O O6 0.928328 0.581523 0.401823
O O7 0.379719 0.714654 0.936720
O O8 0.514240 0.379946 0.234382
O O9 0.089318 0.166979 0.567294
O O10 0.206012 0.269379 0.900316
O O11 0.500000 0.000000 0.000000
O O12 0.833268 0.340485 0.934232
O O13 0.424872 0.400089 0.641394
O O14 0.404004 0.446479 0.461217
O O15 0.066982 0.627957 0.111198
O O16 0.900595 0.613223 0.744604
O O17 0.000000 0.500000 0.000000
#
# Coordination Sequence:
#
# PCOD8008417 Si02
#       8
#     2   2   2   2   2   2   2   2
#     4  10  24  42  60  91 126 159 206 249 310 358
#     4   8  20  44  67  88 120 164 201 261 300 372
#     4   9  22  42  62  86 122 165 199 253 301 363
#     4  12  25  40  63  92 125 166 208 248 300 370
#     4  12  24  38  64  93 125 163 203 255 309 367
#     4  11  22  40  63  95 121 161 211 252 298 375
#     4  10  20  43  67  90 121 159 211 250 314 357
#     4  12  24  40  63  89 129 168 198 256 309 360
#
# _framework density 19.931567000000001
#
# number of rings (size 3 to 8) (size 9 to 14) (size 15 to 20)
#    0.750    0.750    2.500    2.625    3.500    2.000 
#    2.250    2.500    0.000    0.000    0.000    0.000 
#    0.000    0.000    0.000    0.000    0.000    0.000 
#
# Total GULP energy -198372.580259 kJ/mol
# GULP energy per Si atom -12398.286266 kJ/mol
# Density = 1.988620 g / cm^3
# Si number density = 19.931567 Si / 1000 Ang^3
#
#
#
# Elastic Constant Matrix: (Units=GPa)
#
#
# Indices 1 2 3 4 5 6 
#
# 1 138.8377 20.9782 45.0017 4.4974 -2.6356 1.3462
# 2 20.9782 91.5433 18.0933 -8.1730 2.9528 11.2684
# 3 45.0017 18.0933 58.1287 -6.7242 0.9044 -4.2257
# 4 4.4974 -8.1730 -6.7242 17.9589 10.4169 2.4355
# 5 -2.6356 2.9528 0.9044 10.4169 39.0318 0.5341
# 6 1.3462 11.2684 -4.2257 2.4355 0.5341 28.5074
#
#
#
# Elastic Compliance Matrix: (Units=1/GPa)
#
#
# Indices 1 2 3 4 5 6 
#
# 1 0.010639 -0.001485 -0.008850 -0.008498 0.003312 -0.000563
# 2 -0.001485 0.013349 -0.002459 0.008199 -0.003156 -0.006212
# 3 -0.008850 -0.002459 0.026732 0.013196 -0.004612 0.004311
# 4 -0.008498 0.008199 0.013196 0.080801 -0.022964 -0.007357
# 5 0.003312 -0.003156 -0.004612 -0.022964 0.032294 0.001765
# 6 -0.000563 -0.006212 0.004311 -0.007357 0.001765 0.038795
#
#
# Mechanical properties :
#
#
# Convention : Reuss Voigt Hill
#
# Bulk Modulus (GPa) = 39.79112 50.73955 45.26533
# Shear Modulus (GPa) = 21.13492 30.72870 25.93181
#
# Velocity S-wave (km/s) = 3.25987 3.93072 3.61091
# Velocity P-wave (km/s) = 5.84604 6.79065 6.33597
#
# Compressibility (1/GPa) = 0.02513124
#
# Stress axis : x y z
#
# Youngs Moduli (GPa) = 93.99215 74.91348 37.40877
#
# Poissons Ratio (x) = 0.11126 0.33106
# Poissons Ratio (y) = 0.13959 0.09200
# Poissons Ratio (z) = 0.83182 0.18423
#
# Static dielectric constant tensor:
#      x y z
#    x 3.580190 0.092260 -0.005190 
#    y 0.092260 3.602710 0.023410 
#    z -0.005190 0.023410 3.710850 
# 
# 
# High freq. dielectric constant tensor:
#      x y z
#    x 1.771730 0.005750 0.004880 
#    y 0.005750 1.771460 -0.005130 
#    z 0.004880 -0.005130 1.774670 
# 
# From -- ./inp_files/457508.got.cif
#   From: 2010.06.25/outbox.cif.g09.slc.cpg/sg2_229_cif.got.tgz:457508.got - 2010.06.27 13:26:56.
