data_PCOD8008103
_publ_section_title
;
Structure prediction by ZEFSAII (Michael W. Deem and Ramdas Pophale) SiO2 
 PCOD8008103
Probable space group: P -1
;
_chemical_formula_sum "Si O2"
_cell_formula_units_Z 16
_cell_length_a 11.521559
_cell_length_b 9.624431
_cell_length_c 15.097371
_cell_angle_alpha 145.619926
_cell_angle_beta 64.889150
_cell_angle_gamma 98.716027
_cell_volume 788.719289
_symmetry_space_group_name_H-M "P -1"
_symmetry_group_IT_number 2
_symmetry_cell_setting 'triclinic'
loop_
_space_group_symop_operation_xyz
x,y,z
-x,-y,-z
loop_
_atom_site_type_symbol
_atom_site_label
_atom_site_fract_x
_atom_site_fract_y
_atom_site_fract_z
Si Si1 0.229183 0.994368 0.114447
Si Si2 0.970190 0.913879 0.240818
Si Si3 0.142885 0.034754 0.965907
Si Si4 0.509887 0.618661 0.916157
Si Si5 0.879373 0.572286 0.954934
Si Si6 0.568054 0.775222 0.166930
Si Si7 0.261049 0.521748 0.372622
Si Si8 0.614814 0.290480 0.411189
O O1 0.208223 0.296057 0.305184
O O2 0.109464 0.920776 0.157733
O O3 0.223207 0.976710 0.001320
O O4 0.378789 0.785689 0.986172
O O5 0.008111 0.720813 0.213084
O O6 0.870563 0.205358 0.458786
O O7 0.893154 0.797734 0.134269
O O8 0.242585 0.836573 0.756687
O O9 0.104186 0.339903 0.104865
O O10 0.000000 0.000000 0.000000
O O11 0.512378 0.326520 0.787191
O O12 0.651731 0.575121 0.796517
O O13 0.504135 0.782036 0.093691
O O14 0.727610 0.565860 0.010109
O O15 0.557217 0.070782 0.348094
O O16 0.362967 0.557874 0.431380
O O17 0.500000 0.500000 0.500000
#
# Coordination Sequence:
#
# PCOD8008103 Si02
#       8
#     2   2   2   2   2   2   2   2
#     4  12  23  41  66  94 127 168 209 252 317 384
#     4  11  22  40  66  92 126 163 210 259 316 360
#     4  11  21  40  63  93 120 166 210 247 303 383
#     4  11  24  41  66  93 124 170 209 255 321 369
#     4  10  20  42  66  87 124 171 205 254 310 377
#     4  10  21  44  66  86 126 172 212 250 307 391
#     4  12  23  39  61  99 127 158 209 268 309 361
#     4  11  22  40  60  89 128 162 205 261 311 359
#
# _framework density 20.286052000000002
#
# number of rings (size 3 to 8) (size 9 to 14) (size 15 to 20)
#    0.000    1.000    5.000    3.750    0.000    0.500 
#    2.250    2.500    0.000    0.000    0.000    0.000 
#    0.000    0.000    0.000    0.000    0.000    0.000 
#
# Total GULP energy -198418.599282 kJ/mol
# GULP energy per Si atom -12401.162455 kJ/mol
# Density = 2.023988 g / cm^3
# Si number density = 20.286052 Si / 1000 Ang^3
#
#
#
# Elastic Constant Matrix: (Units=GPa)
#
#
# Indices 1 2 3 4 5 6 
#
# 1 89.3041 36.9680 9.6704 2.8542 0.9170 -10.0710
# 2 36.9680 119.4807 33.2349 6.9558 -6.2559 -10.2064
# 3 9.6704 33.2349 53.5769 10.1619 -6.9749 -8.8037
# 4 2.8542 6.9558 10.1619 26.9968 1.5058 -5.6391
# 5 0.9170 -6.2559 -6.9749 1.5058 37.8132 5.7003
# 6 -10.0710 -10.2064 -8.8037 -5.6391 5.7003 45.2181
#
#
#
# Elastic Compliance Matrix: (Units=1/GPa)
#
#
# Indices 1 2 3 4 5 6 
#
# 1 0.013089 -0.004018 0.000320 0.000069 -0.001263 0.002239
# 2 -0.004018 0.011407 -0.006156 -0.000167 0.000802 0.000360
# 3 0.000320 -0.006156 0.024646 -0.007480 0.003500 0.002106
# 4 0.000069 -0.000167 -0.007480 0.040951 -0.003656 0.004089
# 5 -0.001263 0.000802 0.003500 -0.003656 0.027912 -0.003394
# 6 0.002239 0.000360 0.002106 0.004089 -0.003394 0.024043
#
#
# Mechanical properties :
#
#
# Convention : Reuss Voigt Hill
#
# Bulk Modulus (GPa) = 33.97257 46.90093 40.43675
# Shear Modulus (GPa) = 29.14298 34.17152 31.65725
#
# Velocity S-wave (km/s) = 3.79437 4.10870 3.95466
# Velocity P-wave (km/s) = 5.99828 6.75859 6.38975
#
# Compressibility (1/GPa) = 0.02943551
#
# Stress axis : x y z
#
# Youngs Moduli (GPa) = 76.39719 87.66172 40.57421
#
# Poissons Ratio (x) = 0.35222 -0.01299
# Poissons Ratio (y) = 0.30696 0.24978
# Poissons Ratio (z) = -0.02446 0.53965
#
# Static dielectric constant tensor:
#      x y z
#    x 3.889690 -0.050060 0.001540 
#    y -0.050060 3.970690 0.217670 
#    z 0.001540 0.217670 3.528560 
# 
# 
# High freq. dielectric constant tensor:
#      x y z
#    x 1.815490 -0.003210 -0.002830 
#    y -0.003210 1.811370 0.015310 
#    z -0.002830 0.015310 1.759560 
# 
# From -- ./inp_files/355334.got.cif
#   From: 2010.06.25/outbox.cif.g09.slc.cpg/sg2_178_cif.got.tgz:355334.got - 2010.06.27 13:26:56.
