data_PCOD8008523
_publ_section_title
;
Structure prediction by ZEFSAII (Michael W. Deem and Ramdas Pophale) SiO2 
 PCOD8008523
Probable space group: P -1
;
_chemical_formula_sum "Si O2"
_cell_formula_units_Z 16
_cell_length_a 9.034696
_cell_length_b 13.939234
_cell_length_c 9.212146
_cell_angle_alpha 135.977399
_cell_angle_beta 100.711678
_cell_angle_gamma 98.627908
_cell_volume 720.593864
_symmetry_space_group_name_H-M "P -1"
_symmetry_group_IT_number 2
_symmetry_cell_setting 'triclinic'
loop_
_space_group_symop_operation_xyz
x,y,z
-x,-y,-z
loop_
_atom_site_type_symbol
_atom_site_label
_atom_site_fract_x
_atom_site_fract_y
_atom_site_fract_z
Si Si1 0.689220 0.572684 0.070103
Si Si2 0.765411 0.043530 0.953658
Si Si3 0.064920 0.359936 0.398220
Si Si4 0.140028 0.332836 0.078744
Si Si5 0.165386 0.609406 0.913320
Si Si6 0.527252 0.087313 0.751313
Si Si7 0.876282 0.831045 0.567615
Si Si8 0.215656 0.049681 0.828946
O O1 0.803884 0.498712 0.082252
O O2 0.754534 0.749388 0.323365
O O3 0.500000 0.500000 0.000000
O O4 0.713738 0.566341 0.894847
O O5 0.880747 0.224727 0.187219
O O6 0.718593 0.951392 0.996041
O O7 0.593876 0.011990 0.807643
O O8 0.861420 0.976491 0.791502
O O9 0.174938 0.411569 0.328507
O O10 0.072340 0.513645 0.645904
O O11 0.162853 0.294677 0.451444
O O12 0.960259 0.320572 0.974080
O O13 0.136863 0.168664 0.919286
O O14 0.345469 0.738870 0.054293
O O15 0.353213 0.078637 0.764568
O O16 0.500000 0.000000 0.500000
O O17 0.063537 0.885337 0.600490
#
# Coordination Sequence:
#
# PCOD8008523 Si02
#       8
#     2   2   2   2   2   2   2   2
#     4  11  27  45  63  99 142 182 220 280 337 402
#     4  11  21  45  70 102 134 173 228 279 339 396
#     4  10  20  43  73  98 129 175 229 283 321 400
#     4  12  22  43  75  95 129 179 232 274 334 401
#     4  11  25  47  66  99 139 180 228 273 339 395
#     4  12  28  43  67 101 145 174 220 283 335 406
#     4  10  21  42  73  96 136 174 226 274 337 405
#     4  11  23  43  70 103 129 175 231 277 340 394
#
# _framework density 22.20391
#
# number of rings (size 3 to 8) (size 9 to 14) (size 15 to 20)
#    0.000    1.000    3.750    2.625    5.250    0.500 
#    4.500    1.875    0.000    0.000    0.000    0.000 
#    0.000    0.000    0.000    0.000    0.000    0.000 
#
# Total GULP energy -198333.893540 kJ/mol
# GULP energy per Si atom -12395.868346 kJ/mol
# Density = 2.215337 g / cm^3
# Si number density = 22.203910 Si / 1000 Ang^3
#
#
#
# Elastic Constant Matrix: (Units=GPa)
#
#
# Indices 1 2 3 4 5 6 
#
# 1 118.6994 56.3387 58.7981 -1.6191 -13.0632 12.2354
# 2 56.3387 123.0037 59.6238 -11.8523 -13.2827 13.6506
# 3 58.7981 59.6238 123.1627 2.8551 -3.3214 0.6636
# 4 -1.6191 -11.8523 2.8551 31.5085 0.6994 -1.4556
# 5 -13.0632 -13.2827 -3.3214 0.6994 33.9418 -3.9876
# 6 12.2354 13.6506 0.6636 -1.4556 -3.9876 39.1437
#
#
#
# Elastic Compliance Matrix: (Units=1/GPa)
#
#
# Indices 1 2 3 4 5 6 
#
# 1 0.012674 -0.003069 -0.004465 -0.000281 0.002949 -0.002526
# 2 -0.003069 0.013028 -0.004860 0.004978 0.002985 -0.003012
# 3 -0.004465 -0.004860 0.012606 -0.003037 -0.002024 0.002558
# 4 -0.000281 0.004978 -0.003037 0.033841 0.000816 -0.000255
# 5 0.002949 0.002985 -0.002024 0.000816 0.031707 0.001332
# 6 -0.002526 -0.003012 0.002558 -0.000255 0.001332 0.027470
#
#
# Mechanical properties :
#
#
# Convention : Reuss Voigt Hill
#
# Bulk Modulus (GPa) = 73.97122 79.37635 76.67378
# Shear Modulus (GPa) = 31.12916 33.59250 32.36083
#
# Velocity S-wave (km/s) = 3.74835 3.89383 3.82178
# Velocity P-wave (km/s) = 7.21944 7.48614 7.35400
#
# Compressibility (1/GPa) = 0.01351877
#
# Stress axis : x y z
#
# Youngs Moduli (GPa) = 78.90002 76.75941 79.32664
#
# Poissons Ratio (x) = 0.23556 0.35423
# Poissons Ratio (y) = 0.24213 0.38556
# Poissons Ratio (z) = 0.35232 0.37308
#
# Static dielectric constant tensor:
#      x y z
#    x 3.919940 -0.201870 -0.125830 
#    y -0.201870 4.264380 -0.119850 
#    z -0.125830 -0.119850 4.067150 
# 
# 
# High freq. dielectric constant tensor:
#      x y z
#    x 1.864750 -0.015530 -0.007700 
#    y -0.015530 1.896960 -0.006040 
#    z -0.007700 -0.006040 1.865700 
# 
# From -- ./inp_files/209378.got.cif
#   From: 2010.06.25/outbox.cif.g09.slc.cpg/sg2_105_cif.got.tgz:209378.got - 2010.06.27 13:26:56.
