data_PCOD8008906
_publ_section_title
;
Structure prediction by ZEFSAII (Michael W. Deem and Ramdas Pophale) SiO2 
 PCOD8008906
Probable space group: P -1
;
_chemical_formula_sum "Si O2"
_cell_formula_units_Z 16
_cell_length_a 11.672608
_cell_length_b 9.655593
_cell_length_c 7.565593
_cell_angle_alpha 65.514238
_cell_angle_beta 96.369247
_cell_angle_gamma 93.836102
_cell_volume 771.004146
_symmetry_space_group_name_H-M "P -1"
_symmetry_group_IT_number 2
_symmetry_cell_setting 'triclinic'
loop_
_space_group_symop_operation_xyz
x,y,z
-x,-y,-z
loop_
_atom_site_type_symbol
_atom_site_label
_atom_site_fract_x
_atom_site_fract_y
_atom_site_fract_z
Si Si1 0.826049 0.922439 0.824556
Si Si2 0.585955 0.222188 0.934130
Si Si3 0.099886 0.882890 0.571402
Si Si4 0.704362 0.520488 0.728494
Si Si5 0.613912 0.720313 0.902293
Si Si6 0.053224 0.357042 0.182299
Si Si7 0.762710 0.988315 0.152069
Si Si8 0.637922 0.690678 0.304374
O O1 0.693481 0.869150 0.798404
O O2 0.910942 0.782860 0.865643
O O3 0.839097 0.076083 0.626176
O O4 0.848234 0.969088 0.008747
O O5 0.692176 0.343605 0.867832
O O6 0.493692 0.247623 0.746662
O O7 0.518936 0.236906 0.104234
O O8 0.644067 0.059159 0.020727
O O9 0.182813 0.906827 0.741760
O O10 0.043666 0.711848 0.661243
O O11 0.000000 0.000000 0.500000
O O12 0.618731 0.605036 0.802638
O O13 0.835577 0.579687 0.727845
O O14 0.654525 0.547892 0.509764
O O15 0.666247 0.643067 0.131583
O O16 0.000000 0.500000 0.000000
O O17 0.727139 0.824184 0.313376
#
# Coordination Sequence:
#
# PCOD8008906 Si02
#       8
#     2   2   2   2   2   2   2   2
#     4   9  20  38  61  82 112 151 184 227 287 340
#     4  10  21  35  58  87 117 147 185 228 275 336
#     4  10  21  38  60  83 108 151 192 231 282 329
#     4  11  19  39  58  79 115 155 184 229 282 331
#     4   8  19  34  56  84 113 146 186 219 279 337
#     4  10  21  38  61  84 112 146 194 240 277 325
#     4  11  20  39  57  85 119 145 184 235 280 330
#     4   9  20  34  57  82 114 152 179 225 278 334
#
# _framework density 20.752158999999999
#
# number of rings (size 3 to 8) (size 9 to 14) (size 15 to 20)
#    0.750    1.500    0.000    4.125    0.000    2.000 
#    2.250    6.250    0.000   15.750    0.000    0.000 
#    0.000    0.000    0.000    0.000    0.000    0.000 
#
# Total GULP energy -198229.492216 kJ/mol
# GULP energy per Si atom -12389.343264 kJ/mol
# Density = 2.070493 g / cm^3
# Si number density = 20.752159 Si / 1000 Ang^3
#
#
#
# Elastic Constant Matrix: (Units=GPa)
#
#
# Indices 1 2 3 4 5 6 
#
# 1 74.4834 15.8279 40.8374 -6.4340 -7.6151 6.8095
# 2 15.8279 39.6415 27.8089 -5.4088 -16.5888 2.3794
# 3 40.8374 27.8089 111.5031 -14.2605 -14.8499 -4.7791
# 4 -6.4340 -5.4088 -14.2605 32.8125 6.6537 -2.2424
# 5 -7.6151 -16.5888 -14.8499 6.6537 35.1240 -5.7906
# 6 6.8095 2.3794 -4.7791 -2.2424 -5.7906 25.7407
#
#
#
# Elastic Compliance Matrix: (Units=1/GPa)
#
#
# Indices 1 2 3 4 5 6 
#
# 1 0.017875 -0.002869 -0.006208 0.000157 -0.001099 -0.005850
# 2 -0.002869 0.036628 -0.006272 -0.000123 0.013939 -0.000666
# 3 -0.006208 -0.006272 0.013747 0.003754 0.001697 0.005483
# 4 0.000157 -0.000123 0.003754 0.033166 -0.004292 0.002590
# 5 -0.001099 0.013939 0.001697 -0.004292 0.037565 0.007394
# 6 -0.005850 -0.000666 0.005483 0.002590 0.007394 0.043365
#
#
# Mechanical properties :
#
#
# Convention : Reuss Voigt Hill
#
# Bulk Modulus (GPa) = 26.62998 43.84185 35.23592
# Shear Modulus (GPa) = 22.16681 28.14567 25.15624
#
# Velocity S-wave (km/s) = 3.27183 3.68676 3.48548
# Velocity P-wave (km/s) = 5.20897 6.26859 5.76319
#
# Compressibility (1/GPa) = 0.03755166
#
# Stress axis : x y z
#
# Youngs Moduli (GPa) = 55.94301 27.30169 72.74100
#
# Poissons Ratio (x) = 0.07834 0.45158
# Poissons Ratio (y) = 0.16052 0.45623
# Poissons Ratio (z) = 0.34730 0.17124
#
# Static dielectric constant tensor:
#      x y z
#    x 3.782890 0.065440 -0.588880 
#    y 0.065440 3.385630 -0.209610 
#    z -0.588880 -0.209610 3.998460 
# 
# 
# High freq. dielectric constant tensor:
#      x y z
#    x 1.810580 0.019960 -0.018750 
#    y 0.019960 1.783110 -0.009370 
#    z -0.018750 -0.009370 1.809340 
# 
# From -- ./inp_files/251658.got.cif
#   From: 2010.06.25/outbox.cif.g09.slc.cpg/sg2_126_cif.got.tgz:251658.got - 2010.06.27 13:26:56.
