data_PCOD8008770
_publ_section_title
;
Structure prediction by ZEFSAII (Michael W. Deem and Ramdas Pophale) SiO2 
 PCOD8008770
Probable space group: P -1
;
_chemical_formula_sum "Si O2"
_cell_formula_units_Z 16
_cell_length_a 11.930570
_cell_length_b 20.271480
_cell_length_c 14.460731
_cell_angle_alpha 25.491604
_cell_angle_beta 148.871958
_cell_angle_gamma 142.285598
_cell_volume 775.442542
_symmetry_space_group_name_H-M "P -1"
_symmetry_group_IT_number 2
_symmetry_cell_setting 'triclinic'
loop_
_space_group_symop_operation_xyz
x,y,z
-x,-y,-z
loop_
_atom_site_type_symbol
_atom_site_label
_atom_site_fract_x
_atom_site_fract_y
_atom_site_fract_z
Si Si1 0.808073 0.128577 0.129689
Si Si2 0.858199 0.669359 0.777431
Si Si3 0.049798 0.668868 0.711948
Si Si4 0.323395 0.977161 0.482909
Si Si5 0.113904 0.896036 0.982682
Si Si6 0.505581 0.055342 0.160531
Si Si7 0.373542 0.654908 0.399902
Si Si8 0.378175 0.379674 0.636061
O O1 0.857897 0.032416 0.193208
O O2 0.683809 0.015121 0.259969
O O3 0.032732 0.208182 0.228075
O O4 0.643736 0.257980 0.821889
O O5 0.607874 0.701991 0.549394
O O6 0.992472 0.687575 0.754763
O O7 0.866260 0.496812 0.040098
O O8 0.230703 0.800207 0.642705
O O9 0.842050 0.693324 0.471737
O O10 0.435828 0.021143 0.604806
O O11 0.500000 0.000000 0.500000
O O12 0.136739 0.092465 0.181906
O O13 0.185774 0.719436 0.252049
O O14 0.265115 0.990523 0.043294
O O15 0.520056 0.241874 0.942425
O O16 0.334518 0.473041 0.582226
O O17 0.500000 0.500000 0.500000
#
# Coordination Sequence:
#
# PCOD8008770 Si02
#       8
#     2   2   2   2   2   2   2   2
#     4  10  21  34  58 101 130 153 192 254 333 391
#     4  11  19  34  63  98 129 161 196 256 348 377
#     4  11  20  36  61  93 130 163 212 264 302 379
#     4  12  28  45  62  87 125 180 231 255 288 370
#     4  10  25  41  59  92 130 162 211 259 318 389
#     4  12  22  39  68  90 128 174 199 260 324 372
#     4  10  22  34  58  94 136 157 190 256 330 396
#     4  12  18  36  61  99 133 155 200 259 329 391
#
# _framework density 20.633379000000001
#
# number of rings (size 3 to 8) (size 9 to 14) (size 15 to 20)
#    0.750    0.250    6.250    1.125    1.750    1.000 
#    0.000    0.000    0.000    6.000    0.000    0.000 
#    0.000    0.000    0.000    0.000    0.000    0.000 
#
# Total GULP energy -198331.883141 kJ/mol
# GULP energy per Si atom -12395.742696 kJ/mol
# Density = 2.058642 g / cm^3
# Si number density = 20.633379 Si / 1000 Ang^3
#
#
#
# Elastic Constant Matrix: (Units=GPa)
#
#
# Indices 1 2 3 4 5 6 
#
# 1 76.9451 31.1006 18.0787 14.8536 14.3423 12.4109
# 2 31.1006 97.6118 31.7393 28.3169 -0.8552 -6.4350
# 3 18.0787 31.7393 82.0911 22.7998 16.0086 3.6530
# 4 14.8536 28.3169 22.7998 45.0976 -6.9434 -2.5175
# 5 14.3423 -0.8552 16.0086 -6.9434 26.7612 3.8166
# 6 12.4109 -6.4350 3.6530 -2.5175 3.8166 22.2094
#
#
#
# Elastic Compliance Matrix: (Units=1/GPa)
#
#
# Indices 1 2 3 4 5 6 
#
# 1 0.020730 -0.006493 0.003008 -0.006993 -0.013149 -0.012493
# 2 -0.006493 0.015583 -0.004686 -0.004139 0.004616 0.007652
# 3 0.003008 -0.004686 0.019493 -0.010553 -0.015479 -0.004781
# 4 -0.006993 -0.004139 -0.010553 0.035540 0.018392 0.005312
# 5 -0.013149 0.004616 -0.015479 0.018392 0.058119 0.003329
# 6 -0.012493 0.007652 -0.004781 0.005312 0.003329 0.055041
#
#
# Mechanical properties :
#
#
# Convention : Reuss Voigt Hill
#
# Bulk Modulus (GPa) = 25.33991 46.49837 35.91914
# Shear Modulus (GPa) = 21.36721 30.52894 25.94808
#
# Velocity S-wave (km/s) = 3.22151 3.85072 3.55008
# Velocity P-wave (km/s) = 5.11324 6.50808 5.85236
#
# Compressibility (1/GPa) = 0.03946344
#
# Stress axis : x y z
#
# Youngs Moduli (GPa) = 48.23890 64.17376 51.29954
#
# Poissons Ratio (x) = 0.41668 -0.15429
# Poissons Ratio (y) = 0.31321 0.24039
# Poissons Ratio (z) = -0.14508 0.30071
#
# Static dielectric constant tensor:
#      x y z
#    x 3.249710 -0.526750 0.119040 
#    y -0.526750 4.649690 0.115850 
#    z 0.119040 0.115850 3.958150 
# 
# 
# High freq. dielectric constant tensor:
#      x y z
#    x 1.742670 -0.033670 0.020940 
#    y -0.033670 1.810850 0.015920 
#    z 0.020940 0.015920 1.826800 
# 
# From -- ./inp_files/523912.got.cif
#   From: 2010.06.25/outbox.cif.g09.slc.cpg/sg2_262_cif.got.tgz:523912.got - 2010.06.27 13:26:56.
