data_PCOD8008493
_publ_section_title
;
Structure prediction by ZEFSAII (Michael W. Deem and Ramdas Pophale) SiO2 
 PCOD8008493
Probable space group: P -1
;
_chemical_formula_sum "Si O2"
_cell_formula_units_Z 16
_cell_length_a 8.814009
_cell_length_b 15.699772
_cell_length_c 8.937213
_cell_angle_alpha 141.667588
_cell_angle_beta 97.708883
_cell_angle_gamma 88.951836
_cell_volume 752.464385
_symmetry_space_group_name_H-M "P -1"
_symmetry_group_IT_number 2
_symmetry_cell_setting 'triclinic'
loop_
_space_group_symop_operation_xyz
x,y,z
-x,-y,-z
loop_
_atom_site_type_symbol
_atom_site_label
_atom_site_fract_x
_atom_site_fract_y
_atom_site_fract_z
Si Si1 0.736289 0.845675 0.682656
Si Si2 0.005913 0.355819 0.217487
Si Si3 0.526233 0.862427 0.221204
Si Si4 0.069026 0.850549 0.645677
Si Si5 0.598482 0.641238 0.150245
Si Si6 0.778783 0.860927 0.024429
Si Si7 0.948217 0.629507 0.097066
Si Si8 0.254743 0.850350 0.956331
O O1 0.622126 0.729422 0.425415
O O2 0.668443 0.855129 0.854471
O O3 0.913365 0.812296 0.671038
O O4 0.747304 0.987842 0.787665
O O5 0.862577 0.244371 0.086341
O O6 0.000000 0.500000 0.500000
O O7 0.161025 0.287911 0.171317
O O8 0.994335 0.381509 0.077224
O O9 0.507006 0.726585 0.138233
O O10 0.500000 0.000000 0.500000
O O11 0.697799 0.888349 0.208071
O O12 0.420896 0.824910 0.007619
O O13 0.212522 0.820406 0.731966
O O14 0.049532 0.761395 0.369567
O O15 0.087836 0.009380 0.811013
O O16 0.763430 0.623466 0.076019
O O17 0.500000 0.500000 0.000000
O O18 0.000000 0.500000 0.000000
#
# Coordination Sequence:
#
# PCOD8008493 Si02
#       8
#     2   2   2   2   2   2   2   2
#     4  10  20  43  71 101 134 176 234 290 344 412
#     4  12  25  43  71 104 139 178 234 292 348 418
#     4  12  27  46  67 107 144 184 236 282 349 431
#     4  10  21  41  75 103 131 176 236 297 347 402
#     4  11  26  47  68  98 147 187 229 292 353 415
#     4  11  23  44  71 101 137 181 231 287 354 412
#     4  11  26  44  70 102 136 182 238 288 355 417
#     4  11  22  43  70 100 139 175 228 292 342 415
#
# _framework density 21.263463999999999
#
# number of rings (size 3 to 8) (size 9 to 14) (size 15 to 20)
#    0.000    1.000    5.000    1.500    5.250    2.500 
#    4.500    1.250    0.000    0.000    0.000    0.000 
#    0.000    0.000    0.000    0.000    0.000    0.000 
#
# Total GULP energy -198236.788972 kJ/mol
# GULP energy per Si atom -12389.799311 kJ/mol
# Density = 2.121507 g / cm^3
# Si number density = 21.263464 Si / 1000 Ang^3
#
#
#
# Elastic Constant Matrix: (Units=GPa)
#
#
# Indices 1 2 3 4 5 6 
#
# 1 68.5670 44.4471 49.3522 -1.4132 -1.5652 -7.2931
# 2 44.4471 163.2275 82.0282 4.7124 -1.4689 -1.4598
# 3 49.3522 82.0282 169.0705 -1.1588 -1.7137 5.3873
# 4 -1.4132 4.7124 -1.1588 36.8920 0.0855 -3.3057
# 5 -1.5652 -1.4689 -1.7137 0.0855 38.5417 -3.7645
# 6 -7.2931 -1.4598 5.3873 -3.3057 -3.7645 41.0847
#
#
#
# Elastic Compliance Matrix: (Units=1/GPa)
#
#
# Indices 1 2 3 4 5 6 
#
# 1 0.020470 -0.003315 -0.004485 0.001450 0.000923 0.004305
# 2 -0.003315 0.008712 -0.003269 -0.001338 0.000060 0.000047
# 3 -0.004485 -0.003269 0.008877 0.000340 -0.000114 -0.002059
# 4 0.001450 -0.001338 0.000340 0.027558 0.000196 0.002401
# 5 0.000923 0.000060 -0.000114 0.000196 0.026234 0.002600
# 6 0.004305 0.000047 -0.002059 0.002401 0.002600 0.025807
#
#
# Mechanical properties :
#
#
# Convention : Reuss Voigt Hill
#
# Bulk Modulus (GPa) = 62.81263 83.61332 73.21297
# Shear Modulus (GPa) = 34.45839 38.30619 36.38229
#
# Velocity S-wave (km/s) = 4.02997 4.24902 4.14094
# Velocity P-wave (km/s) = 7.15950 7.96744 7.57425
#
# Compressibility (1/GPa) = 0.01592036
#
# Stress axis : x y z
#
# Youngs Moduli (GPa) = 48.85151 114.79000 112.65646
#
# Poissons Ratio (x) = 0.38058 0.50522
# Poissons Ratio (y) = 0.16196 0.36826
# Poissons Ratio (z) = 0.21908 0.37524
#
# Static dielectric constant tensor:
#      x y z
#    x 3.676420 -0.209940 -0.008150 
#    y -0.209940 3.895740 0.092190 
#    z -0.008150 0.092190 3.871130 
# 
# 
# High freq. dielectric constant tensor:
#      x y z
#    x 1.812490 -0.004190 0.001310 
#    y -0.004190 1.855700 -0.004760 
#    z 0.001310 -0.004760 1.835110 
# 
# From -- ./inp_files/209366.got.cif
#   From: 2010.06.25/outbox.cif.g09.slc.cpg/sg2_105_cif.got.tgz:209366.got - 2010.06.27 13:26:56.
