data_PCOD8008663
_publ_section_title
;
Structure prediction by ZEFSAII (Michael W. Deem and Ramdas Pophale) SiO2 
 PCOD8008663
Probable space group: P -1
;
_chemical_formula_sum "Si O2"
_cell_formula_units_Z 12
_cell_length_a 5.152817
_cell_length_b 20.512433
_cell_length_c 11.682784
_cell_angle_alpha 33.146281
_cell_angle_beta 86.626143
_cell_angle_gamma 75.451223
_cell_volume 626.190234
_symmetry_space_group_name_H-M "P -1"
_symmetry_group_IT_number 2
_symmetry_cell_setting 'triclinic'
loop_
_space_group_symop_operation_xyz
x,y,z
-x,-y,-z
loop_
_atom_site_type_symbol
_atom_site_label
_atom_site_fract_x
_atom_site_fract_y
_atom_site_fract_z
Si Si1 0.725610 0.983748 0.173872
Si Si2 0.663718 0.146353 0.727812
Si Si3 0.133022 0.657620 0.826128
Si Si4 0.684235 0.625836 0.727811
Si Si5 0.942303 0.149185 0.257444
Si Si6 0.498117 0.093371 0.257444
O O1 0.680030 0.017368 0.258334
O O2 0.476448 0.940291 0.206110
O O3 0.704450 0.109574 0.914734
O O4 0.036292 0.876506 0.305531
O O5 0.455448 0.294552 0.500000
O O6 0.436859 0.646402 0.793888
O O7 0.026899 0.775702 0.741668
O O8 0.905164 0.682037 0.694469
O O9 0.161671 0.524307 0.085266
O O10 0.631157 0.199023 0.137408
O O11 0.166611 0.163569 0.137408
O O12 0.000000 0.000000 0.500000
O O13 0.500000 0.000000 0.500000
#
# Coordination Sequence:
#
# PCOD8008663 Si02
#       6
#     2   2   2   2   2   2
#     4  10  21  36  51  82 111 135 190 215 272 326
#     4  10  21  34  57  76 106 150 171 234 265 313
#     4  10  21  36  51  82 111 135 190 215 272 326
#     4  10  21  34  57  76 106 150 171 234 265 313
#     4  10  21  32  50  78 105 146 167 221 273 315
#     4  10  21  32  50  78 105 146 167 221 273 315
#
# _framework density 19.163502999999999
#
# number of rings (size 3 to 8) (size 9 to 14) (size 15 to 20)
#    0.000    2.000    0.000    3.000   14.000    0.000 
#    0.000    0.000    0.000    2.000    0.000    0.000 
#    0.000    0.000    0.000    0.000    0.000    0.000 
#
# Total GULP energy -148667.750320 kJ/mol
# GULP energy per Si atom -12388.979193 kJ/mol
# Density = 1.911989 g / cm^3
# Si number density = 19.163503 Si / 1000 Ang^3
#
#
#
# Elastic Constant Matrix: (Units=GPa)
#
#
# Indices 1 2 3 4 5 6 
#
# 1 153.0221 30.9256 17.1187 -0.6189 -7.3716 -2.0503
# 2 30.9256 95.6682 33.2641 0.0455 -7.6625 -0.4636
# 3 17.1187 33.2641 84.3699 -0.3533 14.7327 1.4025
# 4 -0.6189 0.0455 -0.3533 24.9520 0.9574 -5.6048
# 5 -7.3716 -7.6625 14.7327 0.9574 28.3173 -0.1407
# 6 -2.0503 -0.4636 1.4025 -5.6048 -0.1407 27.8375
#
#
#
# Elastic Compliance Matrix: (Units=1/GPa)
#
#
# Indices 1 2 3 4 5 6 
#
# 1 0.007116 -0.001760 -0.001098 0.000226 0.001943 0.000605
# 2 -0.001760 0.013691 -0.006179 -0.000320 0.006474 0.000378
# 3 -0.001098 -0.006179 0.016361 0.000398 -0.010488 -0.000981
# 4 0.000226 -0.000320 0.000398 0.042049 -0.001614 0.008449
# 5 0.001943 0.006474 -0.010488 -0.001614 0.043086 0.000672
# 6 0.000605 0.000378 -0.000981 0.008449 0.000672 0.037728
#
#
# Mechanical properties :
#
#
# Convention : Reuss Voigt Hill
#
# Bulk Modulus (GPa) = 52.37373 55.07523 53.72448
# Shear Modulus (GPa) = 27.10485 33.00483 30.05484
#
# Velocity S-wave (km/s) = 3.76493 4.15453 3.96452
# Velocity P-wave (km/s) = 6.80359 7.19830 7.00373
#
# Compressibility (1/GPa) = 0.01909354
#
# Stress axis : x y z
#
# Youngs Moduli (GPa) = 140.52430 73.04305 61.12132
#
# Poissons Ratio (x) = 0.12856 0.06714
# Poissons Ratio (y) = 0.24732 0.37765
# Poissons Ratio (z) = 0.15435 0.45131
#
# Static dielectric constant tensor:
#      x y z
#    x -0.684800 0.099130 -0.106680 
#    y 0.099130 3.176000 0.017600 
#    z -0.106680 0.017600 3.574150 
# 
# 
# High freq. dielectric constant tensor:
#      x y z
#    x 1.792090 -0.002470 -0.004150 
#    y -0.002470 1.705520 0.000460 
#    z -0.004150 0.000460 1.714790 
# 
# From -- ./inp_files/64439.got.cif
#   From: 2010.06.25/outbox.cif.g09.slc.cpg/sg2_33_cif.got.tgz:64439.got - 2010.06.27 13:26:56.
