data_PCOD8008131
_publ_section_title
;
Structure prediction by ZEFSAII (Michael W. Deem and Ramdas Pophale) SiO2 
 PCOD8008131
Probable space group: P -1
;
_chemical_formula_sum "Si O2"
_cell_formula_units_Z 16
_cell_length_a 8.863901
_cell_length_b 13.935888
_cell_length_c 8.213125
_cell_angle_alpha 51.920602
_cell_angle_beta 66.853121
_cell_angle_gamma 88.772445
_cell_volume 699.240048
_symmetry_space_group_name_H-M "P -1"
_symmetry_group_IT_number 2
_symmetry_cell_setting 'triclinic'
loop_
_space_group_symop_operation_xyz
x,y,z
-x,-y,-z
loop_
_atom_site_type_symbol
_atom_site_label
_atom_site_fract_x
_atom_site_fract_y
_atom_site_fract_z
Si Si1 0.426288 0.439165 0.264969
Si Si2 0.660020 0.161585 0.190697
Si Si3 0.399833 0.698536 0.439821
Si Si4 0.922507 0.049602 0.325028
Si Si5 0.440469 0.969269 0.240111
Si Si6 0.279190 0.178291 0.056080
Si Si7 0.689441 0.795867 0.627215
Si Si8 0.808361 0.405916 0.660225
O O1 0.576579 0.415450 0.338610
O O2 0.291351 0.302336 0.416023
O O3 0.329441 0.521755 0.315546
O O4 0.500000 0.500000 0.000000
O O5 0.774090 0.121793 0.326566
O O6 0.501936 0.189767 0.318378
O O7 0.595276 0.039180 0.224879
O O8 0.779990 0.283927 0.916420
O O9 0.379738 0.814333 0.439833
O O10 0.229549 0.642276 0.459935
O O11 0.566992 0.746393 0.202290
O O12 0.095338 0.152518 0.068117
O O13 0.839482 0.924986 0.379850
O O14 0.000000 0.000000 0.500000
O O15 0.292397 0.038252 0.258976
O O16 0.500000 0.000000 0.000000
O O17 0.288253 0.253843 0.145373
O O18 0.000000 0.500000 0.500000
#
# Coordination Sequence:
#
# PCOD8008131 Si02
#       8
#     2   2   2   2   2   2   2   2
#     4  12  25  45  67  95 131 183 228 265 326 394
#     4  11  20  42  67  93 138 168 217 267 337 386
#     4  11  22  44  69  95 128 177 222 276 332 390
#     4  10  22  35  62 103 130 164 210 272 335 390
#     4   9  17  37  69  93 121 164 208 270 333 385
#     4   9  19  39  66  99 135 165 213 274 339 395
#     4  10  20  42  66  94 133 176 216 269 331 396
#     4  12  27  46  68  97 129 180 229 275 318 392
#
# _framework density 22.881985
#
# number of rings (size 3 to 8) (size 9 to 14) (size 15 to 20)
#    0.000    1.500    5.000    1.500    1.750    3.000 
#    2.250    5.000    0.000    0.000    0.000    0.000 
#    0.000    0.000    0.000    0.000    0.000    0.000 
#
# Total GULP energy -198227.530993 kJ/mol
# GULP energy per Si atom -12389.220687 kJ/mol
# Density = 2.282990 g / cm^3
# Si number density = 22.881985 Si / 1000 Ang^3
#
#
#
# Elastic Constant Matrix: (Units=GPa)
#
#
# Indices 1 2 3 4 5 6 
#
# 1 131.9487 23.6068 47.2638 -19.3605 3.5936 19.3317
# 2 23.6068 102.8088 17.8245 -15.5498 6.6158 12.0242
# 3 47.2638 17.8245 75.9053 -11.3392 17.3021 15.6621
# 4 -19.3605 -15.5498 -11.3392 29.3706 3.9813 -1.4661
# 5 3.5936 6.6158 17.3021 3.9813 45.5543 -10.0249
# 6 19.3317 12.0242 15.6621 -1.4661 -10.0249 29.0665
#
#
#
# Elastic Compliance Matrix: (Units=1/GPa)
#
#
# Indices 1 2 3 4 5 6 
#
# 1 0.010746 -0.000381 -0.004979 0.004784 -0.000232 -0.004145
# 2 -0.000381 0.011586 0.000464 0.006269 -0.003637 -0.005728
# 3 -0.004979 0.000464 0.022354 0.006526 -0.011500 -0.012563
# 4 0.004784 0.006269 0.006526 0.043859 -0.009909 -0.010497
# 5 -0.000232 -0.003637 -0.011500 -0.009909 0.031761 0.018310
# 6 -0.004145 -0.005728 -0.012563 -0.010497 0.018310 0.052085
#
#
# Mechanical properties :
#
#
# Convention : Reuss Voigt Hill
#
# Bulk Modulus (GPa) = 28.65829 54.22811 41.44320
# Shear Modulus (GPa) = 25.79794 35.59613 30.69703
#
# Velocity S-wave (km/s) = 3.36137 3.94844 3.66667
# Velocity P-wave (km/s) = 5.25516 6.67363 6.00642
#
# Compressibility (1/GPa) = 0.03489392
#
# Stress axis : x y z
#
# Youngs Moduli (GPa) = 93.05928 86.31115 44.73508
#
# Poissons Ratio (x) = 0.03288 0.22273
# Poissons Ratio (y) = 0.03545 -0.02075
# Poissons Ratio (z) = 0.46333 -0.04004
#
# Static dielectric constant tensor:
#      x y z
#    x 5.463480 -0.383650 -0.516870 
#    y -0.383650 4.951340 0.040580 
#    z -0.516870 0.040580 4.656470 
# 
# 
# High freq. dielectric constant tensor:
#      x y z
#    x 1.898020 0.013010 0.014300 
#    y 0.013010 1.903540 -0.006630 
#    z 0.014300 -0.006630 1.902390 
# 
# From -- ./inp_files/199506.got.cif
#   From: 2010.06.25/outbox.cif.g09.slc.cpg/sg2_100_cif.got.tgz:199506.got - 2010.06.27 13:26:56.
