data_PCOD8008144
_publ_section_title
;
Structure prediction by ZEFSAII (Michael W. Deem and Ramdas Pophale) SiO2 
 PCOD8008144
Probable space group: P -1
;
_chemical_formula_sum "Si O2"
_cell_formula_units_Z 16
_cell_length_a 8.739200
_cell_length_b 14.232106
_cell_length_c 11.793968
_cell_angle_alpha 105.169023
_cell_angle_beta 84.852457
_cell_angle_gamma 149.715897
_cell_volume 685.426231
_symmetry_space_group_name_H-M "P -1"
_symmetry_group_IT_number 2
_symmetry_cell_setting 'triclinic'
loop_
_space_group_symop_operation_xyz
x,y,z
-x,-y,-z
loop_
_atom_site_type_symbol
_atom_site_label
_atom_site_fract_x
_atom_site_fract_y
_atom_site_fract_z
Si Si1 0.162507 0.325788 0.616722
Si Si2 0.121224 0.440285 0.865009
Si Si3 0.727575 0.499171 0.559460
Si Si4 0.888267 0.155732 0.955511
Si Si5 0.706609 0.907449 0.500016
Si Si6 0.743519 0.155173 0.203342
Si Si7 0.514606 0.845372 0.245167
Si Si8 0.249573 0.169084 0.946323
O O1 0.225102 0.427019 0.752393
O O2 0.462050 0.422969 0.605395
O O3 0.117301 0.369464 0.522614
O O4 0.845185 0.086977 0.594314
O O5 0.993612 0.314020 0.943317
O O6 0.858183 0.373737 0.825731
O O7 0.424890 0.665415 0.957332
O O8 0.568371 0.304463 0.479866
O O9 0.993218 0.634125 0.683170
O O10 0.153879 0.223291 0.927045
O O11 0.540585 0.935216 0.857743
O O12 0.882700 0.167275 0.095052
O O13 0.550525 0.846672 0.373628
O O14 0.000000 0.000000 0.500000
O O15 0.612817 0.009399 0.261049
O O16 0.742471 0.895163 0.183480
O O17 0.000000 0.000000 0.000000
#
# Coordination Sequence:
#
# PCOD8008144 Si02
#       8
#     2   2   2   2   2   2   2   2
#     4  10  22  43  67  96 136 175 234 272 343 403
#     4  11  26  44  67  98 136 185 217 281 342 403
#     4  10  21  39  70  98 132 180 222 287 337 398
#     4  10  23  40  65  99 133 183 223 267 342 409
#     4  10  23  40  66 100 128 178 226 281 333 403
#     4  10  20  42  66  97 140 180 218 280 342 399
#     4  11  24  44  66  98 141 175 225 282 341 398
#     4  12  25  41  66 100 134 174 228 280 332 403
#
# _framework density 23.343138
#
# number of rings (size 3 to 8) (size 9 to 14) (size 15 to 20)
#    0.000    1.500    2.500    1.500    5.250    1.500 
#    0.000    0.625    0.000    0.000    0.000    0.000 
#    0.000    0.000    0.000    0.000    0.000    0.000 
#
# Total GULP energy -198319.813296 kJ/mol
# GULP energy per Si atom -12394.988331 kJ/mol
# Density = 2.329001 g / cm^3
# Si number density = 23.343138 Si / 1000 Ang^3
#
#
#
# Elastic Constant Matrix: (Units=GPa)
#
#
# Indices 1 2 3 4 5 6 
#
# 1 65.6663 4.1087 2.6472 -4.1746 14.1962 6.4858
# 2 4.1087 89.8025 13.9026 15.8023 8.4295 -5.0208
# 3 2.6472 13.9026 45.3528 8.3801 15.1218 -2.9020
# 4 -4.1746 15.8023 8.3801 35.7931 5.5493 3.4174
# 5 14.1962 8.4295 15.1218 5.5493 40.2224 0.5330
# 6 6.4858 -5.0208 -2.9020 3.4174 0.5330 34.1385
#
#
#
# Elastic Compliance Matrix: (Units=1/GPa)
#
#
# Indices 1 2 3 4 5 6 
#
# 1 0.017294 -0.001132 0.000598 0.003745 -0.006559 -0.003674
# 2 -0.001132 0.012696 -0.002485 -0.005288 -0.000629 0.002410
# 3 0.000598 -0.002485 0.026720 -0.003880 -0.009231 0.002325
# 4 0.003745 -0.005288 -0.003880 0.032592 -0.003185 -0.005032
# 5 -0.006559 -0.000629 -0.009231 -0.003185 0.031216 0.000200
# 6 -0.003674 0.002410 0.002325 -0.005032 0.000200 0.031043
#
#
# Mechanical properties :
#
#
# Convention : Reuss Voigt Hill
#
# Bulk Modulus (GPa) = 19.73498 26.90429 23.31963
# Shear Modulus (GPa) = 28.65474 34.04167 31.34820
#
# Velocity S-wave (km/s) = 3.50743 3.82293 3.66858
# Velocity P-wave (km/s) = 4.98753 5.57109 5.28736
#
# Compressibility (1/GPa) = 0.05067145
#
# Stress axis : x y z
#
# Youngs Moduli (GPa) = 57.82281 78.76228 37.42552
#
# Poissons Ratio (x) = 0.08920 -0.02237
# Poissons Ratio (y) = 0.06548 0.09299
# Poissons Ratio (z) = -0.03456 0.19570
#
# Static dielectric constant tensor:
#      x y z
#    x 8.624620 2.379910 1.161050 
#    y 2.379910 5.821400 0.710750 
#    z 1.161050 0.710750 4.320010 
# 
# 
# High freq. dielectric constant tensor:
#      x y z
#    x 1.920830 0.003590 0.017960 
#    y 0.003590 1.928240 0.002900 
#    z 0.017960 0.002900 1.918160 
# 
# From -- ./inp_files/272548.got.cif
#   From: 2010.06.25/outbox.cif.g09.slc.cpg/sg2_137_cif.got.tgz:272548.got - 2010.06.27 13:26:56.
