data_PCOD8008449
_publ_section_title
;
Structure prediction by ZEFSAII (Michael W. Deem and Ramdas Pophale) SiO2 
 PCOD8008449
Probable space group: P -1
;
_chemical_formula_sum "Si O2"
_cell_formula_units_Z 16
_cell_length_a 9.690211
_cell_length_b 8.559155
_cell_length_c 11.780844
_cell_angle_alpha 70.623694
_cell_angle_beta 73.369866
_cell_angle_gamma 115.314621
_cell_volume 720.669634
_symmetry_space_group_name_H-M "P -1"
_symmetry_group_IT_number 2
_symmetry_cell_setting 'triclinic'
loop_
_space_group_symop_operation_xyz
x,y,z
-x,-y,-z
loop_
_atom_site_type_symbol
_atom_site_label
_atom_site_fract_x
_atom_site_fract_y
_atom_site_fract_z
Si Si1 0.001345 0.784263 0.402692
Si Si2 0.476372 0.902299 0.409466
Si Si3 0.103179 0.683801 0.088516
Si Si4 0.077825 0.596486 0.605929
Si Si5 0.275620 0.067255 0.104077
Si Si6 0.324656 0.290003 0.620847
Si Si7 0.774138 0.665743 0.115046
Si Si8 0.406411 0.740329 0.866286
O O1 0.024483 0.620073 0.379072
O O2 0.818380 0.756407 0.429886
O O3 0.026107 0.749418 0.538374
O O4 0.156784 0.000859 0.262500
O O5 0.283174 0.692023 0.510655
O O6 0.632675 0.876145 0.355014
O O7 0.500000 0.000000 0.500000
O O8 0.486663 0.045323 0.274558
O O9 0.240427 0.872410 0.092630
O O10 0.983633 0.464434 0.234253
O O11 0.970222 0.722445 0.050705
O O12 0.212344 0.665791 0.969411
O O13 0.478309 0.224769 0.057405
O O14 0.224852 0.181351 0.006387
O O15 0.500000 0.500000 0.500000
O O16 0.258397 0.296598 0.758491
O O17 0.622649 0.435047 0.168104
#
# Coordination Sequence:
#
# PCOD8008449 Si02
#       8
#     2   2   2   2   2   2   2   2
#     4  10  21  40  69  97 132 174 223 277 327 398
#     4  12  25  43  69  99 135 173 222 280 332 402
#     4  11  23  43  70 101 129 182 225 271 331 401
#     4  10  20  43  68  96 138 170 218 276 335 395
#     4  11  23  43  68  96 135 175 226 276 333 393
#     4  12  23  42  69  98 128 179 228 271 334 400
#     4  12  25  44  67  97 137 175 222 283 331 394
#     4  12  26  43  65 101 138 177 224 272 341 394
#
# _framework density 22.201574000000001
#
# number of rings (size 3 to 8) (size 9 to 14) (size 15 to 20)
#    0.000    0.750    5.000    3.750    1.750    1.000 
#    0.000    1.875    0.000    0.000    0.000    0.000 
#    0.000    0.000    0.000    0.000    0.000    0.000 
#
# Total GULP energy -198384.301867 kJ/mol
# GULP energy per Si atom -12399.018867 kJ/mol
# Density = 2.215104 g / cm^3
# Si number density = 22.201574 Si / 1000 Ang^3
#
#
#
# Elastic Constant Matrix: (Units=GPa)
#
#
# Indices 1 2 3 4 5 6 
#
# 1 148.9694 21.7064 50.0961 3.0831 8.4898 0.4342
# 2 21.7064 65.2261 8.2890 2.2311 -4.1457 -2.9776
# 3 50.0961 8.2890 121.4253 -11.9537 4.9209 -14.7986
# 4 3.0831 2.2311 -11.9537 29.1808 0.0906 2.7024
# 5 8.4898 -4.1457 4.9209 0.0906 39.9835 -6.1442
# 6 0.4342 -2.9776 -14.7986 2.7024 -6.1442 24.2170
#
#
#
# Elastic Compliance Matrix: (Units=1/GPa)
#
#
# Indices 1 2 3 4 5 6 
#
# 1 0.008548 -0.002563 -0.003843 -0.001986 -0.002083 -0.003124
# 2 -0.002563 0.016526 0.000055 -0.001251 0.002705 0.002937
# 3 -0.003843 0.000055 0.011008 0.004314 0.000446 0.006434
# 4 -0.001986 -0.001251 0.004314 0.036501 -0.000583 -0.001703
# 5 -0.002083 0.002705 0.000446 -0.000583 0.026835 0.007516
# 6 -0.003124 0.002937 0.006434 -0.001703 0.007516 0.047739
#
#
# Mechanical properties :
#
#
# Convention : Reuss Voigt Hill
#
# Bulk Modulus (GPa) = 42.77503 55.08931 48.93217
# Shear Modulus (GPa) = 29.82334 35.71154 32.76744
#
# Velocity S-wave (km/s) = 3.66908 4.01498 3.84592
# Velocity P-wave (km/s) = 6.10393 6.80886 6.46601
#
# Compressibility (1/GPa) = 0.02337813
#
# Stress axis : x y z
#
# Youngs Moduli (GPa) = 116.99130 60.51000 90.84130
#
# Poissons Ratio (x) = 0.15510 0.34913
# Poissons Ratio (y) = 0.29988 -0.00496
# Poissons Ratio (z) = 0.44963 -0.00330
#
# Static dielectric constant tensor:
#      x y z
#    x 4.248740 -0.491380 0.431580 
#    y -0.491380 4.178460 -0.205830 
#    z 0.431580 -0.205830 4.726850 
# 
# 
# High freq. dielectric constant tensor:
#      x y z
#    x 1.882770 0.008860 0.010980 
#    y 0.008860 1.855560 -0.015290 
#    z 0.010980 -0.015290 1.882570 
# 
# From -- ./inp_files/223391.got.cif
#   From: 2010.06.25/outbox.cif.g09.slc.cpg/sg2_112_cif.got.tgz:223391.got - 2010.06.27 13:26:56.
