data_PCOD8008759
_publ_section_title
;
Structure prediction by ZEFSAII (Michael W. Deem and Ramdas Pophale) SiO2 
 PCOD8008759
Probable space group: P -1
;
_chemical_formula_sum "Si O2"
_cell_formula_units_Z 14
_cell_length_a 15.109504
_cell_length_b 11.705674
_cell_length_c 15.105802
_cell_angle_alpha 126.693051
_cell_angle_beta 19.423411
_cell_angle_gamma 127.421118
_cell_volume 702.586036
_symmetry_space_group_name_H-M "P -1"
_symmetry_group_IT_number 2
_symmetry_cell_setting 'triclinic'
loop_
_space_group_symop_operation_xyz
x,y,z
-x,-y,-z
loop_
_atom_site_type_symbol
_atom_site_label
_atom_site_fract_x
_atom_site_fract_y
_atom_site_fract_z
Si Si1 0.104617 0.101268 0.568185
Si Si2 0.142668 0.210985 0.332607
Si Si3 0.043513 0.534321 0.258615
Si Si4 0.592683 0.213502 0.036240
Si Si5 0.207511 0.416813 0.218977
Si Si6 0.805941 0.689718 0.267508
Si Si7 0.232060 0.588110 0.703643
O O1 0.387125 0.179503 0.296315
O O2 0.092642 0.162479 0.706783
O O3 0.090423 0.928928 0.507032
O O4 0.846727 0.128693 0.765575
O O5 0.425767 0.170336 0.083004
O O6 0.179793 0.258055 0.216085
O O7 0.066357 0.340981 0.524087
O O8 0.150641 0.417277 0.167470
O O9 0.813603 0.446413 0.373173
O O10 0.286020 0.614600 0.003627
O O11 0.000000 0.500000 0.500000
O O12 0.500000 0.500000 0.000000
O O13 0.519209 0.688696 0.491363
O O14 0.790643 0.561698 0.292951
O O15 0.014308 0.679729 0.987931
#
# Coordination Sequence:
#
# PCOD8008759 Si02
#       7
#     2   2   2   2   2   2   2
#     4  12  25  36  57  86 122 153 183 223 292 347
#     4  11  24  39  59  84 121 151 186 231 283 348
#     4  11  23  38  60  87 114 147 194 236 285 326
#     4  12  22  35  56  88 118 150 177 231 287 345
#     4  10  22  38  58  81 113 150 191 233 275 329
#     4  10  21  36  52  81 111 150 185 226 279 334
#     4  10  21  34  57  77 113 144 189 234 273 326
#
# _framework density 19.926385
#
# number of rings (size 3 to 8) (size 9 to 14) (size 15 to 20)
#    0.000    1.143    4.286    1.714    8.000    0.000 
#    0.000    0.000    0.000    1.714    0.000    0.000 
#    0.000    0.000    0.000    0.000    0.000    0.000 
#
# Total GULP energy -173550.235088 kJ/mol
# GULP energy per Si atom -12396.445363 kJ/mol
# Density = 1.988103 g / cm^3
# Si number density = 19.926385 Si / 1000 Ang^3
#
#
#
# Elastic Constant Matrix: (Units=GPa)
#
#
# Indices 1 2 3 4 5 6 
#
# 1 137.2653 65.0799 34.8597 -8.6699 -6.8268 0.3621
# 2 65.0799 82.0272 27.4874 -8.8551 5.1436 0.6096
# 3 34.8597 27.4874 105.7383 -15.9571 -9.3979 -4.0725
# 4 -8.6699 -8.8551 -15.9571 21.6498 6.9354 5.8935
# 5 -6.8268 5.1436 -9.3979 6.9354 24.1390 -8.0126
# 6 0.3621 0.6096 -4.0725 5.8935 -8.0126 24.3992
#
#
#
# Elastic Compliance Matrix: (Units=1/GPa)
#
#
# Indices 1 2 3 4 5 6 
#
# 1 0.012736 -0.010548 -0.001179 -0.003280 0.007357 0.003086
# 2 -0.010548 0.023583 -0.002716 0.010409 -0.014798 -0.008260
# 3 -0.001179 -0.002716 0.011781 0.005236 0.004028 0.002110
# 4 -0.003280 0.010409 0.005236 0.069547 -0.029680 -0.025883
# 5 0.007357 -0.014798 0.004028 -0.029680 0.066718 0.030012
# 6 0.003086 -0.008260 0.002110 -0.025883 0.030012 0.057605
#
#
# Mechanical properties :
#
#
# Convention : Reuss Voigt Hill
#
# Bulk Modulus (GPa) = 52.04239 64.43163 58.23701
# Shear Modulus (GPa) = 18.03352 27.21119 22.62235
#
# Velocity S-wave (km/s) = 3.01160 3.69939 3.37307
# Velocity P-wave (km/s) = 6.18603 7.11705 6.66781
#
# Compressibility (1/GPa) = 0.01921511
#
# Stress axis : x y z
#
# Youngs Moduli (GPa) = 78.51608 42.40363 84.87991
#
# Poissons Ratio (x) = 0.44728 0.10007
# Poissons Ratio (y) = 0.82820 0.23049
# Poissons Ratio (z) = 0.09257 0.11515
#
# Static dielectric constant tensor:
#      x y z
#    x 4.049160 -0.275620 -0.105460 
#    y -0.275620 3.610710 -0.200560 
#    z -0.105460 -0.200560 3.755230 
# 
# 
# High freq. dielectric constant tensor:
#      x y z
#    x 1.769650 0.005050 -0.011880 
#    y 0.005050 1.739420 -0.015010 
#    z -0.011880 -0.015010 1.787810 
# 
# From -- ./inp_files/74260.got.cif
#   From: 2010.06.25/outbox.cif.g09.slc.cpg/sg2_38_cif.got.tgz:74260.got - 2010.06.27 13:26:56.
