data_PCOD8008764
_publ_section_title
;
Structure prediction by ZEFSAII (Michael W. Deem and Ramdas Pophale) SiO2 
 PCOD8008764
Probable space group: P -1
;
_chemical_formula_sum "Si O2"
_cell_formula_units_Z 14
_cell_length_a 18.470762
_cell_length_b 9.819169
_cell_length_c 7.403105
_cell_angle_alpha 49.518785
_cell_angle_beta 128.921198
_cell_angle_gamma 135.259702
_cell_volume 682.947206
_symmetry_space_group_name_H-M "P -1"
_symmetry_group_IT_number 2
_symmetry_cell_setting 'triclinic'
loop_
_space_group_symop_operation_xyz
x,y,z
-x,-y,-z
loop_
_atom_site_type_symbol
_atom_site_label
_atom_site_fract_x
_atom_site_fract_y
_atom_site_fract_z
Si Si1 0.421774 0.289528 0.257619
Si Si2 0.165008 0.699444 0.617523
Si Si3 0.851432 0.659412 0.318358
Si Si4 0.813252 0.016186 0.926134
Si Si5 0.955529 0.294800 0.222267
Si Si6 0.610008 0.374640 0.221517
Si Si7 0.406086 0.965799 0.753697
O O1 0.316701 0.110943 0.138143
O O2 0.534472 0.346070 0.295188
O O3 0.420926 0.190524 0.535387
O O4 0.412582 0.496353 0.081120
O O5 0.130673 0.465507 0.707529
O O6 0.089543 0.685479 0.673200
O O7 0.288010 0.821561 0.779849
O O8 0.151237 0.811896 0.322753
O O9 0.735582 0.507270 0.364476
O O10 0.944034 0.737362 0.549212
O O11 0.853398 0.858996 0.062619
O O12 0.864005 0.107850 0.122064
O O13 0.000000 0.500000 0.000000
O O14 0.583978 0.150015 0.307442
O O15 0.500000 0.000000 0.000000
#
# Coordination Sequence:
#
# PCOD8008764 Si02
#       7
#     2   2   2   2   2   2   2
#     4   9  19  37  60  83 115 150 188 236 290 337
#     4  10  23  43  58  86 123 155 192 250 294 340
#     4  10  21  41  61  86 122 157 198 236 296 349
#     4  10  22  41  63  88 117 158 197 241 292 351
#     4  12  24  39  64  88 119 155 199 246 292 348
#     4   9  19  36  60  83 114 152 187 237 283 342
#     4  10  21  34  57  85 116 149 190 232 290 349
#
# _framework density 20.499388
#
# number of rings (size 3 to 8) (size 9 to 14) (size 15 to 20)
#    0.000    2.000    1.429    1.286    2.000    2.286 
#    2.571    0.000    0.000    0.000    0.000    0.000 
#    0.000    0.000    0.000    0.000    0.000    0.000 
#
# Total GULP energy -173535.520372 kJ/mol
# GULP energy per Si atom -12395.394312 kJ/mol
# Density = 2.045273 g / cm^3
# Si number density = 20.499388 Si / 1000 Ang^3
#
#
#
# Elastic Constant Matrix: (Units=GPa)
#
#
# Indices 1 2 3 4 5 6 
#
# 1 108.8479 32.5613 41.1703 9.5590 6.8867 6.1439
# 2 32.5613 72.7766 34.2167 1.4842 6.3909 -0.4017
# 3 41.1703 34.2167 86.7117 11.8015 21.6941 8.3187
# 4 9.5590 1.4842 11.8015 36.0706 3.6941 14.8958
# 5 6.8867 6.3909 21.6941 3.6941 33.0641 3.5402
# 6 6.1439 -0.4017 8.3187 14.8958 3.5402 29.2604
#
#
#
# Elastic Compliance Matrix: (Units=1/GPa)
#
#
# Indices 1 2 3 4 5 6 
#
# 1 0.011942 -0.003362 -0.004403 -0.001413 0.001288 -0.000739
# 2 -0.003362 0.018015 -0.006085 0.001250 0.000863 0.001942
# 3 -0.004403 -0.006085 0.019092 -0.003059 -0.009895 -0.001832
# 4 -0.001413 0.001250 -0.003059 0.036170 -0.000138 -0.017213
# 5 0.001288 0.000863 -0.009895 -0.000138 0.036509 -0.001792
# 6 -0.000739 0.001942 -0.001832 -0.017213 -0.001792 0.043858
#
#
# Mechanical properties :
#
#
# Convention : Reuss Voigt Hill
#
# Bulk Modulus (GPa) = 46.83743 53.80364 50.32053
# Shear Modulus (GPa) = 24.94983 30.37154 27.66069
#
# Velocity S-wave (km/s) = 3.49248 3.85331 3.67732
# Velocity P-wave (km/s) = 6.25788 6.78975 6.52924
#
# Compressibility (1/GPa) = 0.02135045
#
# Stress axis : x y z
#
# Youngs Moduli (GPa) = 83.73611 55.50887 52.37801
#
# Poissons Ratio (x) = 0.18659 0.23061
# Poissons Ratio (y) = 0.28148 0.31873
# Poissons Ratio (z) = 0.36867 0.33778
#
# Static dielectric constant tensor:
#      x y z
#    x 3.803110 0.043040 0.417610 
#    y 0.043040 4.145170 -0.110600 
#    z 0.417610 -0.110600 3.791990 
# 
# 
# High freq. dielectric constant tensor:
#      x y z
#    x 1.797910 0.016320 0.034920 
#    y 0.016320 1.808030 -0.013510 
#    z 0.034920 -0.013510 1.792010 
# 
# From -- ./inp_files/37561.got.cif
#   From: 2010.06.25/outbox.cif.g09.slc.cpg/sg2_19_cif.got.tgz:37561.got - 2010.06.27 13:26:56.
