data_PCOD8008829
_publ_section_title
;
Structure prediction by ZEFSAII (Michael W. Deem and Ramdas Pophale) SiO2 
 PCOD8008829
Probable space group: P -1
;
_chemical_formula_sum "Si O2"
_cell_formula_units_Z 16
_cell_length_a 13.868004
_cell_length_b 5.454944
_cell_length_c 12.269904
_cell_angle_alpha 68.040698
_cell_angle_beta 50.079904
_cell_angle_gamma 92.086486
_cell_volume 608.356037
_symmetry_space_group_name_H-M "P -1"
_symmetry_group_IT_number 2
_symmetry_cell_setting 'triclinic'
loop_
_space_group_symop_operation_xyz
x,y,z
-x,-y,-z
loop_
_atom_site_type_symbol
_atom_site_label
_atom_site_fract_x
_atom_site_fract_y
_atom_site_fract_z
Si Si1 0.691216 0.312276 0.381623
Si Si2 0.966855 0.964869 0.774708
Si Si3 0.326801 0.875942 0.241782
Si Si4 0.886343 0.184374 0.127693
Si Si5 0.913972 0.390586 0.394976
Si Si6 0.261541 0.174638 0.885620
Si Si7 0.525831 0.088920 0.248390
Si Si8 0.527473 0.620528 0.079872
O O1 0.736583 0.176415 0.267066
O O2 0.806377 0.396691 0.378411
O O3 0.674487 0.586402 0.294129
O O4 0.543593 0.083527 0.564274
O O5 0.985101 0.294837 0.687287
O O6 0.080833 0.011412 0.776483
O O7 0.999049 0.794753 0.677473
O O8 0.813158 0.768126 0.962095
O O9 0.168625 0.752052 0.410852
O O10 0.386843 0.628412 0.226911
O O11 0.407940 0.070065 0.251977
O O12 0.353319 0.059404 0.079230
O O13 0.872703 0.068731 0.034188
O O14 0.000000 0.500000 0.000000
O O15 0.372384 0.040545 0.858401
O O16 0.585200 0.443352 0.155998
O O17 0.500000 0.500000 0.000000
#
# Coordination Sequence:
#
# PCOD8008829 Si02
#       8
#     2   2   2   2   2   2   2   2
#     4  10  21  35  53  82 123 161 203 250 299 352
#     4  11  22  37  57  87 120 165 214 254 298 347
#     4   9  20  39  63  91 116 147 190 264 311 369
#     4  11  21  36  56  80 114 171 215 260 285 345
#     4  10  22  36  64  89 118 155 213 264 295 361
#     4  12  22  36  55  81 128 167 206 246 301 355
#     4  10  23  36  56  90 121 159 199 247 308 379
#     4   9  19  38  64  90 114 149 195 242 319 372
#
# _framework density 26.300387000000001
#
# number of rings (size 3 to 8) (size 9 to 14) (size 15 to 20)
#    0.000    1.750    2.500    2.250    7.000    1.500 
#    0.000    0.000    0.000    1.500    0.000    0.000 
#    0.000    0.000    0.000    0.000    0.000    0.000 
#
# Total GULP energy -198217.214388 kJ/mol
# GULP energy per Si atom -12388.575899 kJ/mol
# Density = 2.624053 g / cm^3
# Si number density = 26.300387 Si / 1000 Ang^3
#
#
#
# Elastic Constant Matrix: (Units=GPa)
#
#
# Indices 1 2 3 4 5 6 
#
# 1 36.5608 8.6609 23.4150 -5.2970 5.4994 -11.1446
# 2 8.6609 160.0892 93.7459 5.7558 -0.3201 -37.0046
# 3 23.4150 93.7459 218.3605 10.4459 -7.9709 -27.0404
# 4 -5.2970 5.7558 10.4459 49.5662 -3.7903 2.4049
# 5 5.4994 -0.3201 -7.9709 -3.7903 19.2735 2.6454
# 6 -11.1446 -37.0046 -27.0404 2.4049 2.6454 33.5658
#
#
#
# Elastic Compliance Matrix: (Units=1/GPa)
#
#
# Indices 1 2 3 4 5 6 
#
# 1 0.035631 0.003492 -0.004312 0.002671 -0.013158 0.013052
# 2 0.003492 0.010667 -0.003789 -0.000867 -0.003962 0.010241
# 3 -0.004312 -0.003789 0.006822 -0.001151 0.003808 -0.000331
# 4 0.002671 -0.000867 -0.001151 0.021190 0.003295 -0.002774
# 5 -0.013158 -0.003962 0.003808 0.003295 0.059247 -0.010575
# 6 0.013052 0.010241 -0.000331 -0.002774 -0.010575 0.046182
#
#
# Mechanical properties :
#
#
# Convention : Reuss Voigt Hill
#
# Bulk Modulus (GPa) = 22.77821 74.07269 48.42545
# Shear Modulus (GPa) = 24.55920 39.76037 32.15978
#
# Velocity S-wave (km/s) = 3.05912 3.89238 3.50063
# Velocity P-wave (km/s) = 4.59970 6.95888 5.89844
#
# Compressibility (1/GPa) = 0.04390161
#
# Stress axis : x y z
#
# Youngs Moduli (GPa) = 28.06576 93.74927 146.59233
#
# Poissons Ratio (x) = -0.32735 0.63205
# Poissons Ratio (y) = -0.09800 0.55541
# Poissons Ratio (z) = 0.12101 0.35520
#
# Static dielectric constant tensor:
#      x y z
#    x 4.432840 -0.138120 0.214500 
#    y -0.138120 5.210380 -0.371170 
#    z 0.214500 -0.371170 5.458280 
# 
# 
# High freq. dielectric constant tensor:
#      x y z
#    x 2.031860 -0.000100 0.004830 
#    y -0.000100 2.065180 0.001070 
#    z 0.004830 0.001070 2.062230 
# 
# From -- ./inp_files/127439.got.cif
#   From: 2010.06.25/outbox.cif.g09.slc.cpg/sg2_64_cif.got.tgz:127439.got - 2010.06.27 13:26:56.
