data_PCOD8008591
_publ_section_title
;
Structure prediction by ZEFSAII (Michael W. Deem and Ramdas Pophale) SiO2 
 PCOD8008591
Probable space group: P -1
;
_chemical_formula_sum "Si O2"
_cell_formula_units_Z 16
_cell_length_a 15.164298
_cell_length_b 14.405700
_cell_length_c 13.161009
_cell_angle_alpha 127.125310
_cell_angle_beta 34.200668
_cell_angle_gamma 150.383350
_cell_volume 726.388191
_symmetry_space_group_name_H-M "P -1"
_symmetry_group_IT_number 2
_symmetry_cell_setting 'triclinic'
loop_
_space_group_symop_operation_xyz
x,y,z
-x,-y,-z
loop_
_atom_site_type_symbol
_atom_site_label
_atom_site_fract_x
_atom_site_fract_y
_atom_site_fract_z
Si Si1 0.208160 0.056004 0.958408
Si Si2 0.938852 0.814808 0.254398
Si Si3 0.492290 0.069368 0.951777
Si Si4 0.431755 0.633885 0.682062
Si Si5 0.659871 0.490330 0.890567
Si Si6 0.228376 0.537539 0.025388
Si Si7 0.841634 0.061299 0.286774
Si Si8 0.637113 0.191669 0.267660
O O1 0.034444 0.066774 0.116650
O O2 0.521692 0.285917 0.846892
O O3 0.035402 0.874610 0.084462
O O4 0.254262 0.001791 0.781229
O O5 0.748601 0.810043 0.457669
O O6 0.765691 0.595311 0.305332
O O7 0.218406 0.983491 0.165700
O O8 0.755028 0.317814 0.855960
O O9 0.484729 0.987050 0.802765
O O10 0.500000 0.000000 0.000000
O O11 0.294915 0.659441 0.772824
O O12 0.443429 0.659544 0.808103
O O13 0.661705 0.485770 0.009321
O O14 0.985362 0.714452 0.702475
O O15 0.500000 0.500000 0.000000
O O16 0.915579 0.319713 0.142736
O O17 0.577281 0.896391 0.501612
#
# Coordination Sequence:
#
# PCOD8008591 Si02
#       8
#     2   2   2   2   2   2   2   2
#     4  10  20  44  69  95 133 170 227 287 333 397
#     4  11  22  42  71 101 133 178 229 282 337 415
#     4  12  25  44  68  98 142 185 222 275 351 406
#     4  11  23  42  71 103 137 177 233 278 345 414
#     4  10  23  44  68  98 133 175 232 285 337 400
#     4  12  24  43  72  98 141 188 222 289 345 404
#     4  10  23  41  71  96 130 181 221 278 346 395
#     4  12  25  46  67 102 145 180 228 282 346 419
#
# _framework density 22.026792
#
# number of rings (size 3 to 8) (size 9 to 14) (size 15 to 20)
#    0.000    1.000    5.000    1.875    0.000    2.000 
#    4.500    1.250    0.000    0.000    0.000    0.000 
#    0.000    0.000    0.000    0.000    0.000    0.000 
#
# Total GULP energy -198276.593917 kJ/mol
# GULP energy per Si atom -12392.287120 kJ/mol
# Density = 2.197666 g / cm^3
# Si number density = 22.026792 Si / 1000 Ang^3
#
#
#
# Elastic Constant Matrix: (Units=GPa)
#
#
# Indices 1 2 3 4 5 6 
#
# 1 134.4380 15.1613 37.7733 0.4145 18.4688 13.1965
# 2 15.1613 89.8062 40.8293 -0.3927 3.7186 15.9874
# 3 37.7733 40.8293 98.5880 0.3880 18.2704 11.1397
# 4 0.4145 -0.3927 0.3880 25.6241 -4.0989 5.1011
# 5 18.4688 3.7186 18.2704 -4.0989 26.9635 -0.5019
# 6 13.1965 15.9874 11.1397 5.1011 -0.5019 36.8142
#
#
#
# Elastic Compliance Matrix: (Units=1/GPa)
#
#
# Indices 1 2 3 4 5 6 
#
# 1 0.008979 0.000218 -0.002367 -0.000334 -0.004676 -0.002614
# 2 0.000218 0.014588 -0.005966 0.001591 0.002034 -0.004801
# 3 -0.002367 -0.005966 0.015136 -0.001357 -0.008038 -0.001062
# 4 -0.000334 0.001591 -0.001357 0.041367 0.007109 -0.005796
# 5 -0.004676 0.002034 -0.008038 0.007109 0.046590 0.002875
# 6 -0.002614 -0.004801 -0.001062 -0.005796 0.002875 0.031349
#
#
# Mechanical properties :
#
#
# Convention : Reuss Voigt Hill
#
# Bulk Modulus (GPa) = 44.49845 56.70667 50.60256
# Shear Modulus (GPa) = 27.51342 33.15159 30.33250
#
# Velocity S-wave (km/s) = 3.53808 3.88372 3.71492
# Velocity P-wave (km/s) = 6.07754 6.77579 6.43614
#
# Compressibility (1/GPa) = 0.02247270
#
# Stress axis : x y z
#
# Youngs Moduli (GPa) = 111.37216 68.54996 66.06861
#
# Poissons Ratio (x) = -0.01494 0.15640
# Poissons Ratio (y) = -0.02428 0.39414
# Poissons Ratio (z) = 0.26365 0.40895
#
# Static dielectric constant tensor:
#      x y z
#    x 4.272390 0.028610 0.006750 
#    y 0.028610 4.313750 -0.119180 
#    z 0.006750 -0.119180 3.868580 
# 
# 
# High freq. dielectric constant tensor:
#      x y z
#    x 1.884210 -0.002820 0.009140 
#    y -0.002820 1.879790 -0.011630 
#    z 0.009140 -0.011630 1.837880 
# 
# From -- ./inp_files/455798.got.cif
#   From: 2010.06.25/outbox.cif.g09.slc.cpg/sg2_228_cif.got.tgz:455798.got - 2010.06.27 13:26:56.
