data_PCOD8008873
_publ_section_title
;
Structure prediction by ZEFSAII (Michael W. Deem and Ramdas Pophale) SiO2 
 PCOD8008873
Probable space group: P -1
;
_chemical_formula_sum "Si O2"
_cell_formula_units_Z 16
_cell_length_a 15.126073
_cell_length_b 30.685819
_cell_length_c 10.081487
_cell_angle_alpha 142.916786
_cell_angle_beta 132.227992
_cell_angle_gamma 18.908130
_cell_volume 828.545753
_symmetry_space_group_name_H-M "P -1"
_symmetry_group_IT_number 2
_symmetry_cell_setting 'triclinic'
loop_
_space_group_symop_operation_xyz
x,y,z
-x,-y,-z
loop_
_atom_site_type_symbol
_atom_site_label
_atom_site_fract_x
_atom_site_fract_y
_atom_site_fract_z
Si Si1 0.632226 0.189776 0.973252
Si Si2 0.543301 0.250933 0.729616
Si Si3 0.953334 0.253664 0.270672
Si Si4 0.922961 0.582145 0.985678
Si Si5 0.599876 0.903916 0.499360
Si Si6 0.013714 0.143295 0.544362
Si Si7 0.652247 0.337368 0.407293
Si Si8 0.949499 0.145432 0.773512
O O1 0.519962 0.276063 0.924250
O O2 0.907315 0.982164 0.725792
O O3 0.380368 0.290827 0.058188
O O4 0.727698 0.210589 0.190541
O O5 0.658708 0.260783 0.804180
O O6 0.191162 0.428573 0.772525
O O7 0.751430 0.069369 0.454569
O O8 0.834392 0.268034 0.300383
O O9 0.702571 0.451737 0.456250
O O10 0.257596 0.122392 0.310196
O O11 0.030280 0.163163 0.000746
O O12 0.854757 0.704385 0.235671
O O13 0.000000 0.500000 0.000000
O O14 0.500000 0.000000 0.500000
O O15 0.311093 0.026769 0.571427
O O16 0.866860 0.224651 0.739616
O O17 0.774250 0.306727 0.592104
#
# Coordination Sequence:
#
# PCOD8008873 Si02
#       8
#     2   2   2   2   2   2   2   2
#     4   9  17  34  59  87 110 144 198 249 279 330
#     4   9  17  34  56  82 119 152 193 234 291 349
#     4  11  23  36  59  84 118 157 190 235 292 358
#     4   9  18  33  60  86 112 151 199 244 283 336
#     4  11  22  39  60  89 121 152 194 246 297 340
#     4  10  22  38  59  87 117 153 193 241 289 342
#     4  11  21  36  59  90 114 148 200 242 283 341
#     4  10  21  35  56  85 118 158 190 232 295 354
#
# _framework density 19.310943000000002
#
# number of rings (size 3 to 8) (size 9 to 14) (size 15 to 20)
#    0.000    2.000    2.500    2.625    1.750    1.000 
#    0.000    0.000    0.000    1.500    0.000    0.000 
#    0.000    0.000    0.000    0.000    0.000    0.000 
#
# Total GULP energy -198319.720046 kJ/mol
# GULP energy per Si atom -12394.982503 kJ/mol
# Density = 1.926699 g / cm^3
# Si number density = 19.310943 Si / 1000 Ang^3
#
#
#
# Elastic Constant Matrix: (Units=GPa)
#
#
# Indices 1 2 3 4 5 6 
#
# 1 99.1240 47.2321 51.0700 1.5539 -7.3543 -9.3754
# 2 47.2321 100.8189 45.4692 -16.3947 -9.1566 -0.5356
# 3 51.0700 45.4692 90.4199 -15.7493 -0.7902 -5.9513
# 4 1.5539 -16.3947 -15.7493 22.9404 -4.0234 -0.3900
# 5 -7.3543 -9.1566 -0.7902 -4.0234 32.8185 3.2254
# 6 -9.3754 -0.5356 -5.9513 -0.3900 3.2254 28.1741
#
#
#
# Elastic Compliance Matrix: (Units=1/GPa)
#
#
# Indices 1 2 3 4 5 6 
#
# 1 0.018330 -0.006451 -0.008916 -0.011862 0.000255 0.003900
# 2 -0.006451 0.016423 -0.002844 0.010997 0.004693 -0.002820
# 3 -0.008916 -0.002844 0.019690 0.011939 -0.000993 0.001417
# 4 -0.011862 0.010997 0.011939 0.061904 0.008417 -0.001323
# 5 0.000255 0.004693 -0.000993 0.008417 0.033211 -0.003721
# 6 0.003900 -0.002820 0.001417 -0.001323 -0.003721 0.037445
#
#
# Mechanical properties :
#
#
# Convention : Reuss Voigt Hill
#
# Bulk Modulus (GPa) = 55.49389 64.21170 59.85280
# Shear Modulus (GPa) = 21.79302 26.55935 24.17619
#
# Velocity S-wave (km/s) = 3.36301 3.71260 3.54212
# Velocity P-wave (km/s) = 6.62413 7.19037 6.91305
#
# Compressibility (1/GPa) = 0.01802000
#
# Stress axis : x y z
#
# Youngs Moduli (GPa) = 54.55648 60.88907 50.78815
#
# Poissons Ratio (x) = 0.39280 0.45282
# Poissons Ratio (y) = 0.35195 0.14446
# Poissons Ratio (z) = 0.48642 0.17319
#
# Static dielectric constant tensor:
#      x y z
#    x 3.718830 -0.195560 0.038680 
#    y -0.195560 3.693740 0.082130 
#    z 0.038680 0.082130 3.330490 
# 
# 
# High freq. dielectric constant tensor:
#      x y z
#    x 1.757110 -0.007270 0.011250 
#    y -0.007270 1.747700 0.007280 
#    z 0.011250 0.007280 1.730150 
# 
# From -- ./inp_files/320176.got.cif
#   From: 2010.06.25/outbox.cif.g09.slc.cpg/sg2_161_cif.got.tgz:320176.got - 2010.06.27 13:26:56.
