data_PCOD8008624
_publ_section_title
;
Structure prediction by ZEFSAII (Michael W. Deem and Ramdas Pophale) SiO2 
 PCOD8008624
Probable space group: P -1
;
_chemical_formula_sum "Si O2"
_cell_formula_units_Z 16
_cell_length_a 12.595498
_cell_length_b 11.995686
_cell_length_c 22.417593
_cell_angle_alpha 27.251383
_cell_angle_beta 150.707921
_cell_angle_gamma 142.851075
_cell_volume 755.237872
_symmetry_space_group_name_H-M "P -1"
_symmetry_group_IT_number 2
_symmetry_cell_setting 'triclinic'
loop_
_space_group_symop_operation_xyz
x,y,z
-x,-y,-z
loop_
_atom_site_type_symbol
_atom_site_label
_atom_site_fract_x
_atom_site_fract_y
_atom_site_fract_z
Si Si1 0.132086 0.763185 0.670494
Si Si2 0.331689 0.053712 0.840951
Si Si3 0.416649 0.608202 0.639292
Si Si4 0.768037 0.077644 0.697153
Si Si5 0.084002 0.240292 0.170699
Si Si6 0.528333 0.240971 0.060153
Si Si7 0.407990 0.700524 0.726613
Si Si8 0.958067 0.770148 0.132009
O O1 0.347195 0.801306 0.797702
O O2 0.193768 0.730610 0.646767
O O3 0.014095 0.494589 0.759899
O O4 0.000000 0.000000 0.500000
O O5 0.354582 0.343108 0.707428
O O6 0.404732 0.952945 0.862092
O O7 0.083696 0.937727 0.787174
O O8 0.500000 0.000000 0.000000
O O9 0.263172 0.770214 0.450280
O O10 0.669346 0.718200 0.701653
O O11 0.343205 0.605622 0.673718
O O12 0.879936 0.229459 0.733218
O O13 0.909379 0.864606 0.843614
O O14 0.535756 0.967227 0.660771
O O15 0.000000 0.500000 0.000000
O O16 0.568884 0.515749 0.922949
O O17 0.275430 0.202407 0.968254
O O18 0.000000 0.000000 0.000000
#
# Coordination Sequence:
#
# PCOD8008624 Si02
#       8
#     2   2   2   2   2   2   2   2
#     4  11  26  44  68 100 130 175 231 286 344 390
#     4  12  22  41  67 103 138 173 226 278 329 407
#     4  11  25  42  65 103 142 177 216 279 345 401
#     4  11  24  42  66 101 131 173 224 278 338 399
#     4  11  22  39  66  98 138 180 223 267 337 407
#     4  11  23  43  69  94 134 177 225 273 335 416
#     4  10  20  45  68  89 138 180 214 272 336 411
#     4  11  24  47  71  94 127 183 234 273 338 415
#
# _framework density 21.185378
#
# number of rings (size 3 to 8) (size 9 to 14) (size 15 to 20)
#    0.000    1.000    2.500    6.000    3.500    2.500 
#    4.500    1.250    0.000    0.000    0.000    0.000 
#    0.000    0.000    0.000    0.000    0.000    0.000 
#
# Total GULP energy -198313.143676 kJ/mol
# GULP energy per Si atom -12394.571480 kJ/mol
# Density = 2.113716 g / cm^3
# Si number density = 21.185378 Si / 1000 Ang^3
#
#
#
# Elastic Constant Matrix: (Units=GPa)
#
#
# Indices 1 2 3 4 5 6 
#
# 1 107.7758 49.8940 48.4005 -12.5526 1.2081 -7.5566
# 2 49.8940 122.5016 35.3426 -23.0318 8.0328 -3.3569
# 3 48.4005 35.3426 105.9168 -12.0169 -6.2075 -7.1742
# 4 -12.5526 -23.0318 -12.0169 34.8559 -7.2386 -3.2589
# 5 1.2081 8.0328 -6.2075 -7.2386 31.4140 -5.0982
# 6 -7.5566 -3.3569 -7.1742 -3.2589 -5.0982 33.5329
#
#
#
# Elastic Compliance Matrix: (Units=1/GPa)
#
#
# Indices 1 2 3 4 5 6 
#
# 1 0.013371 -0.003926 -0.004589 0.000811 0.000050 0.001725
# 2 -0.003926 0.011284 -0.001480 0.005171 -0.001810 0.000156
# 3 -0.004589 -0.001480 0.012765 0.002858 0.004135 0.002455
# 4 0.000811 0.005171 0.002858 0.035699 0.008421 0.006062
# 5 0.000050 -0.001810 0.004135 0.008421 0.036193 0.007036
# 6 0.001725 0.000156 0.002455 0.006062 0.007036 0.032410
#
#
# Mechanical properties :
#
#
# Convention : Reuss Voigt Hill
#
# Bulk Modulus (GPa) = 57.36745 67.05204 62.20975
# Shear Modulus (GPa) = 29.84663 33.46438 31.65550
#
# Velocity S-wave (km/s) = 3.75751 3.97873 3.86970
# Velocity P-wave (km/s) = 6.77959 7.26814 7.02811
#
# Compressibility (1/GPa) = 0.01743149
#
# Stress axis : x y z
#
# Youngs Moduli (GPa) = 74.78631 88.61848 78.33864
#
# Poissons Ratio (x) = 0.34789 0.35946
# Poissons Ratio (y) = 0.29359 0.11597
# Poissons Ratio (z) = 0.34316 0.13119
#
# Static dielectric constant tensor:
#      x y z
#    x 4.022790 -0.058850 -0.070390 
#    y -0.058850 3.763280 0.171880 
#    z -0.070390 0.171880 3.676960 
# 
# 
# High freq. dielectric constant tensor:
#      x y z
#    x 1.828150 -0.003150 -0.003650 
#    y -0.003150 1.845380 -0.010930 
#    z -0.003650 -0.010930 1.827760 
# 
# From -- ./inp_files/308027.got.cif
#   From: 2010.06.25/outbox.cif.g09.slc.cpg/sg2_155_cif.got.tgz:308027.got - 2010.06.27 13:26:56.
