data_PCOD8008785
_publ_section_title
;
Structure prediction by ZEFSAII (Michael W. Deem and Ramdas Pophale) SiO2 
 PCOD8008785
Probable space group: P -1
;
_chemical_formula_sum "Si O2"
_cell_formula_units_Z 16
_cell_length_a 8.908961
_cell_length_b 12.929080
_cell_length_c 11.751663
_cell_angle_alpha 144.806639
_cell_angle_beta 108.039591
_cell_angle_gamma 72.170778
_cell_volume 738.295755
_symmetry_space_group_name_H-M "P -1"
_symmetry_group_IT_number 2
_symmetry_cell_setting 'triclinic'
loop_
_space_group_symop_operation_xyz
x,y,z
-x,-y,-z
loop_
_atom_site_type_symbol
_atom_site_label
_atom_site_fract_x
_atom_site_fract_y
_atom_site_fract_z
Si Si1 0.059440 0.870497 0.557589
Si Si2 0.872018 0.687125 0.515605
Si Si3 0.963469 0.729450 0.071188
Si Si4 0.470450 0.391789 0.643783
Si Si5 0.200784 0.587924 0.163786
Si Si6 0.615090 0.110549 0.256230
Si Si7 0.441220 0.265591 0.148145
Si Si8 0.120840 0.347121 0.256169
O O1 0.080573 0.730892 0.333270
O O2 0.212714 0.826363 0.631772
O O3 0.907345 0.845410 0.579291
O O4 0.047420 0.076286 0.694882
O O5 0.709684 0.616657 0.364653
O O6 0.867623 0.749521 0.703900
O O7 0.020230 0.537908 0.407249
O O8 0.130167 0.613648 0.042383
O O9 0.818172 0.611998 0.969399
O O10 0.956222 0.764780 0.964242
O O11 0.613702 0.372942 0.754319
O O12 0.494043 0.222936 0.412727
O O13 0.471233 0.588264 0.766921
O O14 0.573439 0.157213 0.158999
O O15 0.620786 0.894248 0.088029
O O16 0.301266 0.372411 0.285114
#
# Coordination Sequence:
#
# PCOD8008785 Si02
#       8
#     2   2   2   2   2   2   2   2
#     4  11  21  40  61  91 122 157 196 252 300 360
#     4  11  25  36  59  93 128 165 192 231 321 372
#     4  11  21  41  66  88 115 155 213 252 290 343
#     4  11  21  39  59  86 123 157 197 250 298 350
#     4  10  22  40  69  88 109 158 214 256 287 341
#     4  10  21  34  59  87 116 153 205 243 295 353
#     4  11  20  37  58  88 117 158 202 250 291 348
#     4  11  21  41  59  89 126 162 197 243 298 367
#
# _framework density 21.671531999999999
#
# number of rings (size 3 to 8) (size 9 to 14) (size 15 to 20)
#    0.000    1.250    5.000    1.500    3.500    0.500 
#    2.250    1.250    0.000    0.000    0.000    0.000 
#    0.000    0.000    0.000    0.000    0.000    0.000 
#
# Total GULP energy -198254.736745 kJ/mol
# GULP energy per Si atom -12390.921047 kJ/mol
# Density = 2.162221 g / cm^3
# Si number density = 21.671532 Si / 1000 Ang^3
#
#
#
# Elastic Constant Matrix: (Units=GPa)
#
#
# Indices 1 2 3 4 5 6 
#
# 1 98.3089 42.2091 25.5800 5.8933 23.2918 -1.4818
# 2 42.2091 70.4578 20.1228 3.5527 7.9572 -5.3664
# 3 25.5800 20.1228 79.8797 23.3646 9.2318 7.7181
# 4 5.8933 3.5527 23.3646 34.1356 -6.0514 8.6188
# 5 23.2918 7.9572 9.2318 -6.0514 20.5669 -0.4432
# 6 -1.4818 -5.3664 7.7181 8.6188 -0.4432 24.4305
#
#
#
# Elastic Compliance Matrix: (Units=1/GPa)
#
#
# Indices 1 2 3 4 5 6 
#
# 1 0.019062 -0.008805 0.000189 -0.006328 -0.020105 0.001030
# 2 -0.008805 0.020310 -0.003691 0.001529 0.004320 0.004632
# 3 0.000189 -0.003691 0.019096 -0.014268 -0.011599 -0.002009
# 4 -0.006328 0.001529 -0.014268 0.047744 0.026771 -0.011898
# 5 -0.020105 0.004320 -0.011599 0.026771 0.082704 -0.004550
# 6 0.001030 0.004632 -0.002009 -0.011898 -0.004550 0.046762
#
#
# Mechanical properties :
#
#
# Convention : Reuss Voigt Hill
#
# Bulk Modulus (GPa) = 29.53896 47.16337 38.35117
# Shear Modulus (GPa) = 18.41109 26.54223 22.47666
#
# Velocity S-wave (km/s) = 2.91787 3.50344 3.22398
# Velocity P-wave (km/s) = 5.00118 6.17864 5.62083
#
# Compressibility (1/GPa) = 0.03385360
#
# Stress axis : x y z
#
# Youngs Moduli (GPa) = 52.46177 49.23783 52.36690
#
# Poissons Ratio (x) = 0.43354 -0.00989
# Poissons Ratio (y) = 0.46193 0.19327
# Poissons Ratio (z) = -0.00991 0.18172
#
# Static dielectric constant tensor:
#      x y z
#    x 3.822630 -0.285080 0.058360 
#    y -0.285080 3.892400 -0.085560 
#    z 0.058360 -0.085560 4.027610 
# 
# 
# High freq. dielectric constant tensor:
#      x y z
#    x 1.832770 -0.035150 0.015910 
#    y -0.035150 1.842790 0.002760 
#    z 0.015910 0.002760 1.851960 
# 
# From -- ./inp_files/391660.got.cif
#   From: 2010.06.25/outbox.cif.g09.slc.cpg/sg2_196_cif.got.tgz:391660.got - 2010.06.27 13:26:56.
