data_PCOD8008135
_publ_section_title
;
Structure prediction by ZEFSAII (Michael W. Deem and Ramdas Pophale) SiO2 
 PCOD8008135
Probable space group: P -1
;
_chemical_formula_sum "Si O2"
_cell_formula_units_Z 14
_cell_length_a 19.188639
_cell_length_b 9.461990
_cell_length_c 9.753886
_cell_angle_alpha 30.107630
_cell_angle_beta 49.768912
_cell_angle_gamma 50.718602
_cell_volume 665.287166
_symmetry_space_group_name_H-M "P -1"
_symmetry_group_IT_number 2
_symmetry_cell_setting 'triclinic'
loop_
_space_group_symop_operation_xyz
x,y,z
-x,-y,-z
loop_
_atom_site_type_symbol
_atom_site_label
_atom_site_fract_x
_atom_site_fract_y
_atom_site_fract_z
Si Si1 0.337126 0.850998 0.260709
Si Si2 0.543947 0.706975 0.369725
Si Si3 0.181320 0.872450 0.224033
Si Si4 0.747153 0.439640 0.874507
Si Si5 0.345870 0.922973 0.505845
Si Si6 0.946001 0.547677 0.168393
Si Si7 0.046870 0.677269 0.187092
O O1 0.385916 0.521812 0.433913
O O2 0.243669 0.928117 0.226801
O O3 0.313094 0.867957 0.438884
O O4 0.402275 0.080504 0.957038
O O5 0.500000 0.500000 0.500000
O O6 0.457620 0.903144 0.393767
O O7 0.244086 0.693351 0.177006
O O8 0.098466 0.722747 0.506226
O O9 0.136640 0.176872 0.959788
O O10 0.709786 0.776423 0.620283
O O11 0.843822 0.376304 0.885000
O O12 0.674636 0.319658 0.161920
O O13 0.027248 0.581781 0.140497
O O14 0.000000 0.500000 0.000000
O O15 0.000000 0.500000 0.500000
O O16 0.000000 0.000000 0.000000
#
# Coordination Sequence:
#
# PCOD8008135 Si02
#       7
#     2   2   2   2   2   2   2
#     4  11  23  41  68  94 128 168 208 263 317 375
#     4  10  20  42  66  96 127 163 210 263 316 369
#     4  12  26  45  61  96 135 167 202 265 331 364
#     4  12  24  41  63  94 129 164 210 262 310 378
#     4  11  23  39  68  94 121 163 218 258 303 379
#     4  12  26  44  66  93 130 168 215 266 309 377
#     4  12  23  44  66  90 125 174 212 249 319 373
#
# _framework density 21.043544000000001
#
# number of rings (size 3 to 8) (size 9 to 14) (size 15 to 20)
#    0.000    0.571    2.857    7.286    4.000    0.000 
#    0.000    4.286    0.000    0.000    0.000    0.000 
#    0.000    0.000    0.000    0.000    0.000    0.000 
#
# Total GULP energy -173629.249605 kJ/mol
# GULP energy per Si atom -12402.089258 kJ/mol
# Density = 2.099565 g / cm^3
# Si number density = 21.043544 Si / 1000 Ang^3
#
#
#
# Elastic Constant Matrix: (Units=GPa)
#
#
# Indices 1 2 3 4 5 6 
#
# 1 52.6337 17.4687 9.0444 7.5510 1.4374 14.4037
# 2 17.4687 101.7660 17.0452 0.5748 2.2902 2.6795
# 3 9.0444 17.0452 101.9521 7.2567 -3.8138 6.2319
# 4 7.5510 0.5748 7.2567 44.5452 -7.6110 12.2323
# 5 1.4374 2.2902 -3.8138 -7.6110 31.9296 -0.3728
# 6 14.4037 2.6795 6.2319 12.2323 -0.3728 36.2559
#
#
#
# Elastic Compliance Matrix: (Units=1/GPa)
#
#
# Indices 1 2 3 4 5 6 
#
# 1 0.022812 -0.003516 -0.000872 -0.001691 -0.001377 -0.008096
# 2 -0.003516 0.010688 -0.001574 0.000393 -0.000694 0.000738
# 3 -0.000872 -0.001574 0.010324 -0.001064 0.001121 -0.000941
# 4 -0.001691 0.000393 -0.001064 0.026114 0.006053 -0.007923
# 5 -0.001377 -0.000694 0.001121 0.006053 0.032992 -0.001297
# 6 -0.008096 0.000738 -0.000941 -0.007923 -0.001297 0.033565
#
#
# Mechanical properties :
#
#
# Convention : Reuss Voigt Hill
#
# Bulk Modulus (GPa) = 31.34829 38.16315 34.75572
# Shear Modulus (GPa) = 31.43620 36.73238 34.08429
#
# Velocity S-wave (km/s) = 3.86925 4.18250 4.02892
# Velocity P-wave (km/s) = 5.90683 6.44198 6.18020
#
# Compressibility (1/GPa) = 0.03189966
#
# Stress axis : x y z
#
# Youngs Moduli (GPa) = 43.83670 93.56630 96.85957
#
# Poissons Ratio (x) = 0.32898 0.08447
# Poissons Ratio (y) = 0.15413 0.15245
# Poissons Ratio (z) = 0.03823 0.14727
#
# Static dielectric constant tensor:
#      x y z
#    x 4.489130 -0.502160 0.144230 
#    y -0.502160 4.125380 -0.227980 
#    z 0.144230 -0.227980 4.056680 
# 
# 
# High freq. dielectric constant tensor:
#      x y z
#    x 1.821860 -0.012580 0.003330 
#    y -0.012580 1.827500 -0.007410 
#    z 0.003330 -0.007410 1.847230 
# 
# From -- ./inp_files/201232.got.cif
#   From: 2010.06.25/outbox.cif.g09.slc.cpg/sg2_101_cif.got.tgz:201232.got - 2010.06.27 13:26:56.
