data_PCOD8008132
_publ_section_title
;
Structure prediction by ZEFSAII (Michael W. Deem and Ramdas Pophale) SiO2 
 PCOD8008132
Probable space group: P -1
;
_chemical_formula_sum "Si O2"
_cell_formula_units_Z 16
_cell_length_a 22.731164
_cell_length_b 16.744049
_cell_length_c 14.626577
_cell_angle_alpha 34.964383
_cell_angle_beta 21.175512
_cell_angle_gamma 23.171060
_cell_volume 762.849158
_symmetry_space_group_name_H-M "P -1"
_symmetry_group_IT_number 2
_symmetry_cell_setting 'triclinic'
loop_
_space_group_symop_operation_xyz
x,y,z
-x,-y,-z
loop_
_atom_site_type_symbol
_atom_site_label
_atom_site_fract_x
_atom_site_fract_y
_atom_site_fract_z
Si Si1 0.109197 0.080254 0.769071
Si Si2 0.743481 0.283218 0.467304
Si Si3 0.824978 0.797120 0.623973
Si Si4 0.462155 0.087574 0.603616
Si Si5 0.039085 0.308540 0.128768
Si Si6 0.158950 0.357928 0.626374
Si Si7 0.304536 0.000221 0.189063
Si Si8 0.184711 0.650511 0.882936
O O1 0.081366 0.175177 0.624064
O O2 0.398521 0.891796 0.551915
O O3 0.971328 0.241519 0.900534
O O4 0.000000 0.000000 0.000000
O O5 0.462896 0.495305 0.651880
O O6 0.886261 0.203100 0.237359
O O7 0.821597 0.348648 0.368115
O O8 0.763482 0.113767 0.635452
O O9 0.738716 0.954794 0.682150
O O10 0.074678 0.554345 0.516521
O O11 0.589572 0.850615 0.890131
O O12 0.312721 0.282186 0.567385
O O13 0.655325 0.852995 0.505234
O O14 0.272619 0.116961 0.908471
O O15 0.111118 0.224630 0.207164
O O16 0.000000 0.500000 0.000000
O O17 0.897637 0.448798 0.942142
#
# Coordination Sequence:
#
# PCOD8008132 Si02
#       8
#     2   2   2   2   2   2   2   2
#     4  11  24  42  65  94 133 172 224 274 328 395
#     4  11  23  41  66  99 136 169 222 272 332 392
#     4  11  23  42  69  97 133 175 221 277 330 391
#     4  10  22  40  66  94 129 173 218 270 329 395
#     4  12  25  41  68  95 134 177 222 275 331 397
#     4  10  20  42  66  95 129 173 220 270 331 394
#     4  11  24  41  66  98 137 172 223 276 330 391
#     4  10  22  38  68  95 127 176 214 268 329 399
#
# _framework density 20.974003
#
# number of rings (size 3 to 8) (size 9 to 14) (size 15 to 20)
#    0.000    1.250    3.750    1.875    1.750    4.000 
#    0.000    0.625    0.000    0.000    0.000    0.000 
#    0.000    0.000    0.000    0.000    0.000    0.000 
#
# Total GULP energy -198218.009298 kJ/mol
# GULP energy per Si atom -12388.625581 kJ/mol
# Density = 2.092627 g / cm^3
# Si number density = 20.974003 Si / 1000 Ang^3
#
#
#
# Elastic Constant Matrix: (Units=GPa)
#
#
# Indices 1 2 3 4 5 6 
#
# 1 100.5175 43.6380 43.1738 -10.8407 -7.1036 -19.7044
# 2 43.6380 100.8664 34.0427 -19.5110 -11.0109 -17.8389
# 3 43.1738 34.0427 98.4829 -15.9100 -2.2414 -5.6807
# 4 -10.8407 -19.5110 -15.9100 36.9443 -1.4942 -2.3787
# 5 -7.1036 -11.0109 -2.2414 -1.4942 48.4378 -4.7030
# 6 -19.7044 -17.8389 -5.6807 -2.3787 -4.7030 27.8985
#
#
#
# Elastic Compliance Matrix: (Units=1/GPa)
#
#
# Indices 1 2 3 4 5 6 
#
# 1 0.015305 -0.002952 -0.004920 0.001444 0.002207 0.008415
# 2 -0.002952 0.015216 -0.002275 0.006892 0.003952 0.008435
# 3 -0.004920 -0.002275 0.013444 0.002982 -0.000725 -0.002060
# 4 0.001444 0.006892 0.002982 0.033185 0.003864 0.009515
# 5 0.002207 0.003952 -0.000725 0.003864 0.022739 0.008101
# 6 0.008415 0.008435 -0.002060 0.009515 0.008101 0.048939
#
#
# Mechanical properties :
#
#
# Convention : Reuss Voigt Hill
#
# Bulk Modulus (GPa) = 42.24921 60.17509 51.21215
# Shear Modulus (GPa) = 28.24663 34.59028 31.41846
#
# Velocity S-wave (km/s) = 3.67378 4.06544 3.87456
# Velocity P-wave (km/s) = 6.17923 7.12669 6.66980
#
# Compressibility (1/GPa) = 0.02366908
#
# Stress axis : x y z
#
# Youngs Moduli (GPa) = 65.33909 65.72168 74.38305
#
# Poissons Ratio (x) = 0.19402 0.36596
# Poissons Ratio (y) = 0.19289 0.16926
# Poissons Ratio (z) = 0.32147 0.14955
#
# Static dielectric constant tensor:
#      x y z
#    x 3.728570 -0.256620 -0.080960 
#    y -0.256620 3.533320 0.051830 
#    z -0.080960 0.051830 4.256040 
# 
# 
# High freq. dielectric constant tensor:
#      x y z
#    x 1.834460 -0.014740 -0.002600 
#    y -0.014740 1.801370 0.003730 
#    z -0.002600 0.003730 1.828420 
# 
# From -- ./inp_files/543146.got.cif
#   From: 2010.06.25/outbox.cif.g09.slc.cpg/sg2_272_cif.got.tgz:543146.got - 2010.06.27 13:26:56.
