data_PCOD8008689
_publ_section_title
;
Structure prediction by ZEFSAII (Michael W. Deem and Ramdas Pophale) SiO2 
 PCOD8008689
Probable space group: P -1
;
_chemical_formula_sum "Si O2"
_cell_formula_units_Z 12
_cell_length_a 9.592389
_cell_length_b 10.909697
_cell_length_c 11.962465
_cell_angle_alpha 68.447951
_cell_angle_beta 53.074639
_cell_angle_gamma 109.887023
_cell_volume 611.075010
_symmetry_space_group_name_H-M "P -1"
_symmetry_group_IT_number 2
_symmetry_cell_setting 'triclinic'
loop_
_space_group_symop_operation_xyz
x,y,z
-x,-y,-z
loop_
_atom_site_type_symbol
_atom_site_label
_atom_site_fract_x
_atom_site_fract_y
_atom_site_fract_z
Si Si1 0.385660 0.831595 0.201243
Si Si2 0.105225 0.826995 0.722039
Si Si3 0.834594 0.536563 0.666807
Si Si4 0.588133 0.035949 0.264072
Si Si5 0.211214 0.583957 0.042580
Si Si6 0.779093 0.778533 0.726179
O O1 0.396924 0.685287 0.204506
O O2 0.542323 0.925604 0.211775
O O3 0.078543 0.696963 0.411184
O O4 0.500000 0.000000 0.000000
O O5 0.315315 0.933766 0.482887
O O6 0.877282 0.795862 0.798490
O O7 0.253066 0.958783 0.719948
O O8 0.962009 0.605961 0.893255
O O9 0.731311 0.621260 0.726041
O O10 0.935563 0.508875 0.735105
O O11 0.777096 0.264953 0.063179
O O12 0.505017 0.698131 0.890447
O O13 0.000000 0.000000 0.500000
#
# Coordination Sequence:
#
# PCOD8008689 Si02
#       6
#     2   2   2   2   2   2
#     4  11  20  35  56  79 119 149 183 228 271 339
#     4  10  21  34  54  86 115 139 184 238 282 322
#     4  10  21  33  53  87 108 144 195 225 272 325
#     4  11  20  35  55  86 113 144 182 234 288 320
#     4  11  19  36  58  83 112 144 187 234 278 330
#     4  11  20  37  60  83 112 149 189 232 279 327
#
# _framework density 19.637523999999999
#
# number of rings (size 3 to 8) (size 9 to 14) (size 15 to 20)
#    0.000    1.333    6.667    2.500    0.000    0.000 
#    0.000    0.000    0.000    5.000    0.000    0.000 
#    0.000    0.000    0.000    0.000    0.000    0.000 
#
# Total GULP energy -148680.740054 kJ/mol
# GULP energy per Si atom -12390.061671 kJ/mol
# Density = 1.959283 g / cm^3
# Si number density = 19.637524 Si / 1000 Ang^3
#
#
#
# Elastic Constant Matrix: (Units=GPa)
#
#
# Indices 1 2 3 4 5 6 
#
# 1 55.3672 49.0202 13.1900 4.1799 11.9953 16.4845
# 2 49.0202 113.2751 19.3066 -13.0389 16.9016 28.2558
# 3 13.1900 19.3066 95.9277 -13.1500 20.2489 5.1913
# 4 4.1799 -13.0389 -13.1500 33.3026 -5.3187 3.6244
# 5 11.9953 16.9016 20.2489 -5.3187 22.6708 -3.7963
# 6 16.4845 28.2558 5.1913 3.6244 -3.7963 32.6344
#
#
#
# Elastic Compliance Matrix: (Units=1/GPa)
#
#
# Indices 1 2 3 4 5 6 
#
# 1 0.034988 -0.012850 -0.000874 -0.010940 -0.011819 -0.006569
# 2 -0.012850 0.020014 0.001893 0.010107 -0.009683 -0.013388
# 3 -0.000874 0.001893 0.013897 0.004835 -0.013143 -0.005474
# 4 -0.010940 0.010107 0.004835 0.038400 0.001592 -0.008073
# 5 -0.011819 -0.009683 -0.013143 0.001592 0.073858 0.024860
# 6 -0.006569 -0.013388 -0.005474 -0.008073 0.024860 0.050211
#
#
# Mechanical properties :
#
#
# Convention : Reuss Voigt Hill
#
# Bulk Modulus (GPa) = 22.10579 47.51151 34.80865
# Shear Modulus (GPa) = 18.51100 29.92510 24.21805
#
# Velocity S-wave (km/s) = 3.07357 3.90792 3.51558
# Velocity P-wave (km/s) = 4.88642 6.67901 5.85176
#
# Compressibility (1/GPa) = 0.04523703
#
# Stress axis : x y z
#
# Youngs Moduli (GPa) = 28.58105 49.96518 71.95718
#
# Poissons Ratio (x) = 0.64203 0.06291
# Poissons Ratio (y) = 0.36726 -0.13620
# Poissons Ratio (z) = 0.02499 -0.09457
#
# Static dielectric constant tensor:
#      x y z
#    x 3.249130 0.178190 0.198920 
#    y 0.178190 3.743980 -0.207220 
#    z 0.198920 -0.207220 4.196200 
# 
# 
# High freq. dielectric constant tensor:
#      x y z
#    x 1.727840 0.020580 0.018000 
#    y 0.020580 1.758100 -0.025500 
#    z 0.018000 -0.025500 1.786850 
# 
# From -- ./inp_files/247296.got.cif
#   From: 2010.06.25/outbox.cif.g09.slc.cpg/sg2_124_cif.got.tgz:247296.got - 2010.06.27 13:26:56.
