data_PCOD8008848
_publ_section_title
;
Structure prediction by ZEFSAII (Michael W. Deem and Ramdas Pophale) SiO2 
 PCOD8008848
Probable space group: P -1
;
_chemical_formula_sum "Si O2"
_cell_formula_units_Z 16
_cell_length_a 9.151307
_cell_length_b 9.394071
_cell_length_c 11.712936
_cell_angle_alpha 88.230027
_cell_angle_beta 91.234152
_cell_angle_gamma 125.067501
_cell_volume 823.752258
_symmetry_space_group_name_H-M "P -1"
_symmetry_group_IT_number 2
_symmetry_cell_setting 'triclinic'
loop_
_space_group_symop_operation_xyz
x,y,z
-x,-y,-z
loop_
_atom_site_type_symbol
_atom_site_label
_atom_site_fract_x
_atom_site_fract_y
_atom_site_fract_z
Si Si1 0.936516 0.933625 0.873943
Si Si2 0.739049 0.450552 0.525235
Si Si3 0.086910 0.793707 0.267180
Si Si4 0.749408 0.953338 0.282988
Si Si5 0.694942 0.594077 0.308992
Si Si6 0.128635 0.775947 0.523161
Si Si7 0.633700 0.289612 0.764644
Si Si8 0.404818 0.455040 0.119652
O O1 0.766618 0.738819 0.877754
O O2 0.879623 0.048616 0.810905
O O3 0.094844 0.941201 0.809998
O O4 0.000000 0.000000 0.000000
O O5 0.635546 0.489932 0.430456
O O6 0.760692 0.307966 0.472247
O O7 0.630076 0.375689 0.642567
O O8 0.926125 0.628073 0.557036
O O9 0.142108 0.856722 0.397113
O O10 0.206532 0.732653 0.220943
O O11 0.880179 0.626643 0.265679
O O12 0.738297 0.783481 0.325295
O O13 0.560153 0.895200 0.225533
O O14 0.786197 0.068773 0.390449
O O15 0.542158 0.479318 0.217679
O O16 0.654721 0.415260 0.863332
O O17 0.500000 0.500000 0.000000
#
# Coordination Sequence:
#
# PCOD8008848 Si02
#       8
#     2   2   2   2   2   2   2   2
#     4  11  23  41  60  80 110 146 187 233 280 328
#     4   9  18  33  54  83 117 149 183 225 274 327
#     4   9  20  38  58  83 116 148 183 227 275 330
#     4  10  21  35  55  83 116 149 185 227 275 327
#     4   9  20  36  56  83 115 147 186 229 274 326
#     4   9  18  33  54  83 118 150 182 225 275 327
#     4  10  21  37  58  85 116 148 185 226 274 332
#     4  11  23  41  61  81 108 144 189 235 279 328
#
# _framework density 19.423317000000001
#
# number of rings (size 3 to 8) (size 9 to 14) (size 15 to 20)
#    0.000    2.250    0.000    3.750    0.000   11.500 
#    0.000    6.250    0.000    0.000    0.000    0.000 
#    0.000    0.000    0.000    0.000    0.000    0.000 
#
# Total GULP energy -198402.618215 kJ/mol
# GULP energy per Si atom -12400.163638 kJ/mol
# Density = 1.937911 g / cm^3
# Si number density = 19.423317 Si / 1000 Ang^3
#
#
#
# Elastic Constant Matrix: (Units=GPa)
#
#
# Indices 1 2 3 4 5 6 
#
# 1 99.3198 48.9313 28.2202 11.3441 -14.3279 7.9130
# 2 48.9313 129.7653 67.5384 16.0751 -3.2758 14.7268
# 3 28.2202 67.5384 86.6365 14.4438 -14.7390 -2.6753
# 4 11.3441 16.0751 14.4438 36.5948 2.8525 -2.3731
# 5 -14.3279 -3.2758 -14.7390 2.8525 28.4975 -1.7067
# 6 7.9130 14.7268 -2.6753 -2.3731 -1.7067 21.9354
#
#
#
# Elastic Compliance Matrix: (Units=1/GPa)
#
#
# Indices 1 2 3 4 5 6 
#
# 1 0.013726 -0.005114 0.001225 -0.003127 0.007191 -0.001147
# 2 -0.005114 0.018621 -0.014558 -0.001031 -0.008648 -0.013216
# 3 0.001225 -0.014558 0.025947 -0.004438 0.013590 0.013073
# 4 -0.003127 -0.001031 -0.004438 0.031304 -0.006872 0.004131
# 5 0.007191 -0.008648 0.013590 -0.006872 0.045890 0.007697
# 6 -0.001147 -0.013216 0.013073 0.004131 0.007697 0.057516
#
#
# Mechanical properties :
#
#
# Convention : Reuss Voigt Hill
#
# Bulk Modulus (GPa) = 46.72728 67.23348 56.98038
# Shear Modulus (GPa) = 21.09435 28.80767 24.95101
#
# Velocity S-wave (km/s) = 3.29908 3.85535 3.58801
# Velocity P-wave (km/s) = 6.21461 7.38297 6.82384
#
# Compressibility (1/GPa) = 0.02140077
#
# Stress axis : x y z
#
# Youngs Moduli (GPa) = 72.85473 53.70336 38.53937
#
# Poissons Ratio (x) = 0.27466 -0.04722
# Poissons Ratio (y) = 0.37260 0.56104
# Poissons Ratio (z) = -0.08926 0.78179
#
# Static dielectric constant tensor:
#      x y z
#    x 3.757350 0.153800 -0.093600 
#    y 0.153800 3.530930 -0.095220 
#    z -0.093600 -0.095220 3.495240 
# 
# 
# High freq. dielectric constant tensor:
#      x y z
#    x 1.765750 0.009060 -0.009320 
#    y 0.009060 1.752130 -0.003010 
#    z -0.009320 -0.003010 1.749310 
# 
# From -- ./inp_files/218694.got.cif
#   From: 2010.06.25/outbox.cif.g09.slc.cpg/sg2_110_cif.got.tgz:218694.got - 2010.06.27 13:26:56.
