data_PCOD8008768
_publ_section_title
;
Structure prediction by ZEFSAII (Michael W. Deem and Ramdas Pophale) SiO2 
 PCOD8008768
Probable space group: P -1
;
_chemical_formula_sum "Si O2"
_cell_formula_units_Z 16
_cell_length_a 14.441192
_cell_length_b 15.009700
_cell_length_c 17.992472
_cell_angle_alpha 36.016466
_cell_angle_beta 159.920205
_cell_angle_gamma 133.277684
_cell_volume 732.319650
_symmetry_space_group_name_H-M "P -1"
_symmetry_group_IT_number 2
_symmetry_cell_setting 'triclinic'
loop_
_space_group_symop_operation_xyz
x,y,z
-x,-y,-z
loop_
_atom_site_type_symbol
_atom_site_label
_atom_site_fract_x
_atom_site_fract_y
_atom_site_fract_z
Si Si1 0.669398 0.284253 0.229273
Si Si2 0.874437 0.629163 0.913310
Si Si3 0.856216 0.351389 0.753165
Si Si4 0.761542 0.422862 0.355908
Si Si5 0.091900 0.213301 0.869079
Si Si6 0.686192 0.372326 0.870953
Si Si7 0.540560 0.130286 0.668852
Si Si8 0.947159 0.962176 0.569643
O O1 0.823925 0.321371 0.393772
O O2 0.897373 0.123544 0.472031
O O3 0.565854 0.439717 0.989209
O O4 0.365109 0.268422 0.030361
O O5 0.806658 0.467094 0.958119
O O6 0.635091 0.792379 0.590387
O O7 0.892301 0.648287 0.002195
O O8 0.180144 0.612107 0.118428
O O9 0.661913 0.538028 0.457990
O O10 0.655834 0.263665 0.701020
O O11 0.993881 0.242227 0.859953
O O12 0.000000 0.500000 0.500000
O O13 0.809208 0.303095 0.543125
O O14 0.189275 0.025842 0.047022
O O15 0.770480 0.185548 0.087107
O O16 0.334748 0.088481 0.601877
O O17 0.000000 0.000000 0.500000
#
# Coordination Sequence:
#
# PCOD8008768 Si02
#       8
#     2   2   2   2   2   2   2   2
#     4   9  20  39  62  85 120 164 194 242 310 345
#     4   9  19  38  59  79 118 159 197 241 301 353
#     4  11  21  35  62  88 117 160 199 242 298 358
#     4   9  19  39  62  85 121 157 200 247 295 357
#     4  10  21  34  57  93 118 150 199 247 300 354
#     4   9  20  37  56  84 117 156 198 246 294 348
#     4   9  21  39  57  86 123 156 193 247 303 346
#     4  10  21  39  63  88 118 159 200 250 299 351
#
# _framework density 21.848382999999998
#
# number of rings (size 3 to 8) (size 9 to 14) (size 15 to 20)
#    0.000    2.500    0.000    1.500    1.750    5.500 
#    4.500    2.500    0.000   13.500    0.000    0.000 
#    0.000    0.000    0.000    0.000    0.000    0.000 
#
# Total GULP energy -198303.773800 kJ/mol
# GULP energy per Si atom -12393.985862 kJ/mol
# Density = 2.179865 g / cm^3
# Si number density = 21.848383 Si / 1000 Ang^3
#
#
#
# Elastic Constant Matrix: (Units=GPa)
#
#
# Indices 1 2 3 4 5 6 
#
# 1 88.1476 46.9880 41.3801 -4.1035 -23.8864 -12.0552
# 2 46.9880 96.3973 56.1663 -18.5822 -18.7612 -22.9403
# 3 41.3801 56.1663 105.5101 -20.5637 -21.5900 -5.6281
# 4 -4.1035 -18.5822 -20.5637 41.9433 -7.0662 -7.8130
# 5 -23.8864 -18.7612 -21.5900 -7.0662 27.0396 7.8210
# 6 -12.0552 -22.9403 -5.6281 -7.8130 7.8210 20.4570
#
#
#
# Elastic Compliance Matrix: (Units=1/GPa)
#
#
# Indices 1 2 3 4 5 6 
#
# 1 0.018127 -0.005733 -0.001893 0.000036 0.010625 -0.000316
# 2 -0.005733 0.028408 -0.007708 0.014523 0.003439 0.030589
# 3 -0.001893 -0.007708 0.016962 0.005088 0.009853 -0.006916
# 4 0.000036 0.014523 0.005088 0.040622 0.017065 0.026698
# 5 0.010625 0.003439 0.009853 0.017065 0.062385 -0.004505
# 6 -0.000316 0.030589 -0.006916 0.026698 -0.004505 0.093015
#
#
# Mechanical properties :
#
#
# Convention : Reuss Voigt Hill
#
# Bulk Modulus (GPa) = 30.46107 64.34709 47.40408
# Shear Modulus (GPa) = 16.60415 27.58936 22.09676
#
# Velocity S-wave (km/s) = 2.75975 3.55739 3.18365
# Velocity P-wave (km/s) = 4.91195 6.81095 5.93786
#
# Compressibility (1/GPa) = 0.03282879
#
# Stress axis : x y z
#
# Youngs Moduli (GPa) = 55.16635 35.20164 58.95444
#
# Poissons Ratio (x) = 0.20182 0.11160
# Poissons Ratio (y) = 0.31628 0.45442
# Poissons Ratio (z) = 0.10443 0.27133
#
# Static dielectric constant tensor:
#      x y z
#    x 3.732890 0.073170 -0.151690 
#    y 0.073170 4.036700 -0.268910 
#    z -0.151690 -0.268910 4.181050 
# 
# 
# High freq. dielectric constant tensor:
#      x y z
#    x 1.838140 -0.005880 -0.006100 
#    y -0.005880 1.854830 -0.018200 
#    z -0.006100 -0.018200 1.862600 
# 
# From -- ./inp_files/451992.got.cif
#   From: 2010.06.25/outbox.cif.g09.slc.cpg/sg2_226_cif.got.tgz:451992.got - 2010.06.27 13:26:56.
