data_PCOD8008684
_publ_section_title
;
Structure prediction by ZEFSAII (Michael W. Deem and Ramdas Pophale) SiO2 
 PCOD8008684
Probable space group: P -1
;
_chemical_formula_sum "Si O2"
_cell_formula_units_Z 16
_cell_length_a 11.852626
_cell_length_b 5.048604
_cell_length_c 19.753581
_cell_angle_alpha 111.360812
_cell_angle_beta 44.908163
_cell_angle_gamma 98.372469
_cell_volume 765.728861
_symmetry_space_group_name_H-M "P -1"
_symmetry_group_IT_number 2
_symmetry_cell_setting 'triclinic'
loop_
_space_group_symop_operation_xyz
x,y,z
-x,-y,-z
loop_
_atom_site_type_symbol
_atom_site_label
_atom_site_fract_x
_atom_site_fract_y
_atom_site_fract_z
Si Si1 0.844533 0.590168 0.801605
Si Si2 0.560980 0.542575 0.236520
Si Si3 0.772636 0.964919 0.142476
Si Si4 0.037233 0.396704 0.576399
Si Si5 0.094641 0.133892 0.065594
Si Si6 0.595363 0.246342 0.064710
Si Si7 0.631531 0.170636 0.895348
Si Si8 0.798488 0.244485 0.557537
O O1 0.899431 0.609437 0.858588
O O2 0.764805 0.902051 0.837958
O O3 0.997957 0.468797 0.678194
O O4 0.716911 0.368883 0.828128
O O5 0.690172 0.758389 0.207291
O O6 0.521492 0.505220 0.169954
O O7 0.394862 0.667161 0.356242
O O8 0.635586 0.234761 0.207064
O O9 0.848902 0.788733 0.026757
O O10 0.912898 0.070376 0.136049
O O11 0.123616 0.648883 0.533296
O O12 0.870316 0.385510 0.605674
O O13 0.161057 0.099607 0.488257
O O14 0.212717 0.842513 0.011771
O O15 0.515383 0.959493 0.088466
O O16 0.562317 0.348672 0.009946
#
# Coordination Sequence:
#
# PCOD8008684 Si02
#       8
#     2   2   2   2   2   2   2   2
#     4  11  21  36  57  80 112 148 179 220 271 324
#     4  11  21  36  58  78 107 145 183 225 271 316
#     4  10  22  37  56  82 109 144 187 225 265 317
#     4  10  21  36  57  82 108 139 178 221 270 329
#     4   9  21  37  56  81 112 145 184 225 266 316
#     4   9  20  34  53  81 114 146 176 217 266 326
#     4  10  21  33  51  83 117 144 175 209 266 338
#     4  10  21  37  56  81 109 139 178 224 271 321
#
# _framework density 20.895126000000001
#
# number of rings (size 3 to 8) (size 9 to 14) (size 15 to 20)
#    0.000    2.000    0.000    3.000    0.000   17.000 
#    0.000    0.000    0.000    4.500    0.000    0.000 
#    0.000    0.000    0.000    0.000    0.000    0.000 
#
# Total GULP energy -198424.802794 kJ/mol
# GULP energy per Si atom -12401.550175 kJ/mol
# Density = 2.084757 g / cm^3
# Si number density = 20.895126 Si / 1000 Ang^3
#
#
#
# Elastic Constant Matrix: (Units=GPa)
#
#
# Indices 1 2 3 4 5 6 
#
# 1 67.3727 6.1735 32.6600 -1.7812 -8.0453 13.2835
# 2 6.1735 72.5565 21.8643 -13.0152 -0.3949 2.5644
# 3 32.6600 21.8643 101.5164 -10.2182 -6.9219 10.6495
# 4 -1.7812 -13.0152 -10.2182 24.7263 -0.0845 -2.8577
# 5 -8.0453 -0.3949 -6.9219 -0.0845 24.7336 -7.2011
# 6 13.2835 2.5644 10.6495 -2.8577 -7.2011 18.7962
#
#
#
# Elastic Compliance Matrix: (Units=1/GPa)
#
#
# Indices 1 2 3 4 5 6 
#
# 1 0.019643 -0.000058 -0.005283 -0.002003 0.001853 -0.010475
# 2 -0.000058 0.015903 -0.002741 0.007276 -0.000397 0.000379
# 3 -0.005283 -0.002741 0.012774 0.003207 0.001187 -0.002187
# 4 -0.002003 0.007276 0.003207 0.046221 0.002431 0.006565
# 5 0.001853 -0.000397 0.001187 0.002431 0.046051 0.016084
# 6 -0.010475 0.000379 -0.002187 0.006565 0.016084 0.068953
#
#
# Mechanical properties :
#
#
# Convention : Reuss Voigt Hill
#
# Bulk Modulus (GPa) = 31.09940 40.31569 35.70755
# Shear Modulus (GPa) = 21.14813 25.70108 23.42461
#
# Velocity S-wave (km/s) = 3.18482 3.51095 3.35185
# Velocity P-wave (km/s) = 5.33291 5.98096 5.66621
#
# Compressibility (1/GPa) = 0.03215496
#
# Stress axis : x y z
#
# Youngs Moduli (GPa) = 50.90864 62.88147 78.28471
#
# Poissons Ratio (x) = 0.00366 0.41361
# Poissons Ratio (y) = 0.00297 0.21456
# Poissons Ratio (z) = 0.26897 0.17234
#
# Static dielectric constant tensor:
#      x y z
#    x 3.675950 0.071720 0.022830 
#    y 0.071720 3.701900 -0.002020 
#    z 0.022830 -0.002020 3.657790 
# 
# 
# High freq. dielectric constant tensor:
#      x y z
#    x 1.797270 -0.003820 -0.011130 
#    y -0.003820 1.823840 -0.002270 
#    z -0.011130 -0.002270 1.804960 
# 
# From -- ./inp_files/370821.got.cif
#   From: 2010.06.25/outbox.cif.g09.slc.cpg/sg2_186_cif.got.tgz:370821.got - 2010.06.27 13:26:56.
