data_PCOD8008464
_publ_section_title
;
Structure prediction by ZEFSAII (Michael W. Deem and Ramdas Pophale) SiO2 
 PCOD8008464
Probable space group: P -1
;
_chemical_formula_sum "Si O2"
_cell_formula_units_Z 14
_cell_length_a 14.247839
_cell_length_b 9.384244
_cell_length_c 11.652490
_cell_angle_alpha 114.055550
_cell_angle_beta 150.042944
_cell_angle_gamma 62.521576
_cell_volume 690.110332
_symmetry_space_group_name_H-M "P -1"
_symmetry_group_IT_number 2
_symmetry_cell_setting 'triclinic'
loop_
_space_group_symop_operation_xyz
x,y,z
-x,-y,-z
loop_
_atom_site_type_symbol
_atom_site_label
_atom_site_fract_x
_atom_site_fract_y
_atom_site_fract_z
Si Si1 0.423122 0.705361 0.063429
Si Si2 0.789444 0.616942 0.549198
Si Si3 0.443176 0.737516 0.603072
Si Si4 0.513288 0.809256 0.954208
Si Si5 0.853394 0.522386 0.248973
Si Si6 0.225096 0.484145 0.250240
Si Si7 0.568348 0.944502 0.429444
O O1 0.357849 0.408336 0.719197
O O2 0.392030 0.760780 0.916010
O O3 0.276513 0.604899 0.918262
O O4 0.402352 0.866107 0.171041
O O5 0.709402 0.568006 0.568458
O O6 0.771236 0.809403 0.602533
O O7 0.011137 0.523625 0.735233
O O8 0.430013 0.749176 0.730719
O O9 0.282304 0.654014 0.351704
O O10 0.657385 0.643008 0.758728
O O11 0.392763 0.916052 0.561824
O O12 0.735162 0.707196 0.171566
O O13 0.500000 0.000000 0.000000
O O14 0.000000 0.500000 0.500000
O O15 0.000000 0.500000 0.000000
O O16 0.500000 0.000000 0.500000
#
# Coordination Sequence:
#
# PCOD8008464 Si02
#       7
#     2   2   2   2   2   2   2
#     4  10  23  43  66  95 134 176 217 265 336 387
#     4  10  22  42  66  95 127 171 222 260 324 394
#     4  11  23  43  66  94 131 169 216 271 330 393
#     4  12  23  43  71  97 135 177 215 274 339 382
#     4  12  24  41  67  96 131 176 225 260 322 405
#     4  11  24  42  65  96 129 171 217 270 332 384
#     4  10  20  43  69  89 128 173 215 269 324 384
#
# _framework density 20.286612999999999
#
# number of rings (size 3 to 8) (size 9 to 14) (size 15 to 20)
#    0.857    0.286    4.286    2.143    2.000    2.286 
#    2.571    2.143    0.000    0.000    0.000    0.000 
#    0.000    0.000    0.000    0.000    0.000    0.000 
#
# Total GULP energy -173501.756762 kJ/mol
# GULP energy per Si atom -12392.982626 kJ/mol
# Density = 2.024044 g / cm^3
# Si number density = 20.286613 Si / 1000 Ang^3
#
#
#
# Elastic Constant Matrix: (Units=GPa)
#
#
# Indices 1 2 3 4 5 6 
#
# 1 110.4237 28.3706 38.1611 8.9809 -8.8910 -3.3926
# 2 28.3706 125.2312 40.5138 9.9054 8.7005 0.9544
# 3 38.1611 40.5138 77.9164 2.4171 14.3038 4.0209
# 4 8.9809 9.9054 2.4171 26.2999 2.5390 -1.6472
# 5 -8.8910 8.7005 14.3038 2.5390 40.7074 -2.3944
# 6 -3.3926 0.9544 4.0209 -1.6472 -2.3944 36.2923
#
#
#
# Elastic Compliance Matrix: (Units=1/GPa)
#
#
# Indices 1 2 3 4 5 6 
#
# 1 0.012377 -0.000748 -0.006689 -0.003736 0.005571 0.002116
# 2 -0.000748 0.009917 -0.004611 -0.003009 -0.000474 0.000012
# 3 -0.006689 -0.004611 0.020028 0.002744 -0.007868 -0.003117
# 4 -0.003736 -0.003009 0.002744 0.040593 -0.003608 0.001030
# 5 0.005571 -0.000474 -0.007868 -0.003608 0.029059 0.003158
# 6 0.002116 0.000012 -0.003117 0.001030 0.003158 0.028352
#
#
# Mechanical properties :
#
#
# Convention : Reuss Voigt Hill
#
# Bulk Modulus (GPa) = 54.86297 58.62916 56.74606
# Shear Modulus (GPa) = 29.32607 34.42831 31.87719
#
# Velocity S-wave (km/s) = 3.80621 4.12405 3.96832
# Velocity P-wave (km/s) = 6.81315 7.18611 7.00211
#
# Compressibility (1/GPa) = 0.01822723
#
# Stress axis : x y z
#
# Youngs Moduli (GPa) = 80.79340 100.83606 49.93038
#
# Poissons Ratio (x) = 0.07539 0.33400
# Poissons Ratio (y) = 0.06041 0.23021
# Poissons Ratio (z) = 0.54045 0.46491
#
# Static dielectric constant tensor:
#      x y z
#    x 4.284500 0.151510 -0.342870 
#    y 0.151510 4.123080 -0.130390 
#    z -0.342870 -0.130390 3.642270 
# 
# 
# High freq. dielectric constant tensor:
#      x y z
#    x 1.806510 0.002050 -0.022220 
#    y 0.002050 1.799010 0.008200 
#    z -0.022220 0.008200 1.772900 
# 
# From -- ./inp_files/446371.got.cif
#   From: 2010.06.25/outbox.cif.g09.slc.cpg/sg2_224_cif.got.tgz:446371.got - 2010.06.27 13:26:56.
