data_PCOD8008128
_publ_section_title
;
Structure prediction by ZEFSAII (Michael W. Deem and Ramdas Pophale) SiO2 
 PCOD8008128
Probable space group: P -1
;
_chemical_formula_sum "Si O2"
_cell_formula_units_Z 14
_cell_length_a 21.280807
_cell_length_b 12.153375
_cell_length_c 8.993328
_cell_angle_alpha 64.518793
_cell_angle_beta 137.551706
_cell_angle_gamma 149.836633
_cell_volume 623.447067
_symmetry_space_group_name_H-M "P -1"
_symmetry_group_IT_number 2
_symmetry_cell_setting 'triclinic'
loop_
_space_group_symop_operation_xyz
x,y,z
-x,-y,-z
loop_
_atom_site_type_symbol
_atom_site_label
_atom_site_fract_x
_atom_site_fract_y
_atom_site_fract_z
Si Si1 0.462924 0.761970 0.560807
Si Si2 0.497303 0.401932 0.852205
Si Si3 0.830872 0.807772 0.687340
Si Si4 0.757671 0.927020 0.118816
Si Si5 0.565373 0.082356 0.318970
Si Si6 0.809880 0.360273 0.292897
Si Si7 0.880643 0.700690 0.286739
O O1 0.271578 0.443088 0.380880
O O2 0.390880 0.760607 0.574715
O O3 0.507732 0.891016 0.416024
O O4 0.682759 0.948039 0.868178
O O5 0.354410 0.309112 0.536291
O O6 0.344760 0.164156 0.846332
O O7 0.672534 0.696987 0.053660
O O8 0.635291 0.452954 0.000370
O O9 0.964877 0.009156 0.662851
O O10 0.000000 0.000000 0.000000
O O11 0.013739 0.219294 0.416947
O O12 0.761208 0.291105 0.426070
O O13 0.378459 0.904985 0.987256
O O14 0.874167 0.575313 0.241445
O O15 0.000000 0.500000 0.500000
#
# Coordination Sequence:
#
# PCOD8008128 Si02
#       7
#     2   2   2   2   2   2   2
#     4  10  20  42  66  94 131 166 210 266 323 379
#     4   9  19  34  56  87 124 163 199 247 316 383
#     4  10  22  39  61  95 132 162 202 262 323 385
#     4   9  18  34  56  87 125 155 197 255 312 380
#     4  10  23  42  65  89 127 173 214 264 316 376
#     4  11  24  43  65  90 125 172 222 264 313 379
#     4  11  21  36  62  90 119 161 209 258 317 376
#
# _framework density 22.455797
#
# number of rings (size 3 to 8) (size 9 to 14) (size 15 to 20)
#    0.000    2.000    0.000    3.857    0.000    5.143 
#    0.000   13.571    0.000    0.000    0.000    0.000 
#    0.000    0.000    0.000    0.000    0.000    0.000 
#
# Total GULP energy -173456.613980 kJ/mol
# GULP energy per Si atom -12389.758141 kJ/mol
# Density = 2.240469 g / cm^3
# Si number density = 22.455797 Si / 1000 Ang^3
#
#
#
# Elastic Constant Matrix: (Units=GPa)
#
#
# Indices 1 2 3 4 5 6 
#
# 1 108.3796 50.8535 70.4694 -4.8848 12.4040 -2.8034
# 2 50.8535 119.1473 37.2527 -10.4762 -1.6101 -7.5524
# 3 70.4694 37.2527 165.7695 3.7306 10.9627 -1.2144
# 4 -4.8848 -10.4762 3.7306 30.3629 -0.1220 -2.9715
# 5 12.4040 -1.6101 10.9627 -0.1220 39.6053 2.4986
# 6 -2.8034 -7.5524 -1.2144 -2.9715 2.4986 32.0030
#
#
#
# Elastic Compliance Matrix: (Units=1/GPa)
#
#
# Indices 1 2 3 4 5 6 
#
# 1 0.015392 -0.004817 -0.005254 0.001487 -0.003585 0.000430
# 2 -0.004817 0.011122 -0.000643 0.003378 0.002002 0.002336
# 3 -0.005254 -0.000643 0.008503 -0.002157 -0.000714 -0.000434
# 4 0.001487 0.003378 -0.002157 0.035005 0.000119 0.004087
# 5 -0.003585 0.002002 -0.000714 0.000119 0.026774 -0.001948
# 6 0.000430 0.002336 -0.000434 0.004087 -0.001948 0.032351
#
#
# Mechanical properties :
#
#
# Convention : Reuss Voigt Hill
#
# Bulk Modulus (GPa) = 73.58893 78.93863 76.26378
# Shear Modulus (GPa) = 32.23644 36.04230 34.13937
#
# Velocity S-wave (km/s) = 3.79298 4.01063 3.90332
# Velocity P-wave (km/s) = 7.21276 7.52835 7.37225
#
# Compressibility (1/GPa) = 0.01358900
#
# Stress axis : x y z
#
# Youngs Moduli (GPa) = 64.97083 89.91099 117.60658
#
# Poissons Ratio (x) = 0.43310 0.61788
# Poissons Ratio (y) = 0.31297 0.07562
# Poissons Ratio (z) = 0.34134 0.05781
#
# Static dielectric constant tensor:
#      x y z
#    x 3.862440 -0.104400 0.096820 
#    y -0.104400 4.190630 -0.122260 
#    z 0.096820 -0.122260 4.467270 
# 
# 
# High freq. dielectric constant tensor:
#      x y z
#    x 1.863100 -0.020570 0.007450 
#    y -0.020570 1.885210 0.002810 
#    z 0.007450 0.002810 1.897280 
# 
# From -- ./inp_files/346054.got.cif
#   From: 2010.06.25/outbox.cif.g09.slc.cpg/sg2_174_cif.got.tgz:346054.got - 2010.06.27 13:26:56.
