data_PCOD8008565
_publ_section_title
;
Structure prediction by ZEFSAII (Michael W. Deem and Ramdas Pophale) SiO2 
 PCOD8008565
Probable space group: P -1
;
_chemical_formula_sum "Si O2"
_cell_formula_units_Z 16
_cell_length_a 15.174636
_cell_length_b 9.155464
_cell_length_c 9.564332
_cell_angle_alpha 46.452966
_cell_angle_beta 60.991497
_cell_angle_gamma 57.367018
_cell_volume 796.952427
_symmetry_space_group_name_H-M "P -1"
_symmetry_group_IT_number 2
_symmetry_cell_setting 'triclinic'
loop_
_space_group_symop_operation_xyz
x,y,z
-x,-y,-z
loop_
_atom_site_type_symbol
_atom_site_label
_atom_site_fract_x
_atom_site_fract_y
_atom_site_fract_z
Si Si1 0.053928 0.898275 0.386934
Si Si2 0.965136 0.548319 0.338231
Si Si3 0.287834 0.906230 0.128079
Si Si4 0.770073 0.970371 0.217603
Si Si5 0.595088 0.903444 0.886704
Si Si6 0.503792 0.552594 0.126261
Si Si7 0.576903 0.084382 0.476592
Si Si8 0.069607 0.837959 0.944966
O O1 0.053239 0.660553 0.565768
O O2 0.176059 0.877108 0.275209
O O3 0.000000 0.000000 0.500000
O O4 0.972207 0.054207 0.240450
O O5 0.857900 0.743282 0.288240
O O6 0.000000 0.500000 0.500000
O O7 0.054175 0.607637 0.135176
O O8 0.388448 0.687636 0.191846
O O9 0.302876 0.077664 0.117621
O O10 0.285573 0.988942 0.917208
O O11 0.691255 0.957227 0.409084
O O12 0.811130 0.165765 0.107483
O O13 0.576947 0.038553 0.670171
O O14 0.593962 0.667413 0.004006
O O15 0.500000 0.000000 0.000000
O O16 0.545023 0.337056 0.323141
O O17 0.500000 0.500000 0.000000
O O18 0.500000 0.000000 0.500000
O O19 0.000000 0.000000 0.000000
#
# Coordination Sequence:
#
# PCOD8008565 Si02
#       8
#     2   2   2   2   2   2   2   2
#     4  12  26  43  64 101 139 172 224 278 335 399
#     4  11  21  42  73  93 125 182 223 273 336 384
#     4  11  23  45  66  96 143 175 214 285 339 385
#     4  11  22  42  70  98 131 175 229 276 330 392
#     4  10  24  44  64  95 141 170 217 277 331 397
#     4  11  22  45  72  99 130 176 223 276 333 395
#     4  12  24  42  70 103 130 170 227 274 325 406
#     4  10  20  44  67  94 128 169 227 278 311 400
#
# _framework density 20.076481999999999
#
# number of rings (size 3 to 8) (size 9 to 14) (size 15 to 20)
#    0.000    1.000    7.500    0.750    3.500    2.500 
#    6.750    0.000    0.000    0.000    0.000    0.000 
#    0.000    0.000    0.000    0.000    0.000    0.000 
#
# Total GULP energy -198212.856983 kJ/mol
# GULP energy per Si atom -12388.303561 kJ/mol
# Density = 2.003079 g / cm^3
# Si number density = 20.076482 Si / 1000 Ang^3
#
#
#
# Elastic Constant Matrix: (Units=GPa)
#
#
# Indices 1 2 3 4 5 6 
#
# 1 105.5878 40.3118 49.3390 -0.9586 0.8096 33.3173
# 2 40.3118 104.2331 56.2953 -2.3410 -2.9382 21.2598
# 3 49.3390 56.2953 156.4663 -2.9621 8.7160 21.4953
# 4 -0.9586 -2.3410 -2.9621 49.1960 2.8902 -4.0514
# 5 0.8096 -2.9382 8.7160 2.8902 39.7086 -1.8562
# 6 33.3173 21.2598 21.4953 -4.0514 -1.8562 33.4451
#
#
#
# Elastic Compliance Matrix: (Units=1/GPa)
#
#
# Indices 1 2 3 4 5 6 
#
# 1 0.015336 -0.002146 -0.002330 -0.000950 -0.000478 -0.012558
# 2 -0.002146 0.013221 -0.003645 -0.000045 0.001646 -0.003837
# 3 -0.002330 -0.003645 0.008710 0.000350 -0.002208 -0.001040
# 4 -0.000950 -0.000045 0.000350 0.020672 -0.001417 0.003175
# 5 -0.000478 0.001646 -0.002208 -0.001417 0.026002 0.002120
# 6 -0.012558 -0.003837 -0.001040 0.003175 0.002120 0.046019
#
#
# Mechanical properties :
#
#
# Convention : Reuss Voigt Hill
#
# Bulk Modulus (GPa) = 47.56551 73.13104 60.34827
# Shear Modulus (GPa) = 32.63461 39.15934 35.89698
#
# Velocity S-wave (km/s) = 4.03614 4.42125 4.23308
# Velocity P-wave (km/s) = 6.74271 7.91003 7.34958
#
# Compressibility (1/GPa) = 0.02102364
#
# Stress axis : x y z
#
# Youngs Moduli (GPa) = 65.20394 75.63836 114.81166
#
# Poissons Ratio (x) = 0.16235 0.26752
# Poissons Ratio (y) = 0.13996 0.41853
# Poissons Ratio (z) = 0.15193 0.27573
#
# Static dielectric constant tensor:
#      x y z
#    x 2.612960 1.566940 1.138800 
#    y 1.566940 2.946660 -1.071750 
#    z 1.138800 -1.071750 2.579920 
# 
# 
# High freq. dielectric constant tensor:
#      x y z
#    x 1.793560 0.012620 -0.005470 
#    y 0.012620 1.777460 0.003510 
#    z -0.005470 0.003510 1.798000 
# 
# From -- ./inp_files/293996.got.cif
#   From: 2010.06.25/outbox.cif.g09.slc.cpg/sg2_147_cif.got.tgz:293996.got - 2010.06.27 13:26:56.
