data_PCOD8008781
_publ_section_title
;
Structure prediction by ZEFSAII (Michael W. Deem and Ramdas Pophale) SiO2 
 PCOD8008781
Probable space group: P -1
;
_chemical_formula_sum "Si O2"
_cell_formula_units_Z 14
_cell_length_a 14.157314
_cell_length_b 15.284848
_cell_length_c 13.580335
_cell_angle_alpha 40.612188
_cell_angle_beta 158.582666
_cell_angle_gamma 130.585728
_cell_volume 678.756550
_symmetry_space_group_name_H-M "P -1"
_symmetry_group_IT_number 2
_symmetry_cell_setting 'triclinic'
loop_
_space_group_symop_operation_xyz
x,y,z
-x,-y,-z
loop_
_atom_site_type_symbol
_atom_site_label
_atom_site_fract_x
_atom_site_fract_y
_atom_site_fract_z
Si Si1 0.927127 0.608552 0.423935
Si Si2 0.164711 0.086317 0.281906
Si Si3 0.346808 0.784860 0.667655
Si Si4 0.369033 0.801065 0.450208
Si Si5 0.333472 0.535382 0.551894
Si Si6 0.302819 0.549583 0.178041
Si Si7 0.990170 0.687000 0.920306
O O1 0.881560 0.532701 0.545826
O O2 0.000000 0.500000 0.500000
O O3 0.171975 0.678424 0.621831
O O4 0.657858 0.719170 0.040694
O O5 0.370780 0.143091 0.366039
O O6 0.154414 0.157223 0.320315
O O7 0.262826 0.922655 0.534424
O O8 0.878545 0.119883 0.922891
O O9 0.287164 0.830990 0.458096
O O10 0.442297 0.633409 0.650753
O O11 0.559780 0.413960 0.821290
O O12 0.222857 0.638648 0.267003
O O13 0.500000 0.500000 0.500000
O O14 0.191578 0.419444 0.150727
O O15 0.086758 0.679922 0.904727
#
# Coordination Sequence:
#
# PCOD8008781 Si02
#       7
#     2   2   2   2   2   2   2
#     4  12  26  40  59  82 122 166 203 240 270 348
#     4  11  22  38  60  88 120 156 191 247 299 348
#     4  12  25  40  57  85 123 163 203 231 288 347
#     4  11  21  36  61  86 117 157 196 246 294 339
#     4  10  21  34  59  83 121 149 197 238 299 335
#     4   9  17  34  56  92 109 143 185 247 311 340
#     4   9  19  33  60  88 116 140 190 250 305 342
#
# _framework density 20.625951000000001
#
# number of rings (size 3 to 8) (size 9 to 14) (size 15 to 20)
#    0.000    1.429    2.857    3.000    4.000    0.000 
#    0.000    0.000    0.000    1.714    0.000    0.000 
#    0.000    0.000    0.000    0.000    0.000    0.000 
#
# Total GULP energy -173485.251475 kJ/mol
# GULP energy per Si atom -12391.803677 kJ/mol
# Density = 2.057900 g / cm^3
# Si number density = 20.625951 Si / 1000 Ang^3
#
#
#
# Elastic Constant Matrix: (Units=GPa)
#
#
# Indices 1 2 3 4 5 6 
#
# 1 102.9228 40.2260 17.3891 -20.7310 42.8386 -5.5412
# 2 40.2260 101.9869 11.6487 -21.1611 22.8747 -14.1844
# 3 17.3891 11.6487 62.0931 -13.0077 17.5877 -13.2807
# 4 -20.7310 -21.1611 -13.0077 38.9088 -5.9688 11.6234
# 5 42.8386 22.8747 17.5877 -5.9688 32.2494 -1.7442
# 6 -5.5412 -14.1844 -13.2807 11.6234 -1.7442 35.1981
#
#
#
# Elastic Compliance Matrix: (Units=1/GPa)
#
#
# Indices 1 2 3 4 5 6 
#
# 1 0.025118 -0.000939 0.004692 0.009092 -0.033538 0.000682
# 2 -0.000939 0.013365 0.001953 0.004998 -0.008160 0.003920
# 3 0.004692 0.001953 0.022406 0.006138 -0.018320 0.007045
# 4 0.009092 0.004998 0.006138 0.035305 -0.012789 -0.006531
# 5 -0.033538 -0.008160 -0.018320 -0.012789 0.088600 -0.006867
# 6 0.000682 0.003920 0.007045 -0.006531 -0.006867 0.034572
#
#
# Mechanical properties :
#
#
# Convention : Reuss Voigt Hill
#
# Bulk Modulus (GPa) = 13.83128 45.05893 29.44511
# Shear Modulus (GPa) = 21.54659 34.45387 28.00023
#
# Velocity S-wave (km/s) = 3.23559 4.09150 3.68846
# Velocity P-wave (km/s) = 4.54742 6.64934 5.69617
#
# Compressibility (1/GPa) = 0.07229987
#
# Stress axis : x y z
#
# Youngs Moduli (GPa) = 39.81250 74.82152 44.63037
#
# Poissons Ratio (x) = 0.07028 -0.20941
# Poissons Ratio (y) = 0.03739 -0.08714
# Poissons Ratio (z) = -0.18680 -0.14609
#
# Static dielectric constant tensor:
#      x y z
#    x 4.139810 -0.374600 0.741320 
#    y -0.374600 3.844430 -0.126350 
#    z 0.741320 -0.126350 3.785750 
# 
# 
# High freq. dielectric constant tensor:
#      x y z
#    x 1.798980 -0.022450 0.038980 
#    y -0.022450 1.807700 0.018680 
#    z 0.038980 0.018680 1.794290 
# 
# From -- ./inp_files/38123.got.cif
#   From: 2010.06.25/outbox.cif.g09.slc.cpg/sg2_20_cif.got.tgz:38123.got - 2010.06.27 13:26:56.
