data_PCOD8008739
_publ_section_title
;
Structure prediction by ZEFSAII (Michael W. Deem and Ramdas Pophale) SiO2 
 PCOD8008739
Probable space group: P -1
;
_chemical_formula_sum "Si O2"
_cell_formula_units_Z 14
_cell_length_a 8.165209
_cell_length_b 12.136699
_cell_length_c 11.435328
_cell_angle_alpha 110.573934
_cell_angle_beta 48.716434
_cell_angle_gamma 81.519035
_cell_volume 671.429447
_symmetry_space_group_name_H-M "P -1"
_symmetry_group_IT_number 2
_symmetry_cell_setting 'triclinic'
loop_
_space_group_symop_operation_xyz
x,y,z
-x,-y,-z
loop_
_atom_site_type_symbol
_atom_site_label
_atom_site_fract_x
_atom_site_fract_y
_atom_site_fract_z
Si Si1 0.323617 0.297587 0.068734
Si Si2 0.633172 0.603831 0.278766
Si Si3 0.344826 0.862420 0.356925
Si Si4 0.803129 0.429217 0.456365
Si Si5 0.855688 0.443537 0.888178
Si Si6 0.254713 0.304909 0.358564
Si Si7 0.091714 0.164067 0.545631
O O1 0.317422 0.437151 0.082700
O O2 0.425924 0.253210 0.138513
O O3 0.024951 0.336673 0.220124
O O4 0.504430 0.171151 0.850478
O O5 0.529373 0.757102 0.331064
O O6 0.419790 0.603345 0.460373
O O7 0.876219 0.562832 0.228633
O O8 0.707013 0.489622 0.098933
O O9 0.095740 0.851102 0.459889
O O10 0.255808 0.021013 0.489932
O O11 0.684383 0.594973 0.558980
O O12 0.946494 0.389751 0.501703
O O13 0.914497 0.293432 0.764719
O O14 0.295057 0.182875 0.381118
#
# Coordination Sequence:
#
# PCOD8008739 Si02
#       7
#     2   2   2   2   2   2   2
#     4   9  18  33  53  79 101 133 169 215 262 294
#     4  10  21  36  53  80 104 135 174 216 256 306
#     4  10  22  33  55  77 105 140 173 210 255 307
#     4   9  16  31  53  74 105 126 166 215 258 293
#     4  10  21  34  55  79 103 136 176 213 257 304
#     4   9  17  31  50  82 101 130 164 220 251 308
#     4  11  20  36  52  79 106 138 174 208 258 310
#
# _framework density 20.851036000000001
#
# number of rings (size 3 to 8) (size 9 to 14) (size 15 to 20)
#    0.857    1.429    2.857    0.000    2.000    2.857 
#    0.000    0.000    0.000    0.857    0.000    0.000 
#    0.000    0.000    0.000    0.000    0.000    0.000 
#
# Total GULP energy -173469.339518 kJ/mol
# GULP energy per Si atom -12390.667108 kJ/mol
# Density = 2.080358 g / cm^3
# Si number density = 20.851036 Si / 1000 Ang^3
#
#
#
# Elastic Constant Matrix: (Units=GPa)
#
#
# Indices 1 2 3 4 5 6 
#
# 1 19.8136 9.7579 -8.1453 9.2873 1.2265 -6.3285
# 2 9.7579 110.6966 33.3135 17.9853 4.3995 -8.3847
# 3 -8.1453 33.3135 72.3527 8.6845 1.3535 -5.7205
# 4 9.2873 17.9853 8.6845 40.4985 1.8067 -2.9122
# 5 1.2265 4.3995 1.3535 1.8067 19.2174 -4.0093
# 6 -6.3285 -8.3847 -5.7205 -2.9122 -4.0093 21.6161
#
#
#
# Elastic Compliance Matrix: (Units=1/GPa)
#
#
# Indices 1 2 3 4 5 6 
#
# 1 0.074130 -0.006990 0.015090 -0.015684 0.001701 0.021187
# 2 -0.006990 0.011902 -0.005929 -0.002313 -0.001560 0.000400
# 3 0.015090 -0.005929 0.019312 -0.004520 0.000874 0.006782
# 4 -0.015684 -0.002313 -0.004520 0.030147 -0.001594 -0.002919
# 5 0.001701 -0.001560 0.000874 -0.001594 0.054462 0.010011
# 6 0.021187 0.000400 0.006782 -0.002919 0.010011 0.055878
#
#
# Mechanical properties :
#
#
# Convention : Reuss Voigt Hill
#
# Bulk Modulus (GPa) = 9.11695 30.30167 19.70931
# Shear Modulus (GPa) = 17.98230 27.46218 22.72224
#
# Velocity S-wave (km/s) = 2.93988 3.63308 3.30470
# Velocity P-wave (km/s) = 3.98820 5.67124 4.90249
#
# Compressibility (1/GPa) = 0.10968576
#
# Stress axis : x y z
#
# Youngs Moduli (GPa) = 13.48985 84.01794 51.78087
#
# Poissons Ratio (x) = 0.58732 -0.78137
# Poissons Ratio (y) = 0.09430 0.30699
# Poissons Ratio (z) = -0.20356 0.49812
#
# Static dielectric constant tensor:
#      x y z
#    x 3.343270 -0.117940 -0.022520 
#    y -0.117940 3.666390 -0.040930 
#    z -0.022520 -0.040930 3.657760 
# 
# 
# High freq. dielectric constant tensor:
#      x y z
#    x 1.779180 -0.007730 0.003750 
#    y -0.007730 1.811090 -0.015450 
#    z 0.003750 -0.015450 1.801050 
# 
# From -- ./inp_files/261256.got.cif
#   From: 2010.06.25/outbox.cif.g09.slc.cpg/sg2_131_cif.got.tgz:261256.got - 2010.06.27 13:26:56.
