data_PCOD8008424
_publ_section_title
;
Structure prediction by ZEFSAII (Michael W. Deem and Ramdas Pophale) SiO2 
 PCOD8008424
Probable space group: P -1
;
_chemical_formula_sum "Si O2"
_cell_formula_units_Z 16
_cell_length_a 11.540089
_cell_length_b 9.362846
_cell_length_c 8.943411
_cell_angle_alpha 46.484017
_cell_angle_beta 87.502948
_cell_angle_gamma 89.715661
_cell_volume 699.673446
_symmetry_space_group_name_H-M "P -1"
_symmetry_group_IT_number 2
_symmetry_cell_setting 'triclinic'
loop_
_space_group_symop_operation_xyz
x,y,z
-x,-y,-z
loop_
_atom_site_type_symbol
_atom_site_label
_atom_site_fract_x
_atom_site_fract_y
_atom_site_fract_z
Si Si1 0.629127 0.724852 0.670825
Si Si2 0.561472 0.452179 0.376877
Si Si3 0.300566 0.706464 0.022117
Si Si4 0.927391 0.954577 0.765359
Si Si5 0.943141 0.391091 0.942546
Si Si6 0.879183 0.790286 0.556784
Si Si7 0.546169 0.842640 0.901783
Si Si8 0.290505 0.817126 0.276370
O O1 0.515930 0.720429 0.575894
O O2 0.652300 0.502479 0.879588
O O3 0.742529 0.813760 0.512049
O O4 0.608752 0.845875 0.735507
O O5 0.500000 0.500000 0.500000
O O6 0.684313 0.352656 0.479154
O O7 0.576826 0.646458 0.134868
O O8 0.179011 0.731631 0.921620
O O9 0.272153 0.711093 0.196324
O O10 0.406966 0.861829 0.868112
O O11 0.898084 0.872616 0.662797
O O12 0.822638 0.065231 0.763074
O O13 0.040801 0.098847 0.647992
O O14 0.964792 0.770062 0.000940
O O15 0.912358 0.559682 0.704485
O O16 0.000000 0.500000 0.000000
O O17 0.597612 0.032206 0.851056
#
# Coordination Sequence:
#
# PCOD8008424 Si02
#       8
#     2   2   2   2   2   2   2   2
#     4  10  20  43  67  95 129 168 221 267 315 389
#     4  11  23  41  66  94 135 173 207 258 336 388
#     4  10  21  39  66  92 130 167 210 265 325 384
#     4  10  21  39  60  91 125 159 217 265 313 377
#     4   9  20  40  65  85 119 170 212 260 323 368
#     4   9  19  41  62  88 122 164 210 272 311 369
#     4  11  23  43  67  98 133 169 218 267 318 388
#     4  12  24  41  64  98 136 167 211 270 325 392
#
# _framework density 22.867809999999999
#
# number of rings (size 3 to 8) (size 9 to 14) (size 15 to 20)
#    0.000    1.750    3.750    1.875    0.000    3.000 
#   15.750    2.500    0.000    0.000    0.000    0.000 
#    0.000    0.000    0.000    0.000    0.000    0.000 
#
# Total GULP energy -198257.007127 kJ/mol
# GULP energy per Si atom -12391.062945 kJ/mol
# Density = 2.281576 g / cm^3
# Si number density = 22.867810 Si / 1000 Ang^3
#
#
#
# Elastic Constant Matrix: (Units=GPa)
#
#
# Indices 1 2 3 4 5 6 
#
# 1 126.0919 17.9038 34.0117 -3.4102 12.3803 3.8719
# 2 17.9038 59.1666 18.3693 -1.5068 9.0072 3.1308
# 3 34.0117 18.3693 48.2536 -4.8418 3.2143 -1.5041
# 4 -3.4102 -1.5068 -4.8418 24.7527 -0.1273 3.0381
# 5 12.3803 9.0072 3.2143 -0.1273 35.2842 -12.9151
# 6 3.8719 3.1308 -1.5041 3.0381 -12.9151 42.7733
#
#
#
# Elastic Compliance Matrix: (Units=1/GPa)
#
#
# Indices 1 2 3 4 5 6 
#
# 1 0.010289 -0.000254 -0.006946 0.000308 -0.003758 -0.002314
# 2 -0.000254 0.020283 -0.007253 0.000175 -0.005689 -0.003447
# 3 -0.006946 -0.007253 0.028677 0.003893 0.002679 0.002700
# 4 0.000308 0.000175 0.003893 0.041616 -0.001578 -0.003336
# 5 -0.003758 -0.005689 0.002679 -0.001578 0.035093 0.011559
# 6 -0.002314 -0.003447 0.002700 -0.003336 0.011559 0.027663
#
#
# Mechanical properties :
#
#
# Convention : Reuss Voigt Hill
#
# Bulk Modulus (GPa) = 32.95761 41.56465 37.26113
# Shear Modulus (GPa) = 24.67398 31.44385 28.05892
#
# Velocity S-wave (km/s) = 3.28835 3.71216 3.50666
# Velocity P-wave (km/s) = 5.37226 6.04888 5.72059
#
# Compressibility (1/GPa) = 0.03034201
#
# Stress axis : x y z
#
# Youngs Moduli (GPa) = 97.19260 49.30202 34.87071
#
# Poissons Ratio (x) = 0.01255 0.24222
# Poissons Ratio (y) = 0.02473 0.25292
# Poissons Ratio (z) = 0.67511 0.35759
#
# Static dielectric constant tensor:
#      x y z
#    x 4.629770 0.218180 0.259980 
#    y 0.218180 4.200770 -0.364140 
#    z 0.259980 -0.364140 4.046120 
# 
# 
# High freq. dielectric constant tensor:
#      x y z
#    x 1.915960 0.010900 0.012790 
#    y 0.010900 1.904020 -0.024130 
#    z 0.012790 -0.024130 1.868460 
# 
# From -- ./inp_files/242101.got.cif
#   From: 2010.06.25/outbox.cif.g09.slc.cpg/sg2_122_cif.got.tgz:242101.got - 2010.06.27 13:26:56.
