data_PCOD8008192
_publ_section_title
;
Structure prediction by ZEFSAII (Michael W. Deem and Ramdas Pophale) SiO2 
 PCOD8008192
Probable space group: P -1
;
_chemical_formula_sum "Si O2"
_cell_formula_units_Z 16
_cell_length_a 9.302066
_cell_length_b 18.696039
_cell_length_c 12.209559
_cell_angle_alpha 35.676257
_cell_angle_beta 142.878877
_cell_angle_gamma 141.198056
_cell_volume 693.151341
_symmetry_space_group_name_H-M "P -1"
_symmetry_group_IT_number 2
_symmetry_cell_setting 'triclinic'
loop_
_space_group_symop_operation_xyz
x,y,z
-x,-y,-z
loop_
_atom_site_type_symbol
_atom_site_label
_atom_site_fract_x
_atom_site_fract_y
_atom_site_fract_z
Si Si1 0.341698 0.290103 0.337118
Si Si2 0.316576 0.146135 0.723904
Si Si3 0.362105 0.519252 0.201099
Si Si4 0.815572 0.123133 0.123156
Si Si5 0.082268 0.679402 0.715012
Si Si6 0.713170 0.212587 0.519022
Si Si7 0.237564 0.220353 0.819418
Si Si8 0.601230 0.073077 0.287968
O O1 0.271642 0.213376 0.503812
O O2 0.398004 0.443289 0.208146
O O3 0.598581 0.283632 0.449427
O O4 0.099878 0.232661 0.178229
O O5 0.191181 0.191191 0.696659
O O6 0.179627 0.987283 0.823490
O O7 0.623519 0.191395 0.876841
O O8 0.628744 0.621188 0.282983
O O9 0.220150 0.412237 0.343656
O O10 0.209322 0.611930 0.962250
O O11 0.694797 0.048563 0.255611
O O12 0.196360 0.687691 0.652794
O O13 0.154694 0.829857 0.616758
O O14 0.958530 0.185148 0.749956
O O15 0.502098 0.068714 0.538234
O O16 0.379889 0.134431 0.069672
#
# Coordination Sequence:
#
# PCOD8008192 Si02
#       8
#     2   2   2   2   2   2   2   2
#     4  12  24  41  68  99 139 176 217 278 329 401
#     4  10  22  40  67  95 132 175 223 274 321 397
#     4  10  23  46  68  90 129 185 227 270 312 402
#     4  10  21  41  66 103 132 172 228 266 338 392
#     4  10  22  41  68  95 125 170 232 270 323 395
#     4  12  25  38  62 104 134 170 214 275 353 389
#     4  10  24  43  66  96 131 176 225 272 326 394
#     4  10  20  42  67  95 134 166 218 285 332 393
#
# _framework density 23.082982999999999
#
# number of rings (size 3 to 8) (size 9 to 14) (size 15 to 20)
#    0.000    1.500    2.500    1.875    1.750    4.000 
#    4.500    0.000    0.000    0.000    0.000    0.000 
#    0.000    0.000    0.000    0.000    0.000    0.000 
#
# Total GULP energy -198364.933152 kJ/mol
# GULP energy per Si atom -12397.808322 kJ/mol
# Density = 2.303044 g / cm^3
# Si number density = 23.082983 Si / 1000 Ang^3
#
#
#
# Elastic Constant Matrix: (Units=GPa)
#
#
# Indices 1 2 3 4 5 6 
#
# 1 113.5077 51.2907 7.5205 -6.2111 25.1965 -2.3520
# 2 51.2907 143.9169 18.3368 -5.4708 14.9777 -14.0598
# 3 7.5205 18.3368 36.1521 4.8662 -0.8875 0.2049
# 4 -6.2111 -5.4708 4.8662 34.9516 1.5533 -3.6409
# 5 25.1965 14.9777 -0.8875 1.5533 33.6128 -3.7878
# 6 -2.3520 -14.0598 0.2049 -3.6409 -3.7878 33.4977
#
#
#
# Elastic Compliance Matrix: (Units=1/GPa)
#
#
# Indices 1 2 3 4 5 6 
#
# 1 0.012301 -0.003436 -0.001280 0.002050 -0.007959 -0.001248
# 2 -0.003436 0.009300 -0.004312 0.001895 -0.001348 0.003742
# 3 -0.001280 -0.004312 0.030974 -0.005617 0.003701 -0.002281
# 4 0.002050 0.001895 -0.005617 0.030616 -0.003504 0.003905
# 5 -0.007959 -0.001348 0.003701 -0.003504 0.036874 0.002641
# 6 -0.001248 0.003742 -0.002281 0.003905 0.002641 0.032073
#
#
# Mechanical properties :
#
#
# Convention : Reuss Voigt Hill
#
# Bulk Modulus (GPa) = 28.97002 49.76363 39.36682
# Shear Modulus (GPa) = 27.51764 34.84102 31.17933
#
# Velocity S-wave (km/s) = 3.45645 3.88929 3.67924
# Velocity P-wave (km/s) = 5.33920 6.46329 5.92795
#
# Compressibility (1/GPa) = 0.03451844
#
# Stress axis : x y z
#
# Youngs Moduli (GPa) = 81.29712 107.52130 32.28505
#
# Poissons Ratio (x) = 0.36949 0.04133
# Poissons Ratio (y) = 0.27937 0.13921
# Poissons Ratio (z) = 0.10406 0.46362
#
# Static dielectric constant tensor:
#      x y z
#    x 4.065300 -0.075480 0.241740 
#    y -0.075480 4.420300 -0.008890 
#    z 0.241740 -0.008890 4.132250 
# 
# 
# High freq. dielectric constant tensor:
#      x y z
#    x 1.898970 -0.007130 0.021300 
#    y -0.007130 1.915120 0.006910 
#    z 0.021300 0.006910 1.914200 
# 
# From -- ./inp_files/243618.got.cif
#   From: 2010.06.25/outbox.cif.g09.slc.cpg/sg2_122_cif.got.tgz:243618.got - 2010.06.27 13:26:56.
