data_PCOD8008483
_publ_section_title
;
Structure prediction by ZEFSAII (Michael W. Deem and Ramdas Pophale) SiO2 
 PCOD8008483
Probable space group: P -1
;
_chemical_formula_sum "Si O2"
_cell_formula_units_Z 14
_cell_length_a 8.994817
_cell_length_b 15.539160
_cell_length_c 9.465525
_cell_angle_alpha 149.675870
_cell_angle_beta 79.143682
_cell_angle_gamma 97.149949
_cell_volume 654.082689
_symmetry_space_group_name_H-M "P -1"
_symmetry_group_IT_number 2
_symmetry_cell_setting 'triclinic'
loop_
_space_group_symop_operation_xyz
x,y,z
-x,-y,-z
loop_
_atom_site_type_symbol
_atom_site_label
_atom_site_fract_x
_atom_site_fract_y
_atom_site_fract_z
Si Si1 0.010126 0.837425 0.585831
Si Si2 0.112742 0.833746 0.263232
Si Si3 0.133105 0.564838 0.656384
Si Si4 0.672378 0.847022 0.663533
Si Si5 0.414053 0.336782 0.325829
Si Si6 0.566534 0.047780 0.705915
Si Si7 0.827573 0.152750 0.150396
O O1 0.845419 0.756259 0.489493
O O2 0.113041 0.785416 0.359037
O O3 0.117742 0.773176 0.605836
O O4 0.974209 0.044103 0.899278
O O5 0.277616 0.868248 0.227745
O O6 0.065044 0.668879 0.952126
O O7 0.000000 0.000000 0.500000
O O8 0.236151 0.395764 0.437570
O O9 0.227184 0.690691 0.719891
O O10 0.000000 0.500000 0.500000
O O11 0.564086 0.732531 0.614120
O O12 0.597968 0.885082 0.575820
O O13 0.688654 0.027715 0.002421
O O14 0.500000 0.500000 0.500000
O O15 0.447633 0.186642 0.994782
O O16 0.500000 0.000000 0.500000
#
# Coordination Sequence:
#
# PCOD8008483 Si02
#       7
#     2   2   2   2   2   2   2
#     4   9  19  34  74  97 128 163 241 278 318 388
#     4  12  21  44  69  99 139 173 234 287 322 416
#     4  12  25  41  70 103 138 183 220 287 354 391
#     4  10  20  43  70  95 131 186 232 273 329 416
#     4  12  26  47  66  97 145 174 226 285 353 409
#     4  12  27  43  71 103 132 191 231 276 342 411
#     4   9  18  39  65 105 123 177 231 272 333 408
#
# _framework density 21.404021
#
# number of rings (size 3 to 8) (size 9 to 14) (size 15 to 20)
#    0.857    0.286    5.714    1.286    4.000    0.000 
#    0.000    5.000    0.000    0.000    0.000    0.000 
#    0.000    0.000    0.000    0.000    0.000    0.000 
#
# Total GULP energy -173478.240193 kJ/mol
# GULP energy per Si atom -12391.302871 kJ/mol
# Density = 2.135530 g / cm^3
# Si number density = 21.404021 Si / 1000 Ang^3
#
#
#
# Elastic Constant Matrix: (Units=GPa)
#
#
# Indices 1 2 3 4 5 6 
#
# 1 66.4625 29.6706 46.5899 -9.5167 3.5724 -17.0663
# 2 29.6706 145.8724 52.3281 -28.2076 6.8979 0.6551
# 3 46.5899 52.3281 132.2700 -32.7305 1.2066 -11.0743
# 4 -9.5167 -28.2076 -32.7305 34.3813 -4.3851 6.6613
# 5 3.5724 6.8979 1.2066 -4.3851 38.3963 -4.0060
# 6 -17.0663 0.6551 -11.0743 6.6613 -4.0060 36.0731
#
#
#
# Elastic Compliance Matrix: (Units=1/GPa)
#
#
# Indices 1 2 3 4 5 6 
#
# 1 0.023497 -0.003083 -0.007519 -0.005190 -0.000975 0.009714
# 2 -0.003083 0.009164 -0.001345 0.005886 -0.000982 -0.003234
# 3 -0.007519 -0.001345 0.013010 0.009616 0.001511 -0.001146
# 4 -0.005190 0.005886 0.009616 0.043465 0.003329 -0.007267
# 5 -0.000975 -0.000982 0.001511 0.003329 0.026894 0.002392
# 6 0.009714 -0.003234 -0.001146 -0.007267 0.002392 0.033632
#
#
# Mechanical properties :
#
#
# Convention : Reuss Voigt Hill
#
# Bulk Modulus (GPa) = 45.91757 66.86468 56.39113
# Shear Modulus (GPa) = 27.65273 36.17122 31.91197
#
# Velocity S-wave (km/s) = 3.59826 4.11533 3.86545
# Velocity P-wave (km/s) = 6.22596 7.34087 6.80628
#
# Compressibility (1/GPa) = 0.02177816
#
# Stress axis : x y z
#
# Youngs Moduli (GPa) = 42.55909 109.12249 76.86216
#
# Poissons Ratio (x) = 0.33645 0.57789
# Poissons Ratio (y) = 0.13122 0.10335
# Poissons Ratio (z) = 0.31998 0.14673
#
# Static dielectric constant tensor:
#      x y z
#    x 3.865020 -0.217730 -0.097730 
#    y -0.217730 4.287580 -0.461930 
#    z -0.097730 -0.461930 3.073910 
# 
# 
# High freq. dielectric constant tensor:
#      x y z
#    x 1.835610 -0.009540 -0.003030 
#    y -0.009540 1.843540 -0.016880 
#    z -0.003030 -0.016880 1.814610 
# 
# From -- ./inp_files/407245.got.cif
#   From: 2010.06.25/outbox.cif.g09.slc.cpg/sg2_204_cif.got.tgz:407245.got - 2010.06.27 13:26:56.
