data_PCOD8008370
_publ_section_title
;
Structure prediction by ZEFSAII (Michael W. Deem and Ramdas Pophale) SiO2 
 PCOD8008370
Probable space group: P -1
;
_chemical_formula_sum "Si O2"
_cell_formula_units_Z 14
_cell_length_a 8.148666
_cell_length_b 19.068439
_cell_length_c 9.142317
_cell_angle_alpha 31.880741
_cell_angle_beta 106.482730
_cell_angle_gamma 120.348713
_cell_volume 613.668048
_symmetry_space_group_name_H-M "P -1"
_symmetry_group_IT_number 2
_symmetry_cell_setting 'triclinic'
loop_
_space_group_symop_operation_xyz
x,y,z
-x,-y,-z
loop_
_atom_site_type_symbol
_atom_site_label
_atom_site_fract_x
_atom_site_fract_y
_atom_site_fract_z
Si Si1 0.746981 0.965753 0.691012
Si Si2 0.003077 0.210503 0.537858
Si Si3 0.142998 0.601499 0.021050
Si Si4 0.680763 0.151089 0.127999
Si Si5 0.924221 0.288811 0.668575
Si Si6 0.587808 0.512746 0.843431
Si Si7 0.319801 0.369213 0.778049
O O1 0.559315 0.962627 0.727829
O O2 0.931451 0.058254 0.688979
O O3 0.785655 0.058531 0.381747
O O4 0.706465 0.798154 0.945916
O O5 0.903190 0.167718 0.750809
O O6 0.243749 0.304010 0.463683
O O7 0.951122 0.324977 0.235551
O O8 0.955665 0.439206 0.322470
O O9 0.303827 0.582580 0.000358
O O10 0.260503 0.703828 0.009656
O O11 0.735063 0.203810 0.879463
O O12 0.114435 0.353023 0.709388
O O13 0.380913 0.439673 0.830171
O O14 0.500000 0.500000 0.000000
O O15 0.500000 0.500000 0.500000
#
# Coordination Sequence:
#
# PCOD8008370 Si02
#       7
#     2   2   2   2   2   2   2
#     4  10  23  43  64  88 133 173 205 267 323 375
#     4  10  23  44  65  97 131 166 213 269 317 366
#     4  10  20  43  65  91 132 166 212 267 312 373
#     4  10  21  41  66  92 124 171 220 255 318 378
#     4  11  22  38  64  99 128 166 217 260 313 381
#     4  11  23  41  63  97 127 169 210 256 320 381
#     4  12  23  44  65  92 132 170 210 262 322 385
#
# _framework density 22.813637
#
# number of rings (size 3 to 8) (size 9 to 14) (size 15 to 20)
#    0.000    1.429    4.286    2.143    4.000    1.714 
#    5.143    0.000    0.000    0.000    0.000    0.000 
#    0.000    0.000    0.000    0.000    0.000    0.000 
#
# Total GULP energy -173474.287379 kJ/mol
# GULP energy per Si atom -12391.020527 kJ/mol
# Density = 2.276171 g / cm^3
# Si number density = 22.813637 Si / 1000 Ang^3
#
#
#
# Elastic Constant Matrix: (Units=GPa)
#
#
# Indices 1 2 3 4 5 6 
#
# 1 31.7552 15.9741 18.0758 9.3547 -11.5177 -3.1394
# 2 15.9741 163.3004 50.5433 9.1759 -9.0198 3.1291
# 3 18.0758 50.5433 97.5573 4.5958 -12.1194 -24.5676
# 4 9.3547 9.1759 4.5958 41.3282 -7.7604 -10.6075
# 5 -11.5177 -9.0198 -12.1194 -7.7604 24.0310 8.8133
# 6 -3.1394 3.1291 -24.5676 -10.6075 8.8133 40.0521
#
#
#
# Elastic Compliance Matrix: (Units=1/GPa)
#
#
# Indices 1 2 3 4 5 6 
#
# 1 0.043473 -0.000637 -0.006884 -0.007384 0.017120 -0.006488
# 2 -0.000637 0.007964 -0.004888 -0.001999 0.001211 -0.004466
# 3 -0.006884 -0.004888 0.016702 0.003686 0.000459 0.010963
# 4 -0.007384 -0.001999 0.003686 0.028819 0.003701 0.008656
# 5 0.017120 0.001211 0.000459 0.003701 0.055237 -0.009646
# 6 -0.006488 -0.004466 0.010963 0.008656 -0.009646 0.035947
#
#
# Mechanical properties :
#
#
# Convention : Reuss Voigt Hill
#
# Bulk Modulus (GPa) = 23.08343 51.31102 37.19723
# Shear Modulus (GPa) = 21.98760 34.95025 28.46892
#
# Velocity S-wave (km/s) = 3.10787 3.91831 3.53638
# Velocity P-wave (km/s) = 4.79778 6.55828 5.74586
#
# Compressibility (1/GPa) = 0.04332112
#
# Stress axis : x y z
#
# Youngs Moduli (GPa) = 23.00269 125.56974 59.87176
#
# Poissons Ratio (x) = 0.07999 0.41216
# Poissons Ratio (y) = 0.01465 0.29265
# Poissons Ratio (z) = 0.15835 0.61378
#
# Static dielectric constant tensor:
#      x y z
#    x 3.702760 0.161810 -0.018920 
#    y 0.161810 4.495620 -0.066780 
#    z -0.018920 -0.066780 4.003520 
# 
# 
# High freq. dielectric constant tensor:
#      x y z
#    x 1.870250 0.011640 -0.004860 
#    y 0.011640 1.923480 0.002660 
#    z -0.004860 0.002660 1.895990 
# 
# From -- ./inp_files/211696.got.cif
#   From: 2010.06.25/outbox.cif.g09.slc.cpg/sg2_106_cif.got.tgz:211696.got - 2010.06.27 13:26:56.
