data_PCOD8008503
_publ_section_title
;
Structure prediction by ZEFSAII (Michael W. Deem and Ramdas Pophale) SiO2 
 PCOD8008503
Probable space group: P -1
;
_chemical_formula_sum "Si O2"
_cell_formula_units_Z 16
_cell_length_a 13.540744
_cell_length_b 9.475905
_cell_length_c 8.489463
_cell_angle_alpha 71.043604
_cell_angle_beta 87.110593
_cell_angle_gamma 45.000506
_cell_volume 701.809506
_symmetry_space_group_name_H-M "P -1"
_symmetry_group_IT_number 2
_symmetry_cell_setting 'triclinic'
loop_
_space_group_symop_operation_xyz
x,y,z
-x,-y,-z
loop_
_atom_site_type_symbol
_atom_site_label
_atom_site_fract_x
_atom_site_fract_y
_atom_site_fract_z
Si Si1 0.843777 0.633484 0.124406
Si Si2 0.304083 0.103442 0.282237
Si Si3 0.375201 0.713362 0.333558
Si Si4 0.924125 0.495271 0.648045
Si Si5 0.858319 0.281536 0.254710
Si Si6 0.444115 0.018385 0.827321
Si Si7 0.118818 0.792118 0.355562
Si Si8 0.465246 0.390202 0.952517
O O1 0.972115 0.605361 0.170362
O O2 0.911375 0.393444 0.192745
O O3 0.728091 0.759698 0.234635
O O4 0.776572 0.758289 0.920789
O O5 0.471682 0.975422 0.311461
O O6 0.228655 0.257989 0.385875
O O7 0.301573 0.926988 0.364655
O O8 0.500000 0.500000 0.500000
O O9 0.254046 0.726888 0.286366
O O10 0.443501 0.718084 0.175429
O O11 0.000000 0.500000 0.500000
O O12 0.899643 0.349895 0.665559
O O13 0.843272 0.253960 0.447233
O O14 0.704919 0.433207 0.127754
O O15 0.972349 0.047351 0.244170
O O16 0.481470 0.803949 0.870918
O O17 0.500000 0.000000 0.000000
O O18 0.500000 0.500000 0.000000
#
# Coordination Sequence:
#
# PCOD8008503 Si02
#       8
#     2   2   2   2   2   2   2   2
#     4  11  21  45  75  95 134 186 230 281 342 406
#     4  11  24  45  71 101 132 182 238 277 346 410
#     4  12  25  46  71  99 140 182 223 277 353 421
#     4  12  27  44  67 103 140 178 239 286 332 408
#     4  11  22  46  71  94 140 191 215 282 348 409
#     4  10  20  43  71  97 131 175 233 273 336 411
#     4  11  27  42  66 102 142 178 231 273 349 408
#     4  12  25  43  72 107 138 174 228 287 345 403
#
# _framework density 22.798207999999999
#
# number of rings (size 3 to 8) (size 9 to 14) (size 15 to 20)
#    0.000    0.750    7.500    1.125    5.250    0.000 
#    0.000    3.125    0.000    0.000    0.000    0.000 
#    0.000    0.000    0.000    0.000    0.000    0.000 
#
# Total GULP energy -198448.832799 kJ/mol
# GULP energy per Si atom -12403.052050 kJ/mol
# Density = 2.274632 g / cm^3
# Si number density = 22.798208 Si / 1000 Ang^3
#
#
#
# Elastic Constant Matrix: (Units=GPa)
#
#
# Indices 1 2 3 4 5 6 
#
# 1 151.6656 76.3162 7.9094 -3.9444 -15.6907 14.7118
# 2 76.3162 181.7579 23.7541 -12.1285 -8.6569 16.8710
# 3 7.9094 23.7541 37.3170 -6.7386 -16.6097 3.5794
# 4 -3.9444 -12.1285 -6.7386 34.6836 2.5698 -9.9606
# 5 -15.6907 -8.6569 -16.6097 2.5698 28.0339 -0.2446
# 6 14.7118 16.8710 3.5794 -9.9606 -0.2446 51.2974
#
#
#
# Elastic Compliance Matrix: (Units=1/GPa)
#
#
# Indices 1 2 3 4 5 6 
#
# 1 0.009113 -0.003848 0.003161 -0.000603 0.005826 -0.001658
# 2 -0.003848 0.007817 -0.005144 0.001260 -0.002911 -0.000877
# 3 0.003161 -0.005144 0.041021 0.004431 0.024069 -0.001102
# 4 -0.000603 0.001260 0.004431 0.031687 -0.000179 0.005601
# 5 0.005826 -0.002911 0.024069 -0.000179 0.052291 -0.002178
# 6 -0.001658 -0.000877 -0.001102 0.005601 -0.002178 0.021412
#
#
# Mechanical properties :
#
#
# Convention : Reuss Voigt Hill
#
# Bulk Modulus (GPa) = 21.60359 65.18888 43.39624
# Shear Modulus (GPa) = 26.25603 40.32037 33.28820
#
# Velocity S-wave (km/s) = 3.39731 4.21001 3.82530
# Velocity P-wave (km/s) = 4.98854 7.23105 6.21183
#
# Compressibility (1/GPa) = 0.04628859
#
# Stress axis : x y z
#
# Youngs Moduli (GPa) = 109.73480 127.92911 24.37782
#
# Poissons Ratio (x) = 0.49232 -0.07707
# Poissons Ratio (y) = 0.42230 0.12540
# Poissons Ratio (z) = -0.34692 0.65809
#
# Static dielectric constant tensor:
#      x y z
#    x 3.951280 0.114930 -1.221900 
#    y 0.114930 4.289800 0.657500 
#    z -1.221900 0.657500 1.780020 
# 
# 
# High freq. dielectric constant tensor:
#      x y z
#    x 1.914200 -0.004630 -0.010120 
#    y -0.004630 1.915210 -0.009530 
#    z -0.010120 -0.009530 1.875040 
# 
# From -- ./inp_files/297856.got.cif
#   From: 2010.06.25/outbox.cif.g09.slc.cpg/sg2_149_cif.got.tgz:297856.got - 2010.06.27 13:26:56.
