data_PCOD8008654
_publ_section_title
;
Structure prediction by ZEFSAII (Michael W. Deem and Ramdas Pophale) SiO2 
 PCOD8008654
Probable space group: P -1
;
_chemical_formula_sum "Si O2"
_cell_formula_units_Z 16
_cell_length_a 17.363450
_cell_length_b 19.917367
_cell_length_c 8.829369
_cell_angle_alpha 140.267451
_cell_angle_beta 39.523741
_cell_angle_gamma 159.004925
_cell_volume 680.048996
_symmetry_space_group_name_H-M "P -1"
_symmetry_group_IT_number 2
_symmetry_cell_setting 'triclinic'
loop_
_space_group_symop_operation_xyz
x,y,z
-x,-y,-z
loop_
_atom_site_type_symbol
_atom_site_label
_atom_site_fract_x
_atom_site_fract_y
_atom_site_fract_z
Si Si1 0.805798 0.752386 0.749399
Si Si2 0.663550 0.910819 0.921791
Si Si3 0.379390 0.043720 0.396348
Si Si4 0.766988 0.538518 0.207482
Si Si5 0.933685 0.141908 0.195869
Si Si6 0.680425 0.577243 0.097597
Si Si7 0.203478 0.103619 0.588999
Si Si8 0.755384 0.175650 0.071834
O O1 0.792438 0.625368 0.473723
O O2 0.570049 0.637249 0.936991
O O3 0.926044 0.837162 0.876885
O O4 0.952088 0.932761 0.732227
O O5 0.423137 0.685862 0.876182
O O6 0.824504 0.979144 0.669389
O O7 0.768449 0.965457 0.021652
O O8 0.657879 0.031216 0.103385
O O9 0.351660 0.143576 0.553766
O O10 0.636015 0.202779 0.323241
O O11 0.221713 0.903055 0.536087
O O12 0.302460 0.908340 0.151170
O O13 0.710096 0.579948 0.234520
O O14 0.979571 0.624816 0.983679
O O15 0.128024 0.343493 0.153694
O O16 0.688829 0.706965 0.276705
#
# Coordination Sequence:
#
# PCOD8008654 Si02
#       8
#     2   2   2   2   2   2   2   2
#     4  11  23  42  62  93 132 173 216 258 313 385
#     4  11  23  41  65  98 130 168 215 264 320 379
#     4   9  21  43  73  91 125 170 219 266 325 374
#     4  12  23  42  67  98 127 172 225 252 315 398
#     4  11  23  43  62  99 135 165 210 271 326 376
#     4  12  25  40  67  96 135 174 211 263 317 388
#     4  10  22  43  67  93 129 176 218 257 314 392
#     4  10  20  47  71  91 125 174 214 271 316 384
#
# _framework density 23.527714
#
# number of rings (size 3 to 8) (size 9 to 14) (size 15 to 20)
#    0.000    1.250    6.250    0.750    1.750    3.500 
#    4.500    8.750    0.000    0.000    0.000    0.000 
#    0.000    0.000    0.000    0.000    0.000    0.000 
#
# Total GULP energy -198244.687186 kJ/mol
# GULP energy per Si atom -12390.292949 kJ/mol
# Density = 2.347416 g / cm^3
# Si number density = 23.527714 Si / 1000 Ang^3
#
#
#
# Elastic Constant Matrix: (Units=GPa)
#
#
# Indices 1 2 3 4 5 6 
#
# 1 92.5598 42.4091 47.1084 0.2728 12.9289 10.3185
# 2 42.4091 124.3011 32.0659 -16.2660 -6.3911 11.1697
# 3 47.1084 32.0659 54.6860 -19.5758 4.3964 12.9199
# 4 0.2728 -16.2660 -19.5758 31.7012 5.0096 -1.8480
# 5 12.9289 -6.3911 4.3964 5.0096 37.0478 -5.6345
# 6 10.3185 11.1697 12.9199 -1.8480 -5.6345 36.6907
#
#
#
# Elastic Compliance Matrix: (Units=1/GPa)
#
#
# Indices 1 2 3 4 5 6 
#
# 1 0.027949 -0.005241 -0.028081 -0.019461 -0.004394 0.001969
# 2 -0.005241 0.010722 0.000095 0.005095 0.002806 -0.001136
# 3 -0.028081 0.000095 0.058421 0.036293 -0.003766 -0.011454
# 4 -0.019461 0.005095 0.036293 0.057195 -0.005406 -0.006808
# 5 -0.004394 0.002806 -0.003766 -0.005406 0.031133 0.006217
# 6 0.001969 -0.001136 -0.011454 -0.006808 0.006217 0.031692
#
#
# Mechanical properties :
#
#
# Convention : Reuss Voigt Hill
#
# Bulk Modulus (GPa) = 32.64000 57.19041 44.91521
# Shear Modulus (GPa) = 17.01962 31.08550 24.05256
#
# Velocity S-wave (km/s) = 2.69250 3.63881 3.20082
# Velocity P-wave (km/s) = 4.85481 6.48190 5.72644
#
# Compressibility (1/GPa) = 0.03063725
#
# Stress axis : x y z
#
# Youngs Moduli (GPa) = 35.77999 93.26802 17.11713
#
# Poissons Ratio (x) = 0.48882 0.48066
# Poissons Ratio (y) = 0.18752 -0.00162
# Poissons Ratio (z) = 1.00473 -0.00883
#
# Static dielectric constant tensor:
#      x y z
#    x 4.460130 0.189060 0.107040 
#    y 0.189060 4.508160 -0.593660 
#    z 0.107040 -0.593660 4.284360 
# 
# 
# High freq. dielectric constant tensor:
#      x y z
#    x 1.932960 0.007840 0.022550 
#    y 0.007840 1.933910 -0.031230 
#    z 0.022550 -0.031230 1.909610 
# 
# From -- ./inp_files/338194.got.cif
#   From: 2010.06.25/outbox.cif.g09.slc.cpg/sg2_170_cif.got.tgz:338194.got - 2010.06.27 13:26:56.
