data_PCOD8008406
_publ_section_title
;
Structure prediction by ZEFSAII (Michael W. Deem and Ramdas Pophale) SiO2 
 PCOD8008406
Probable space group: P -1
;
_chemical_formula_sum "Si O2"
_cell_formula_units_Z 14
_cell_length_a 12.779637
_cell_length_b 19.075267
_cell_length_c 9.434050
_cell_angle_alpha 34.383657
_cell_angle_beta 47.641358
_cell_angle_gamma 29.982091
_cell_volume 642.120153
_symmetry_space_group_name_H-M "P -1"
_symmetry_group_IT_number 2
_symmetry_cell_setting 'triclinic'
loop_
_space_group_symop_operation_xyz
x,y,z
-x,-y,-z
loop_
_atom_site_type_symbol
_atom_site_label
_atom_site_fract_x
_atom_site_fract_y
_atom_site_fract_z
Si Si1 0.735754 0.237244 0.980921
Si Si2 0.537354 0.620473 0.464272
Si Si3 0.747256 0.856086 0.975473
Si Si4 0.774989 0.047377 0.997042
Si Si5 0.573936 0.191674 0.459027
Si Si6 0.244115 0.210639 0.623651
Si Si7 0.905379 0.539554 0.172989
O O1 0.576425 0.447915 0.720726
O O2 0.722512 0.131884 0.059917
O O3 0.660429 0.242505 0.194883
O O4 0.973567 0.133097 0.951002
O O5 0.555912 0.662020 0.537535
O O6 0.713789 0.567692 0.291082
O O7 0.312633 0.799815 0.297285
O O8 0.771468 0.983774 0.691300
O O9 0.871639 0.741020 0.198810
O O10 0.823530 0.723608 0.997883
O O11 0.500000 0.000000 0.000000
O O12 0.668045 0.980701 0.191300
O O13 0.430130 0.189844 0.503658
O O14 0.079512 0.370642 0.397938
O O15 0.000000 0.500000 0.000000
#
# Coordination Sequence:
#
# PCOD8008406 Si02
#       7
#     2   2   2   2   2   2   2
#     4  11  27  45  68 102 143 187 231 284 353 426
#     4  12  23  49  69  99 146 184 233 290 351 419
#     4  10  20  43  66  97 137 178 227 287 350 405
#     4  11  25  46  71  96 141 191 228 289 356 410
#     4  11  24  43  73 104 133 182 242 282 350 425
#     4  11  22  45  69  99 139 182 227 299 346 408
#     4  12  26  39  70 109 138 180 238 291 353 415
#
# _framework density 21.802773999999999
#
# number of rings (size 3 to 8) (size 9 to 14) (size 15 to 20)
#    0.000    0.857    5.714    2.143    4.000    1.143 
#    2.571    0.000    0.000    0.000    0.000    0.000 
#    0.000    0.000    0.000    0.000    0.000    0.000 
#
# Total GULP energy -173592.837949 kJ/mol
# GULP energy per Si atom -12399.488425 kJ/mol
# Density = 2.175315 g / cm^3
# Si number density = 21.802774 Si / 1000 Ang^3
#
#
#
# Elastic Constant Matrix: (Units=GPa)
#
#
# Indices 1 2 3 4 5 6 
#
# 1 80.3815 33.5415 10.7540 2.3752 5.4290 15.8001
# 2 33.5415 97.9205 53.5146 0.4039 5.2812 27.8019
# 3 10.7540 53.5146 104.9740 -6.2802 6.5143 5.9992
# 4 2.3752 0.4039 -6.2802 39.8505 -0.7264 7.3728
# 5 5.4290 5.2812 6.5143 -0.7264 38.6078 -8.1522
# 6 15.8001 27.8019 5.9992 7.3728 -8.1522 30.1963
#
#
#
# Elastic Compliance Matrix: (Units=1/GPa)
#
#
# Indices 1 2 3 4 5 6 
#
# 1 0.015242 -0.004184 0.001053 0.000200 -0.002832 -0.005146
# 2 -0.004184 0.022171 -0.009450 0.001787 -0.004624 -0.018032
# 3 0.001053 -0.009450 0.014038 0.001318 -0.000143 0.005000
# 4 0.000200 0.001787 0.001318 0.026920 -0.001910 -0.009101
# 5 -0.002832 -0.004624 -0.000143 -0.001910 0.029944 0.014318
# 6 -0.005146 -0.018032 0.005000 -0.009101 0.014318 0.057505
#
#
# Mechanical properties :
#
#
# Convention : Reuss Voigt Hill
#
# Bulk Modulus (GPa) = 38.03598 53.21067 45.62333
# Shear Modulus (GPa) = 25.03189 34.09531 29.56360
#
# Velocity S-wave (km/s) = 3.39205 3.95879 3.68633
# Velocity P-wave (km/s) = 5.72928 6.73457 6.25216
#
# Compressibility (1/GPa) = 0.02629089
#
# Stress axis : x y z
#
# Youngs Moduli (GPa) = 65.60647 45.10308 71.23697
#
# Poissons Ratio (x) = 0.18869 -0.07502
# Poissons Ratio (y) = 0.27447 0.67317
# Poissons Ratio (z) = -0.06909 0.42621
#
# Static dielectric constant tensor:
#      x y z
#    x 4.231260 0.269920 0.297090 
#    y 0.269920 3.897640 -0.168460 
#    z 0.297090 -0.168460 4.362920 
# 
# 
# High freq. dielectric constant tensor:
#      x y z
#    x 1.856530 0.018450 0.008990 
#    y 0.018450 1.838860 -0.018040 
#    z 0.008990 -0.018040 1.873670 
# 
# From -- ./inp_files/278763.got.cif
#   From: 2010.06.25/outbox.cif.g09.slc.cpg/sg2_140_cif.got.tgz:278763.got - 2010.06.27 13:26:56.
