data_PCOD8008098
_publ_section_title
;
Structure prediction by ZEFSAII (Michael W. Deem and Ramdas Pophale) SiO2 
 PCOD8008098
Probable space group: P -1
;
_chemical_formula_sum "Si O2"
_cell_formula_units_Z 14
_cell_length_a 7.256451
_cell_length_b 10.915725
_cell_length_c 12.020867
_cell_angle_alpha 49.488139
_cell_angle_beta 118.417357
_cell_angle_gamma 107.172486
_cell_volume 636.539930
_symmetry_space_group_name_H-M "P -1"
_symmetry_group_IT_number 2
_symmetry_cell_setting 'triclinic'
loop_
_space_group_symop_operation_xyz
x,y,z
-x,-y,-z
loop_
_atom_site_type_symbol
_atom_site_label
_atom_site_fract_x
_atom_site_fract_y
_atom_site_fract_z
Si Si1 0.803586 0.385027 0.272113
Si Si2 0.890075 0.628680 0.973177
Si Si3 0.599585 0.489702 0.375609
Si Si4 0.698928 0.212539 0.936131
Si Si5 0.537019 0.869952 0.684172
Si Si6 0.515356 0.984062 0.188577
Si Si7 0.262497 0.318644 0.498325
O O1 0.753295 0.442250 0.348503
O O2 0.672558 0.229056 0.296472
O O3 0.045719 0.330625 0.363442
O O4 0.761549 0.531695 0.087493
O O5 0.727611 0.742431 0.789645
O O6 0.000000 0.500000 0.000000
O O7 0.058756 0.741808 0.014060
O O8 0.437858 0.628126 0.213012
O O9 0.458507 0.338252 0.458695
O O10 0.738307 0.542098 0.489850
O O11 0.667807 0.089347 0.897436
O O12 0.621769 0.136219 0.073425
O O13 0.500000 0.000000 0.500000
O O14 0.591386 0.964124 0.757136
O O15 0.707056 0.856191 0.335028
#
# Coordination Sequence:
#
# PCOD8008098 Si02
#       7
#     2   2   2   2   2   2   2
#     4  12  24  42  70  97 134 181 227 273 338 400
#     4  12  26  45  70 100 133 181 232 280 337 398
#     4  10  20  42  66 102 135 167 226 276 335 401
#     4  10  21  43  71  94 132 177 222 281 338 399
#     4  12  28  44  65  99 141 178 225 281 332 413
#     4  10  23  43  65  97 136 177 219 278 345 396
#     4  10  22  39  69 100 136 174 214 284 335 401
#
# _framework density 21.993907
#
# number of rings (size 3 to 8) (size 9 to 14) (size 15 to 20)
#    0.000    1.143    1.429    4.286    4.000    1.143 
#    2.571    0.000    0.000    0.000    0.000    0.000 
#    0.000    0.000    0.000    0.000    0.000    0.000 
#
# Total GULP energy -173659.158243 kJ/mol
# GULP energy per Si atom -12404.225589 kJ/mol
# Density = 2.194385 g / cm^3
# Si number density = 21.993907 Si / 1000 Ang^3
#
#
#
# Elastic Constant Matrix: (Units=GPa)
#
#
# Indices 1 2 3 4 5 6 
#
# 1 85.7195 44.8130 38.8068 12.9048 -4.3521 2.5547
# 2 44.8130 97.7248 35.6332 6.6310 -5.8922 7.2474
# 3 38.8068 35.6332 137.9321 -0.3994 -4.7541 10.1258
# 4 12.9048 6.6310 -0.3994 15.8737 -1.3698 -6.9080
# 5 -4.3521 -5.8922 -4.7541 -1.3698 46.7591 5.2667
# 6 2.5547 7.2474 10.1258 -6.9080 5.2667 45.7127
#
#
#
# Elastic Compliance Matrix: (Units=1/GPa)
#
#
# Indices 1 2 3 4 5 6 
#
# 1 0.018544 -0.006205 -0.003546 -0.013103 0.000345 -0.001287
# 2 -0.006205 0.014015 -0.001701 -0.001565 0.001180 -0.001871
# 3 -0.003546 -0.001701 0.008792 0.003416 0.000565 -0.001029
# 4 -0.013103 -0.001565 0.003416 0.079725 -0.000118 0.012285
# 5 0.000345 0.001180 0.000565 -0.000118 0.021945 -0.002878
# 6 -0.001287 -0.001871 -0.001029 0.012285 -0.002878 0.024660
#
#
# Mechanical properties :
#
#
# Convention : Reuss Voigt Hill
#
# Bulk Modulus (GPa) = 54.21283 62.20916 58.21100
# Shear Modulus (GPa) = 25.41504 35.14400 30.27952
#
# Velocity S-wave (km/s) = 3.40302 4.00171 3.71445
# Velocity P-wave (km/s) = 6.33587 7.04966 6.70227
#
# Compressibility (1/GPa) = 0.01844582
#
# Stress axis : x y z
#
# Youngs Moduli (GPa) = 53.92694 71.35352 113.74104
#
# Poissons Ratio (x) = 0.44277 0.40329
# Poissons Ratio (y) = 0.33463 0.19350
# Poissons Ratio (z) = 0.19121 0.12139
#
# Static dielectric constant tensor:
#      x y z
#    x 3.737060 0.133720 -0.203230 
#    y 0.133720 4.154410 0.022750 
#    z -0.203230 0.022750 4.207330 
# 
# 
# High freq. dielectric constant tensor:
#      x y z
#    x 1.848740 0.006420 -0.010590 
#    y 0.006420 1.873490 0.001650 
#    z -0.010590 0.001650 1.882060 
# 
# From -- ./inp_files/94863.got.cif
#   From: 2010.06.25/outbox.cif.g09.slc.cpg/sg2_48_cif.got.tgz:94863.got - 2010.06.27 13:26:56.
