data_PCOD8008745
_publ_section_title
;
Structure prediction by ZEFSAII (Michael W. Deem and Ramdas Pophale) SiO2 
 PCOD8008745
Probable space group: P -1
;
_chemical_formula_sum "Si O2"
_cell_formula_units_Z 10
_cell_length_a 11.422876
_cell_length_b 9.210795
_cell_length_c 9.549393
_cell_angle_alpha 124.329713
_cell_angle_beta 126.667885
_cell_angle_gamma 97.044029
_cell_volume 479.433141
_symmetry_space_group_name_H-M "P -1"
_symmetry_group_IT_number 2
_symmetry_cell_setting 'triclinic'
loop_
_space_group_symop_operation_xyz
x,y,z
-x,-y,-z
loop_
_atom_site_type_symbol
_atom_site_label
_atom_site_fract_x
_atom_site_fract_y
_atom_site_fract_z
Si Si1 0.466486 0.719770 0.716789
Si Si2 0.768561 0.673748 0.892771
Si Si3 0.564140 0.186895 0.950683
Si Si4 0.828166 0.128695 0.644968
Si Si5 0.806983 0.415016 0.981981
O O1 0.678568 0.791297 0.916172
O O2 0.299455 0.462410 0.379312
O O3 0.510942 0.936940 0.786731
O O4 0.380481 0.683261 0.790625
O O5 0.689207 0.475192 0.850343
O O6 0.015754 0.889540 0.194585
O O7 0.755065 0.373952 0.086663
O O8 0.365060 0.116937 0.704546
O O9 0.744471 0.176171 0.739630
O O10 0.950166 0.355615 0.743698
#
# Coordination Sequence:
#
# PCOD8008745 Si02
#       5
#     2   2   2   2   2
#     4  10  21  34  55  86 113 137 170 240 272 302
#     4   9  19  39  57  72 118 145 172 220 279 310
#     4  11  20  35  61  81 106 141 188 218 267 314
#     4   9  18  36  60  78 103 147 185 218 250 341
#     4   9  18  35  63  75 104 151 184 207 266 337
#
# _framework density 20.857966000000001
#
# number of rings (size 3 to 8) (size 9 to 14) (size 15 to 20)
#    1.200    1.200    2.000    0.600    0.000    1.600 
#    0.000   10.000    4.400    0.000    0.000    0.000 
#    0.000    0.000    0.000    0.000    0.000    0.000 
#
# Total GULP energy -123928.413787 kJ/mol
# GULP energy per Si atom -12392.841379 kJ/mol
# Density = 2.081049 g / cm^3
# Si number density = 20.857966 Si / 1000 Ang^3
#
#
#
# Elastic Constant Matrix: (Units=GPa)
#
#
# Indices 1 2 3 4 5 6 
#
# 1 110.4809 47.3767 28.6917 -14.2934 -5.7109 12.2053
# 2 47.3767 39.7181 22.0211 -19.0593 -1.3179 6.6111
# 3 28.6917 22.0211 29.2087 -7.5067 -7.1739 13.1288
# 4 -14.2934 -19.0593 -7.5067 17.9940 -1.5551 0.4190
# 5 -5.7109 -1.3179 -7.1739 -1.5551 30.5218 -12.6363
# 6 12.2053 6.6111 13.1288 0.4190 -12.6363 44.9739
#
#
#
# Elastic Compliance Matrix: (Units=1/GPa)
#
#
# Indices 1 2 3 4 5 6 
#
# 1 0.021874 -0.036772 0.001418 -0.020832 0.001659 -0.000285
# 2 -0.036772 0.145988 -0.048669 0.104538 -0.006749 -0.000143
# 3 0.001418 -0.048669 0.072020 -0.019303 0.009371 -0.011442
# 4 -0.020832 0.104538 -0.019303 0.141923 0.001216 -0.005059
# 5 0.001659 -0.006749 0.009371 0.001216 0.038627 0.008648
# 6 -0.000285 -0.000143 -0.011442 -0.005059 0.008648 0.028151
#
#
# Mechanical properties :
#
#
# Convention : Reuss Voigt Hill
#
# Bulk Modulus (GPa) = 13.92079 41.73187 27.82633
# Shear Modulus (GPa) = 7.80550 24.11913 15.96232
#
# Velocity S-wave (km/s) = 1.93658 3.40421 2.76938
# Velocity P-wave (km/s) = 3.41892 5.95840 4.85755
#
# Compressibility (1/GPa) = 0.07183502
#
# Stress axis : x y z
#
# Youngs Moduli (GPa) = 45.71672 6.84988 13.88508
#
# Poissons Ratio (x) = 0.25189 -0.01969
# Poissons Ratio (y) = 1.68110 0.67578
# Poissons Ratio (z) = -0.06484 0.33338
#
# Static dielectric constant tensor:
#      x y z
#    x 3.649480 -0.147330 0.010260 
#    y -0.147330 3.475080 -0.294300 
#    z 0.010260 -0.294300 3.477690 
# 
# 
# High freq. dielectric constant tensor:
#      x y z
#    x 1.816400 -0.007570 -0.001060 
#    y -0.007570 1.785070 -0.025460 
#    z -0.001060 -0.025460 1.797770 
# 
# From -- ./inp_files/143973.got.cif
#   From: 2010.06.25/outbox.cif.g09.slc.cpg/sg2_72_cif.got.tgz:143973.got - 2010.06.27 13:26:56.
