data_PCOD8008589
_publ_section_title
;
Structure prediction by ZEFSAII (Michael W. Deem and Ramdas Pophale) SiO2 
 PCOD8008589
Probable space group: P -1
;
_chemical_formula_sum "Si O2"
_cell_formula_units_Z 16
_cell_length_a 13.466288
_cell_length_b 12.867668
_cell_length_c 7.621362
_cell_angle_alpha 100.578777
_cell_angle_beta 146.964198
_cell_angle_gamma 91.744759
_cell_volume 664.525472
_symmetry_space_group_name_H-M "P -1"
_symmetry_group_IT_number 2
_symmetry_cell_setting 'triclinic'
loop_
_space_group_symop_operation_xyz
x,y,z
-x,-y,-z
loop_
_atom_site_type_symbol
_atom_site_label
_atom_site_fract_x
_atom_site_fract_y
_atom_site_fract_z
Si Si1 0.327426 0.389146 0.659397
Si Si2 0.168915 0.982020 0.360337
Si Si3 0.467070 0.692901 0.599915
Si Si4 0.867395 0.682205 0.288933
Si Si5 0.818744 0.114311 0.306174
Si Si6 0.148874 0.465209 0.092394
Si Si7 0.491233 0.923151 0.624347
Si Si8 0.494607 0.210577 0.941473
O O1 0.169393 0.361650 0.577737
O O2 0.240745 0.400597 0.345874
O O3 0.419866 0.292122 0.736904
O O4 0.500000 0.500000 0.000000
O O5 0.308441 0.101873 0.673823
O O6 0.078555 0.896820 0.361466
O O7 0.299711 0.919075 0.443023
O O8 0.000000 0.000000 0.000000
O O9 0.304161 0.576117 0.269949
O O10 0.471882 0.794981 0.507356
O O11 0.669421 0.673511 0.897596
O O12 0.418109 0.729246 0.729867
O O13 0.013518 0.812060 0.554449
O O14 0.949725 0.610928 0.248817
O O15 0.662235 0.177597 0.088689
O O16 0.701819 0.984207 0.044330
O O17 0.000000 0.500000 0.000000
O O18 0.500000 0.000000 0.500000
#
# Coordination Sequence:
#
# PCOD8008589 Si02
#       8
#     2   2   2   2   2   2   2   2
#     4  11  25  46  71 101 136 187 237 287 353 415
#     4  11  24  40  68 102 134 187 234 285 351 423
#     4  11  22  45  68  98 140 182 229 289 351 412
#     4  11  27  43  72 107 137 185 238 288 355 421
#     4  11  23  46  68  98 143 185 229 292 355 414
#     4  12  27  47  74 102 141 185 235 297 351 421
#     4  11  25  43  69 102 140 183 232 287 352 420
#     4  10  20  44  69  92 137 187 224 289 349 408
#
# _framework density 24.077332999999999
#
# number of rings (size 3 to 8) (size 9 to 14) (size 15 to 20)
#    0.000    1.000    5.000    1.875    3.500    5.000 
#    0.000    0.000    0.000    0.000    0.000    0.000 
#    0.000    0.000    0.000    0.000    0.000    0.000 
#
# Total GULP energy -198259.472382 kJ/mol
# GULP energy per Si atom -12391.217024 kJ/mol
# Density = 2.402253 g / cm^3
# Si number density = 24.077333 Si / 1000 Ang^3
#
#
#
# Elastic Constant Matrix: (Units=GPa)
#
#
# Indices 1 2 3 4 5 6 
#
# 1 76.2712 27.9259 11.2099 7.8195 2.9105 25.1614
# 2 27.9259 143.0022 19.0394 -1.7810 -0.3889 22.7229
# 3 11.2099 19.0394 71.8043 8.3665 8.3173 16.1573
# 4 7.8195 -1.7810 8.3665 27.9797 11.9857 2.0529
# 5 2.9105 -0.3889 8.3173 11.9857 37.3364 1.0222
# 6 25.1614 22.7229 16.1573 2.0529 1.0222 42.5457
#
#
#
# Elastic Compliance Matrix: (Units=1/GPa)
#
#
# Indices 1 2 3 4 5 6 
#
# 1 0.017234 -0.002035 0.000379 -0.004500 0.000243 -0.009038
# 2 -0.002035 0.008017 -0.001423 0.001654 0.000100 -0.002620
# 3 0.000379 -0.001423 0.016145 -0.003633 -0.002328 -0.005364
# 4 -0.004500 0.001654 -0.003633 0.043596 -0.012855 0.001363
# 5 0.000243 0.000100 -0.002328 -0.012855 0.031396 0.000553
# 6 -0.009038 -0.002620 -0.005364 0.001363 0.000553 0.032207
#
#
# Mechanical properties :
#
#
# Convention : Reuss Voigt Hill
#
# Bulk Modulus (GPa) = 28.37842 45.26980 36.82411
# Shear Modulus (GPa) = 30.03024 37.09919 33.56471
#
# Velocity S-wave (km/s) = 3.53546 3.92961 3.73773
# Velocity P-wave (km/s) = 5.33647 6.27947 5.82708
#
# Compressibility (1/GPa) = 0.03523804
#
# Stress axis : x y z
#
# Youngs Moduli (GPa) = 58.02388 124.73550 61.93922
#
# Poissons Ratio (x) = 0.25387 -0.02348
# Poissons Ratio (y) = 0.11810 0.08812
# Poissons Ratio (z) = -0.02199 0.17747
#
# Static dielectric constant tensor:
#      x y z
#    x 3.618330 0.155630 0.743700 
#    y 0.155630 5.063070 -0.143290 
#    z 0.743700 -0.143290 3.476530 
# 
# 
# High freq. dielectric constant tensor:
#      x y z
#    x 1.948340 0.006590 0.005070 
#    y 0.006590 1.974740 0.001920 
#    z 0.005070 0.001920 1.943840 
# 
# From -- ./inp_files/307859.got.cif
#   From: 2010.06.25/outbox.cif.g09.slc.cpg/sg2_154_cif.got.tgz:307859.got - 2010.06.27 13:26:56.
