data_PCOD8008053
_publ_section_title
;
Structure prediction by ZEFSAII (Michael W. Deem and Ramdas Pophale) SiO2 
 PCOD8008053
Probable space group: P -1
;
_chemical_formula_sum "Si O2"
_cell_formula_units_Z 16
_cell_length_a 13.248323
_cell_length_b 10.570189
_cell_length_c 14.748348
_cell_angle_alpha 139.467020
_cell_angle_beta 49.549196
_cell_angle_gamma 149.620371
_cell_volume 678.648684
_symmetry_space_group_name_H-M "P -1"
_symmetry_group_IT_number 2
_symmetry_cell_setting 'triclinic'
loop_
_space_group_symop_operation_xyz
x,y,z
-x,-y,-z
loop_
_atom_site_type_symbol
_atom_site_label
_atom_site_fract_x
_atom_site_fract_y
_atom_site_fract_z
Si Si1 0.581487 0.545126 0.756525
Si Si2 0.009246 0.832611 0.179598
Si Si3 0.452861 0.121191 0.326084
Si Si4 0.689865 0.650375 0.039171
Si Si5 0.881981 0.370229 0.866907
Si Si6 0.011871 0.722773 0.832241
Si Si7 0.617898 0.287261 0.733456
Si Si8 0.667939 0.656386 0.377906
O O1 0.570145 0.305288 0.668368
O O2 0.520174 0.497564 0.661598
O O3 0.806922 0.867426 0.816946
O O4 0.434020 0.516432 0.887381
O O5 0.095117 0.819244 0.210568
O O6 0.862703 0.842809 0.304303
O O7 0.889221 0.541779 0.033576
O O8 0.634091 0.423691 0.331501
O O9 0.308181 0.133319 0.455281
O O10 0.512294 0.038816 0.330119
O O11 0.334341 0.855313 0.179111
O O12 0.572438 0.439199 0.901882
O O13 0.895333 0.751016 0.981856
O O14 0.773621 0.966297 0.157082
O O15 0.047578 0.584318 0.806960
O O16 0.855609 0.495876 0.718846
#
# Coordination Sequence:
#
# PCOD8008053 Si02
#       8
#     2   2   2   2   2   2   2   2
#     4  12  23  38  64  99 131 164 208 260 322 375
#     4  11  25  39  65 100 126 162 207 269 321 364
#     4  10  23  48  64  91 122 177 216 251 318 376
#     4   9  18  33  60  95 132 161 199 261 320 371
#     4  10  20  42  64  96 129 157 216 262 309 381
#     4   8  17  34  59  91 127 167 200 249 318 373
#     4   9  20  35  64  92 127 161 213 257 308 379
#     4  11  26  44  68  85 133 171 210 263 309 381
#
# _framework density 23.576260999999999
#
# number of rings (size 3 to 8) (size 9 to 14) (size 15 to 20)
#    0.750    1.250    1.250    1.875    1.750    4.500 
#    0.000    0.625    0.000    0.000    0.000    0.000 
#    0.000    0.000    0.000    0.000    0.000    0.000 
#
# Total GULP energy -198246.219457 kJ/mol
# GULP energy per Si atom -12390.388716 kJ/mol
# Density = 2.352260 g / cm^3
# Si number density = 23.576261 Si / 1000 Ang^3
#
#
#
# Elastic Constant Matrix: (Units=GPa)
#
#
# Indices 1 2 3 4 5 6 
#
# 1 104.1396 27.8226 2.2505 3.4704 2.5074 -37.7421
# 2 27.8226 137.4236 30.4919 -3.2970 -9.6986 -19.0531
# 3 2.2505 30.4919 47.6905 -8.1613 -0.4292 0.3655
# 4 3.4704 -3.2970 -8.1613 22.9650 -2.7165 -9.2154
# 5 2.5074 -9.6986 -0.4292 -2.7165 23.4053 5.2138
# 6 -37.7421 -19.0531 0.3655 -9.2154 5.2138 39.2179
#
#
#
# Elastic Compliance Matrix: (Units=1/GPa)
#
#
# Indices 1 2 3 4 5 6 
#
# 1 0.015794 -0.001401 0.000561 0.003403 -0.005440 0.016037
# 2 -0.001401 0.009568 -0.005841 0.001191 0.003438 0.003178
# 3 0.000561 -0.005841 0.026042 0.008005 -0.000955 -0.000533
# 4 0.003403 0.001191 0.008005 0.052721 0.002879 0.015785
# 5 -0.005440 0.003438 -0.000955 0.002879 0.047085 -0.009139
# 6 0.016037 0.003178 -0.000533 0.015785 -0.009139 0.047405
#
#
# Mechanical properties :
#
#
# Convention : Reuss Voigt Hill
#
# Bulk Modulus (GPa) = 26.28643 45.59819 35.94231
# Shear Modulus (GPa) = 22.25600 32.36356 27.30978
#
# Velocity S-wave (km/s) = 3.07579 3.70904 3.40716
# Velocity P-wave (km/s) = 4.87727 6.14210 5.54586
#
# Compressibility (1/GPa) = 0.03804244
#
# Stress axis : x y z
#
# Youngs Moduli (GPa) = 63.31378 104.51270 38.39950
#
# Poissons Ratio (x) = 0.14642 -0.02154
# Poissons Ratio (y) = 0.08870 0.22429
# Poissons Ratio (z) = -0.03552 0.61046
#
# Static dielectric constant tensor:
#      x y z
#    x 4.455690 -0.348930 -0.017730 
#    y -0.348930 4.193500 0.125840 
#    z -0.017730 0.125840 3.727140 
# 
# 
# High freq. dielectric constant tensor:
#      x y z
#    x 1.949850 -0.020510 0.002740 
#    y -0.020510 1.927680 0.007260 
#    z 0.002740 0.007260 1.886520 
# 
# From -- ./inp_files/532718.got.cif
#   From: 2010.06.25/outbox.cif.g09.slc.cpg/sg2_267_cif.got.tgz:532718.got - 2010.06.27 13:26:56.
