data_PCOD8008171
_publ_section_title
;
Structure prediction by ZEFSAII (Michael W. Deem and Ramdas Pophale) SiO2 
 PCOD8008171
Probable space group: P -1
;
_chemical_formula_sum "Si O2"
_cell_formula_units_Z 16
_cell_length_a 7.716711
_cell_length_b 9.920453
_cell_length_c 17.255134
_cell_angle_alpha 47.188082
_cell_angle_beta 115.873252
_cell_angle_gamma 132.052828
_cell_volume 719.097510
_symmetry_space_group_name_H-M "P -1"
_symmetry_group_IT_number 2
_symmetry_cell_setting 'triclinic'
loop_
_space_group_symop_operation_xyz
x,y,z
-x,-y,-z
loop_
_atom_site_type_symbol
_atom_site_label
_atom_site_fract_x
_atom_site_fract_y
_atom_site_fract_z
Si Si1 0.234379 0.319600 0.037301
Si Si2 0.829040 0.135374 0.769988
Si Si3 0.418455 0.169646 0.397073
Si Si4 0.814995 0.663123 0.804824
Si Si5 0.828304 0.558727 0.411174
Si Si6 0.621137 0.067009 0.343487
Si Si7 0.901248 0.918766 0.389601
Si Si8 0.984244 0.442442 0.823478
O O1 0.187233 0.384289 0.086716
O O2 0.173382 0.072849 0.118789
O O3 0.500000 0.500000 0.000000
O O4 0.071402 0.325939 0.940004
O O5 0.054838 0.281253 0.702642
O O6 0.840213 0.281434 0.786767
O O7 0.594983 0.050665 0.710656
O O8 0.401344 0.319223 0.267903
O O9 0.529564 0.048893 0.421852
O O10 0.153212 0.990215 0.446118
O O11 0.581953 0.333263 0.432737
O O12 0.054845 0.902075 0.738221
O O13 0.806935 0.473029 0.826577
O O14 0.000000 0.500000 0.500000
O O15 0.772851 0.675876 0.421879
O O16 0.798936 0.324823 0.257430
O O17 0.740681 0.929734 0.418696
#
# Coordination Sequence:
#
# PCOD8008171 Si02
#       8
#     2   2   2   2   2   2   2   2
#     4  12  21  39  64  93 132 178 220 260 323 385
#     4  12  23  43  65  94 136 171 219 274 327 383
#     4  10  20  42  67  90 129 171 210 268 330 381
#     4   9  20  41  63  90 132 173 213 264 317 384
#     4  12  25  43  71  97 128 172 219 273 332 391
#     4  11  20  41  68  90 129 174 212 268 323 387
#     4   9  22  41  66  94 124 172 213 265 328 376
#     4  11  23  37  64  97 130 177 218 263 321 388
#
# _framework density 22.250112000000001
#
# number of rings (size 3 to 8) (size 9 to 14) (size 15 to 20)
#    0.750    0.500    6.250    0.750    1.750    0.500 
#    0.000    1.875    0.000    0.000    0.000    0.000 
#    0.000    0.000    0.000    0.000    0.000    0.000 
#
# Total GULP energy -198405.004931 kJ/mol
# GULP energy per Si atom -12400.312808 kJ/mol
# Density = 2.219947 g / cm^3
# Si number density = 22.250112 Si / 1000 Ang^3
#
#
#
# Elastic Constant Matrix: (Units=GPa)
#
#
# Indices 1 2 3 4 5 6 
#
# 1 139.9914 79.3058 29.0878 3.3592 9.9793 -27.7723
# 2 79.3058 201.2856 45.8249 15.6245 3.2300 -21.6889
# 3 29.0878 45.8249 77.1267 3.9899 -4.8467 -11.4452
# 4 3.3592 15.6245 3.9899 37.4153 -2.9038 1.7555
# 5 9.9793 3.2300 -4.8467 -2.9038 33.6179 -0.3103
# 6 -27.7723 -21.6889 -11.4452 1.7555 -0.3103 41.7167
#
#
#
# Elastic Compliance Matrix: (Units=1/GPa)
#
#
# Indices 1 2 3 4 5 6 
#
# 1 0.010444 -0.003212 -0.001503 0.000107 -0.002954 0.004844
# 2 -0.003212 0.007169 -0.002805 -0.002476 -0.000345 0.000921
# 3 -0.001503 -0.002805 0.015676 -0.000222 0.002974 0.001873
# 4 0.000107 -0.002476 -0.000222 0.028090 0.002578 -0.002440
# 5 -0.002954 -0.000345 0.002974 0.002578 0.031297 -0.001206
# 6 0.004844 0.000921 0.001873 -0.002440 -0.001206 0.028283
#
#
# Mechanical properties :
#
#
# Convention : Reuss Voigt Hill
#
# Bulk Modulus (GPa) = 54.79739 80.76010 67.77874
# Shear Modulus (GPa) = 35.19129 40.16233 37.67681
#
# Velocity S-wave (km/s) = 3.98128 4.25318 4.11947
# Velocity P-wave (km/s) = 6.76871 7.77784 7.29075
#
# Compressibility (1/GPa) = 0.01824905
#
# Stress axis : x y z
#
# Youngs Moduli (GPa) = 95.74757 139.48750 63.79359
#
# Poissons Ratio (x) = 0.44799 0.09588
# Poissons Ratio (y) = 0.30751 0.17895
# Poissons Ratio (z) = 0.14391 0.39128
#
# Static dielectric constant tensor:
#      x y z
#    x 4.150110 -0.160780 0.012390 
#    y -0.160780 4.040000 -0.124170 
#    z 0.012390 -0.124170 4.153310 
# 
# 
# High freq. dielectric constant tensor:
#      x y z
#    x 1.877990 -0.015050 0.003750 
#    y -0.015050 1.880440 0.000240 
#    z 0.003750 0.000240 1.885180 
# 
# From -- ./inp_files/556096.got.cif
#   From: 2010.06.25/outbox.cif.g09.slc.cpg/sg2_279_cif.got.tgz:556096.got - 2010.06.27 13:26:56.
