data_PCOD8008086
_publ_section_title
;
Structure prediction by ZEFSAII (Michael W. Deem and Ramdas Pophale) SiO2 
 PCOD8008086
Probable space group: P -1
;
_chemical_formula_sum "Si O2"
_cell_formula_units_Z 14
_cell_length_a 8.701027
_cell_length_b 9.589228
_cell_length_c 18.604114
_cell_angle_alpha 29.159125
_cell_angle_beta 119.079068
_cell_angle_gamma 107.631167
_cell_volume 633.488259
_symmetry_space_group_name_H-M "P -1"
_symmetry_group_IT_number 2
_symmetry_cell_setting 'triclinic'
loop_
_space_group_symop_operation_xyz
x,y,z
-x,-y,-z
loop_
_atom_site_type_symbol
_atom_site_label
_atom_site_fract_x
_atom_site_fract_y
_atom_site_fract_z
Si Si1 0.383233 0.028656 0.531604
Si Si2 0.222644 0.924643 0.009925
Si Si3 0.615346 0.181027 0.639896
Si Si4 0.850916 0.818289 0.974249
Si Si5 0.006181 0.176039 0.348106
Si Si6 0.123194 0.701600 0.463779
Si Si7 0.633335 0.572373 0.237756
O O1 0.325837 0.723826 0.668308
O O2 0.500000 0.000000 0.500000
O O3 0.475950 0.085136 0.599426
O O4 0.193530 0.278289 0.355721
O O5 0.205245 0.933056 0.088098
O O6 0.228249 0.250903 0.838761
O O7 0.415385 0.713641 0.120697
O O8 0.048411 0.830821 0.980425
O O9 0.500000 0.500000 0.500000
O O10 0.804602 0.172837 0.646958
O O11 0.685261 0.926574 0.830873
O O12 0.855199 0.488104 0.153462
O O13 0.014056 0.957366 0.379538
O O14 0.000000 0.000000 0.500000
O O15 0.310357 0.502164 0.633107
O O16 0.000000 0.500000 0.500000
#
# Coordination Sequence:
#
# PCOD8008086 Si02
#       7
#     2   2   2   2   2   2   2
#     4  11  22  44  69  94 132 185 229 272 341 410
#     4  10  22  39  67  96 132 173 225 281 336 404
#     4  12  27  43  68 102 138 180 229 284 339 398
#     4  11  24  41  67 101 135 172 231 278 342 400
#     4  11  25  45  73  97 134 182 226 278 344 410
#     4  11  24  43  65  97 136 178 225 277 341 395
#     4  10  20  42  65  93 128 181 226 271 335 404
#
# _framework density 22.099857
#
# number of rings (size 3 to 8) (size 9 to 14) (size 15 to 20)
#    0.000    1.143    2.857    4.286    6.000    0.571 
#    5.143    1.429    0.000    0.000    0.000    0.000 
#    0.000    0.000    0.000    0.000    0.000    0.000 
#
# Total GULP energy -173438.410052 kJ/mol
# GULP energy per Si atom -12388.457861 kJ/mol
# Density = 2.204956 g / cm^3
# Si number density = 22.099857 Si / 1000 Ang^3
#
#
#
# Elastic Constant Matrix: (Units=GPa)
#
#
# Indices 1 2 3 4 5 6 
#
# 1 65.1039 19.9977 21.2613 -1.3557 -2.2320 -6.1083
# 2 19.9977 151.0529 56.7273 8.4987 10.1927 7.1997
# 3 21.2613 56.7273 142.9763 10.7352 0.8262 -0.4015
# 4 -1.3557 8.4987 10.7352 32.5087 2.8207 0.8906
# 5 -2.2320 10.1927 0.8262 2.8207 28.9115 0.8899
# 6 -6.1083 7.1997 -0.4015 0.8906 0.8899 37.5774
#
#
#
# Elastic Compliance Matrix: (Units=1/GPa)
#
#
# Indices 1 2 3 4 5 6 
#
# 1 0.016933 -0.001884 -0.001891 0.001587 0.001778 0.003014
# 2 -0.001884 0.008304 -0.002929 -0.000986 -0.002837 -0.001838
# 3 -0.001891 -0.002929 0.008602 -0.002238 0.000848 0.000379
# 4 0.001587 -0.000986 -0.002238 0.032056 -0.002585 -0.000276
# 5 0.001778 -0.002837 0.000848 -0.002585 0.035952 0.000051
# 6 0.003014 -0.001838 0.000379 -0.000276 0.000051 0.027463
#
#
# Mechanical properties :
#
#
# Convention : Reuss Voigt Hill
#
# Bulk Modulus (GPa) = 48.94944 61.67842 55.31393
# Shear Modulus (GPa) = 33.43810 37.20931 35.32370
#
# Velocity S-wave (km/s) = 3.89401 4.10773 4.00230
# Velocity P-wave (km/s) = 6.51268 7.10405 6.81478
#
# Compressibility (1/GPa) = 0.02042924
#
# Stress axis : x y z
#
# Youngs Moduli (GPa) = 59.05520 120.42028 116.25433
#
# Poissons Ratio (x) = 0.22692 0.21988
# Poissons Ratio (y) = 0.11128 0.34055
# Poissons Ratio (z) = 0.11169 0.35275
#
# Static dielectric constant tensor:
#      x y z
#    x 4.383180 0.120540 -0.007650 
#    y 0.120540 3.860920 -0.147820 
#    z -0.007650 -0.147820 4.345700 
# 
# 
# High freq. dielectric constant tensor:
#      x y z
#    x 1.881540 0.000540 -0.000160 
#    y 0.000540 1.860670 -0.002580 
#    z -0.000160 -0.002580 1.875540 
# 
# From -- ./inp_files/354452.got.cif
#   From: 2010.06.25/outbox.cif.g09.slc.cpg/sg2_178_cif.got.tgz:354452.got - 2010.06.27 13:26:56.
