data_PCOD8008918
_publ_section_title
;
Structure prediction by ZEFSAII (Michael W. Deem and Ramdas Pophale) SiO2 
 PCOD8008918
Probable space group: P -1
;
_chemical_formula_sum "Si O2"
_cell_formula_units_Z 16
_cell_length_a 12.020020
_cell_length_b 16.265252
_cell_length_c 16.440659
_cell_angle_alpha 152.465213
_cell_angle_beta 51.727546
_cell_angle_gamma 144.674128
_cell_volume 791.421407
_symmetry_space_group_name_H-M "P -1"
_symmetry_group_IT_number 2
_symmetry_cell_setting 'triclinic'
loop_
_space_group_symop_operation_xyz
x,y,z
-x,-y,-z
loop_
_atom_site_type_symbol
_atom_site_label
_atom_site_fract_x
_atom_site_fract_y
_atom_site_fract_z
Si Si1 0.861411 0.777364 0.196814
Si Si2 0.427017 0.148191 0.576416
Si Si3 0.791113 0.409512 0.019536
Si Si4 0.221727 0.595636 0.228597
Si Si5 0.519805 0.150376 0.360612
Si Si6 0.336061 0.275760 0.444088
Si Si7 0.230176 0.738461 0.797237
Si Si8 0.597358 0.304295 0.171935
O O1 0.721819 0.825782 0.307458
O O2 0.821339 0.639653 0.179245
O O3 0.801360 0.586603 0.984388
O O4 0.103339 0.052306 0.316504
O O5 0.611093 0.315338 0.704137
O O6 0.538173 0.271054 0.544330
O O7 0.292186 0.843012 0.370680
O O8 0.738010 0.328393 0.066456
O O9 0.000000 0.500000 0.000000
O O10 0.608411 0.146653 0.819944
O O11 0.010974 0.444574 0.240694
O O12 0.389835 0.141550 0.345047
O O13 0.733760 0.287456 0.337001
O O14 0.500000 0.500000 0.500000
O O15 0.356634 0.448206 0.653689
O O16 0.325137 0.668151 0.748087
O O17 0.355165 0.031742 0.025818
#
# Coordination Sequence:
#
# PCOD8008918 Si02
#       8
#     2   2   2   2   2   2   2   2
#     4  12  24  41  70  95 132 172 215 272 328 387
#     4  11  26  43  68  95 126 175 226 277 310 385
#     4  11  21  36  61  94 132 168 202 262 329 390
#     4  11  24  46  67  92 129 173 229 269 324 370
#     4  11  23  40  62  97 135 167 211 262 333 386
#     4  12  23  36  60 100 131 163 207 262 323 403
#     4  10  21  39  65  88 132 177 200 267 324 392
#     4  10  21  35  58  94 130 163 208 250 330 392
#
# _framework density 20.21679
#
# number of rings (size 3 to 8) (size 9 to 14) (size 15 to 20)
#    0.000    1.000    3.750    3.375    3.500    1.500 
#    0.000    0.000    0.000    4.500    0.000    0.000 
#    0.000    0.000    0.000    0.000    0.000    0.000 
#
# Total GULP energy -198210.018275 kJ/mol
# GULP energy per Si atom -12388.126142 kJ/mol
# Density = 2.017078 g / cm^3
# Si number density = 20.216790 Si / 1000 Ang^3
#
#
#
# Elastic Constant Matrix: (Units=GPa)
#
#
# Indices 1 2 3 4 5 6 
#
# 1 95.8190 59.5205 43.6493 -0.5483 -8.0533 8.6656
# 2 59.5205 140.7121 57.9901 -4.4362 8.5386 7.9281
# 3 43.6493 57.9901 117.3645 -2.0212 -9.5307 4.7860
# 4 -0.5483 -4.4362 -2.0212 35.4353 1.7522 -1.0768
# 5 -8.0533 8.5386 -9.5307 1.7522 23.4791 0.5623
# 6 8.6656 7.9281 4.7860 -1.0768 0.5623 26.8090
#
#
#
# Elastic Compliance Matrix: (Units=1/GPa)
#
#
# Indices 1 2 3 4 5 6 
#
# 1 0.016196 -0.006193 -0.002281 -0.001100 0.007040 -0.003188
# 2 -0.006193 0.012087 -0.004298 0.001569 -0.008368 -0.000567
# 3 -0.002281 -0.004298 0.011959 -0.000179 0.005655 -0.000252
# 4 -0.001100 0.001569 -0.000179 0.028582 -0.003180 0.001138
# 5 0.007040 -0.008368 0.005655 -0.003180 0.050630 -0.002000
# 6 -0.003188 -0.000567 -0.000252 0.001138 -0.002000 0.038632
#
#
# Mechanical properties :
#
#
# Convention : Reuss Voigt Hill
#
# Bulk Modulus (GPa) = 68.03823 75.13506 71.58665
# Shear Modulus (GPa) = 26.52118 29.99373 28.25745
#
# Velocity S-wave (km/s) = 3.62586 3.85594 3.74267
# Velocity P-wave (km/s) = 7.15937 7.55445 7.35956
#
# Compressibility (1/GPa) = 0.01469762
#
# Stress axis : x y z
#
# Youngs Moduli (GPa) = 61.74319 82.73349 83.61977
#
# Poissons Ratio (x) = 0.51239 0.19071
# Poissons Ratio (y) = 0.38239 0.35942
# Poissons Ratio (z) = 0.14082 0.35561
#
# Static dielectric constant tensor:
#      x y z
#    x 3.388780 0.689830 -0.846500 
#    y 0.689830 3.653120 -0.922100 
#    z -0.846500 -0.922100 5.854910 
# 
# 
# High freq. dielectric constant tensor:
#      x y z
#    x 1.762680 0.000680 -0.017270 
#    y 0.000680 1.813570 -0.006580 
#    z -0.017270 -0.006580 1.798600 
# 
# From -- ./inp_files/282023.got.cif
#   From: 2010.06.25/outbox.cif.g09.slc.cpg/sg2_142_cif.got.tgz:282023.got - 2010.06.27 13:26:56.
