data_PCOD8008062
_publ_section_title
;
Structure prediction by ZEFSAII (Michael W. Deem and Ramdas Pophale) SiO2 
 PCOD8008062
Probable space group: P -1
;
_chemical_formula_sum "Si O2"
_cell_formula_units_Z 14
_cell_length_a 21.594896
_cell_length_b 15.529707
_cell_length_c 11.176921
_cell_angle_alpha 140.858131
_cell_angle_beta 149.072284
_cell_angle_gamma 19.104922
_cell_volume 616.746840
_symmetry_space_group_name_H-M "P -1"
_symmetry_group_IT_number 2
_symmetry_cell_setting 'triclinic'
loop_
_space_group_symop_operation_xyz
x,y,z
-x,-y,-z
loop_
_atom_site_type_symbol
_atom_site_label
_atom_site_fract_x
_atom_site_fract_y
_atom_site_fract_z
Si Si1 0.997129 0.809469 0.456024
Si Si2 0.530117 0.658334 0.401534
Si Si3 0.400075 0.084010 0.557819
Si Si4 0.550191 0.758318 0.781318
Si Si5 0.100463 0.353954 0.742846
Si Si6 0.503223 0.746813 0.962391
Si Si7 0.163586 0.788855 0.937859
O O1 0.219639 0.629089 0.549002
O O2 0.999825 0.899505 0.676659
O O3 0.997910 0.648114 0.317757
O O4 0.753743 0.076775 0.268823
O O5 0.551082 0.632791 0.553416
O O6 0.452408 0.883617 0.476286
O O7 0.335025 0.740923 0.123641
O O8 0.116761 0.384898 0.417537
O O9 0.500000 0.000000 0.500000
O O10 0.523170 0.074325 0.838013
O O11 0.591632 0.663923 0.882386
O O12 0.296526 0.082494 0.696021
O O13 0.767423 0.644387 0.979701
O O14 0.684640 0.488755 0.067373
O O15 0.000000 0.000000 0.000000
#
# Coordination Sequence:
#
# PCOD8008062 Si02
#       7
#     2   2   2   2   2   2   2
#     4  11  24  47  72  98 141 179 231 286 337 410
#     4  12  26  43  69 104 140 178 230 284 343 407
#     4  12  24  41  74 106 138 180 227 284 351 401
#     4  10  24  40  67 104 135 184 225 282 344 398
#     4  10  20  42  65 101 138 171 231 276 337 402
#     4  11  26  47  72  98 140 184 231 278 344 409
#     4  12  27  48  71 100 139 183 230 286 341 408
#
# _framework density 22.699750000000002
#
# number of rings (size 3 to 8) (size 9 to 14) (size 15 to 20)
#    0.000    0.857    2.857    4.714    4.000    5.143 
#    0.000    0.000    0.000    0.000    0.000    0.000 
#    0.000    0.000    0.000    0.000    0.000    0.000 
#
# Total GULP energy -173652.581387 kJ/mol
# GULP energy per Si atom -12403.755813 kJ/mol
# Density = 2.264808 g / cm^3
# Si number density = 22.699750 Si / 1000 Ang^3
#
#
#
# Elastic Constant Matrix: (Units=GPa)
#
#
# Indices 1 2 3 4 5 6 
#
# 1 83.0494 18.5551 29.6402 4.0259 1.4010 -13.8907
# 2 18.5551 69.7553 30.2955 -6.2391 -1.3675 -8.9168
# 3 29.6402 30.2955 120.1128 -9.9897 5.5590 -5.6513
# 4 4.0259 -6.2391 -9.9897 36.3578 -1.9000 10.7378
# 5 1.4010 -1.3675 5.5590 -1.9000 45.4998 -1.2433
# 6 -13.8907 -8.9168 -5.6513 10.7378 -1.2433 29.7534
#
#
#
# Elastic Compliance Matrix: (Units=1/GPa)
#
#
# Indices 1 2 3 4 5 6 
#
# 1 0.015240 -0.002104 -0.003296 -0.005249 -0.000137 0.007747
# 2 -0.002104 0.016967 -0.003561 0.001343 0.001148 0.002989
# 3 -0.003296 -0.003561 0.010260 0.003044 -0.001181 -0.001805
# 4 -0.005249 0.001343 0.003044 0.033154 0.000848 -0.013400
# 5 -0.000137 0.001148 -0.001181 0.000848 0.022215 0.000678
# 6 0.007747 0.002989 -0.001805 -0.013400 0.000678 0.042643
#
#
# Mechanical properties :
#
#
# Convention : Reuss Voigt Hill
#
# Bulk Modulus (GPa) = 40.74207 47.76657 44.25432
# Shear Modulus (GPa) = 30.01501 35.28399 32.64950
#
# Velocity S-wave (km/s) = 3.64024 3.94684 3.79663
# Velocity P-wave (km/s) = 5.97123 6.46981 6.22552
#
# Compressibility (1/GPa) = 0.02454465
#
# Stress axis : x y z
#
# Youngs Moduli (GPa) = 65.61687 58.93824 97.46709
#
# Poissons Ratio (x) = 0.12403 0.32122
# Poissons Ratio (y) = 0.13809 0.34707
# Poissons Ratio (z) = 0.21625 0.20987
#
# Static dielectric constant tensor:
#      x y z
#    x 4.033970 -0.116870 0.074210 
#    y -0.116870 4.010370 -0.127970 
#    z 0.074210 -0.127970 4.429290 
# 
# 
# High freq. dielectric constant tensor:
#      x y z
#    x 1.889110 -0.007610 0.004200 
#    y -0.007610 1.885010 -0.007350 
#    z 0.004200 -0.007350 1.915730 
# 
# From -- ./inp_files/471961.got.cif
#   From: 2010.06.25/outbox.cif.g09.slc.cpg/sg2_236_cif.got.tgz:471961.got - 2010.06.27 13:26:56.
