data_PCOD8008008
_publ_section_title
;
Structure prediction by ZEFSAII (Michael W. Deem and Ramdas Pophale) SiO2 
 PCOD8008008
Probable space group: P -1
;
_chemical_formula_sum "Si O2"
_cell_formula_units_Z 12
_cell_length_a 14.270737
_cell_length_b 9.766233
_cell_length_c 8.793345
_cell_angle_alpha 108.255485
_cell_angle_beta 153.284246
_cell_angle_gamma 69.980137
_cell_volume 517.586645
_symmetry_space_group_name_H-M "P -1"
_symmetry_group_IT_number 2
_symmetry_cell_setting 'triclinic'
loop_
_space_group_symop_operation_xyz
x,y,z
-x,-y,-z
loop_
_atom_site_type_symbol
_atom_site_label
_atom_site_fract_x
_atom_site_fract_y
_atom_site_fract_z
Si Si1 0.313716 0.201673 0.314968
Si Si2 0.424427 0.347152 0.820064
Si Si3 0.445125 0.849334 0.808629
Si Si4 0.738817 0.087764 0.736405
Si Si5 0.821314 0.647816 0.116810
Si Si6 0.039121 0.664029 0.727513
O O1 0.423120 0.300233 0.625887
O O2 0.497462 0.121252 0.448032
O O3 0.189920 0.083641 0.179851
O O4 0.152046 0.301769 0.002003
O O5 0.189472 0.346996 0.540379
O O6 0.500000 0.500000 0.000000
O O7 0.596146 0.237329 0.127712
O O8 0.249486 0.886005 0.420344
O O9 0.626243 0.746700 0.945077
O O10 0.500000 0.000000 0.000000
O O11 0.889965 0.184442 0.071278
O O12 0.796805 0.474735 0.022668
O O13 0.027834 0.661189 0.524945
#
# Coordination Sequence:
#
# PCOD8008008 Si02
#       6
#     2   2   2   2   2   2
#     4  10  22  40  62  95 121 160 206 252 304 361
#     4  11  25  41  63  92 126 160 207 258 305 360
#     4  10  20  42  63  91 125 164 199 246 317 367
#     4  10  22  40  66  89 125 162 206 248 305 373
#     4   9  22  40  62  91 123 163 203 247 311 364
#     4  10  23  43  61  90 125 165 205 249 310 364
#
# _framework density 23.184522999999999
#
# number of rings (size 3 to 8) (size 9 to 14) (size 15 to 20)
#    0.000    2.000    1.667    0.000    9.333    3.333 
#    0.000    0.000    0.000    0.000    0.000    0.000 
#    0.000    0.000    0.000    0.000    0.000    0.000 
#
# Total GULP energy -148681.785614 kJ/mol
# GULP energy per Si atom -12390.148801 kJ/mol
# Density = 2.313175 g / cm^3
# Si number density = 23.184523 Si / 1000 Ang^3
#
#
#
# Elastic Constant Matrix: (Units=GPa)
#
#
# Indices 1 2 3 4 5 6 
#
# 1 57.5202 33.1538 38.6284 -16.7468 -38.3211 18.0634
# 2 33.1538 147.5962 59.0709 13.2363 -27.6513 41.7386
# 3 38.6284 59.0709 100.1829 10.8315 -42.1100 36.8044
# 4 -16.7468 13.2363 10.8315 47.1391 8.1819 -9.9190
# 5 -38.3211 -27.6513 -42.1100 8.1819 56.5289 -15.6593
# 6 18.0634 41.7386 36.8044 -9.9190 -15.6593 39.9918
#
#
#
# Elastic Compliance Matrix: (Units=1/GPa)
#
#
# Indices 1 2 3 4 5 6 
#
# 1 0.041857 -0.005773 -0.009855 0.017233 0.017772 0.007421
# 2 -0.005773 0.012188 0.000766 -0.008390 0.000292 -0.012784
# 3 -0.009855 0.000766 0.027449 -0.016387 0.010545 -0.021545
# 4 0.017233 -0.008390 -0.016387 0.039204 -0.003548 0.024388
# 5 0.017772 0.000292 0.010545 -0.003548 0.037025 -0.004419
# 6 0.007421 -0.012784 -0.021545 0.024388 -0.004419 0.059142
#
#
# Mechanical properties :
#
#
# Convention : Reuss Voigt Hill
#
# Bulk Modulus (GPa) = 19.31606 63.00060 41.15833
# Shear Modulus (GPa) = 18.95045 40.36172 29.65608
#
# Velocity S-wave (km/s) = 2.86208 4.17692 3.58038
# Velocity P-wave (km/s) = 4.38993 7.10597 5.90620
#
# Compressibility (1/GPa) = 0.05177038
#
# Stress axis : x y z
#
# Youngs Moduli (GPa) = 23.89069 82.05051 36.43086
#
# Poissons Ratio (x) = 0.47365 0.35903
# Poissons Ratio (y) = 0.13791 -0.02790
# Poissons Ratio (z) = 0.23544 -0.06283
#
# Static dielectric constant tensor:
#      x y z
#    x 4.451200 0.330090 -0.724010 
#    y 0.330090 4.616270 -0.469180 
#    z -0.724010 -0.469180 4.299420 
# 
# 
# High freq. dielectric constant tensor:
#      x y z
#    x 1.906340 0.001060 -0.035800 
#    y 0.001060 1.935690 -0.007820 
#    z -0.035800 -0.007820 1.903860 
# 
# From -- ./inp_files/144351.got.cif
#   From: 2010.06.25/outbox.cif.g09.slc.cpg/sg2_73_cif.got.tgz:144351.got - 2010.06.27 13:26:56.
