data_PCOD8008835
_publ_section_title
;
Structure prediction by ZEFSAII (Michael W. Deem and Ramdas Pophale) SiO2 
 PCOD8008835
Probable space group: P -1
;
_chemical_formula_sum "Si O2"
_cell_formula_units_Z 16
_cell_length_a 14.758435
_cell_length_b 13.867025
_cell_length_c 11.624445
_cell_angle_alpha 119.337415
_cell_angle_beta 85.365710
_cell_angle_gamma 41.932729
_cell_volume 893.599433
_symmetry_space_group_name_H-M "P -1"
_symmetry_group_IT_number 2
_symmetry_cell_setting 'triclinic'
loop_
_space_group_symop_operation_xyz
x,y,z
-x,-y,-z
loop_
_atom_site_type_symbol
_atom_site_label
_atom_site_fract_x
_atom_site_fract_y
_atom_site_fract_z
Si Si1 0.901422 0.744317 0.062422
Si Si2 0.448139 0.803740 0.482850
Si Si3 0.360252 0.167102 0.936021
Si Si4 0.399955 0.202170 0.709055
Si Si5 0.804005 0.417161 0.389368
Si Si6 0.606406 0.727193 0.800905
Si Si7 0.374414 0.597922 0.679770
Si Si8 0.772855 0.008922 0.011109
O O1 0.838678 0.690033 0.995503
O O2 0.818945 0.928399 0.091388
O O3 0.786801 0.898297 0.285350
O O4 0.148686 0.477950 0.892516
O O5 0.510141 0.779056 0.334860
O O6 0.608841 0.682865 0.490445
O O7 0.474527 0.641330 0.391257
O O8 0.464656 0.111064 0.781237
O O9 0.540086 0.899811 0.824675
O O10 0.281984 0.346982 0.139675
O O11 0.500000 0.000000 0.500000
O O12 0.765200 0.476692 0.564408
O O13 0.813895 0.274914 0.274019
O O14 0.020983 0.238816 0.231035
O O15 0.409860 0.869103 0.946892
O O16 0.500000 0.500000 0.500000
O O17 0.288824 0.794723 0.875721
#
# Coordination Sequence:
#
# PCOD8008835 Si02
#       8
#     2   2   2   2   2   2   2   2
#     4  11  19  35  52  79 106 137 175 215 258 308
#     4  10  20  32  52  82 110 129 173 221 259 310
#     4  10  21  36  52  73 105 146 174 212 259 301
#     4  12  22  35  54  76 108 139 176 220 256 304
#     4  10  18  31  50  81 109 128 172 214 259 311
#     4  10  20  38  49  73 112 137 178 212 250 322
#     4  10  16  31  54  82 109 131 166 222 274 298
#     4  11  18  32  56  81 108 137 167 219 272 300
#
# _framework density 17.905114000000001
#
# number of rings (size 3 to 8) (size 9 to 14) (size 15 to 20)
#    0.750    0.750    7.500    0.750    0.000    0.000 
#    2.250    1.875    0.000    0.750    0.000    4.375 
#    0.000    0.000    0.000    0.000    0.000    0.000 
#
# Total GULP energy -198301.383867 kJ/mol
# GULP energy per Si atom -12393.836492 kJ/mol
# Density = 1.786436 g / cm^3
# Si number density = 17.905114 Si / 1000 Ang^3
#
#
#
# Elastic Constant Matrix: (Units=GPa)
#
#
# Indices 1 2 3 4 5 6 
#
# 1 83.1713 33.5580 36.1044 -6.7476 -5.0715 18.1763
# 2 33.5580 46.0160 25.0734 -12.5709 0.2446 16.2857
# 3 36.1044 25.0734 97.7502 -0.9317 -15.2153 2.5146
# 4 -6.7476 -12.5709 -0.9317 27.9642 0.8769 -2.4255
# 5 -5.0715 0.2446 -15.2153 0.8769 37.0917 -3.6476
# 6 18.1763 16.2857 2.5146 -2.4255 -3.6476 24.5399
#
#
#
# Elastic Compliance Matrix: (Units=1/GPa)
#
#
# Indices 1 2 3 4 5 6 
#
# 1 0.019333 -0.008708 -0.004703 -0.000106 -0.000020 -0.008072
# 2 -0.008708 0.045256 -0.008863 0.016262 -0.007694 -0.022212
# 3 -0.004703 -0.008863 0.014996 -0.004095 0.006489 0.008389
# 4 -0.000106 0.016262 -0.004095 0.042443 -0.003455 -0.006613
# 5 -0.000020 -0.007694 0.006489 -0.003455 0.030603 0.008663
# 6 -0.008072 -0.022212 0.008389 -0.006613 0.008663 0.061244
#
#
# Mechanical properties :
#
#
# Convention : Reuss Voigt Hill
#
# Bulk Modulus (GPa) = 28.54246 46.26769 37.40508
# Shear Modulus (GPa) = 18.51141 26.73262 22.62202
#
# Velocity S-wave (km/s) = 3.21886 3.86815 3.55834
# Velocity P-wave (km/s) = 5.45805 6.77102 6.14967
#
# Compressibility (1/GPa) = 0.03503552
#
# Stress axis : x y z
#
# Youngs Moduli (GPa) = 51.72524 22.09646 66.68442
#
# Poissons Ratio (x) = 0.19242 0.31365
# Poissons Ratio (y) = 0.45043 0.59104
# Poissons Ratio (z) = 0.24329 0.19585
#
# Static dielectric constant tensor:
#      x y z
#    x 3.446680 0.263260 -0.038120 
#    y 0.263260 3.157750 -0.109230 
#    z -0.038120 -0.109230 3.312590 
# 
# 
# High freq. dielectric constant tensor:
#      x y z
#    x 1.684390 0.026500 -0.010780 
#    y 0.026500 1.652500 -0.003860 
#    z -0.010780 -0.003860 1.696710 
# 
# From -- ./inp_files/453239.got.cif
#   From: 2010.06.25/outbox.cif.g09.slc.cpg/sg2_227_cif.got.tgz:453239.got - 2010.06.27 13:26:56.
