data_PCOD8008339
_publ_section_title
;
Structure prediction by ZEFSAII (Michael W. Deem and Ramdas Pophale) SiO2 
 PCOD8008339
Probable space group: P -1
;
_chemical_formula_sum "Si O2"
_cell_formula_units_Z 16
_cell_length_a 8.965097
_cell_length_b 11.850233
_cell_length_c 8.684851
_cell_angle_alpha 95.843747
_cell_angle_beta 77.449276
_cell_angle_gamma 62.462209
_cell_volume 776.466685
_symmetry_space_group_name_H-M "P -1"
_symmetry_group_IT_number 2
_symmetry_cell_setting 'triclinic'
loop_
_space_group_symop_operation_xyz
x,y,z
-x,-y,-z
loop_
_atom_site_type_symbol
_atom_site_label
_atom_site_fract_x
_atom_site_fract_y
_atom_site_fract_z
Si Si1 0.706958 0.044341 0.943955
Si Si2 0.232520 0.344682 0.685657
Si Si3 0.674903 0.821450 0.074434
Si Si4 0.025219 0.626468 0.824355
Si Si5 0.005103 0.907275 0.617730
Si Si6 0.058643 0.642238 0.468179
Si Si7 0.424111 0.421290 0.415765
Si Si8 0.772043 0.215639 0.173048
O O1 0.509927 0.147922 0.951996
O O2 0.819414 0.964776 0.758672
O O3 0.795030 0.123483 0.010044
O O4 0.704545 0.944606 0.057420
O O5 0.323253 0.213424 0.750780
O O6 0.151952 0.476325 0.829020
O O7 0.378790 0.338874 0.535832
O O8 0.071969 0.348298 0.632050
O O9 0.830495 0.690766 0.944474
O O10 0.005793 0.614923 0.643890
O O11 0.112046 0.714040 0.866380
O O12 0.053813 0.778403 0.493583
O O13 0.159264 0.874515 0.702204
O O14 0.000000 0.000000 0.500000
O O15 0.254772 0.524043 0.369922
O O16 0.500000 0.500000 0.500000
O O17 0.566810 0.321315 0.250582
#
# Coordination Sequence:
#
# PCOD8008339 Si02
#       8
#     2   2   2   2   2   2   2   2
#     4  11  26  44  64  91 131 179 209 256 325 379
#     4  11  24  38  68  96 127 165 219 266 320 376
#     4  11  25  43  61  90 136 166 219 262 306 388
#     4  10  20  43  62  92 128 168 206 264 327 375
#     4  11  24  42  68  96 130 165 222 267 309 385
#     4  10  22  40  67  95 129 166 210 264 328 376
#     4  11  20  41  66  98 128 162 213 271 322 369
#     4  11  23  41  71  89 130 175 207 258 330 384
#
# _framework density 20.606164
#
# number of rings (size 3 to 8) (size 9 to 14) (size 15 to 20)
#    0.000    1.250    6.250    2.250    7.000    0.000 
#    0.000    1.875    0.000    0.000    0.000    0.000 
#    0.000    0.000    0.000    0.000    0.000    0.000 
#
# Total GULP energy -198371.389778 kJ/mol
# GULP energy per Si atom -12398.211861 kJ/mol
# Density = 2.055926 g / cm^3
# Si number density = 20.606164 Si / 1000 Ang^3
#
#
#
# Elastic Constant Matrix: (Units=GPa)
#
#
# Indices 1 2 3 4 5 6 
#
# 1 98.8615 43.5722 41.4677 -11.0484 5.2705 -15.8448
# 2 43.5722 112.3441 49.6765 -19.7836 -3.3600 -5.4357
# 3 41.4677 49.6765 54.2886 -10.4092 -2.7924 2.6353
# 4 -11.0484 -19.7836 -10.4092 37.1048 -4.3280 -6.5990
# 5 5.2705 -3.3600 -2.7924 -4.3280 34.6254 10.6065
# 6 -15.8448 -5.4357 2.6353 -6.5990 10.6065 18.5736
#
#
#
# Elastic Compliance Matrix: (Units=1/GPa)
#
#
# Indices 1 2 3 4 5 6 
#
# 1 0.028020 0.003601 -0.026046 0.008310 -0.017767 0.041751
# 2 0.003601 0.017650 -0.018429 0.007663 -0.004269 0.016013
# 3 -0.026046 -0.018429 0.057191 -0.008080 0.021334 -0.050780
# 4 0.008310 0.007663 -0.008080 0.035266 -0.004621 0.025647
# 5 -0.017767 -0.004269 0.021334 -0.004621 0.046989 -0.047908
# 6 0.041751 0.016013 -0.050780 0.025647 -0.047908 0.137819
#
#
# Mechanical properties :
#
#
# Convention : Reuss Voigt Hill
#
# Bulk Modulus (GPa) = 47.35983 59.43633 53.39808
# Shear Modulus (GPa) = 12.14419 26.77929 19.46174
#
# Velocity S-wave (km/s) = 2.43028 3.60888 3.07654
# Velocity P-wave (km/s) = 5.55952 6.80234 6.21209
#
# Compressibility (1/GPa) = 0.02111494
#
# Stress axis : x y z
#
# Youngs Moduli (GPa) = 35.68845 56.65761 17.48523
#
# Poissons Ratio (x) = -0.20405 0.45541
# Poissons Ratio (y) = -0.12853 0.32223
# Poissons Ratio (z) = 0.92953 1.04414
#
# Static dielectric constant tensor:
#      x y z
#    x 3.873600 -0.185020 -0.250570 
#    y -0.185020 4.178400 0.194560 
#    z -0.250570 0.194560 3.662390 
# 
# 
# High freq. dielectric constant tensor:
#      x y z
#    x 1.808620 -0.005260 -0.005710 
#    y -0.005260 1.821960 0.007610 
#    z -0.005710 0.007610 1.782740 
# 
# From -- ./inp_files/178925.got.cif
#   From: 2010.06.25/outbox.cif.g09.slc.cpg/sg2_90_cif.got.tgz:178925.got - 2010.06.27 13:26:56.
