data_PCOD8008959
_publ_section_title
;
Structure prediction by ZEFSAII (Michael W. Deem and Ramdas Pophale) SiO2 
 PCOD8008959
Probable space group: P -1
;
_chemical_formula_sum "Si O2"
_cell_formula_units_Z 14
_cell_length_a 14.888124
_cell_length_b 11.867889
_cell_length_c 9.506384
_cell_angle_alpha 76.813960
_cell_angle_beta 91.390659
_cell_angle_gamma 30.274410
_cell_volume 735.949123
_symmetry_space_group_name_H-M "P -1"
_symmetry_group_IT_number 2
_symmetry_cell_setting 'triclinic'
loop_
_space_group_symop_operation_xyz
x,y,z
-x,-y,-z
loop_
_atom_site_type_symbol
_atom_site_label
_atom_site_fract_x
_atom_site_fract_y
_atom_site_fract_z
Si Si1 0.639209 0.001467 0.947597
Si Si2 0.394551 0.771200 0.629055
Si Si3 0.750802 0.227708 0.890414
Si Si4 0.763946 0.600239 0.054058
Si Si5 0.809889 0.975823 0.742176
Si Si6 0.165682 0.058465 0.812402
Si Si7 0.234189 0.532748 0.198162
O O1 0.402798 0.257476 0.887359
O O2 0.671225 0.045807 0.801652
O O3 0.734601 0.946666 0.106660
O O4 0.747344 0.756448 0.992605
O O5 0.518026 0.515656 0.755060
O O6 0.217754 0.001051 0.666644
O O7 0.550781 0.700214 0.651617
O O8 0.301620 0.856364 0.449805
O O9 0.853259 0.237297 0.910623
O O10 0.855300 0.034631 0.824556
O O11 0.750661 0.156220 0.055136
O O12 0.979512 0.323518 0.205542
O O13 0.737897 0.575847 0.906857
O O14 0.925708 0.342741 0.739642
#
# Coordination Sequence:
#
# PCOD8008959 Si02
#       7
#     2   2   2   2   2   2   2
#     4  10  22  38  65  84 107 150 199 232 281 335
#     4  10  23  36  55  90 121 145 185 236 286 332
#     4   9  20  37  58  84 118 149 192 228 273 343
#     4  11  21  39  64  85 108 148 201 235 270 347
#     4  11  22  39  58  87 119 149 181 240 292 326
#     4  11  19  37  62  83 110 159 191 227 280 337
#     4  10  21  35  61  85 114 145 199 230 272 338
#
# _framework density 19.023053999999998
#
# number of rings (size 3 to 8) (size 9 to 14) (size 15 to 20)
#    0.857    0.857    4.286    1.714    0.000    1.143 
#    0.000    2.143    0.000    0.000    0.000    0.000 
#    0.000    0.000    0.000    0.000    0.000    0.000 
#
# Total GULP energy -173564.627370 kJ/mol
# GULP energy per Si atom -12397.473384 kJ/mol
# Density = 1.897976 g / cm^3
# Si number density = 19.023054 Si / 1000 Ang^3
#
#
#
# Elastic Constant Matrix: (Units=GPa)
#
#
# Indices 1 2 3 4 5 6 
#
# 1 86.8149 28.0624 19.9894 12.8396 -1.2983 6.6516
# 2 28.0624 101.9932 20.2637 9.4710 -9.8187 -6.9283
# 3 19.9894 20.2637 67.9899 13.3522 0.8066 -8.4327
# 4 12.8396 9.4710 13.3522 20.6888 -2.9967 4.9106
# 5 -1.2983 -9.8187 0.8066 -2.9967 9.9735 1.1653
# 6 6.6516 -6.9283 -8.4327 4.9106 1.1653 36.9964
#
#
#
# Elastic Compliance Matrix: (Units=1/GPa)
#
#
# Indices 1 2 3 4 5 6 
#
# 1 0.014142 -0.003352 -0.002447 -0.005329 -0.002519 -0.002941
# 2 -0.003352 0.012562 -0.002448 -0.000921 0.011600 0.002154
# 3 -0.002447 -0.002448 0.019575 -0.012810 -0.008911 0.006424
# 4 -0.005329 -0.000921 -0.012810 0.066063 0.020635 -0.011553
# 5 -0.002519 0.011600 -0.008911 0.020635 0.118967 -0.005892
# 6 -0.002941 0.002154 0.006424 -0.011553 -0.005892 0.031145
#
#
# Mechanical properties :
#
#
# Convention : Reuss Voigt Hill
#
# Bulk Modulus (GPa) = 33.57421 43.71432 38.64426
# Shear Modulus (GPa) = 17.30845 26.09723 21.70284
#
# Velocity S-wave (km/s) = 3.01967 3.70790 3.38134
# Velocity P-wave (km/s) = 5.46310 6.43124 5.96684
#
# Compressibility (1/GPa) = 0.02978477
#
# Stress axis : x y z
#
# Youngs Moduli (GPa) = 70.71323 79.60618 51.08484
#
# Poissons Ratio (x) = 0.26686 0.12500
# Poissons Ratio (y) = 0.23705 0.12505
# Poissons Ratio (z) = 0.17303 0.19486
#
# Static dielectric constant tensor:
#      x y z
#    x 3.515880 -0.052280 0.108340 
#    y -0.052280 3.664600 -0.003630 
#    z 0.108340 -0.003630 3.036930 
# 
# 
# High freq. dielectric constant tensor:
#      x y z
#    x 1.742270 -0.005080 0.014860 
#    y -0.005080 1.755890 0.005500 
#    z 0.014860 0.005500 1.703990 
# 
# From -- ./inp_files/201298.got.cif
#   From: 2010.06.25/outbox.cif.g09.slc.cpg/sg2_101_cif.got.tgz:201298.got - 2010.06.27 13:26:56.
