data_PCOD8008551
_publ_section_title
;
Structure prediction by ZEFSAII (Michael W. Deem and Ramdas Pophale) SiO2 
 PCOD8008551
Probable space group: P -1
;
_chemical_formula_sum "Si O2"
_cell_formula_units_Z 16
_cell_length_a 10.289599
_cell_length_b 21.916152
_cell_length_c 9.324549
_cell_angle_alpha 72.769155
_cell_angle_beta 117.635244
_cell_angle_gamma 150.513469
_cell_volume 888.623711
_symmetry_space_group_name_H-M "P -1"
_symmetry_group_IT_number 2
_symmetry_cell_setting 'triclinic'
loop_
_space_group_symop_operation_xyz
x,y,z
-x,-y,-z
loop_
_atom_site_type_symbol
_atom_site_label
_atom_site_fract_x
_atom_site_fract_y
_atom_site_fract_z
Si Si1 0.358750 0.493877 0.815680
Si Si2 0.087017 0.960239 0.086848
Si Si3 0.023104 0.293039 0.363412
Si Si4 0.480325 0.543792 0.295763
Si Si5 0.194577 0.778497 0.221817
Si Si6 0.496032 0.922194 0.549077
Si Si7 0.591609 0.101490 0.041783
Si Si8 0.700821 0.699260 0.040079
O O1 0.441104 0.497875 0.698693
O O2 0.005022 0.359124 0.749407
O O3 0.500000 0.500000 0.000000
O O4 0.507746 0.617694 0.850621
O O5 0.794144 0.807973 0.019066
O O6 0.207346 0.992151 0.286482
O O7 0.328381 0.034247 0.040113
O O8 0.000000 0.000000 0.000000
O O9 0.153805 0.410341 0.288265
O O10 0.288261 0.353007 0.530705
O O11 0.779932 0.213175 0.415567
O O12 0.872765 0.197199 0.222740
O O13 0.498403 0.605043 0.140790
O O14 0.468819 0.888014 0.395066
O O15 0.319847 0.818353 0.098550
O O16 0.995019 0.767010 0.145377
O O17 0.500000 0.000000 0.500000
O O18 0.500000 0.000000 0.000000
#
# Coordination Sequence:
#
# PCOD8008551 Si02
#       8
#     2   2   2   2   2   2   2   2
#     4   8  15  25  46  74 105 131 167 227 268 305
#     4  11  24  37  54  80 115 147 178 224 279 325
#     4  10  17  27  46  80 115 130 172 228 278 304
#     4   9  16  26  47  79 112 135 170 233 273 308
#     4  10  16  31  52  82 100 134 183 227 265 309
#     4  11  18  34  55  77 109 149 183 222 266 325
#     4  11  20  31  52  80 106 138 184 226 260 315
#     4  10  16  31  51  76 111 140 178 212 281 319
#
# _framework density 18.005371
#
# number of rings (size 3 to 8) (size 9 to 14) (size 15 to 20)
#    0.000    2.250    5.000    3.000    0.000    0.000 
#    0.000    0.625    0.000    7.500    0.000    0.000 
#    0.000    0.000    0.000    0.000    0.000    0.000 
#
# Total GULP energy -198230.643488 kJ/mol
# GULP energy per Si atom -12389.415218 kJ/mol
# Density = 1.796439 g / cm^3
# Si number density = 18.005371 Si / 1000 Ang^3
#
#
#
# Elastic Constant Matrix: (Units=GPa)
#
#
# Indices 1 2 3 4 5 6 
#
# 1 47.9982 34.2085 30.8739 1.3559 -1.4009 -9.9431
# 2 34.2085 123.8067 37.1893 9.0991 -6.4576 -11.2807
# 3 30.8739 37.1893 103.9918 19.5987 -19.2653 -11.9267
# 4 1.3559 9.0991 19.5987 38.8904 -1.4742 -12.4360
# 5 -1.4009 -6.4576 -19.2653 -1.4742 24.0757 -5.6316
# 6 -9.9431 -11.2807 -11.9267 -12.4360 -5.6316 24.1454
#
#
#
# Elastic Compliance Matrix: (Units=1/GPa)
#
#
# Indices 1 2 3 4 5 6 
#
# 1 0.032299 -0.006321 -0.008412 0.007331 -0.003984 0.009039
# 2 -0.006321 0.010489 -0.001148 -0.001072 0.001837 0.001607
# 3 -0.008412 -0.001148 0.016537 -0.005952 0.013040 0.004144
# 4 0.007331 -0.001072 -0.005952 0.034425 0.001621 0.017687
# 5 -0.003984 0.001837 0.013040 0.001621 0.056957 0.019779
# 6 0.009039 0.001607 0.004144 0.017687 0.019779 0.061659
#
#
# Mechanical properties :
#
#
# Convention : Reuss Voigt Hill
#
# Bulk Modulus (GPa) = 36.27848 53.37111 44.82480
# Shear Modulus (GPa) = 19.73826 28.99062 24.36444
#
# Velocity S-wave (km/s) = 3.31455 4.01697 3.68255
# Velocity P-wave (km/s) = 5.90260 7.15687 6.55979
#
# Compressibility (1/GPa) = 0.02756455
#
# Stress axis : x y z
#
# Youngs Moduli (GPa) = 30.96112 95.33438 60.47077
#
# Poissons Ratio (x) = 0.60256 0.50866
# Poissons Ratio (y) = 0.19569 0.06942
# Poissons Ratio (z) = 0.26043 0.10944
#
# Static dielectric constant tensor:
#      x y z
#    x 3.125330 0.268320 -0.714360 
#    y 0.268320 4.315840 0.167020 
#    z -0.714360 0.167020 3.781010 
# 
# 
# High freq. dielectric constant tensor:
#      x y z
#    x 1.608640 0.012590 -0.047550 
#    y 0.012590 1.724920 0.015390 
#    z -0.047550 0.015390 1.700500 
# 
# From -- ./inp_files/284232.got.cif
#   From: 2010.06.25/outbox.cif.g09.slc.cpg/sg2_143_cif.got.tgz:284232.got - 2010.06.27 13:26:56.
