data_PCOD8008514
_publ_section_title
;
Structure prediction by ZEFSAII (Michael W. Deem and Ramdas Pophale) SiO2 
 PCOD8008514
Probable space group: P -1
;
_chemical_formula_sum "Si O2"
_cell_formula_units_Z 14
_cell_length_a 9.784650
_cell_length_b 9.382797
_cell_length_c 8.490113
_cell_angle_alpha 72.907158
_cell_angle_beta 70.883408
_cell_angle_gamma 70.255076
_cell_volume 678.289763
_symmetry_space_group_name_H-M "P -1"
_symmetry_group_IT_number 2
_symmetry_cell_setting 'triclinic'
loop_
_space_group_symop_operation_xyz
x,y,z
-x,-y,-z
loop_
_atom_site_type_symbol
_atom_site_label
_atom_site_fract_x
_atom_site_fract_y
_atom_site_fract_z
Si Si1 0.204864 0.316369 0.238519
Si Si2 0.652571 0.559841 0.576057
Si Si3 0.889381 0.916109 0.153221
Si Si4 0.154484 0.017658 0.503264
Si Si5 0.370432 0.138370 0.937625
Si Si6 0.946255 0.570940 0.326926
Si Si7 0.583165 0.263378 0.609154
O O1 0.312738 0.392953 0.276653
O O2 0.166945 0.187676 0.405521
O O3 0.049673 0.445343 0.209211
O O4 0.283745 0.249080 0.070841
O O5 0.769329 0.583994 0.388292
O O6 0.658644 0.378986 0.636664
O O7 0.486720 0.661610 0.555127
O O8 0.835781 0.008127 0.305008
O O9 0.746391 0.931215 0.090901
O O10 0.972801 0.737338 0.221528
O O11 0.000000 0.000000 0.000000
O O12 0.292713 0.896209 0.410206
O O13 0.000000 0.000000 0.500000
O O14 0.444354 0.240242 0.767070
O O15 0.500000 0.000000 0.000000
O O16 0.000000 0.500000 0.500000
#
# Coordination Sequence:
#
# PCOD8008514 Si02
#       7
#     2   2   2   2   2   2   2
#     4  11  23  41  72  95 135 188 227 279 354 413
#     4  10  22  43  67  98 131 185 231 286 345 418
#     4  12  27  46  69 108 143 179 234 296 350 414
#     4  12  24  43  72 101 134 188 236 281 356 419
#     4  12  26  44  67 104 145 180 229 295 348 408
#     4  10  20  43  72  94 133 180 232 281 340 415
#     4  11  24  42  69  97 139 177 237 288 344 415
#
# _framework density 20.640145
#
# number of rings (size 3 to 8) (size 9 to 14) (size 15 to 20)
#    0.000    0.857    5.714    1.714    4.000    2.286 
#    5.143    0.000    0.000    0.000    0.000    0.000 
#    0.000    0.000    0.000    0.000    0.000    0.000 
#
# Total GULP energy -173592.075577 kJ/mol
# GULP energy per Si atom -12399.433970 kJ/mol
# Density = 2.059317 g / cm^3
# Si number density = 20.640145 Si / 1000 Ang^3
#
#
#
# Elastic Constant Matrix: (Units=GPa)
#
#
# Indices 1 2 3 4 5 6 
#
# 1 137.4265 59.5516 51.9851 8.4453 3.9971 15.3690
# 2 59.5516 117.4125 47.1455 -1.2789 -1.5843 -0.3707
# 3 51.9851 47.1455 113.2476 9.0199 -11.8949 10.6569
# 4 8.4453 -1.2789 9.0199 50.4099 5.8769 -2.5374
# 5 3.9971 -1.5843 -11.8949 5.8769 38.9529 -3.7082
# 6 15.3690 -0.3707 10.6569 -2.5374 -3.7082 46.3660
#
#
#
# Elastic Compliance Matrix: (Units=1/GPa)
#
#
# Indices 1 2 3 4 5 6 
#
# 1 0.010782 -0.004322 -0.002992 -0.001271 -0.002306 -0.003175
# 2 -0.004322 0.012118 -0.003446 0.001787 -0.000157 0.002407
# 3 -0.002992 -0.003446 0.012424 -0.002379 0.004159 -0.001689
# 4 -0.001271 0.001787 -0.002379 0.021025 -0.003519 0.001852
# 5 -0.002306 -0.000157 0.004159 -0.003519 0.027879 0.001844
# 6 -0.003175 0.002407 -0.001689 0.001852 0.001844 0.023276
#
#
# Mechanical properties :
#
#
# Convention : Reuss Voigt Hill
#
# Bulk Modulus (GPa) = 72.45008 76.16121 74.30565
# Shear Modulus (GPa) = 37.41855 41.10605 39.26230
#
# Velocity S-wave (km/s) = 4.26244 4.46753 4.36619
# Velocity P-wave (km/s) = 7.70728 7.97442 7.84199
#
# Compressibility (1/GPa) = 0.01380261
#
# Stress axis : x y z
#
# Youngs Moduli (GPa) = 92.75098 82.52366 80.49253
#
# Poissons Ratio (x) = 0.35666 0.24084
# Poissons Ratio (y) = 0.40086 0.27738
# Poissons Ratio (z) = 0.27752 0.28438
#
# Static dielectric constant tensor:
#      x y z
#    x 3.980590 -0.294040 -0.111390 
#    y -0.294040 4.159740 0.010730 
#    z -0.111390 0.010730 3.735450 
# 
# 
# High freq. dielectric constant tensor:
#      x y z
#    x 1.817710 -0.004290 -0.002720 
#    y -0.004290 1.821150 -0.004790 
#    z -0.002720 -0.004790 1.799430 
# 
# From -- ./inp_files/157117.got.cif
#   From: 2010.06.25/outbox.cif.g09.slc.cpg/sg2_79_cif.got.tgz:157117.got - 2010.06.27 13:26:56.
