data_PCOD8008903
_publ_section_title
;
Structure prediction by ZEFSAII (Michael W. Deem and Ramdas Pophale) SiO2 
 PCOD8008903
Probable space group: P -1
;
_chemical_formula_sum "Si O2"
_cell_formula_units_Z 16
_cell_length_a 12.824642
_cell_length_b 11.276294
_cell_length_c 6.483429
_cell_angle_alpha 105.150654
_cell_angle_beta 70.418744
_cell_angle_gamma 92.469055
_cell_volume 851.647140
_symmetry_space_group_name_H-M "P -1"
_symmetry_group_IT_number 2
_symmetry_cell_setting 'triclinic'
loop_
_space_group_symop_operation_xyz
x,y,z
-x,-y,-z
loop_
_atom_site_type_symbol
_atom_site_label
_atom_site_fract_x
_atom_site_fract_y
_atom_site_fract_z
Si Si1 0.449230 0.177944 0.954944
Si Si2 0.727088 0.692489 0.638646
Si Si3 0.653110 0.027431 0.817199
Si Si4 0.661402 0.845861 0.378912
Si Si5 0.919432 0.521457 0.368327
Si Si6 0.986223 0.305391 0.951920
Si Si7 0.093261 0.949063 0.256891
Si Si8 0.850839 0.844110 0.948448
O O1 0.392475 0.299904 0.160496
O O2 0.380605 0.057385 0.007623
O O3 0.577929 0.155827 0.925628
O O4 0.437618 0.195589 0.723690
O O5 0.706992 0.729931 0.431760
O O6 0.793843 0.560127 0.545196
O O7 0.802010 0.792029 0.745089
O O8 0.782617 0.051671 0.734475
O O9 0.617584 0.957189 0.601889
O O10 0.759431 0.891713 0.193085
O O11 0.000000 0.500000 0.500000
O O12 0.962763 0.633662 0.255822
O O13 0.907897 0.403323 0.175188
O O14 0.921298 0.190113 0.864834
O O15 0.077339 0.264115 0.040189
O O16 0.081221 0.037903 0.106101
O O17 0.000000 0.000000 0.500000
#
# Coordination Sequence:
#
# PCOD8008903 Si02
#       8
#     2   2   2   2   2   2   2   2
#     4   9  19  31  55  79 109 148 185 230 272 327
#     4  10  18  33  57  80 106 144 185 236 279 315
#     4  10  19  34  49  81 116 145 184 225 274 334
#     4  10  16  31  55  79 108 145 184 221 278 326
#     4  11  22  39  56  79 114 144 197 242 267 327
#     4  11  24  34  56  82 110 159 189 221 284 333
#     4  12  23  37  56  83 126 154 175 226 288 351
#     4  11  19  36  53  83 117 146 182 221 277 351
#
# _framework density 18.787125
#
# number of rings (size 3 to 8) (size 9 to 14) (size 15 to 20)
#    0.000    1.500    6.250    2.250    0.000    0.000 
#    0.000    0.000    0.000    0.750    0.000    1.750 
#    0.000    0.000    0.000    0.000    0.000    0.000 
#
# Total GULP energy -198251.549936 kJ/mol
# GULP energy per Si atom -12390.721871 kJ/mol
# Density = 1.874436 g / cm^3
# Si number density = 18.787125 Si / 1000 Ang^3
#
#
#
# Elastic Constant Matrix: (Units=GPa)
#
#
# Indices 1 2 3 4 5 6 
#
# 1 108.3774 31.0682 40.0003 3.5529 -9.2126 -31.5653
# 2 31.0682 80.9030 36.1752 6.1558 0.0109 -18.4268
# 3 40.0003 36.1752 99.5031 2.0432 5.5823 -18.1999
# 4 3.5529 6.1558 2.0432 37.1973 -14.2522 -0.9971
# 5 -9.2126 0.0109 5.5823 -14.2522 30.7512 4.0875
# 6 -31.5653 -18.4268 -18.1999 -0.9971 4.0875 36.7018
#
#
#
# Elastic Compliance Matrix: (Units=1/GPa)
#
#
# Indices 1 2 3 4 5 6 
#
# 1 0.013980 -0.001813 -0.003582 0.000974 0.004107 0.008906
# 2 -0.001813 0.016180 -0.004156 -0.002807 -0.001710 0.004618
# 3 -0.003582 -0.004156 0.013657 -0.001375 -0.004463 0.002065
# 4 0.000974 -0.002807 -0.001375 0.033548 0.016379 -0.002167
# 5 0.004107 -0.001710 -0.004463 0.016379 0.042662 -0.003846
# 6 0.008906 0.004618 0.002065 -0.002167 -0.003846 0.038618
#
#
# Mechanical properties :
#
#
# Convention : Reuss Voigt Hill
#
# Bulk Modulus (GPa) = 40.45975 55.91901 48.18938
# Shear Modulus (GPa) = 26.88373 33.03269 29.95821
#
# Velocity S-wave (km/s) = 3.78691 4.19771 3.99759
# Velocity P-wave (km/s) = 6.37994 7.30230 6.85664
#
# Compressibility (1/GPa) = 0.02471592
#
# Stress axis : x y z
#
# Youngs Moduli (GPa) = 71.53115 61.80298 73.22241
#
# Poissons Ratio (x) = 0.11205 0.26230
# Poissons Ratio (y) = 0.12968 0.30428
# Poissons Ratio (z) = 0.25624 0.25682
#
# Static dielectric constant tensor:
#      x y z
#    x 3.482190 -0.486050 -0.068160 
#    y -0.486050 3.263360 0.030650 
#    z -0.068160 0.030650 3.702260 
# 
# 
# High freq. dielectric constant tensor:
#      x y z
#    x 1.717280 -0.047940 0.001410 
#    y -0.047940 1.691030 0.000040 
#    z 0.001410 0.000040 1.749440 
# 
# From -- ./inp_files/71169.got.cif
#   From: 2010.06.25/outbox.cif.g09.slc.cpg/sg2_36_cif.got.tgz:71169.got - 2010.06.27 13:26:56.
