data_PCOD8008489
_publ_section_title
;
Structure prediction by ZEFSAII (Michael W. Deem and Ramdas Pophale) SiO2 
 PCOD8008489
Probable space group: P -1
;
_chemical_formula_sum "Si O2"
_cell_formula_units_Z 14
_cell_length_a 5.447321
_cell_length_b 24.222662
_cell_length_c 6.341382
_cell_angle_alpha 47.321734
_cell_angle_beta 86.420291
_cell_angle_gamma 96.116804
_cell_volume 601.173619
_symmetry_space_group_name_H-M "P -1"
_symmetry_group_IT_number 2
_symmetry_cell_setting 'triclinic'
loop_
_space_group_symop_operation_xyz
x,y,z
-x,-y,-z
loop_
_atom_site_type_symbol
_atom_site_label
_atom_site_fract_x
_atom_site_fract_y
_atom_site_fract_z
Si Si1 0.928409 0.873467 0.533658
Si Si2 0.439891 0.220205 0.916114
Si Si3 0.171723 0.254633 0.443714
Si Si4 0.670677 0.476302 0.229363
Si Si5 0.076330 0.615985 0.858740
Si Si6 0.466613 0.648095 0.127714
Si Si7 0.542452 0.074682 0.445004
O O1 0.942596 0.829729 0.423383
O O2 0.710051 0.925414 0.398318
O O3 0.206871 0.923130 0.433910
O O4 0.838458 0.811539 0.884912
O O5 0.395230 0.249005 0.609287
O O6 0.599122 0.289120 0.866820
O O7 0.588881 0.149837 0.095093
O O8 0.966862 0.299641 0.434028
O O9 0.275453 0.312541 0.098361
O O10 0.834390 0.420121 0.263410
O O11 0.507727 0.428873 0.548636
O O12 0.500000 0.500000 0.000000
O O13 0.830127 0.555437 0.108376
O O14 0.258197 0.625667 0.020874
O O15 0.500000 0.000000 0.500000
#
# Coordination Sequence:
#
# PCOD8008489 Si02
#       7
#     2   2   2   2   2   2   2
#     4   9  22  40  66  97 136 174 220 268 329 393
#     4   9  22  38  64  94 129 171 217 272 326 395
#     4  11  23  42  63  95 125 173 220 274 322 398
#     4  11  25  43  59  91 125 165 219 272 340 396
#     4  11  24  38  64  87 127 168 216 274 334 399
#     4  11  22  41  63  88 126 164 218 266 337 383
#     4  10  20  43  70  98 137 177 216 270 332 393
#
# _framework density 23.287782
#
# number of rings (size 3 to 8) (size 9 to 14) (size 15 to 20)
#    0.857    0.857    0.000    4.286    0.000    9.143 
#    0.000    1.429    0.000    0.000    0.000    0.000 
#    0.000    0.000    0.000    0.000    0.000    0.000 
#
# Total GULP energy -173470.121508 kJ/mol
# GULP energy per Si atom -12390.722965 kJ/mol
# Density = 2.323478 g / cm^3
# Si number density = 23.287782 Si / 1000 Ang^3
#
#
#
# Elastic Constant Matrix: (Units=GPa)
#
#
# Indices 1 2 3 4 5 6 
#
# 1 100.4012 31.9494 -16.5552 -0.4850 13.8768 12.3629
# 2 31.9494 173.6816 -8.9946 -9.2433 13.6506 8.9496
# 3 -16.5552 -8.9946 38.3499 3.7882 12.0259 3.0633
# 4 -0.4850 -9.2433 3.7882 26.7507 0.3705 9.3438
# 5 13.8768 13.6506 12.0259 0.3705 21.6392 -1.9097
# 6 12.3629 8.9496 3.0633 9.3438 -1.9097 48.6566
#
#
#
# Elastic Compliance Matrix: (Units=1/GPa)
#
#
# Indices 1 2 3 4 5 6 
#
# 1 0.014973 -0.000577 0.011796 0.000430 -0.016257 -0.005162
# 2 -0.000577 0.006722 0.003039 0.002668 -0.005783 -0.002020
# 3 0.011796 0.003039 0.043368 -0.001865 -0.034193 -0.007270
# 4 0.000430 0.002668 -0.001865 0.041601 -0.002390 -0.008565
# 5 -0.016257 -0.005783 -0.034193 -0.002390 0.080296 0.010957
# 6 -0.005162 -0.002020 -0.007270 -0.008565 0.010957 0.024768
#
#
# Mechanical properties :
#
#
# Convention : Reuss Voigt Hill
#
# Bulk Modulus (GPa) = 10.68622 36.13689 23.41155
# Shear Modulus (GPa) = 23.32046 39.81152 31.56599
#
# Velocity S-wave (km/s) = 3.16793 4.13915 3.68567
# Velocity P-wave (km/s) = 4.24025 6.19634 5.30916
#
# Compressibility (1/GPa) = 0.09357850
#
# Stress axis : x y z
#
# Youngs Moduli (GPa) = 66.78600 148.77051 23.05858
#
# Poissons Ratio (x) = 0.08584 -0.27200
# Poissons Ratio (y) = 0.03853 -0.07007
# Poissons Ratio (z) = -0.78781 -0.45208
#
# Static dielectric constant tensor:
#      x y z
#    x 4.097810 0.060840 -0.206070 
#    y 0.060840 4.775420 -0.320940 
#    z -0.206070 -0.320940 4.129010 
# 
# 
# High freq. dielectric constant tensor:
#      x y z
#    x 1.908480 0.001560 0.002010 
#    y 0.001560 1.941340 -0.006050 
#    z 0.002010 -0.006050 1.894290 
# 
# From -- ./inp_files/10248.got.cif
#   From: 2010.06.25/outbox.cif.g09.slc.cpg/sg2_6_cif.got.tgz:10248.got - 2010.06.27 13:26:56.
