data_PCOD8008806
_publ_section_title
;
Structure prediction by ZEFSAII (Michael W. Deem and Ramdas Pophale) SiO2 
 PCOD8008806
Probable space group: P -1
;
_chemical_formula_sum "Si O2"
_cell_formula_units_Z 16
_cell_length_a 5.432816
_cell_length_b 5.787411
_cell_length_c 25.850267
_cell_angle_alpha 51.975038
_cell_angle_beta 83.319147
_cell_angle_gamma 77.608981
_cell_volume 625.216334
_symmetry_space_group_name_H-M "P -1"
_symmetry_group_IT_number 2
_symmetry_cell_setting 'triclinic'
loop_
_space_group_symop_operation_xyz
x,y,z
-x,-y,-z
loop_
_atom_site_type_symbol
_atom_site_label
_atom_site_fract_x
_atom_site_fract_y
_atom_site_fract_z
Si Si1 0.129756 0.278535 0.326956
Si Si2 0.142665 0.486247 0.788332
Si Si3 0.047280 0.666917 0.564501
Si Si4 0.433365 0.767688 0.262121
Si Si5 0.586120 0.343338 0.603965
Si Si6 0.529177 0.346765 0.149245
Si Si7 0.725667 0.426130 0.965762
Si Si8 0.041367 0.912565 0.904000
O O1 0.947474 0.335725 0.372885
O O2 0.236783 0.578470 0.270133
O O3 0.000881 0.226190 0.281276
O O4 0.341436 0.990255 0.375001
O O5 0.302307 0.307519 0.763005
O O6 0.314747 0.569977 0.817984
O O7 0.962382 0.271095 0.847249
O O8 0.825940 0.508863 0.568105
O O9 0.327270 0.507470 0.559840
O O10 0.000000 0.000000 0.500000
O O11 0.481829 0.678539 0.332064
O O12 0.345922 0.125881 0.206216
O O13 0.362378 0.634127 0.083069
O O14 0.703678 0.190397 0.120349
O O15 0.834867 0.731461 0.914003
O O16 0.500000 0.500000 0.000000
O O17 0.917469 0.153699 0.025528
#
# Coordination Sequence:
#
# PCOD8008806 Si02
#       8
#     2   2   2   2   2   2   2   2
#     4  11  25  41  70 100 142 184 233 288 353 420
#     4  11  22  38  62  95 131 172 226 287 352 416
#     4  11  26  48  72 107 147 188 237 294 349 418
#     4  10  22  41  61  95 136 175 226 285 349 412
#     4  11  25  43  76 103 144 189 236 292 352 422
#     4  10  21  34  62  90 125 168 224 281 349 410
#     4   9  18  38  57  82 120 173 221 279 345 409
#     4   9  20  37  59  83 127 169 221 282 345 410
#
# _framework density 25.591142000000001
#
# number of rings (size 3 to 8) (size 9 to 14) (size 15 to 20)
#    0.000    1.750    1.250    1.875    3.500    4.500 
#    0.000    5.625    0.000    0.000    0.000    0.000 
#    0.000    0.000    0.000    0.000    0.000    0.000 
#
# Total GULP energy -198209.260936 kJ/mol
# GULP energy per Si atom -12388.078809 kJ/mol
# Density = 2.553290 g / cm^3
# Si number density = 25.591142 Si / 1000 Ang^3
#
#
#
# Elastic Constant Matrix: (Units=GPa)
#
#
# Indices 1 2 3 4 5 6 
#
# 1 108.5507 3.1673 46.8993 -9.5482 -6.7884 10.7598
# 2 3.1673 36.5246 6.2617 -15.1020 -6.8348 15.6064
# 3 46.8993 6.2617 99.3059 -40.3068 -6.7260 23.2871
# 4 -9.5482 -15.1020 -40.3068 32.8883 -0.9548 0.5645
# 5 -6.7884 -6.8348 -6.7260 -0.9548 46.8303 -7.2857
# 6 10.7598 15.6064 23.2871 0.5645 -7.2857 31.3956
#
#
#
# Elastic Compliance Matrix: (Units=1/GPa)
#
#
# Indices 1 2 3 4 5 6 
#
# 1 -0.109801 0.707765 0.645200 1.099779 0.078907 -0.794220
# 2 0.707765 -4.090617 -3.790896 -6.411184 -0.451911 4.613072
# 3 0.645200 -3.790896 -3.472298 -5.893995 -0.417755 4.247838
# 4 1.099779 -6.411184 -5.893995 -9.961769 -0.706212 7.197014
# 5 0.078907 -0.451911 -0.417755 -0.706212 -0.027635 0.513745
# 6 -0.794220 4.613072 4.247838 7.197014 0.513745 -5.150006
#
#
# Mechanical properties :
#
#
# Convention : Reuss Voigt Hill
#
# Bulk Modulus (GPa) = -0.07969 39.67089 19.79560
# Shear Modulus (GPa) = -0.22605 34.75971 17.26683
#
# Velocity S-wave (km/s) = -0.29753 3.68947 2.60035
# Velocity P-wave (km/s) = 0.38631 5.80388 4.09486
#
# Compressibility (1/GPa) = -12.54857908
#
# Stress axis : x y z
#
# Youngs Moduli (GPa) = -9.10736 -0.24446 -0.28799
#
# Poissons Ratio (x) = 0.17302 0.18581
# Poissons Ratio (y) = 6.44587 -1.09175
# Poissons Ratio (z) = 5.87607 -0.92673
#
# Static dielectric constant tensor:
#      x y z
#    x 5.565210 0.330190 -0.958480 
#    y 0.330190 4.467480 -0.417070 
#    z -0.958480 -0.417070 6.375120 
# 
# 
# High freq. dielectric constant tensor:
#      x y z
#    x 2.019410 -0.007050 -0.004350 
#    y -0.007050 1.997970 0.007910 
#    z -0.004350 0.007910 2.050000 
# 
# From -- ./inp_files/13712.got.cif
#   From: 2010.06.25/outbox.cif.g09.slc.cpg/sg2_7_cif.got.tgz:13712.got - 2010.06.27 13:26:56.
