data_PCOD8008415
_publ_section_title
;
Structure prediction by ZEFSAII (Michael W. Deem and Ramdas Pophale) SiO2 
 PCOD8008415
Probable space group: P -1
;
_chemical_formula_sum "Si O2"
_cell_formula_units_Z 16
_cell_length_a 10.130432
_cell_length_b 14.628883
_cell_length_c 11.064316
_cell_angle_alpha 74.673537
_cell_angle_beta 121.724735
_cell_angle_gamma 57.926677
_cell_volume 776.144132
_symmetry_space_group_name_H-M "P -1"
_symmetry_group_IT_number 2
_symmetry_cell_setting 'triclinic'
loop_
_space_group_symop_operation_xyz
x,y,z
-x,-y,-z
loop_
_atom_site_type_symbol
_atom_site_label
_atom_site_fract_x
_atom_site_fract_y
_atom_site_fract_z
Si Si1 0.676599 0.290407 0.050386
Si Si2 0.432773 0.606762 0.764877
Si Si3 0.983342 0.880797 0.292065
Si Si4 0.221533 0.957680 0.324876
Si Si5 0.636914 0.017752 0.860214
Si Si6 0.685120 0.667864 0.804677
Si Si7 0.523623 0.863750 0.888505
Si Si8 0.291721 0.321279 0.741686
O O1 0.632601 0.317223 0.162536
O O2 0.608328 0.425871 0.913863
O O3 0.483683 0.310960 0.883797
O O4 0.994814 0.117685 0.244514
O O5 0.168690 0.718683 0.517322
O O6 0.591339 0.607313 0.768573
O O7 0.138838 0.889236 0.298573
O O8 0.759791 0.030227 0.227658
O O9 0.847940 0.891765 0.113362
O O10 0.216773 0.016343 0.176364
O O11 0.523957 0.812067 0.577627
O O12 0.421903 0.204917 0.728787
O O13 0.503682 0.981106 0.787724
O O14 0.612109 0.748030 0.869337
O O15 0.000000 0.500000 0.000000
O O16 0.738065 0.741978 0.143648
O O17 0.000000 0.500000 0.500000
#
# Coordination Sequence:
#
# PCOD8008415 Si02
#       8
#     2   2   2   2   2   2   2   2
#     4  11  22  41  67  97 125 164 223 260 320 379
#     4  10  23  41  67  93 125 166 217 273 308 381
#     4  10  20  43  67  89 126 170 216 257 319 383
#     4  11  23  43  66  92 129 169 208 271 323 379
#     4  11  25  40  64  97 131 167 215 259 327 386
#     4  11  25  44  63  92 130 167 214 266 330 379
#     4  11  23  43  65  92 129 171 217 259 316 389
#     4  11  24  41  68  95 132 170 213 265 316 381
#
# _framework density 20.614727999999999
#
# number of rings (size 3 to 8) (size 9 to 14) (size 15 to 20)
#    0.000    1.250    3.750    2.625    7.000    2.500 
#    2.250    0.625    0.000    0.000    0.000    0.000 
#    0.000    0.000    0.000    0.000    0.000    0.000 
#
# Total GULP energy -198280.265093 kJ/mol
# GULP energy per Si atom -12392.516568 kJ/mol
# Density = 2.056781 g / cm^3
# Si number density = 20.614728 Si / 1000 Ang^3
#
#
#
# Elastic Constant Matrix: (Units=GPa)
#
#
# Indices 1 2 3 4 5 6 
#
# 1 99.2758 33.9050 33.1290 -4.5021 -5.6043 2.2108
# 2 33.9050 64.9587 30.7431 -12.5575 3.3251 6.6719
# 3 33.1290 30.7431 158.2579 -18.6981 -2.1688 -4.0545
# 4 -4.5021 -12.5575 -18.6981 18.7633 1.8015 -4.2852
# 5 -5.6043 3.3251 -2.1688 1.8015 27.4891 -2.8177
# 6 2.2108 6.6719 -4.0545 -4.2852 -2.8177 26.6527
#
#
#
# Elastic Compliance Matrix: (Units=1/GPa)
#
#
# Indices 1 2 3 4 5 6 
#
# 1 0.013042 -0.006857 -0.001760 -0.003517 0.003599 0.000182
# 2 -0.006857 0.022732 -0.001824 0.011326 -0.005460 -0.004155
# 3 -0.001760 -0.001824 0.007938 0.006911 0.000338 0.002957
# 4 -0.003517 0.011326 0.006911 0.069501 -0.005160 0.009137
# 5 0.003599 -0.005460 0.000338 -0.005160 0.038585 0.004369
# 6 0.000182 -0.004155 0.002957 0.009137 0.004369 0.040925
#
#
# Mechanical properties :
#
#
# Convention : Reuss Voigt Hill
#
# Bulk Modulus (GPa) = 43.79896 57.56072 50.67984
# Shear Modulus (GPa) = 22.60249 29.56204 26.08226
#
# Velocity S-wave (km/s) = 3.31482 3.79096 3.56086
# Velocity P-wave (km/s) = 5.99527 6.86619 6.44546
#
# Compressibility (1/GPa) = 0.02283159
#
# Stress axis : x y z
#
# Youngs Moduli (GPa) = 76.67767 43.99014 125.97138
#
# Poissons Ratio (x) = 0.30165 0.22166
# Poissons Ratio (y) = 0.52579 0.22972
# Poissons Ratio (z) = 0.13492 0.08022
#
# Static dielectric constant tensor:
#      x y z
#    x 3.872350 0.057350 -0.178520 
#    y 0.057350 3.597130 -0.051970 
#    z -0.178520 -0.051970 4.014180 
# 
# 
# High freq. dielectric constant tensor:
#      x y z
#    x 1.808230 0.005860 -0.012110 
#    y 0.005860 1.799290 -0.002160 
#    z -0.012110 -0.002160 1.813290 
# 
# From -- ./inp_files/398980.got.cif
#   From: 2010.06.25/outbox.cif.g09.slc.cpg/sg2_200_cif.got.tgz:398980.got - 2010.06.27 13:26:56.
