data_PCOD8008234
_publ_section_title
;
Structure prediction by ZEFSAII (Michael W. Deem and Ramdas Pophale) SiO2 
 PCOD8008234
Probable space group: P -1
;
_chemical_formula_sum "Si O2"
_cell_formula_units_Z 16
_cell_length_a 8.294603
_cell_length_b 13.443207
_cell_length_c 8.882203
_cell_angle_alpha 113.334516
_cell_angle_beta 68.738560
_cell_angle_gamma 131.473995
_cell_volume 674.102400
_symmetry_space_group_name_H-M "P -1"
_symmetry_group_IT_number 2
_symmetry_cell_setting 'triclinic'
loop_
_space_group_symop_operation_xyz
x,y,z
-x,-y,-z
loop_
_atom_site_type_symbol
_atom_site_label
_atom_site_fract_x
_atom_site_fract_y
_atom_site_fract_z
Si Si1 0.824401 0.960858 0.913801
Si Si2 0.358438 0.921221 0.768412
Si Si3 0.981284 0.311322 0.081237
Si Si4 0.858559 0.124691 0.749996
Si Si5 0.358559 0.304559 0.056224
Si Si6 0.913971 0.235590 0.498007
Si Si7 0.705966 0.383402 0.742643
Si Si8 0.374608 0.478469 0.377575
O O1 0.670580 0.996979 0.048508
O O2 0.682970 0.797503 0.855131
O O3 0.927891 0.042071 0.769387
O O4 0.000000 0.000000 0.000000
O O5 0.245436 0.898547 0.630864
O O6 0.232340 0.767288 0.785515
O O7 0.612403 0.005480 0.712329
O O8 0.133661 0.265309 0.041133
O O9 0.105741 0.472116 0.155638
O O10 0.898100 0.252440 0.905088
O O11 0.987391 0.189847 0.588574
O O12 0.482694 0.449913 0.187036
O O13 0.500759 0.305037 0.877019
O O14 0.787306 0.292992 0.637595
O O15 0.123796 0.348429 0.399473
O O16 0.629704 0.400750 0.614060
O O17 0.500000 0.500000 0.500000
#
# Coordination Sequence:
#
# PCOD8008234 Si02
#       8
#     2   2   2   2   2   2   2   2
#     4  11  20  41  68  95 126 178 222 273 327 391
#     4  11  22  43  65  93 139 174 223 275 336 380
#     4  10  20  42  68  95 133 169 226 280 323 395
#     4  11  25  39  66  99 132 175 226 274 330 399
#     4  11  22  43  70  97 130 178 222 273 334 397
#     4  12  25  46  65 100 143 175 215 283 338 391
#     4  11  25  43  72  97 132 183 221 268 340 401
#     4  11  25  44  68 101 138 173 217 276 342 399
#
# _framework density 23.735263
#
# number of rings (size 3 to 8) (size 9 to 14) (size 15 to 20)
#    0.000    1.000    5.000    4.500    3.500    1.500 
#    2.250    2.500    0.000    0.000    0.000    0.000 
#    0.000    0.000    0.000    0.000    0.000    0.000 
#
# Total GULP energy -198230.243443 kJ/mol
# GULP energy per Si atom -12389.390215 kJ/mol
# Density = 2.368124 g / cm^3
# Si number density = 23.735263 Si / 1000 Ang^3
#
#
#
# Elastic Constant Matrix: (Units=GPa)
#
#
# Indices 1 2 3 4 5 6 
#
# 1 64.7008 6.8016 17.1924 -1.0197 14.4176 -6.5785
# 2 6.8016 61.0378 1.1485 -4.5098 4.7756 -13.2750
# 3 17.1924 1.1485 81.1372 -7.8784 15.1027 -4.5956
# 4 -1.0197 -4.5098 -7.8784 39.1177 -0.2701 11.8675
# 5 14.4176 4.7756 15.1027 -0.2701 49.8630 -2.7050
# 6 -6.5785 -13.2750 -4.5956 11.8675 -2.7050 39.8339
#
#
#
# Elastic Compliance Matrix: (Units=1/GPa)
#
#
# Indices 1 2 3 4 5 6 
#
# 1 0.017436 -0.001180 -0.002916 -0.000953 -0.003933 0.002167
# 2 -0.001180 0.017853 0.000588 0.000436 -0.001240 0.005609
# 3 -0.002916 0.000588 0.013838 0.002668 -0.003375 0.000287
# 4 -0.000953 0.000436 0.002668 0.028637 -0.000869 -0.008295
# 5 -0.003933 -0.001240 -0.003375 -0.000869 0.022346 0.000324
# 6 0.002167 0.005609 0.000287 -0.008295 0.000324 0.029858
#
#
# Mechanical properties :
#
#
# Convention : Reuss Voigt Hill
#
# Bulk Modulus (GPa) = 23.74589 28.57342 26.15966
# Shear Modulus (GPa) = 33.10833 37.87845 35.49339
#
# Velocity S-wave (km/s) = 3.73889 3.99917 3.87122
# Velocity P-wave (km/s) = 5.35399 5.77832 5.57020
#
# Compressibility (1/GPa) = 0.04211256
#
# Stress axis : x y z
#
# Youngs Moduli (GPa) = 57.35176 56.01390 72.26605
#
# Poissons Ratio (x) = 0.06607 0.21070
# Poissons Ratio (y) = 0.06765 -0.04250
# Poissons Ratio (z) = 0.16722 -0.03294
#
# Static dielectric constant tensor:
#      x y z
#    x 4.190320 -0.248130 0.189560 
#    y -0.248130 4.749160 -0.087240 
#    z 0.189560 -0.087240 4.394880 
# 
# 
# High freq. dielectric constant tensor:
#      x y z
#    x 1.917490 0.001310 0.018490 
#    y 0.001310 1.946240 -0.006940 
#    z 0.018490 -0.006940 1.939310 
# 
# From -- ./inp_files/208201.got.cif
#   From: 2010.06.25/outbox.cif.g09.slc.cpg/sg2_105_cif.got.tgz:208201.got - 2010.06.27 13:26:56.
