data_PCOD8008298
_publ_section_title
;
Structure prediction by ZEFSAII (Michael W. Deem and Ramdas Pophale) SiO2 
 PCOD8008298
Probable space group: P -1
;
_chemical_formula_sum "Si O2"
_cell_formula_units_Z 16
_cell_length_a 13.486713
_cell_length_b 9.082884
_cell_length_c 8.913470
_cell_angle_alpha 49.015132
_cell_angle_beta 96.736571
_cell_angle_gamma 69.757324
_cell_volume 675.853417
_symmetry_space_group_name_H-M "P -1"
_symmetry_group_IT_number 2
_symmetry_cell_setting 'triclinic'
loop_
_space_group_symop_operation_xyz
x,y,z
-x,-y,-z
loop_
_atom_site_type_symbol
_atom_site_label
_atom_site_fract_x
_atom_site_fract_y
_atom_site_fract_z
Si Si1 0.271222 0.977252 0.066863
Si Si2 0.451519 0.831141 0.443533
Si Si3 0.341594 0.841965 0.842314
Si Si4 0.178400 0.501283 0.707578
Si Si5 0.312826 0.230968 0.388448
Si Si6 0.921834 0.071076 0.791209
Si Si7 0.925160 0.384870 0.064189
Si Si8 0.394675 0.507164 0.828955
O O1 0.400794 0.881036 0.230939
O O2 0.202566 0.903670 0.212602
O O3 0.189373 0.259632 0.842462
O O4 0.290879 0.858978 0.987320
O O5 0.593963 0.725414 0.540736
O O6 0.435937 0.638956 0.644035
O O7 0.373197 0.081152 0.347957
O O8 0.323217 0.666454 0.857362
O O9 0.275053 0.098873 0.582964
O O10 0.484598 0.739313 0.933437
O O11 0.105112 0.681367 0.438051
O O12 0.111453 0.622597 0.768570
O O13 0.311809 0.447692 0.766666
O O14 0.190897 0.475695 0.158751
O O15 0.991238 0.881824 0.799097
O O16 0.000000 0.000000 0.000000
O O17 0.000000 0.500000 0.000000
#
# Coordination Sequence:
#
# PCOD8008298 Si02
#       8
#     2   2   2   2   2   2   2   2
#     4  12  25  49  72 109 147 191 234 308 365 426
#     4  10  20  42  71 103 152 176 238 295 364 428
#     4  10  25  41  71 108 150 184 239 290 374 431
#     4  12  26  48  78 102 142 196 241 295 368 425
#     4  10  22  40  71 106 139 196 231 295 356 435
#     4  12  30  50  70 109 147 188 250 304 353 422
#     4  12  26  49  77 103 142 199 249 292 354 429
#     4  10  23  44  70 110 143 191 237 294 357 453
#
# _framework density 23.673772
#
# number of rings (size 3 to 8) (size 9 to 14) (size 15 to 20)
#    0.000    1.000    3.750    1.125   10.500    4.000 
#    0.000    0.000    0.000    0.000    0.000    0.000 
#    0.000    0.000    0.000    0.000    0.000    0.000 
#
# Total GULP energy -198497.964898 kJ/mol
# GULP energy per Si atom -12406.122806 kJ/mol
# Density = 2.361989 g / cm^3
# Si number density = 23.673772 Si / 1000 Ang^3
#
#
#
# Elastic Constant Matrix: (Units=GPa)
#
#
# Indices 1 2 3 4 5 6 
#
# 1 81.2711 2.9363 25.9497 -1.5232 6.1446 -1.1927
# 2 2.9363 77.1690 28.5189 3.8040 -10.0988 -11.9505
# 3 25.9497 28.5189 137.7989 13.5923 -1.0439 -4.0985
# 4 -1.5232 3.8040 13.5923 26.6586 6.4642 0.9733
# 5 6.1446 -10.0988 -1.0439 6.4642 31.1623 6.0752
# 6 -1.1927 -11.9505 -4.0985 0.9733 6.0752 28.6961
#
#
#
# Elastic Compliance Matrix: (Units=1/GPa)
#
#
# Indices 1 2 3 4 5 6 
#
# 1 0.013556 0.000057 -0.002869 0.003059 -0.003546 0.000824
# 2 0.000057 0.015468 -0.002828 -0.001996 0.004308 0.005196
# 3 -0.002869 -0.002828 0.008828 -0.004474 0.000887 -0.000072
# 4 0.003059 -0.001996 -0.004474 0.042734 -0.010139 -0.000646
# 5 -0.003546 0.004308 0.000887 -0.010139 0.037451 -0.005811
# 6 0.000824 0.005196 -0.000072 -0.000646 -0.005811 0.038288
#
#
# Mechanical properties :
#
#
# Convention : Reuss Voigt Hill
#
# Bulk Modulus (GPa) = 37.63122 45.67212 41.65167
# Shear Modulus (GPa) = 28.33458 33.22566 30.78012
#
# Velocity S-wave (km/s) = 3.46334 3.75037 3.60971
# Velocity P-wave (km/s) = 5.65007 6.17154 5.91655
#
# Compressibility (1/GPa) = 0.02657368
#
# Stress axis : x y z
#
# Youngs Moduli (GPa) = 73.76864 64.64805 113.27143
#
# Poissons Ratio (x) = -0.00370 0.32494
# Poissons Ratio (y) = -0.00422 0.32033
# Poissons Ratio (z) = 0.21162 0.18283
#
# Static dielectric constant tensor:
#      x y z
#    x 4.498660 -0.157800 0.107130 
#    y -0.157800 4.289460 -0.051890 
#    z 0.107130 -0.051890 4.344910 
# 
# 
# High freq. dielectric constant tensor:
#      x y z
#    x 1.931200 0.003640 -0.003730 
#    y 0.003640 1.925910 0.002020 
#    z -0.003730 0.002020 1.952890 
# 
# From -- ./inp_files/222834.got.cif
#   From: 2010.06.25/outbox.cif.g09.slc.cpg/sg2_112_cif.got.tgz:222834.got - 2010.06.27 13:26:56.
