data_PCOD8008025
_publ_section_title
;
Structure prediction by ZEFSAII (Michael W. Deem and Ramdas Pophale) SiO2 
 PCOD8008025
Probable space group: P -1
;
_chemical_formula_sum "Si O2"
_cell_formula_units_Z 16
_cell_length_a 22.167104
_cell_length_b 6.707744
_cell_length_c 9.381170
_cell_angle_alpha 127.263872
_cell_angle_beta 51.623169
_cell_angle_gamma 134.633892
_cell_volume 741.459506
_symmetry_space_group_name_H-M "P -1"
_symmetry_group_IT_number 2
_symmetry_cell_setting 'triclinic'
loop_
_space_group_symop_operation_xyz
x,y,z
-x,-y,-z
loop_
_atom_site_type_symbol
_atom_site_label
_atom_site_fract_x
_atom_site_fract_y
_atom_site_fract_z
Si Si1 0.842387 0.291852 0.155511
Si Si2 0.637608 0.343840 0.745024
Si Si3 0.955878 0.164433 0.455355
Si Si4 0.008957 0.741777 0.238300
Si Si5 0.376211 0.273284 0.494080
Si Si6 0.504370 0.749987 0.302716
Si Si7 0.659838 0.708038 0.136057
Si Si8 0.232097 0.309204 0.548692
O O1 0.793187 0.461879 0.252654
O O2 0.904808 0.452643 0.274934
O O3 0.763451 0.949771 0.131804
O O4 0.920729 0.345515 0.955439
O O5 0.542441 0.294895 0.803159
O O6 0.716303 0.578410 0.628868
O O7 0.638682 0.047431 0.608907
O O8 0.655362 0.456880 0.931808
O O9 0.951993 0.116827 0.607519
O O10 0.000000 0.500000 0.500000
O O11 0.854907 0.010499 0.480651
O O12 0.005944 0.992917 0.253003
O O13 0.456181 0.459996 0.346741
O O14 0.394021 0.418047 0.689479
O O15 0.287689 0.260544 0.564455
O O16 0.608838 0.840246 0.176014
O O17 0.500000 0.000000 0.500000
#
# Coordination Sequence:
#
# PCOD8008025 Si02
#       8
#     2   2   2   2   2   2   2   2
#     4  10  20  42  64  87 127 169 211 263 322 375
#     4  11  24  44  66  95 130 170 216 261 319 382
#     4  10  21  37  63  91 127 166 212 264 319 374
#     4   9  21  40  62  89 124 167 213 263 316 378
#     4  11  24  44  65  97 133 167 212 266 317 381
#     4  11  23  46  68  92 135 170 208 266 322 377
#     4  12  23  40  70  95 126 173 214 264 321 379
#     4  10  22  42  63  92 134 170 209 271 320 375
#
# _framework density 21.579059999999998
#
# number of rings (size 3 to 8) (size 9 to 14) (size 15 to 20)
#    0.000    1.500    2.500    2.250    1.750    2.500 
#   13.500    1.875    0.000    0.000    0.000    0.000 
#    0.000    0.000    0.000    0.000    0.000    0.000 
#
# Total GULP energy -198215.673848 kJ/mol
# GULP energy per Si atom -12388.479615 kJ/mol
# Density = 2.152995 g / cm^3
# Si number density = 21.579060 Si / 1000 Ang^3
#
#
#
# Elastic Constant Matrix: (Units=GPa)
#
#
# Indices 1 2 3 4 5 6 
#
# 1 114.7124 18.0629 35.3775 6.6082 -8.0581 5.0087
# 2 18.0629 70.0639 12.5516 12.4161 5.1212 -0.7719
# 3 35.3775 12.5516 95.8183 18.2362 3.6117 -8.2377
# 4 6.6082 12.4161 18.2362 18.3975 6.2438 3.7275
# 5 -8.0581 5.1212 3.6117 6.2438 36.5264 -0.4691
# 6 5.0087 -0.7719 -8.2377 3.7275 -0.4691 33.5523
#
#
#
# Elastic Compliance Matrix: (Units=1/GPa)
#
#
# Indices 1 2 3 4 5 6 
#
# 1 0.010658 -0.002527 -0.004290 0.001762 0.002792 -0.002859
# 2 -0.002527 0.016905 0.001214 -0.011847 -0.000992 0.002367
# 3 -0.004290 0.001214 0.015409 -0.015863 0.000151 0.006216
# 4 0.001762 -0.011847 -0.015863 0.083964 -0.010913 -0.013911
# 5 0.002792 -0.000992 0.000151 -0.010913 0.029999 0.001229
# 6 -0.002859 0.002367 0.006216 -0.013911 0.001229 0.033374
#
#
# Mechanical properties :
#
#
# Convention : Reuss Voigt Hill
#
# Bulk Modulus (GPa) = 31.48038 45.84207 38.66122
# Shear Modulus (GPa) = 23.57333 32.00208 27.78770
#
# Velocity S-wave (km/s) = 3.30876 3.85517 3.59237
# Velocity P-wave (km/s) = 5.40530 6.41142 5.92974
#
# Compressibility (1/GPa) = 0.03176582
#
# Stress axis : x y z
#
# Youngs Moduli (GPa) = 93.82628 59.15531 64.89593
#
# Poissons Ratio (x) = 0.14948 0.27843
# Poissons Ratio (y) = 0.23708 -0.07880
# Poissons Ratio (z) = 0.40255 -0.07183
#
# Static dielectric constant tensor:
#      x y z
#    x 4.830800 0.264000 -0.265280 
#    y 0.264000 4.019280 0.087320 
#    z -0.265280 0.087320 4.113670 
# 
# 
# High freq. dielectric constant tensor:
#      x y z
#    x 1.870540 0.016660 -0.008080 
#    y 0.016660 1.830440 0.022550 
#    z -0.008080 0.022550 1.838160 
# 
# From -- ./inp_files/116636.got.cif
#   From: 2010.06.25/outbox.cif.g09.slc.cpg/sg2_59_cif.got.tgz:116636.got - 2010.06.27 13:26:56.
