data_PCOD8008966
_publ_section_title
;
Structure prediction by ZEFSAII (Michael W. Deem and Ramdas Pophale) SiO2 
 PCOD8008966
Probable space group: P -1
;
_chemical_formula_sum "Si O2"
_cell_formula_units_Z 16
_cell_length_a 8.103916
_cell_length_b 12.182884
_cell_length_c 19.587607
_cell_angle_alpha 45.995246
_cell_angle_beta 147.109490
_cell_angle_gamma 122.778133
_cell_volume 750.985592
_symmetry_space_group_name_H-M "P -1"
_symmetry_group_IT_number 2
_symmetry_cell_setting 'triclinic'
loop_
_space_group_symop_operation_xyz
x,y,z
-x,-y,-z
loop_
_atom_site_type_symbol
_atom_site_label
_atom_site_fract_x
_atom_site_fract_y
_atom_site_fract_z
Si Si1 0.960295 0.157340 0.342678
Si Si2 0.423200 0.392194 0.081392
Si Si3 0.618933 0.388618 0.294805
Si Si4 0.728510 0.333974 0.886919
Si Si5 0.324214 0.910202 0.922388
Si Si6 0.334407 0.924897 0.132756
Si Si7 0.263117 0.123099 0.329658
Si Si8 0.173996 0.177380 0.550566
O O1 0.609856 0.224438 0.206471
O O2 0.071737 0.218003 0.282695
O O3 0.182978 0.208221 0.458840
O O4 0.998094 0.973153 0.432203
O O5 0.550409 0.463280 0.164089
O O6 0.500000 0.500000 0.000000
O O7 0.065354 0.377506 0.970138
O O8 0.513661 0.512424 0.263723
O O9 0.419145 0.245291 0.287126
O O10 0.975341 0.322189 0.455933
O O11 0.646306 0.214521 0.853296
O O12 0.684076 0.262694 0.977950
O O13 0.964182 0.965223 0.759736
O O14 0.491440 0.934642 0.897542
O O15 0.500000 0.000000 0.000000
O O16 0.489185 0.851707 0.287183
O O17 0.000000 0.000000 0.000000
O O18 0.500000 0.000000 0.500000
#
# Coordination Sequence:
#
# PCOD8008966 Si02
#       8
#     2   2   2   2   2   2   2   2
#     4  10  21  35  61  88 124 162 214 269 319 368
#     4  11  23  38  62  94 131 166 213 272 323 383
#     4  11  23  39  62  96 128 171 216 272 326 383
#     4  11  24  39  64  94 131 170 216 264 333 395
#     4  10  23  40  60  94 132 168 219 271 329 394
#     4  11  23  42  67  93 127 174 218 268 329 398
#     4  12  21  38  67  93 130 172 223 274 326 389
#     4  10  21  40  58  91 125 164 215 269 321 381
#
# _framework density 21.305336
#
# number of rings (size 3 to 8) (size 9 to 14) (size 15 to 20)
#    0.000    1.250    3.750    1.875    1.750    2.500 
#    0.000    0.000    0.000   10.500    0.000    0.000 
#    0.000    0.000    0.000    0.000    0.000    0.000 
#
# Total GULP energy -198244.844068 kJ/mol
# GULP energy per Si atom -12390.302754 kJ/mol
# Density = 2.125684 g / cm^3
# Si number density = 21.305336 Si / 1000 Ang^3
#
#
#
# Elastic Constant Matrix: (Units=GPa)
#
#
# Indices 1 2 3 4 5 6 
#
# 1 82.2166 31.0350 42.8181 -6.5187 1.2771 0.2821
# 2 31.0350 74.2282 52.6014 -5.2511 7.8793 -5.4298
# 3 42.8181 52.6014 152.5654 9.9541 10.3095 -10.9137
# 4 -6.5187 -5.2511 9.9541 32.1879 -5.0587 3.4266
# 5 1.2771 7.8793 10.3095 -5.0587 36.3348 -6.6312
# 6 0.2821 -5.4298 -10.9137 3.4266 -6.6312 38.7980
#
#
#
# Elastic Compliance Matrix: (Units=1/GPa)
#
#
# Indices 1 2 3 4 5 6 
#
# 1 0.015867 -0.004149 -0.003522 0.004063 0.001583 -0.001775
# 2 -0.004149 0.019782 -0.005739 0.003809 -0.001889 0.000525
# 3 -0.003522 -0.005739 0.010153 -0.005317 -0.001845 0.002233
# 4 0.004063 0.003809 -0.005317 0.035268 0.004852 -0.003278
# 5 0.001583 -0.001889 -0.001845 0.004852 0.029781 0.003866
# 6 -0.001775 0.000525 0.002233 -0.003278 0.003866 0.027439
#
#
# Mechanical properties :
#
#
# Convention : Reuss Voigt Hill
#
# Bulk Modulus (GPa) = 52.68061 62.43547 57.55804
# Shear Modulus (GPa) = 29.16526 33.63452 31.39989
#
# Velocity S-wave (km/s) = 3.70390 3.97758 3.84318
# Velocity P-wave (km/s) = 6.56293 7.10377 6.83870
#
# Compressibility (1/GPa) = 0.01898232
#
# Stress axis : x y z
#
# Youngs Moduli (GPa) = 63.02458 50.55048 98.49193
#
# Poissons Ratio (x) = 0.20972 0.34686
# Poissons Ratio (y) = 0.26147 0.56529
# Poissons Ratio (z) = 0.22196 0.29013
#
# Static dielectric constant tensor:
#      x y z
#    x 4.263840 -0.030650 -0.174710 
#    y -0.030650 3.632160 -0.056860 
#    z -0.174710 -0.056860 4.016740 
# 
# 
# High freq. dielectric constant tensor:
#      x y z
#    x 1.843760 -0.007070 -0.006920 
#    y -0.007070 1.804670 -0.003530 
#    z -0.006920 -0.003530 1.845160 
# 
# From -- ./inp_files/589547.got.cif
#   From: 2010.06.25/outbox.cif.g09.slc.cpg/sg2_295_cif.got.tgz:589547.got - 2010.06.27 13:26:56.
