data_PCOD8008038
_publ_section_title
;
Structure prediction by ZEFSAII (Michael W. Deem and Ramdas Pophale) SiO2 
 PCOD8008038
Probable space group: P -1
;
_chemical_formula_sum "Si O2"
_cell_formula_units_Z 14
_cell_length_a 18.796258
_cell_length_b 12.926693
_cell_length_c 9.591773
_cell_angle_alpha 130.386791
_cell_angle_beta 145.149656
_cell_angle_gamma 30.511494
_cell_volume 661.986280
_symmetry_space_group_name_H-M "P -1"
_symmetry_group_IT_number 2
_symmetry_cell_setting 'triclinic'
loop_
_space_group_symop_operation_xyz
x,y,z
-x,-y,-z
loop_
_atom_site_type_symbol
_atom_site_label
_atom_site_fract_x
_atom_site_fract_y
_atom_site_fract_z
Si Si1 0.091869 0.259874 0.093466
Si Si2 0.423780 0.627173 0.127526
Si Si3 0.833579 0.726064 0.072377
Si Si4 0.592284 0.331913 0.386242
Si Si5 0.008135 0.036056 0.882694
Si Si6 0.556883 0.089609 0.490085
Si Si7 0.364225 0.987084 0.754225
O O1 0.081652 0.254916 0.903188
O O2 0.312084 0.102196 0.357491
O O3 0.969884 0.492667 0.139675
O O4 0.014243 0.192299 0.992829
O O5 0.523153 0.439976 0.224165
O O6 0.492993 0.722353 0.359126
O O7 0.500000 0.500000 0.000000
O O8 0.194409 0.810627 0.920843
O O9 0.635527 0.828220 0.785815
O O10 0.813311 0.838760 0.274382
O O11 0.500000 0.500000 0.500000
O O12 0.516702 0.241474 0.201975
O O13 0.821200 0.133337 0.592561
O O14 0.000000 0.000000 0.000000
O O15 0.687500 0.996904 0.477732
O O16 0.500000 0.000000 0.000000
#
# Coordination Sequence:
#
# PCOD8008038 Si02
#       7
#     2   2   2   2   2   2   2
#     4  10  22  39  65  92 129 168 212 272 324 385
#     4  11  25  42  66 100 131 169 224 274 330 388
#     4  10  22  41  63  94 132 168 211 265 333 387
#     4  12  22  43  71  92 132 180 213 278 334 380
#     4  11  23  42  70  98 126 173 229 272 327 402
#     4  10  20  42  64  90 130 170 214 265 323 391
#     4  10  23  40  66  97 127 170 221 263 322 402
#
# _framework density 21.148474
#
# number of rings (size 3 to 8) (size 9 to 14) (size 15 to 20)
#    0.000    1.429    2.857    2.143    6.000    1.143 
#    5.143    0.000    0.000    0.000    0.000    0.000 
#    0.000    0.000    0.000    0.000    0.000    0.000 
#
# Total GULP energy -173467.368180 kJ/mol
# GULP energy per Si atom -12390.526299 kJ/mol
# Density = 2.110034 g / cm^3
# Si number density = 21.148474 Si / 1000 Ang^3
#
#
#
# Elastic Constant Matrix: (Units=GPa)
#
#
# Indices 1 2 3 4 5 6 
#
# 1 123.5912 72.9237 28.5635 16.3238 -25.1926 10.6251
# 2 72.9237 163.1528 52.4119 6.6573 -19.5686 10.7895
# 3 28.5635 52.4119 66.8266 6.3618 -5.0244 7.4010
# 4 16.3238 6.6573 6.3618 46.8527 -9.6101 -12.3442
# 5 -25.1926 -19.5686 -5.0244 -9.6101 43.9948 3.2553
# 6 10.6251 10.7895 7.4010 -12.3442 3.2553 50.1323
#
#
#
# Elastic Compliance Matrix: (Units=1/GPa)
#
#
# Indices 1 2 3 4 5 6 
#
# 1 0.012532 -0.004448 -0.000905 -0.003387 0.004554 -0.002695
# 2 -0.004448 0.010228 -0.006098 0.001206 0.001581 -0.000164
# 3 -0.000905 -0.006098 0.020491 -0.002394 -0.001263 -0.002028
# 4 -0.003387 0.001206 -0.002394 0.025146 0.003314 0.006788
# 5 0.004554 0.001581 -0.001263 0.003314 0.026772 -0.002041
# 6 -0.002695 -0.000164 -0.002028 0.006788 -0.002041 0.022657
#
#
# Mechanical properties :
#
#
# Convention : Reuss Voigt Hill
#
# Bulk Modulus (GPa) = 49.14157 73.48543 61.31350
# Shear Modulus (GPa) = 33.89601 41.50740 37.70170
#
# Velocity S-wave (km/s) = 4.00780 4.43501 4.22680
# Velocity P-wave (km/s) = 6.68607 7.81336 7.27159
#
# Compressibility (1/GPa) = 0.02034937
#
# Stress axis : x y z
#
# Youngs Moduli (GPa) = 79.79408 97.77395 48.80200
#
# Poissons Ratio (x) = 0.43492 0.04414
# Poissons Ratio (y) = 0.35495 0.29759
# Poissons Ratio (z) = 0.07218 0.59622
#
# Static dielectric constant tensor:
#      x y z
#    x 4.929030 -0.650890 -0.403240 
#    y -0.650890 4.577610 0.151330 
#    z -0.403240 0.151330 3.863720 
# 
# 
# High freq. dielectric constant tensor:
#      x y z
#    x 1.844750 0.007410 -0.010680 
#    y 0.007410 1.841010 -0.002440 
#    z -0.010680 -0.002440 1.812430 
# 
# From -- ./inp_files/333837.got.cif
#   From: 2010.06.25/outbox.cif.g09.slc.cpg/sg2_167_cif.got.tgz:333837.got - 2010.06.27 13:26:56.
