data_PCOD8008138
_publ_section_title
;
Structure prediction by ZEFSAII (Michael W. Deem and Ramdas Pophale) SiO2 
 PCOD8008138
Probable space group: P -1
;
_chemical_formula_sum "Si O2"
_cell_formula_units_Z 16
_cell_length_a 12.030677
_cell_length_b 12.390556
_cell_length_c 11.694972
_cell_angle_alpha 47.348774
_cell_angle_beta 34.918122
_cell_angle_gamma 71.509415
_cell_volume 604.917160
_symmetry_space_group_name_H-M "P -1"
_symmetry_group_IT_number 2
_symmetry_cell_setting 'triclinic'
loop_
_space_group_symop_operation_xyz
x,y,z
-x,-y,-z
loop_
_atom_site_type_symbol
_atom_site_label
_atom_site_fract_x
_atom_site_fract_y
_atom_site_fract_z
Si Si1 0.265676 0.070368 0.702308
Si Si2 0.281483 0.294884 0.334222
Si Si3 0.543952 0.782042 0.960230
Si Si4 0.482068 0.279158 0.589163
Si Si5 0.105753 0.535859 0.616923
Si Si6 0.757188 0.158946 0.569871
Si Si7 0.158554 0.741012 0.143218
Si Si8 0.132178 0.341132 0.936035
O O1 0.346211 0.174770 0.438755
O O2 0.450311 0.213235 0.534801
O O3 0.266613 0.893640 0.843212
O O4 0.000000 0.000000 0.000000
O O5 0.045291 0.266349 0.604008
O O6 0.500000 0.500000 0.000000
O O7 0.260158 0.226742 0.268969
O O8 0.378685 0.607166 0.304475
O O9 0.363435 0.781603 0.024986
O O10 0.651798 0.952396 0.832304
O O11 0.550270 0.178400 0.689551
O O12 0.233392 0.236477 0.872155
O O13 0.678212 0.489425 0.271281
O O14 0.107890 0.708909 0.530295
O O15 0.022068 0.397680 0.890027
O O16 0.946301 0.445557 0.702895
O O17 0.926395 0.202420 0.290120
#
# Coordination Sequence:
#
# PCOD8008138 Si02
#       8
#     2   2   2   2   2   2   2   2
#     4  10  22  40  71  97 133 170 218 279 327 386
#     4  11  25  43  66 100 132 172 218 271 334 396
#     4  12  26  43  67  97 137 177 218 276 337 391
#     4  10  20  42  66  96 132 170 217 277 336 377
#     4  11  23  44  67  93 140 179 210 277 341 380
#     4  11  25  44  68  99 131 174 234 269 323 405
#     4  11  24  46  66 100 133 173 223 274 329 397
#     4  10  23  41  70  95 128 176 227 273 322 402
#
# _framework density 26.449905000000001
#
# number of rings (size 3 to 8) (size 9 to 14) (size 15 to 20)
#    0.000    1.250    2.500    3.750    5.250    2.500 
#    0.000    0.000    0.000    9.000    0.000    0.000 
#    0.000    0.000    0.000    0.000    0.000    0.000 
#
# Total GULP energy -198314.137852 kJ/mol
# GULP energy per Si atom -12394.633616 kJ/mol
# Density = 2.638970 g / cm^3
# Si number density = 26.449905 Si / 1000 Ang^3
#
#
#
# Elastic Constant Matrix: (Units=GPa)
#
#
# Indices 1 2 3 4 5 6 
#
# 1 35.0443 4.1652 -1.6619 4.5445 -10.0985 9.5637
# 2 4.1652 120.0764 -1.9748 -7.4100 -16.1949 28.0588
# 3 -1.6619 -1.9748 83.5886 -3.6758 12.3786 -4.5421
# 4 4.5445 -7.4100 -3.6758 30.8945 1.4945 2.6098
# 5 -10.0985 -16.1949 12.3786 1.4945 27.0781 -2.3632
# 6 9.5637 28.0588 -4.5421 2.6098 -2.3632 41.2011
#
#
#
# Elastic Compliance Matrix: (Units=1/GPa)
#
#
# Indices 1 2 3 4 5 6 
#
# 1 0.035662 0.002631 -0.002212 -0.004850 0.015356 -0.009125
# 2 0.002631 0.011272 -0.001106 0.002516 0.007379 -0.008146
# 3 -0.002212 -0.001106 0.013191 0.001805 -0.007426 0.002181
# 4 -0.004850 0.002516 0.001805 0.034290 -0.003261 -0.002748
# 5 0.015356 0.007379 -0.007426 -0.003261 0.050093 -0.006328
# 6 -0.009125 -0.008146 0.002181 -0.002748 -0.006328 0.031988
#
#
# Mechanical properties :
#
#
# Convention : Reuss Voigt Hill
#
# Bulk Modulus (GPa) = 17.02110 26.64067 21.83089
# Shear Modulus (GPa) = 25.32235 35.71344 30.51789
#
# Velocity S-wave (km/s) = 3.09750 3.67853 3.40045
# Velocity P-wave (km/s) = 4.38655 5.30435 4.86713
#
# Compressibility (1/GPa) = 0.05875059
#
# Stress axis : x y z
#
# Youngs Moduli (GPa) = 28.04102 88.71172 75.81042
#
# Poissons Ratio (x) = -0.23337 0.16769
# Poissons Ratio (y) = -0.07377 0.08385
# Poissons Ratio (z) = 0.06203 0.09812
#
# Static dielectric constant tensor:
#      x y z
#    x 4.599550 -0.077470 0.331080 
#    y -0.077470 4.968060 0.069190 
#    z 0.331080 0.069190 5.119630 
# 
# 
# High freq. dielectric constant tensor:
#      x y z
#    x 2.041380 0.008770 0.010500 
#    y 0.008770 2.067200 -0.001850 
#    z 0.010500 -0.001850 2.072310 
# 
# From -- ./inp_files/452173.got.cif
#   From: 2010.06.25/outbox.cif.g09.slc.cpg/sg2_227_cif.got.tgz:452173.got - 2010.06.27 13:26:56.
