data_PCOD8008894
_publ_section_title
;
Structure prediction by ZEFSAII (Michael W. Deem and Ramdas Pophale) SiO2 
 PCOD8008894
Probable space group: P -1
;
_chemical_formula_sum "Si O2"
_cell_formula_units_Z 14
_cell_length_a 10.869310
_cell_length_b 13.619477
_cell_length_c 10.811338
_cell_angle_alpha 147.468413
_cell_angle_beta 67.538785
_cell_angle_gamma 92.610741
_cell_volume 660.836317
_symmetry_space_group_name_H-M "P -1"
_symmetry_group_IT_number 2
_symmetry_cell_setting 'triclinic'
loop_
_space_group_symop_operation_xyz
x,y,z
-x,-y,-z
loop_
_atom_site_type_symbol
_atom_site_label
_atom_site_fract_x
_atom_site_fract_y
_atom_site_fract_z
Si Si1 0.924525 0.521556 0.420768
Si Si2 0.224321 0.688934 0.648591
Si Si3 0.888491 0.751756 0.165141
Si Si4 0.504938 0.451541 0.770257
Si Si5 0.992642 0.849613 0.672985
Si Si6 0.428796 0.852051 0.365372
Si Si7 0.852869 0.375537 0.871153
O O1 0.769967 0.511091 0.494974
O O2 0.887520 0.741781 0.602432
O O3 0.000000 0.500000 0.500000
O O4 0.049013 0.314806 0.069184
O O5 0.405584 0.610987 0.463321
O O6 0.123975 0.755055 0.630037
O O7 0.139091 0.892833 0.991678
O O8 0.021469 0.738393 0.187531
O O9 0.742414 0.005056 0.484297
O O10 0.828149 0.603599 0.082426
O O11 0.585407 0.222586 0.571342
O O12 0.539086 0.622800 0.004402
O O13 0.315545 0.568335 0.952464
O O14 0.085293 0.793262 0.447120
O O15 0.500000 0.000000 0.500000
#
# Coordination Sequence:
#
# PCOD8008894 Si02
#       7
#     2   2   2   2   2   2   2
#     4   9  20  35  59  87 115 158 207 247 291 369
#     4  10  21  35  57  89 121 158 201 252 301 356
#     4  10  22  40  68  88 122 167 208 251 307 367
#     4  11  24  37  61  95 127 155 205 262 304 359
#     4   9  19  36  60  84 119 161 201 249 300 360
#     4  11  23  38  62  93 124 161 204 258 308 356
#     4  10  21  43  63  93 124 160 210 252 307 374
#
# _framework density 21.185276999999999
#
# number of rings (size 3 to 8) (size 9 to 14) (size 15 to 20)
#    0.000    2.000    1.429    1.714   12.000    0.571 
#    0.000    0.714    0.000    2.571    0.000    0.000 
#    0.000    0.000    0.000    0.000    0.000    0.000 
#
# Total GULP energy -173540.027820 kJ/mol
# GULP energy per Si atom -12395.716273 kJ/mol
# Density = 2.113706 g / cm^3
# Si number density = 21.185277 Si / 1000 Ang^3
#
#
#
# Elastic Constant Matrix: (Units=GPa)
#
#
# Indices 1 2 3 4 5 6 
#
# 1 87.1259 47.8906 56.3648 0.8903 -11.1181 17.6744
# 2 47.8906 90.2858 51.5323 -1.9374 -13.6279 23.9308
# 3 56.3648 51.5323 111.7439 -8.1371 -5.3999 9.8744
# 4 0.8903 -1.9374 -8.1371 32.7056 5.5227 -2.6407
# 5 -11.1181 -13.6279 -5.3999 5.5227 30.3820 -5.0283
# 6 17.6744 23.9308 9.8744 -2.6407 -5.0283 43.1312
#
#
#
# Elastic Compliance Matrix: (Units=1/GPa)
#
#
# Indices 1 2 3 4 5 6 
#
# 1 0.020561 -0.004931 -0.007856 -0.003777 0.003997 -0.003656
# 2 -0.004931 0.019597 -0.005798 -0.001572 0.005078 -0.007029
# 3 -0.007856 -0.005798 0.015516 0.004475 -0.003068 0.002800
# 4 -0.003777 -0.001572 0.004475 0.033070 -0.006870 0.002619
# 5 0.003997 0.005078 -0.003068 -0.006870 0.037389 0.000185
# 6 -0.003656 -0.007029 0.002800 0.002619 0.000185 0.028124
#
#
# Mechanical properties :
#
#
# Convention : Reuss Voigt Hill
#
# Bulk Modulus (GPa) = 54.04397 66.74791 60.39594
# Shear Modulus (GPa) = 25.30449 30.13495 27.71972
#
# Velocity S-wave (km/s) = 3.45981 3.77563 3.62116
# Velocity P-wave (km/s) = 6.44406 7.11212 6.78632
#
# Compressibility (1/GPa) = 0.01850345
#
# Stress axis : x y z
#
# Youngs Moduli (GPa) = 48.63683 51.02930 64.45104
#
# Poissons Ratio (x) = 0.25161 0.50632
# Poissons Ratio (y) = 0.23981 0.37370
# Poissons Ratio (z) = 0.38208 0.29588
#
# Static dielectric constant tensor:
#      x y z
#    x 3.721660 0.378990 0.165180 
#    y 0.378990 4.102040 0.051340 
#    z 0.165180 0.051340 3.824050 
# 
# 
# High freq. dielectric constant tensor:
#      x y z
#    x 1.807130 0.029080 0.014940 
#    y 0.029080 1.834210 0.000730 
#    z 0.014940 0.000730 1.826040 
# 
# From -- ./inp_files/434343.got.cif
#   From: 2010.06.25/outbox.cif.g09.slc.cpg/sg2_218_cif.got.tgz:434343.got - 2010.06.27 13:26:56.
