data_PCOD8008475
_publ_section_title
;
Structure prediction by ZEFSAII (Michael W. Deem and Ramdas Pophale) SiO2 
 PCOD8008475
Probable space group: P -1
;
_chemical_formula_sum "Si O2"
_cell_formula_units_Z 16
_cell_length_a 12.800083
_cell_length_b 11.182142
_cell_length_c 6.906429
_cell_angle_alpha 59.839491
_cell_angle_beta 120.839779
_cell_angle_gamma 123.379760
_cell_volume 674.438396
_symmetry_space_group_name_H-M "P -1"
_symmetry_group_IT_number 2
_symmetry_cell_setting 'triclinic'
loop_
_space_group_symop_operation_xyz
x,y,z
-x,-y,-z
loop_
_atom_site_type_symbol
_atom_site_label
_atom_site_fract_x
_atom_site_fract_y
_atom_site_fract_z
Si Si1 0.969185 0.837619 0.010855
Si Si2 0.622860 0.833833 0.115666
Si Si3 0.766638 0.162938 0.877682
Si Si4 0.214763 0.664497 0.592800
Si Si5 0.210509 0.305262 0.380159
Si Si6 0.377081 0.646334 0.289291
Si Si7 0.040936 0.367098 0.473752
Si Si8 0.527732 0.355666 0.187251
O O1 0.162284 0.217503 0.203499
O O2 0.085978 0.834782 0.983369
O O3 0.939398 0.720420 0.250572
O O4 0.000000 0.000000 0.000000
O O5 0.735594 0.790854 0.353013
O O6 0.485707 0.752576 0.161251
O O7 0.597938 0.781519 0.909351
O O8 0.667161 0.011877 0.008420
O O9 0.732868 0.177487 0.605375
O O10 0.742700 0.296226 0.862043
O O11 0.130010 0.542027 0.450428
O O12 0.338147 0.630567 0.814154
O O13 0.115151 0.662395 0.673551
O O14 0.322513 0.471953 0.314218
O O15 0.084277 0.314251 0.361223
O O16 0.452081 0.664789 0.551630
O O17 0.500000 0.500000 0.000000
#
# Coordination Sequence:
#
# PCOD8008475 Si02
#       8
#     2   2   2   2   2   2   2   2
#     4  11  27  45  73 104 138 181 233 293 360 416
#     4  12  26  41  71 102 144 190 227 286 349 406
#     4  10  23  48  66 102 142 178 234 291 346 411
#     4   9  20  39  68 101 139 177 232 279 346 413
#     4  12  25  44  73 104 139 183 238 287 346 428
#     4  11  25  45  69 106 139 181 240 280 344 427
#     4  10  20  43  69  98 138 181 222 291 349 402
#     4  11  22  41  68  99 141 184 231 282 335 413
#
# _framework density 23.723441000000001
#
# number of rings (size 3 to 8) (size 9 to 14) (size 15 to 20)
#    0.000    1.250    3.750    1.500    1.750    7.500 
#    0.000    5.000    0.000    0.000    0.000    0.000 
#    0.000    0.000    0.000    0.000    0.000    0.000 
#
# Total GULP energy -198319.816623 kJ/mol
# GULP energy per Si atom -12394.988539 kJ/mol
# Density = 2.366945 g / cm^3
# Si number density = 23.723441 Si / 1000 Ang^3
#
#
#
# Elastic Constant Matrix: (Units=GPa)
#
#
# Indices 1 2 3 4 5 6 
#
# 1 91.1395 7.2353 33.6191 -8.2406 6.1868 6.7807
# 2 7.2353 105.3523 67.3220 1.3335 -4.4290 -4.8242
# 3 33.6191 67.3220 111.1575 -11.7432 7.7725 8.2634
# 4 -8.2406 1.3335 -11.7432 47.1928 3.1682 -1.9550
# 5 6.1868 -4.4290 7.7725 3.1682 41.3676 -4.9349
# 6 6.7807 -4.8242 8.2634 -1.9550 -4.9349 28.0827
#
#
#
# Elastic Compliance Matrix: (Units=1/GPa)
#
#
# Indices 1 2 3 4 5 6 
#
# 1 0.012875 0.002130 -0.004905 0.000977 -0.001019 -0.001411
# 2 0.002130 0.018168 -0.012893 -0.003403 0.005153 0.007069
# 3 -0.004905 -0.012893 0.019709 0.004477 -0.005588 -0.007500
# 4 0.000977 -0.003403 0.004477 0.022741 -0.003227 -0.001122
# 5 -0.001019 0.005153 -0.005588 -0.003227 0.027046 0.007303
# 6 -0.001411 0.007069 -0.007500 -0.001122 0.007303 0.040576
#
#
# Mechanical properties :
#
#
# Convention : Reuss Voigt Hill
#
# Bulk Modulus (GPa) = 51.50043 58.22245 54.86144
# Shear Modulus (GPa) = 27.94521 36.62679 32.28600
#
# Velocity S-wave (km/s) = 3.43586 3.93352 3.69308
# Velocity P-wave (km/s) = 6.12340 6.72500 6.43123
#
# Compressibility (1/GPa) = 0.01941731
#
# Stress axis : x y z
#
# Youngs Moduli (GPa) = 77.67111 55.04262 50.73759
#
# Poissons Ratio (x) = -0.11725 0.24885
# Poissons Ratio (y) = -0.16545 0.65415
# Poissons Ratio (z) = 0.38095 0.70965
#
# Static dielectric constant tensor:
#      x y z
#    x 4.656710 0.130950 0.196000 
#    y 0.130950 4.426370 0.223290 
#    z 0.196000 0.223290 4.607200 
# 
# 
# High freq. dielectric constant tensor:
#      x y z
#    x 1.952910 0.005350 0.003890 
#    y 0.005350 1.918880 -0.006200 
#    z 0.003890 -0.006200 1.947960 
# 
# From -- ./inp_files/310810.got.cif
#   From: 2010.06.25/outbox.cif.g09.slc.cpg/sg2_156_cif.got.tgz:310810.got - 2010.06.27 13:26:56.
