data_PCOD8008259
_publ_section_title
;
Structure prediction by ZEFSAII (Michael W. Deem and Ramdas Pophale) SiO2 
 PCOD8008259
Probable space group: P -1
;
_chemical_formula_sum "Si O2"
_cell_formula_units_Z 16
_cell_length_a 15.805309
_cell_length_b 16.709689
_cell_length_c 8.667220
_cell_angle_alpha 33.204299
_cell_angle_beta 139.349868
_cell_angle_gamma 150.739341
_cell_volume 609.163536
_symmetry_space_group_name_H-M "P -1"
_symmetry_group_IT_number 2
_symmetry_cell_setting 'triclinic'
loop_
_space_group_symop_operation_xyz
x,y,z
-x,-y,-z
loop_
_atom_site_type_symbol
_atom_site_label
_atom_site_fract_x
_atom_site_fract_y
_atom_site_fract_z
Si Si1 0.364943 0.764086 0.623496
Si Si2 0.655061 0.958779 0.025721
Si Si3 0.172258 0.651068 0.834074
Si Si4 0.337028 0.228991 0.935687
Si Si5 0.857011 0.567992 0.368362
Si Si6 0.094300 0.784988 0.773953
Si Si7 0.177177 0.132082 0.180669
Si Si8 0.462019 0.633047 0.525347
O O1 0.409000 0.958440 0.307582
O O2 0.337555 0.748595 0.796437
O O3 0.523564 0.776331 0.786822
O O4 0.190102 0.569344 0.619720
O O5 0.722502 0.875677 0.145040
O O6 0.816750 0.137318 0.061792
O O7 0.499578 0.785178 0.202490
O O8 0.219917 0.782514 0.839651
O O9 0.034937 0.645481 0.559390
O O10 0.092459 0.433958 0.121149
O O11 0.176473 0.113495 0.022376
O O12 0.423598 0.452502 0.676650
O O13 0.703684 0.440089 0.488519
O O14 0.888372 0.755931 0.047247
O O15 0.056880 0.918257 0.437646
O O16 0.374299 0.262219 0.304350
#
# Coordination Sequence:
#
# PCOD8008259 Si02
#       8
#     2   2   2   2   2   2   2   2
#     4  12  23  41  62  95 124 163 201 250 307 370
#     4  11  24  38  65  96 126 156 203 260 308 359
#     4  11  25  44  63  84 127 169 207 245 303 363
#     4  11  21  41  65  96 125 157 197 255 318 359
#     4  11  21  40  69  88 123 166 203 247 304 366
#     4  10  24  44  63  89 122 165 211 254 296 362
#     4  10  20  42  69  91 120 157 209 256 302 363
#     4  10  21  41  66  93 125 157 200 258 308 361
#
# _framework density 26.265523000000002
#
# number of rings (size 3 to 8) (size 9 to 14) (size 15 to 20)
#    0.000    1.250    3.750    2.625    0.000    4.000 
#    0.000    1.875    0.000    0.000    0.000    0.000 
#    0.000    0.000    0.000    0.000    0.000    0.000 
#
# Total GULP energy -198483.227071 kJ/mol
# GULP energy per Si atom -12405.201692 kJ/mol
# Density = 2.620574 g / cm^3
# Si number density = 26.265523 Si / 1000 Ang^3
#
#
#
# Elastic Constant Matrix: (Units=GPa)
#
#
# Indices 1 2 3 4 5 6 
#
# 1 80.5367 14.6996 27.3318 -16.3951 -4.4271 -28.9204
# 2 14.6996 81.5282 16.0531 -16.2530 -3.9508 -41.6732
# 3 27.3318 16.0531 173.0551 -30.7592 -6.5484 -5.0883
# 4 -16.3951 -16.2530 -30.7592 43.9940 -5.0339 1.4309
# 5 -4.4271 -3.9508 -6.5484 -5.0339 31.2162 4.0576
# 6 -28.9204 -41.6732 -5.0883 1.4309 4.0576 43.4782
#
#
#
# Elastic Compliance Matrix: (Units=1/GPa)
#
#
# Indices 1 2 3 4 5 6 
#
# 1 0.022173 0.011246 -0.001824 0.010646 0.002690 0.024713
# 2 0.011246 0.033149 -0.000969 0.014854 0.002995 0.038372
# 3 -0.001824 -0.000969 0.006904 0.004064 0.001937 -0.001649
# 4 0.010646 0.014854 0.004064 0.035217 0.007328 0.019952
# 5 0.002690 0.002995 0.001937 0.007328 0.034194 0.001454
# 6 0.024713 0.038372 -0.001649 0.019952 0.001454 0.075232
#
#
# Mechanical properties :
#
#
# Convention : Reuss Voigt Hill
#
# Bulk Modulus (GPa) = 12.63739 50.14324 31.39032
# Shear Modulus (GPa) = 23.11181 42.20670 32.65926
#
# Velocity S-wave (km/s) = 2.96958 4.01299 3.53005
# Velocity P-wave (km/s) = 4.07182 6.37217 5.34716
#
# Compressibility (1/GPa) = 0.07913025
#
# Stress axis : x y z
#
# Youngs Moduli (GPa) = 45.10047 30.16691 144.84955
#
# Poissons Ratio (x) = -0.33927 0.26427
# Poissons Ratio (y) = -0.50721 0.14042
# Poissons Ratio (z) = 0.08228 0.02924
#
# Static dielectric constant tensor:
#      x y z
#    x 4.614240 -0.413600 0.002180 
#    y -0.413600 4.852210 -0.091120 
#    z 0.002180 -0.091120 4.968960 
# 
# 
# High freq. dielectric constant tensor:
#      x y z
#    x 2.036970 -0.015950 0.002090 
#    y -0.015950 2.074880 -0.005620 
#    z 0.002090 -0.005620 2.066410 
# 
# From -- ./inp_files/312418.got.cif
#   From: 2010.06.25/outbox.cif.g09.slc.cpg/sg2_157_cif.got.tgz:312418.got - 2010.06.27 13:26:56.
