data_PCOD8008022
_publ_section_title
;
Structure prediction by ZEFSAII (Michael W. Deem and Ramdas Pophale) SiO2 
 PCOD8008022
Probable space group: P -1
;
_chemical_formula_sum "Si O2"
_cell_formula_units_Z 12
_cell_length_a 18.614774
_cell_length_b 20.512599
_cell_length_c 4.971200
_cell_angle_alpha 76.124557
_cell_angle_beta 84.061229
_cell_angle_gamma 20.621142
_cell_volume 607.022981
_symmetry_space_group_name_H-M "P -1"
_symmetry_group_IT_number 2
_symmetry_cell_setting 'triclinic'
loop_
_space_group_symop_operation_xyz
x,y,z
-x,-y,-z
loop_
_atom_site_type_symbol
_atom_site_label
_atom_site_fract_x
_atom_site_fract_y
_atom_site_fract_z
Si Si1 0.247284 0.735584 0.908120
Si Si2 0.982507 0.317928 0.982074
Si Si3 0.979869 0.930418 0.302819
Si Si4 0.875552 0.541819 0.573957
Si Si5 0.639207 0.702155 0.971807
Si Si6 0.155892 0.098505 0.647575
O O1 0.124348 0.822386 0.604821
O O2 0.206893 0.849341 0.885677
O O3 0.500000 0.500000 0.000000
O O4 0.146799 0.778423 0.140550
O O5 0.137098 0.157857 0.322495
O O6 0.741058 0.541559 0.982856
O O7 0.051419 0.330691 0.815688
O O8 0.976860 0.271686 0.777406
O O9 0.858744 0.966447 0.359936
O O10 0.000000 0.500000 0.500000
O O11 0.738617 0.634308 0.285603
O O12 0.704535 0.702812 0.727646
O O13 0.382280 0.918504 0.881769
#
# Coordination Sequence:
#
# PCOD8008022 Si02
#       6
#     2   2   2   2   2   2
#     4  10  21  43  60  88 120 154 202 239 286 356
#     4  10  22  39  59  86 126 153 199 252 293 360
#     4  10  23  37  62  89 120 154 197 248 286 350
#     4  10  20  42  64  82 122 163 197 253 301 343
#     4  10  22  39  60  88 121 156 200 251 294 362
#     4  12  22  39  61  91 123 158 197 247 308 348
#
# _framework density 19.768609000000001
#
# number of rings (size 3 to 8) (size 9 to 14) (size 15 to 20)
#    1.000    0.667    1.667    3.000    0.000    2.667 
#    0.000    5.000    0.000    0.000    0.000    0.000 
#    0.000    0.000    0.000    0.000    0.000    0.000 
#
# Total GULP energy -148668.851277 kJ/mol
# GULP energy per Si atom -12389.070940 kJ/mol
# Density = 1.972362 g / cm^3
# Si number density = 19.768609 Si / 1000 Ang^3
#
#
#
# Elastic Constant Matrix: (Units=GPa)
#
#
# Indices 1 2 3 4 5 6 
#
# 1 107.2363 27.3301 57.9972 -7.6038 -11.1157 -6.0435
# 2 27.3301 86.4286 45.1287 0.6060 -8.1167 -2.2262
# 3 57.9972 45.1287 137.3869 15.3918 -5.5891 -5.3438
# 4 -7.6038 0.6060 15.3918 36.7583 7.3081 3.1985
# 5 -11.1157 -8.1167 -5.5891 7.3081 25.7427 3.3672
# 6 -6.0435 -2.2262 -5.3438 3.1985 3.3672 24.5815
#
#
#
# Elastic Compliance Matrix: (Units=1/GPa)
#
#
# Indices 1 2 3 4 5 6 
#
# 1 0.013290 -0.001006 -0.005629 0.004481 0.002798 0.000986
# 2 -0.001006 0.014391 -0.004284 0.000785 0.003001 -0.000389
# 3 -0.005629 -0.004284 0.011839 -0.006259 0.000361 0.001567
# 4 0.004481 0.000785 -0.006259 0.032621 -0.008001 -0.003337
# 5 0.002798 0.003001 0.000361 -0.008001 0.043864 -0.003929
# 6 0.000986 -0.000389 0.001567 -0.003337 -0.003929 0.042201
#
#
# Mechanical properties :
#
#
# Convention : Reuss Voigt Hill
#
# Bulk Modulus (GPa) = 56.55562 65.77376 61.16469
# Shear Modulus (GPa) = 26.89066 30.78955 28.84011
#
# Velocity S-wave (km/s) = 3.69219 3.95080 3.82368
# Velocity P-wave (km/s) = 6.84450 7.35906 7.10644
#
# Compressibility (1/GPa) = 0.01768171
#
# Stress axis : x y z
#
# Youngs Moduli (GPa) = 75.24712 69.48600 84.46607
#
# Poissons Ratio (x) = 0.06992 0.47549
# Poissons Ratio (y) = 0.07572 0.36181
# Poissons Ratio (z) = 0.42360 0.29764
#
# Static dielectric constant tensor:
#      x y z
#    x 3.423690 0.239060 -0.174150 
#    y 0.239060 3.567410 0.187410 
#    z -0.174150 0.187410 3.738050 
# 
# 
# High freq. dielectric constant tensor:
#      x y z
#    x 1.749550 0.016510 -0.004480 
#    y 0.016510 1.764070 0.021470 
#    z -0.004480 0.021470 1.789060 
# 
# From -- ./inp_files/12161.got.cif
#   From: 2010.06.25/outbox.cif.g09.slc.cpg/sg2_7_cif.got.tgz:12161.got - 2010.06.27 13:26:56.
