data_PCOD8008288
_publ_section_title
;
Structure prediction by ZEFSAII (Michael W. Deem and Ramdas Pophale) SiO2 
 PCOD8008288
Probable space group: P -1
;
_chemical_formula_sum "Si O2"
_cell_formula_units_Z 16
_cell_length_a 8.766933
_cell_length_b 9.555317
_cell_length_c 10.996211
_cell_angle_alpha 105.967599
_cell_angle_beta 79.013544
_cell_angle_gamma 64.869067
_cell_volume 750.118571
_symmetry_space_group_name_H-M "P -1"
_symmetry_group_IT_number 2
_symmetry_cell_setting 'triclinic'
loop_
_space_group_symop_operation_xyz
x,y,z
-x,-y,-z
loop_
_atom_site_type_symbol
_atom_site_label
_atom_site_fract_x
_atom_site_fract_y
_atom_site_fract_z
Si Si1 0.691228 0.694124 0.240310
Si Si2 0.931183 0.188009 0.514640
Si Si3 0.344056 0.962987 0.987185
Si Si4 0.462412 0.660110 0.466454
Si Si5 0.544799 0.061407 0.293997
Si Si6 0.847326 0.794262 0.725988
Si Si7 0.425861 0.379918 0.013071
Si Si8 0.063300 0.545051 0.255488
O O1 0.619086 0.616438 0.334374
O O2 0.907684 0.592808 0.190949
O O3 0.610835 0.893019 0.323126
O O4 0.630628 0.679869 0.111952
O O5 0.716942 0.282769 0.568518
O O6 0.992474 0.285413 0.620515
O O7 0.009949 0.184445 0.369341
O O8 0.000000 0.000000 0.500000
O O9 0.316733 0.975511 0.848735
O O10 0.408566 0.775790 0.980347
O O11 0.500000 0.000000 0.000000
O O12 0.170237 0.105574 0.120810
O O13 0.500000 0.500000 0.500000
O O14 0.443964 0.803853 0.592584
O O15 0.342252 0.128907 0.296020
O O16 0.925913 0.597078 0.689897
O O17 0.254959 0.475478 0.148034
O O18 0.500000 0.500000 0.000000
#
# Coordination Sequence:
#
# PCOD8008288 Si02
#       8
#     2   2   2   2   2   2   2   2
#     4  12  24  43  67  98 131 175 222 264 325 400
#     4  12  26  42  63  99 137 169 219 278 331 377
#     4  10  20  42  70  96 123 175 220 262 323 397
#     4  12  26  42  63  99 137 169 219 278 331 377
#     4  11  21  43  70  90 128 179 225 260 320 403
#     4  11  21  43  70  90 128 179 225 260 320 403
#     4  12  25  42  70 102 135 168 217 280 334 382
#     4  12  24  43  67  98 131 175 222 264 325 400
#
# _framework density 21.329961999999998
#
# number of rings (size 3 to 8) (size 9 to 14) (size 15 to 20)
#    0.000    0.500    5.000    5.625    3.500    0.000 
#    0.000    0.625    0.000    0.000    0.000    0.000 
#    0.000    0.000    0.000    0.000    0.000    0.000 
#
# Total GULP energy -198457.935371 kJ/mol
# GULP energy per Si atom -12403.620961 kJ/mol
# Density = 2.128141 g / cm^3
# Si number density = 21.329962 Si / 1000 Ang^3
#
#
#
# Elastic Constant Matrix: (Units=GPa)
#
#
# Indices 1 2 3 4 5 6 
#
# 1 66.1889 22.8491 2.7605 3.1287 -6.9965 -3.8272
# 2 22.8491 165.7370 7.6582 5.8809 -15.3696 9.3152
# 3 2.7605 7.6582 95.3095 -4.0328 -10.7863 10.8740
# 4 3.1287 5.8809 -4.0328 34.9546 -0.4581 -2.9306
# 5 -6.9965 -15.3696 -10.7863 -0.4581 10.2877 -8.0482
# 6 -3.8272 9.3152 10.8740 -2.9306 -8.0482 31.5017
#
#
#
# Elastic Compliance Matrix: (Units=1/GPa)
#
#
# Indices 1 2 3 4 5 6 
#
# 1 0.017561 -0.001351 0.000611 -0.000552 0.015394 0.006204
# 2 -0.001351 0.007191 0.000600 -0.000873 0.010495 0.000102
# 3 0.000611 0.000600 0.012092 0.001358 0.013502 -0.000701
# 4 -0.000552 -0.000873 0.001358 0.029295 0.003702 0.003394
# 5 0.015394 0.010495 0.013502 0.003702 0.166637 0.037024
# 6 0.006204 0.000102 -0.000701 0.003394 0.037024 0.042484
#
#
# Mechanical properties :
#
#
# Convention : Reuss Voigt Hill
#
# Bulk Modulus (GPa) = 27.34891 43.75234 35.55063
# Shear Modulus (GPa) = 17.37759 34.94663 26.16211
#
# Velocity S-wave (km/s) = 2.85740 4.05208 3.50600
# Velocity P-wave (km/s) = 4.87196 6.51531 5.75262
#
# Compressibility (1/GPa) = 0.03656452
#
# Stress axis : x y z
#
# Youngs Moduli (GPa) = 56.94392 139.07055 82.70143
#
# Poissons Ratio (x) = 0.18785 -0.05052
# Poissons Ratio (y) = 0.07692 -0.04965
# Poissons Ratio (z) = -0.03479 -0.08350
#
# Static dielectric constant tensor:
#      x y z
#    x 3.662780 0.159590 -0.010760 
#    y 0.159590 4.153810 -0.117980 
#    z -0.010760 -0.117980 4.457860 
# 
# 
# High freq. dielectric constant tensor:
#      x y z
#    x 1.820430 0.007050 -0.001150 
#    y 0.007050 1.856260 -0.000510 
#    z -0.001150 -0.000510 1.849610 
# 
# From -- ./inp_files/382535.got.cif
#   From: 2010.06.25/outbox.cif.g09.slc.cpg/sg2_192_cif.got.tgz:382535.got - 2010.06.27 13:26:56.
