data_PCOD8008761
_publ_section_title
;
Structure prediction by ZEFSAII (Michael W. Deem and Ramdas Pophale) SiO2 
 PCOD8008761
Probable space group: P -1
;
_chemical_formula_sum "Si O2"
_cell_formula_units_Z 14
_cell_length_a 15.794736
_cell_length_b 10.340154
_cell_length_c 20.976268
_cell_angle_alpha 139.115173
_cell_angle_beta 156.346172
_cell_angle_gamma 35.155901
_cell_volume 791.054471
_symmetry_space_group_name_H-M "P -1"
_symmetry_group_IT_number 2
_symmetry_cell_setting 'triclinic'
loop_
_space_group_symop_operation_xyz
x,y,z
-x,-y,-z
loop_
_atom_site_type_symbol
_atom_site_label
_atom_site_fract_x
_atom_site_fract_y
_atom_site_fract_z
Si Si1 0.092758 0.043771 0.145532
Si Si2 0.367640 0.660679 0.284024
Si Si3 0.219887 0.653197 0.857454
Si Si4 0.130778 0.450310 0.357275
Si Si5 0.386063 0.221366 0.082451
Si Si6 0.042574 0.043295 0.794777
Si Si7 0.855569 0.843943 0.221572
O O1 0.192730 0.224077 0.274944
O O2 0.865213 0.144055 0.074099
O O3 0.302874 0.814836 0.233980
O O4 0.000000 0.000000 0.000000
O O5 0.643489 0.576710 0.457740
O O6 0.210354 0.795370 0.286459
O O7 0.327464 0.450042 0.162333
O O8 0.081415 0.508651 0.722901
O O9 0.500000 0.500000 0.000000
O O10 0.140203 0.779907 0.781407
O O11 0.052430 0.658601 0.333491
O O12 0.244374 0.112472 0.982463
O O13 0.291416 0.261463 0.958117
O O14 0.671267 0.052159 0.215329
O O15 0.011574 0.071986 0.707053
#
# Coordination Sequence:
#
# PCOD8008761 Si02
#       7
#     2   2   2   2   2   2   2
#     4   9  20  34  57  77 103 141 181 210 261 318
#     4  11  20  34  55  80 113 136 173 229 263 315
#     4   9  19  33  58  78 104 136 183 220 256 314
#     4  10  21  34  57  79 109 140 176 216 279 306
#     4   9  19  34  57  76 105 141 183 210 263 313
#     4   9  19  33  55  79 104 140 180 216 259 311
#     4   9  19  35  56  77 102 143 183 213 257 321
#
# _framework density 17.697897000000001
#
# number of rings (size 3 to 8) (size 9 to 14) (size 15 to 20)
#    1.714    0.857    0.000    2.571    0.000    1.143 
#    0.000    0.000    3.143    1.714    0.000    0.000 
#    0.000    0.000    0.000    0.000    0.000    0.000 
#
# Total GULP energy -173457.924183 kJ/mol
# GULP energy per Si atom -12389.851727 kJ/mol
# Density = 1.765762 g / cm^3
# Si number density = 17.697897 Si / 1000 Ang^3
#
#
#
# Elastic Constant Matrix: (Units=GPa)
#
#
# Indices 1 2 3 4 5 6 
#
# 1 86.7604 29.9321 38.3780 -21.2497 0.4886 28.6811
# 2 29.9321 62.1565 24.0255 -20.4600 -6.8762 16.6850
# 3 38.3780 24.0255 86.4196 -26.4064 -3.7189 6.9730
# 4 -21.2497 -20.4600 -26.4064 25.7508 1.1957 -5.3270
# 5 0.4886 -6.8762 -3.7189 1.1957 27.2101 -7.7356
# 6 28.6811 16.6850 6.9730 -5.3270 -7.7356 28.5111
#
#
#
# Elastic Compliance Matrix: (Units=1/GPa)
#
#
# Indices 1 2 3 4 5 6 
#
# 1 0.024587 -0.001387 -0.006575 0.008057 -0.008626 -0.023149
# 2 -0.001387 0.025134 -0.000541 0.016199 0.002930 -0.009360
# 3 -0.006575 -0.000541 0.018716 0.014416 0.003620 0.006029
# 4 0.008057 0.016199 0.014416 0.071541 0.000622 -0.007576
# 5 -0.008626 0.002930 0.003620 0.000622 0.043207 0.017916
# 6 -0.023149 -0.009360 0.006029 -0.007576 0.017916 0.065810
#
#
# Mechanical properties :
#
#
# Convention : Reuss Voigt Hill
#
# Bulk Modulus (GPa) = 19.44275 46.66751 33.05513
# Shear Modulus (GPa) = 17.65884 25.82781 21.74332
#
# Velocity S-wave (km/s) = 3.16221 3.82432 3.50892
# Velocity P-wave (km/s) = 4.93382 6.77693 5.92745
#
# Compressibility (1/GPa) = 0.05143305
#
# Stress axis : x y z
#
# Youngs Moduli (GPa) = 40.67118 39.78657 53.43041
#
# Poissons Ratio (x) = 0.05518 0.35129
# Poissons Ratio (y) = 0.05641 0.02888
# Poissons Ratio (z) = 0.26740 0.02151
#
# Static dielectric constant tensor:
#      x y z
#    x 3.198890 0.140650 0.090980 
#    y 0.140650 3.209740 -0.108100 
#    z 0.090980 -0.108100 2.929700 
# 
# 
# High freq. dielectric constant tensor:
#      x y z
#    x 1.674830 0.013010 0.007290 
#    y 0.013010 1.679730 -0.019060 
#    z 0.007290 -0.019060 1.660320 
# 
# From -- ./inp_files/613128.got.cif
#   From: 2010.06.25/outbox.cif.g09.slc.cpg/sg2_307_cif.got.tgz:613128.got - 2010.06.27 13:26:56.
