data_PCOD8008452
_publ_section_title
;
Structure prediction by ZEFSAII (Michael W. Deem and Ramdas Pophale) SiO2 
 PCOD8008452
Probable space group: P -1
;
_chemical_formula_sum "Si O2"
_cell_formula_units_Z 12
_cell_length_a 11.512591
_cell_length_b 8.842721
_cell_length_c 8.220244
_cell_angle_alpha 99.142130
_cell_angle_beta 38.570568
_cell_angle_gamma 99.546041
_cell_volume 513.946509
_symmetry_space_group_name_H-M "P -1"
_symmetry_group_IT_number 2
_symmetry_cell_setting 'triclinic'
loop_
_space_group_symop_operation_xyz
x,y,z
-x,-y,-z
loop_
_atom_site_type_symbol
_atom_site_label
_atom_site_fract_x
_atom_site_fract_y
_atom_site_fract_z
Si Si1 0.271630 0.124941 0.656568
Si Si2 0.339819 0.951803 0.876028
Si Si3 0.640279 0.735163 0.900063
Si Si4 0.214840 0.467576 0.780177
Si Si5 0.544400 0.459936 0.186628
Si Si6 0.034201 0.128912 0.615083
O O1 0.266846 0.009006 0.791695
O O2 0.217433 0.290876 0.802024
O O3 0.134151 0.061550 0.653171
O O4 0.479757 0.143810 0.356090
O O5 0.388715 0.096218 0.968131
O O6 0.174699 0.830441 0.099374
O O7 0.476680 0.683437 0.940583
O O8 0.837999 0.733138 0.584018
O O9 0.636710 0.611254 0.024382
O O10 0.338003 0.495807 0.486410
O O11 0.313412 0.575402 0.830050
O O12 0.000000 0.500000 0.000000
O O13 0.000000 0.000000 0.500000
#
# Coordination Sequence:
#
# PCOD8008452 Si02
#       6
#     2   2   2   2   2   2
#     4  11  22  45  66  98 128 170 226 262 330 380
#     4  10  23  42  71  95 131 172 212 278 319 380
#     4  10  20  43  68  97 135 167 216 266 330 381
#     4  11  24  45  69  94 128 176 222 265 319 388
#     4  10  22  44  68  95 133 170 218 267 320 389
#     4  10  22  40  64  98 133 169 213 264 324 389
#
# _framework density 23.348731000000001
#
# number of rings (size 3 to 8) (size 9 to 14) (size 15 to 20)
#    0.000    1.667    3.333    0.500    0.000    5.333 
#    6.000    5.000    0.000    0.000    0.000    0.000 
#    0.000    0.000    0.000    0.000    0.000    0.000 
#
# Total GULP energy -148705.825982 kJ/mol
# GULP energy per Si atom -12392.152165 kJ/mol
# Density = 2.329559 g / cm^3
# Si number density = 23.348731 Si / 1000 Ang^3
#
#
#
# Elastic Constant Matrix: (Units=GPa)
#
#
# Indices 1 2 3 4 5 6 
#
# 1 151.8145 28.4937 50.9680 17.8864 -0.1181 37.5457
# 2 28.4937 55.2974 23.2038 1.3079 -8.0684 13.7912
# 3 50.9680 23.2038 138.7781 -5.3956 -26.7370 3.1463
# 4 17.8864 1.3079 -5.3956 34.7699 1.0770 -3.1915
# 5 -0.1181 -8.0684 -26.7370 1.0770 44.2344 5.2604
# 6 37.5457 13.7912 3.1463 -3.1915 5.2604 28.1896
#
#
#
# Elastic Compliance Matrix: (Units=1/GPa)
#
#
# Indices 1 2 3 4 5 6 
#
# 1 0.014427 -0.000177 -0.005341 -0.010017 -0.000654 -0.019544
# 2 -0.000177 0.022899 -0.002841 -0.002402 0.003903 -0.011651
# 3 -0.005341 -0.002841 0.010631 0.004990 0.004944 0.006960
# 4 -0.010017 -0.002402 0.004990 0.036463 -0.000499 0.018181
# 5 -0.000654 0.003903 0.004944 -0.000499 0.027115 -0.006707
# 6 -0.019544 -0.011651 0.006960 0.018181 -0.006707 0.069738
#
#
# Mechanical properties :
#
#
# Convention : Reuss Voigt Hill
#
# Bulk Modulus (GPa) = 32.01111 61.24679 46.62895
# Shear Modulus (GPa) = 23.99183 37.65373 30.82278
#
# Velocity S-wave (km/s) = 3.20901 4.02016 3.63727
# Velocity P-wave (km/s) = 5.24119 6.91644 6.13626
#
# Compressibility (1/GPa) = 0.03123916
#
# Stress axis : x y z
#
# Youngs Moduli (GPa) = 69.31671 43.66932 94.06285
#
# Poissons Ratio (x) = 0.00771 0.50241
# Poissons Ratio (y) = 0.01224 0.26725
# Poissons Ratio (z) = 0.37023 0.12407
#
# Static dielectric constant tensor:
#      x y z
#    x 4.450150 0.393240 0.041210 
#    y 0.393240 4.092570 -0.517780 
#    z 0.041210 -0.517780 5.044510 
# 
# 
# High freq. dielectric constant tensor:
#      x y z
#    x 1.936410 0.028530 0.013690 
#    y 0.028530 1.907440 -0.017470 
#    z 0.013690 -0.017470 1.932260 
# 
# From -- ./inp_files/244313.got.cif
#   From: 2010.06.25/outbox.cif.g09.slc.cpg/sg2_123_cif.got.tgz:244313.got - 2010.06.27 13:26:56.
