data_PCOD8008180
_publ_section_title
;
Structure prediction by ZEFSAII (Michael W. Deem and Ramdas Pophale) SiO2 
 PCOD8008180
Probable space group: P -1
;
_chemical_formula_sum "Si O2"
_cell_formula_units_Z 16
_cell_length_a 12.259399
_cell_length_b 11.796931
_cell_length_c 14.441084
_cell_angle_alpha 32.097198
_cell_angle_beta 58.809564
_cell_angle_gamma 81.573126
_cell_volume 727.235510
_symmetry_space_group_name_H-M "P -1"
_symmetry_group_IT_number 2
_symmetry_cell_setting 'triclinic'
loop_
_space_group_symop_operation_xyz
x,y,z
-x,-y,-z
loop_
_atom_site_type_symbol
_atom_site_label
_atom_site_fract_x
_atom_site_fract_y
_atom_site_fract_z
Si Si1 0.833531 0.186964 0.381584
Si Si2 0.787296 0.334839 0.114162
Si Si3 0.336546 0.471309 0.496463
Si Si4 0.347009 0.226458 0.974859
Si Si5 0.122569 0.859334 0.953723
Si Si6 0.219364 0.438820 0.761440
Si Si7 0.368512 0.389121 0.053101
Si Si8 0.092108 0.579871 0.499588
O O1 0.787338 0.314692 0.390363
O O2 0.028965 0.380566 0.142414
O O3 0.790770 0.908463 0.632134
O O4 0.732484 0.143432 0.362487
O O5 0.779568 0.160783 0.154554
O O6 0.666874 0.400960 0.095903
O O7 0.511586 0.690601 0.216949
O O8 0.354707 0.531110 0.557826
O O9 0.211756 0.508213 0.483889
O O10 0.260327 0.155560 0.734816
O O11 0.268355 0.369782 0.881100
O O12 0.422745 0.335970 0.968840
O O13 0.197896 0.898128 0.263347
O O14 0.966861 0.831834 0.001845
O O15 0.050360 0.610425 0.229843
O O16 0.500000 0.500000 0.000000
O O17 0.000000 0.500000 0.500000
#
# Coordination Sequence:
#
# PCOD8008180 Si02
#       8
#     2   2   2   2   2   2   2   2
#     4  10  22  43  71  93 126 171 231 282 327 389
#     4  10  22  44  68  95 125 179 227 279 326 387
#     4  11  23  39  65  97 133 171 214 269 342 408
#     4  12  24  41  64  98 136 175 217 275 342 399
#     4  10  22  41  66  95 126 171 227 272 329 400
#     4  10  20  42  67  93 125 175 219 276 333 396
#     4  12  27  42  63  99 140 179 222 273 337 405
#     4  11  23  42  67  97 132 168 220 281 336 396
#
# _framework density 22.001124999999998
#
# number of rings (size 3 to 8) (size 9 to 14) (size 15 to 20)
#    0.000    1.250    1.250    6.375    1.750    2.500 
#    0.000    1.250    0.000    0.000    0.000    0.000 
#    0.000    0.000    0.000    0.000    0.000    0.000 
#
# Total GULP energy -198398.926228 kJ/mol
# GULP energy per Si atom -12399.932889 kJ/mol
# Density = 2.195105 g / cm^3
# Si number density = 22.001125 Si / 1000 Ang^3
#
#
#
# Elastic Constant Matrix: (Units=GPa)
#
#
# Indices 1 2 3 4 5 6 
#
# 1 98.5214 37.6790 16.3391 -0.3889 17.9953 22.5913
# 2 37.6790 113.0496 20.9677 11.1070 0.7260 17.2601
# 3 16.3391 20.9677 64.5621 6.2930 7.7935 5.9865
# 4 -0.3889 11.1070 6.2930 29.4836 3.2075 2.7250
# 5 17.9953 0.7260 7.7935 3.2075 26.6194 -0.7027
# 6 22.5913 17.2601 5.9865 2.7250 -0.7027 39.0323
#
#
#
# Elastic Compliance Matrix: (Units=1/GPa)
#
#
# Indices 1 2 3 4 5 6 
#
# 1 0.015630 -0.004194 -0.000966 0.003865 -0.010833 -0.007508
# 2 -0.004194 0.011366 -0.002510 -0.004031 0.003697 -0.001866
# 3 -0.000966 -0.002510 0.017348 -0.002238 -0.004111 -0.000909
# 4 0.003865 -0.004031 -0.002238 0.036917 -0.006370 -0.002803
# 5 -0.010833 0.003697 -0.004111 -0.006370 0.046933 0.006555
# 6 -0.007508 -0.001866 -0.000909 -0.002803 0.006555 0.031244
#
#
# Mechanical properties :
#
#
# Convention : Reuss Voigt Hill
#
# Bulk Modulus (GPa) = 34.47973 47.34497 40.91235
# Shear Modulus (GPa) = 27.10821 32.43686 29.77254
#
# Velocity S-wave (km/s) = 3.51398 3.84386 3.68262
# Velocity P-wave (km/s) = 5.67185 6.42390 6.05955
#
# Compressibility (1/GPa) = 0.02900255
#
# Stress axis : x y z
#
# Youngs Moduli (GPa) = 63.98001 87.97968 57.64493
#
# Poissons Ratio (x) = 0.36898 0.05570
# Poissons Ratio (y) = 0.26833 0.14471
# Poissons Ratio (z) = 0.06183 0.22086
#
# Static dielectric constant tensor:
#      x y z
#    x 4.169110 0.164450 0.204970 
#    y 0.164450 4.006770 0.040380 
#    z 0.204970 0.040380 3.966340 
# 
# 
# High freq. dielectric constant tensor:
#      x y z
#    x 1.864770 0.011110 0.013050 
#    y 0.011110 1.875130 0.002770 
#    z 0.013050 0.002770 1.860560 
# 
# From -- ./inp_files/519480.got.cif
#   From: 2010.06.25/outbox.cif.g09.slc.cpg/sg2_260_cif.got.tgz:519480.got - 2010.06.27 13:26:56.
