data_PCOD8008412
_publ_section_title
;
Structure prediction by ZEFSAII (Michael W. Deem and Ramdas Pophale) SiO2 
 PCOD8008412
Probable space group: P -1
;
_chemical_formula_sum "Si O2"
_cell_formula_units_Z 16
_cell_length_a 32.984238
_cell_length_b 20.469397
_cell_length_c 27.063991
_cell_angle_alpha 16.823236
_cell_angle_beta 171.388423
_cell_angle_gamma 163.802255
_cell_volume 750.072652
_symmetry_space_group_name_H-M "P -1"
_symmetry_group_IT_number 2
_symmetry_cell_setting 'triclinic'
loop_
_space_group_symop_operation_xyz
x,y,z
-x,-y,-z
loop_
_atom_site_type_symbol
_atom_site_label
_atom_site_fract_x
_atom_site_fract_y
_atom_site_fract_z
Si Si1 0.817314 0.080953 0.101556
Si Si2 0.896534 0.324531 0.125386
Si Si3 0.947333 0.114871 0.086614
Si Si4 0.637228 0.413172 0.071054
Si Si5 0.528316 0.416941 0.826941
Si Si6 0.458328 0.132818 0.544337
Si Si7 0.311150 0.024810 0.674130
Si Si8 0.047226 0.184307 0.779170
O O1 0.827450 0.225693 0.058598
O O2 0.133145 0.106500 0.442878
O O3 0.653329 0.799773 0.114115
O O4 0.646099 0.201012 0.771358
O O5 0.189469 0.280554 0.526611
O O6 0.637424 0.200047 0.940233
O O7 0.937009 0.601997 0.974956
O O8 0.170712 0.019235 0.454795
O O9 0.631645 0.014474 0.802237
O O10 0.905403 0.027361 0.042944
O O11 0.658010 0.503192 0.974612
O O12 0.912169 0.332857 0.472173
O O13 0.662333 0.638951 0.974214
O O14 0.586005 0.633839 0.701546
O O15 0.676834 0.239038 0.110244
O O16 0.157411 0.935189 0.335238
#
# Coordination Sequence:
#
# PCOD8008412 Si02
#       8
#     2   2   2   2   2   2   2   2
#     4  10  22  42  62  89 119 162 208 234 292 364
#     4  11  23  39  62  86 129 159 195 250 296 352
#     4  10  21  39  64  90 117 159 208 240 291 361
#     4  10  21  41  66  88 122 155 199 259 292 350
#     4  11  22  40  59  93 129 151 193 257 308 337
#     4   9  22  40  61  91 123 156 197 253 293 355
#     4  11  21  38  63  91 119 163 201 241 296 361
#     4  10  20  43  67  86 115 164 205 238 301 362
#
# _framework density 21.331265999999999
#
# number of rings (size 3 to 8) (size 9 to 14) (size 15 to 20)
#    0.000    1.750    2.500    1.500    0.000    7.500 
#    6.750    5.000    0.000    0.000    0.000    0.000 
#    0.000    0.000    0.000    0.000    0.000    0.000 
#
# Total GULP energy -198379.213608 kJ/mol
# GULP energy per Si atom -12398.700850 kJ/mol
# Density = 2.128272 g / cm^3
# Si number density = 21.331266 Si / 1000 Ang^3
#
#
#
# Elastic Constant Matrix: (Units=GPa)
#
#
# Indices 1 2 3 4 5 6 
#
# 1 95.5154 68.0037 37.9675 10.0512 1.3514 -6.8215
# 2 68.0037 133.3680 43.1182 3.2713 1.2610 -20.3844
# 3 37.9675 43.1182 68.6808 -16.4452 -10.2292 -2.2557
# 4 10.0512 3.2713 -16.4452 24.7661 3.7904 -4.7912
# 5 1.3514 1.2610 -10.2292 3.7904 28.1998 -6.2147
# 6 -6.8215 -20.3844 -2.2557 -4.7912 -6.2147 29.1461
#
#
#
# Elastic Compliance Matrix: (Units=1/GPa)
#
#
# Indices 1 2 3 4 5 6 
#
# 1 0.022175 -0.007670 -0.012085 -0.016305 -0.003932 -0.004628
# 2 -0.007670 0.013975 -0.004334 -0.000120 -0.000140 0.007594
# 3 -0.012085 -0.004334 0.031569 0.025539 0.009406 0.002788
# 4 -0.016305 -0.000120 0.025539 0.065296 0.003374 0.009530
# 5 -0.003932 -0.000140 0.009406 0.003374 0.040579 0.008917
# 6 -0.004628 0.007594 0.002788 0.009530 0.008917 0.042222
#
#
# Mechanical properties :
#
#
# Convention : Reuss Voigt Hill
#
# Bulk Modulus (GPa) = 51.17229 66.19367 58.68298
# Shear Modulus (GPa) = 18.48375 26.32071 22.40223
#
# Velocity S-wave (km/s) = 2.94685 3.51651 3.24420
# Velocity P-wave (km/s) = 5.96825 6.89829 6.45005
#
# Compressibility (1/GPa) = 0.01954183
#
# Stress axis : x y z
#
# Youngs Moduli (GPa) = 45.09585 71.55599 31.67659
#
# Poissons Ratio (x) = 0.54885 0.38281
# Poissons Ratio (y) = 0.34589 0.13727
# Poissons Ratio (z) = 0.54498 0.31010
#
# Static dielectric constant tensor:
#      x y z
#    x 3.846810 -0.007040 -0.016550 
#    y -0.007040 3.827830 0.061660 
#    z -0.016550 0.061660 3.904020 
# 
# 
# High freq. dielectric constant tensor:
#      x y z
#    x 1.836040 0.001140 -0.002350 
#    y 0.001140 1.831800 -0.003790 
#    z -0.002350 -0.003790 1.829480 
# 
# From -- ./inp_files/597230.got.cif
#   From: 2010.06.25/outbox.cif.g09.slc.cpg/sg2_299_cif.got.tgz:597230.got - 2010.06.27 13:26:56.
