data_PCOD8008373
_publ_section_title
;
Structure prediction by ZEFSAII (Michael W. Deem and Ramdas Pophale) SiO2 
 PCOD8008373
Probable space group: P -1
;
_chemical_formula_sum "Si O2"
_cell_formula_units_Z 14
_cell_length_a 15.634189
_cell_length_b 13.180132
_cell_length_c 8.178902
_cell_angle_alpha 111.487542
_cell_angle_beta 115.099411
_cell_angle_gamma 26.007136
_cell_volume 668.742610
_symmetry_space_group_name_H-M "P -1"
_symmetry_group_IT_number 2
_symmetry_cell_setting 'triclinic'
loop_
_space_group_symop_operation_xyz
x,y,z
-x,-y,-z
loop_
_atom_site_type_symbol
_atom_site_label
_atom_site_fract_x
_atom_site_fract_y
_atom_site_fract_z
Si Si1 0.290113 0.261768 0.031043
Si Si2 0.914493 0.567437 0.710111
Si Si3 0.213999 0.567497 0.009289
Si Si4 0.549063 0.393987 0.222302
Si Si5 0.730635 0.155823 0.567269
Si Si6 0.952236 0.014242 0.154238
Si Si7 0.956818 0.725831 0.621984
O O1 0.259723 0.273550 0.205940
O O2 0.291147 0.388687 0.072106
O O3 0.125702 0.366840 0.853185
O O4 0.500000 0.000000 0.000000
O O5 0.927553 0.447564 0.537104
O O6 0.857977 0.732690 0.658443
O O7 0.395309 0.465750 0.058804
O O8 0.122497 0.626031 0.795720
O O9 0.043769 0.799425 0.119931
O O10 0.652568 0.229347 0.362912
O O11 0.435803 0.619553 0.318133
O O12 0.715497 0.254973 0.140150
O O13 0.935348 0.018187 0.650649
O O14 0.777676 0.986356 0.569245
O O15 0.000000 0.000000 0.000000
#
# Coordination Sequence:
#
# PCOD8008373 Si02
#       7
#     2   2   2   2   2   2   2
#     4  10  22  42  64  95 122 161 211 256 304 375
#     4   9  22  42  66  88 127 165 204 256 312 366
#     4  10  23  40  62  95 125 163 211 248 314 368
#     4  10  24  41  65  92 126 167 208 255 305 374
#     4  10  22  42  63  94 125 164 211 252 307 373
#     4  11  22  43  62  92 128 165 205 257 306 373
#     4  10  20  43  65  93 128 163 205 258 314 363
#
# _framework density 20.934812000000001
#
# number of rings (size 3 to 8) (size 9 to 14) (size 15 to 20)
#    0.000    2.000    1.429    0.429    4.000    4.571 
#    2.571    7.857    0.000    0.000    0.000    0.000 
#    0.000    0.000    0.000    0.000    0.000    0.000 
#
# Total GULP energy -173640.926639 kJ/mol
# GULP energy per Si atom -12402.923331 kJ/mol
# Density = 2.088716 g / cm^3
# Si number density = 20.934812 Si / 1000 Ang^3
#
#
#
# Elastic Constant Matrix: (Units=GPa)
#
#
# Indices 1 2 3 4 5 6 
#
# 1 105.9235 86.0071 53.8747 18.3719 -13.9700 5.3413
# 2 86.0071 141.9228 41.1307 18.4030 -9.2915 6.2714
# 3 53.8747 41.1307 103.9992 9.8506 -2.2200 4.2425
# 4 18.3719 18.4030 9.8506 27.7868 -1.3687 -4.1315
# 5 -13.9700 -9.2915 -2.2200 -1.3687 36.8367 1.5674
# 6 5.3413 6.2714 4.2425 -4.1315 1.5674 52.3694
#
#
#
# Elastic Compliance Matrix: (Units=1/GPa)
#
#
# Indices 1 2 3 4 5 6 
#
# 1 0.024223 -0.011383 -0.007332 -0.005766 0.005707 -0.001139
# 2 -0.011383 0.014036 0.000558 -0.002112 -0.000791 -0.000708
# 3 -0.007332 0.000558 0.013201 -0.000346 -0.001842 -0.000361
# 4 -0.005766 -0.002112 -0.000346 0.041881 -0.001363 0.004214
# 5 0.005707 -0.000791 -0.001842 -0.001363 0.029006 -0.001314
# 6 -0.001139 -0.000708 -0.000361 0.004214 -0.001314 0.019697
#
#
# Mechanical properties :
#
#
# Convention : Reuss Voigt Hill
#
# Bulk Modulus (GPa) = 66.02552 79.31894 72.67223
# Shear Modulus (GPa) = 27.26186 34.78744 31.02465
#
# Velocity S-wave (km/s) = 3.61255 4.08082 3.85381
# Velocity P-wave (km/s) = 7.00056 7.75725 7.38860
#
# Compressibility (1/GPa) = 0.01514566
#
# Stress axis : x y z
#
# Youngs Moduli (GPa) = 41.28386 71.24584 75.75065
#
# Poissons Ratio (x) = 0.81097 0.55539
# Poissons Ratio (y) = 0.46992 -0.04223
# Poissons Ratio (z) = 0.30269 -0.03972
#
# Static dielectric constant tensor:
#      x y z
#    x 3.781080 0.289220 0.137780 
#    y 0.289220 4.090660 0.047770 
#    z 0.137780 0.047770 3.984390 
# 
# 
# High freq. dielectric constant tensor:
#      x y z
#    x 1.812930 0.016000 0.002990 
#    y 0.016000 1.822610 -0.003630 
#    z 0.002990 -0.003630 1.827830 
# 
# From -- ./inp_files/335500.got.cif
#   From: 2010.06.25/outbox.cif.g09.slc.cpg/sg2_168_cif.got.tgz:335500.got - 2010.06.27 13:26:56.
