data_PCOD8008570
_publ_section_title
;
Structure prediction by ZEFSAII (Michael W. Deem and Ramdas Pophale) SiO2 
 PCOD8008570
Probable space group: P -1
;
_chemical_formula_sum "Si O2"
_cell_formula_units_Z 12
_cell_length_a 14.664672
_cell_length_b 9.110565
_cell_length_c 14.069874
_cell_angle_alpha 45.214610
_cell_angle_beta 28.119646
_cell_angle_gamma 37.234360
_cell_volume 536.062309
_symmetry_space_group_name_H-M "P -1"
_symmetry_group_IT_number 2
_symmetry_cell_setting 'triclinic'
loop_
_space_group_symop_operation_xyz
x,y,z
-x,-y,-z
loop_
_atom_site_type_symbol
_atom_site_label
_atom_site_fract_x
_atom_site_fract_y
_atom_site_fract_z
Si Si1 0.836372 0.728067 0.412314
Si Si2 0.821614 0.159394 0.009408
Si Si3 0.660915 0.950354 0.962582
Si Si4 0.591994 0.900541 0.255044
Si Si5 0.851727 0.484155 0.327203
Si Si6 0.330076 0.597673 0.298151
O O1 0.813852 0.709957 0.326215
O O2 0.821481 0.498975 0.571812
O O3 0.067641 0.728311 0.214157
O O4 0.633812 0.972120 0.532325
O O5 0.593211 0.386087 0.158113
O O6 0.762862 0.994596 0.074944
O O7 0.000000 0.000000 0.000000
O O8 0.888398 0.694594 0.856190
O O9 0.712002 0.166289 0.825306
O O10 0.534832 0.940591 0.177525
O O11 0.500000 0.000000 0.000000
O O12 0.715401 0.613499 0.297222
O O13 0.753689 0.341714 0.541668
#
# Coordination Sequence:
#
# PCOD8008570 Si02
#       6
#     2   2   2   2   2   2
#     4   9  20  38  69  97 125 158 213 270 320 363
#     4  11  18  37  72 100 124 161 210 271 323 369
#     4  12  26  44  62  91 137 177 208 259 321 377
#     4  11  23  42  67 100 125 164 220 264 309 384
#     4  10  20  44  68  88 131 169 208 265 314 375
#     4   9  22  41  65  92 131 165 210 263 319 374
#
# _framework density 22.385456999999999
#
# number of rings (size 3 to 8) (size 9 to 14) (size 15 to 20)
#    1.000    0.667    1.667    3.500    0.000    2.667 
#    6.000    3.333    0.000    0.000    0.000    0.000 
#    0.000    0.000    0.000    0.000    0.000    0.000 
#
# Total GULP energy -148661.062763 kJ/mol
# GULP energy per Si atom -12388.421897 kJ/mol
# Density = 2.233451 g / cm^3
# Si number density = 22.385457 Si / 1000 Ang^3
#
#
#
# Elastic Constant Matrix: (Units=GPa)
#
#
# Indices 1 2 3 4 5 6 
#
# 1 52.2629 17.2138 5.8982 9.4685 18.5476 -4.6637
# 2 17.2138 76.1815 31.1915 13.6902 23.3159 -5.7720
# 3 5.8982 31.1915 114.0260 8.4936 0.1663 4.9751
# 4 9.4685 13.6902 8.4936 33.2818 1.7669 7.5544
# 5 18.5476 23.3159 0.1663 1.7669 26.8317 -11.0551
# 6 -4.6637 -5.7720 4.9751 7.5544 -11.0551 13.5114
#
#
#
# Elastic Compliance Matrix: (Units=1/GPa)
#
#
# Indices 1 2 3 4 5 6 
#
# 1 0.027036 0.001733 -0.001235 -0.006222 -0.021130 -0.003282
# 2 0.001733 0.022589 -0.005688 -0.007146 -0.020501 -0.000436
# 3 -0.001235 -0.005688 0.010496 0.000614 0.004194 -0.003633
# 4 -0.006222 -0.007146 0.000614 0.042866 -0.006677 -0.034857
# 5 -0.021130 -0.020501 0.004194 -0.006677 0.097140 0.065619
# 6 -0.003282 -0.000436 -0.003633 -0.034857 0.065619 0.147209
#
#
# Mechanical properties :
#
#
# Convention : Reuss Voigt Hill
#
# Bulk Modulus (GPa) = 20.10360 39.00857 29.55609
# Shear Modulus (GPa) = 13.35838 27.26945 20.31391
#
# Velocity S-wave (km/s) = 2.44548 3.49403 3.01568
# Velocity P-wave (km/s) = 4.11995 5.80873 5.03564
#
# Compressibility (1/GPa) = 0.04974233
#
# Stress axis : x y z
#
# Youngs Moduli (GPa) = 36.98807 44.26855 95.27166
#
# Poissons Ratio (x) = -0.07672 0.11766
# Poissons Ratio (y) = -0.06411 0.54187
# Poissons Ratio (z) = 0.04568 0.25178
#
# Static dielectric constant tensor:
#      x y z
#    x 3.626700 0.027110 0.068470 
#    y 0.027110 3.954760 -0.189800 
#    z 0.068470 -0.189800 4.347610 
# 
# 
# High freq. dielectric constant tensor:
#      x y z
#    x 1.841770 -0.004460 0.009880 
#    y -0.004460 1.876530 -0.002560 
#    z 0.009880 -0.002560 1.900350 
# 
# From -- ./inp_files/527206.got.cif
#   From: 2010.06.25/outbox.cif.g09.slc.cpg/sg2_264_cif.got.tgz:527206.got - 2010.06.27 13:26:56.
