data_PCOD8008068
_publ_section_title
;
Structure prediction by ZEFSAII (Michael W. Deem and Ramdas Pophale) SiO2 
 PCOD8008068
Probable space group: P -1
;
_chemical_formula_sum "Si O2"
_cell_formula_units_Z 14
_cell_length_a 22.328852
_cell_length_b 9.229510
_cell_length_c 12.066818
_cell_angle_alpha 38.293862
_cell_angle_beta 151.989862
_cell_angle_gamma 135.277904
_cell_volume 722.390881
_symmetry_space_group_name_H-M "P -1"
_symmetry_group_IT_number 2
_symmetry_cell_setting 'triclinic'
loop_
_space_group_symop_operation_xyz
x,y,z
-x,-y,-z
loop_
_atom_site_type_symbol
_atom_site_label
_atom_site_fract_x
_atom_site_fract_y
_atom_site_fract_z
Si Si1 0.524565 0.496940 0.171840
Si Si2 0.246458 0.375665 0.864941
Si Si3 0.870118 0.977689 0.943665
Si Si4 0.731997 0.847428 0.356612
Si Si5 0.850024 0.998973 0.239984
Si Si6 0.781227 0.342592 0.738572
Si Si7 0.845417 0.117728 0.574260
O O1 0.584348 0.754847 0.151765
O O2 0.628512 0.306226 0.484848
O O3 0.500000 0.500000 0.000000
O O4 0.397264 0.436872 0.068879
O O5 0.219696 0.221380 0.023455
O O6 0.199411 0.237035 0.761827
O O7 0.170762 0.608200 0.607268
O O8 0.015682 0.913123 0.230979
O O9 0.858218 0.226844 0.834765
O O10 0.826514 0.992396 0.736928
O O11 0.781517 0.012985 0.237866
O O12 0.820300 0.620885 0.641584
O O13 0.740810 0.994605 0.395576
O O14 0.000000 0.000000 0.500000
O O15 0.812498 0.227750 0.975487
#
# Coordination Sequence:
#
# PCOD8008068 Si02
#       7
#     2   2   2   2   2   2   2
#     4  10  20  42  65  88 123 160 203 256 303 353
#     4  11  22  41  61  89 120 163 203 242 307 366
#     4  10  22  38  61  87 119 165 200 247 303 363
#     4  10  22  39  59  92 121 156 202 253 300 355
#     4  11  22  37  64  93 119 157 204 258 303 352
#     4   9  22  40  61  93 114 160 203 251 301 355
#     4  11  23  39  59  89 126 162 197 246 310 361
#
# _framework density 19.380089999999999
#
# number of rings (size 3 to 8) (size 9 to 14) (size 15 to 20)
#    0.857    0.857    1.429    3.857    0.000    8.571 
#    2.571    0.714    0.000    0.000    0.000    0.000 
#    0.000    0.000    0.000    0.000    0.000    0.000 
#
# Total GULP energy -173593.723414 kJ/mol
# GULP energy per Si atom -12399.551672 kJ/mol
# Density = 1.933598 g / cm^3
# Si number density = 19.380090 Si / 1000 Ang^3
#
#
#
# Elastic Constant Matrix: (Units=GPa)
#
#
# Indices 1 2 3 4 5 6 
#
# 1 104.9393 23.7351 24.6672 8.2799 -15.1084 10.8191
# 2 23.7351 52.8109 -0.0165 13.2481 -14.5732 -2.1124
# 3 24.6672 -0.0165 84.1198 2.0054 -11.2588 1.6602
# 4 8.2799 13.2481 2.0054 31.1145 -5.8794 4.8587
# 5 -15.1084 -14.5732 -11.2588 -5.8794 36.4380 4.2139
# 6 10.8191 -2.1124 1.6602 4.8587 4.2139 33.9449
#
#
#
# Elastic Compliance Matrix: (Units=1/GPa)
#
#
# Indices 1 2 3 4 5 6 
#
# 1 0.012217 -0.005007 -0.003149 0.000274 0.002645 -0.004419
# 2 -0.005007 0.025511 0.002566 -0.008895 0.007085 0.003452
# 3 -0.003149 0.002566 0.013322 -0.000420 0.003757 0.000105
# 4 0.000274 -0.008895 -0.000420 0.037485 0.003213 -0.006385
# 5 0.002645 0.007085 0.003757 0.003213 0.033658 -0.005224
# 6 -0.004419 0.003452 0.000105 -0.006385 -0.005224 0.032640
#
#
# Mechanical properties :
#
#
# Convention : Reuss Voigt Hill
#
# Bulk Modulus (GPa) = 25.08150 37.62685 31.35418
# Shear Modulus (GPa) = 27.88557 33.19842 30.54199
#
# Velocity S-wave (km/s) = 3.79737 4.14335 3.97413
# Velocity P-wave (km/s) = 5.67421 6.50747 6.10507
#
# Compressibility (1/GPa) = 0.03987002
#
# Stress axis : x y z
#
# Youngs Moduli (GPa) = 81.85451 39.19817 75.06154
#
# Poissons Ratio (x) = 0.19627 0.23635
# Poissons Ratio (y) = 0.40986 -0.19257
# Poissons Ratio (z) = 0.25773 -0.10056
#
# Static dielectric constant tensor:
#      x y z
#    x 3.602630 -0.013440 0.044660 
#    y -0.013440 3.470350 -0.027650 
#    z 0.044660 -0.027650 3.648360 
# 
# 
# High freq. dielectric constant tensor:
#      x y z
#    x 1.758560 0.002010 -0.008120 
#    y 0.002010 1.747990 0.002050 
#    z -0.008120 0.002050 1.754900 
# 
# From -- ./inp_files/255580.got.cif
#   From: 2010.06.25/outbox.cif.g09.slc.cpg/sg2_128_cif.got.tgz:255580.got - 2010.06.27 13:26:56.
