data_PCOD8008568
_publ_section_title
;
Structure prediction by ZEFSAII (Michael W. Deem and Ramdas Pophale) SiO2 
 PCOD8008568
Probable space group: P -1
;
_chemical_formula_sum "Si O2"
_cell_formula_units_Z 10
_cell_length_a 12.277511
_cell_length_b 6.556791
_cell_length_c 8.272826
_cell_angle_alpha 97.366664
_cell_angle_beta 42.860427
_cell_angle_gamma 111.041239
_cell_volume 413.134132
_symmetry_space_group_name_H-M "P -1"
_symmetry_group_IT_number 2
_symmetry_cell_setting 'triclinic'
loop_
_space_group_symop_operation_xyz
x,y,z
-x,-y,-z
loop_
_atom_site_type_symbol
_atom_site_label
_atom_site_fract_x
_atom_site_fract_y
_atom_site_fract_z
Si Si1 0.943324 0.685868 0.655259
Si Si2 0.704881 0.318816 0.344346
Si Si3 0.510168 0.053043 0.237281
Si Si4 0.952992 0.741180 0.017078
Si Si5 0.729829 0.904831 0.757166
O O1 0.901391 0.637036 0.883922
O O2 0.772294 0.694952 0.752348
O O3 0.000000 0.500000 0.500000
O O4 0.098865 0.926247 0.499173
O O5 0.628069 0.196025 0.584740
O O6 0.875957 0.280019 0.100981
O O7 0.559484 0.216645 0.353958
O O8 0.780457 0.592760 0.298102
O O9 0.427219 0.167466 0.208635
O O10 0.677837 0.024131 0.977034
O O11 0.000000 0.000000 0.000000
#
# Coordination Sequence:
#
# PCOD8008568 Si02
#       5
#     2   2   2   2   2
#     4  11  23  43  69  99 132 187 227 277 335 417
#     4  10  22  41  69  96 141 172 228 282 343 401
#     4  10  20  44  68 106 136 176 224 296 336 400
#     4  11  23  43  69  99 132 187 227 277 335 417
#     4  10  22  41  69  96 141 172 228 282 343 401
#
# _framework density 24.205212
#
# number of rings (size 3 to 8) (size 9 to 14) (size 15 to 20)
#    0.000    1.600    2.000    2.400    0.000    4.800 
#    0.000   22.000    0.000    0.000    0.000    0.000 
#    0.000    0.000    0.000    0.000    0.000    0.000 
#
# Total GULP energy -123959.470549 kJ/mol
# GULP energy per Si atom -12395.947055 kJ/mol
# Density = 2.415012 g / cm^3
# Si number density = 24.205212 Si / 1000 Ang^3
#
#
#
# Elastic Constant Matrix: (Units=GPa)
#
#
# Indices 1 2 3 4 5 6 
#
# 1 137.4265 42.2381 12.6649 15.2753 -0.3510 -28.0367
# 2 42.2381 115.5487 7.0726 -9.6983 -6.8645 -15.7020
# 3 12.6649 7.0726 74.6884 -19.1719 -2.8079 -10.3495
# 4 15.2753 -9.6983 -19.1719 49.1279 -3.4918 -8.0676
# 5 -0.3510 -6.8645 -2.8079 -3.4918 33.4222 6.1758
# 6 -28.0367 -15.7020 -10.3495 -8.0676 6.1758 29.9912
#
#
#
# Elastic Compliance Matrix: (Units=1/GPa)
#
#
# Indices 1 2 3 4 5 6 
#
# 1 0.010138 -0.003091 -0.001405 -0.003331 -0.002278 0.006947
# 2 -0.003091 0.010723 0.001242 0.004347 0.002006 0.003910
# 3 -0.001405 0.001242 0.016716 0.008462 0.001211 0.007132
# 4 -0.003331 0.004347 0.008462 0.027198 0.002780 0.008826
# 5 -0.002278 0.002006 0.001211 0.002780 0.031898 -0.006482
# 6 0.006947 0.003910 0.007132 0.008826 -0.006482 0.048055
#
#
# Mechanical properties :
#
#
# Convention : Reuss Voigt Hill
#
# Bulk Modulus (GPa) = 32.18557 50.17941 41.18249
# Shear Modulus (GPa) = 30.94210 40.22079 35.58145
#
# Velocity S-wave (km/s) = 3.57924 4.08077 3.83821
# Velocity P-wave (km/s) = 5.51427 6.55587 6.05750
#
# Compressibility (1/GPa) = 0.03106982
#
# Stress axis : x y z
#
# Youngs Moduli (GPa) = 98.64083 93.25319 59.82434
#
# Poissons Ratio (x) = 0.28822 0.08402
# Poissons Ratio (y) = 0.30487 -0.07428
# Poissons Ratio (z) = 0.13854 -0.11579
#
# Static dielectric constant tensor:
#      x y z
#    x 4.982500 -0.689930 0.497370 
#    y -0.689930 4.603550 -0.657990 
#    z 0.497370 -0.657990 4.952170 
# 
# 
# High freq. dielectric constant tensor:
#      x y z
#    x 1.972090 -0.017330 0.001120 
#    y -0.017330 1.942970 -0.019770 
#    z 0.001120 -0.019770 1.958950 
# 
# From -- ./inp_files/15586.got.cif
#   From: 2010.06.25/outbox.cif.g09.slc.cpg/sg2_8_cif.got.tgz:15586.got - 2010.06.27 13:26:56.
