data_PCOD8008796
_publ_section_title
;
Structure prediction by ZEFSAII (Michael W. Deem and Ramdas Pophale) SiO2 
 PCOD8008796
Probable space group: P -1
;
_chemical_formula_sum "Si O2"
_cell_formula_units_Z 16
_cell_length_a 14.629863
_cell_length_b 5.252156
_cell_length_c 12.437978
_cell_angle_alpha 74.336388
_cell_angle_beta 81.870787
_cell_angle_gamma 113.893423
_cell_volume 806.504639
_symmetry_space_group_name_H-M "P -1"
_symmetry_group_IT_number 2
_symmetry_cell_setting 'triclinic'
loop_
_space_group_symop_operation_xyz
x,y,z
-x,-y,-z
loop_
_atom_site_type_symbol
_atom_site_label
_atom_site_fract_x
_atom_site_fract_y
_atom_site_fract_z
Si Si1 0.315993 0.809813 0.333302
Si Si2 0.304154 0.834424 0.687839
Si Si3 0.092668 0.193116 0.102848
Si Si4 0.667949 0.756781 0.549312
Si Si5 0.316025 0.098440 0.874037
Si Si6 0.522188 0.304720 0.300578
Si Si7 0.866860 0.752317 0.151916
Si Si8 0.210663 0.801395 0.129712
O O1 0.290405 0.483972 0.418950
O O2 0.262452 0.771561 0.232890
O O3 0.272136 0.967103 0.408243
O O4 0.441326 0.017742 0.277793
O O5 0.394922 0.759499 0.636847
O O6 0.189656 0.550873 0.734381
O O7 0.305822 0.109864 0.590603
O O8 0.335578 0.911889 0.798681
O O9 0.126163 0.471585 0.145370
O O10 0.158835 0.016729 0.132899
O O11 0.106287 0.316257 0.964642
O O12 0.971529 0.973110 0.171689
O O13 0.543291 0.607551 0.611991
O O14 0.414103 0.427671 0.824269
O O15 0.207821 0.095741 0.862040
O O16 0.302713 0.940920 0.009433
#
# Coordination Sequence:
#
# PCOD8008796 Si02
#       8
#     2   2   2   2   2   2   2   2
#     4  10  23  41  57  84 113 168 200 229 275 343
#     4  11  20  37  60  90 122 143 193 246 300 341
#     4  10  21  38  63  88 118 153 187 240 296 354
#     4  10  23  39  61  81 118 159 198 236 284 337
#     4  10  21  34  60  93 120 147 186 245 303 341
#     4   9  22  37  56  91 114 157 193 237 292 341
#     4   9  21  35  58  95 120 144 187 241 308 347
#     4  11  22  40  62  84 121 155 197 234 284 351
#
# _framework density 19.838697
#
# number of rings (size 3 to 8) (size 9 to 14) (size 15 to 20)
#    0.750    1.250    1.250    1.875    5.250    3.000 
#    0.000    1.250    0.000    4.500    0.000    0.000 
#    0.000    0.000    0.000    0.000    0.000    0.000 
#
# Total GULP energy -198346.495148 kJ/mol
# GULP energy per Si atom -12396.655947 kJ/mol
# Density = 1.979354 g / cm^3
# Si number density = 19.838697 Si / 1000 Ang^3
#
#
#
# Elastic Constant Matrix: (Units=GPa)
#
#
# Indices 1 2 3 4 5 6 
#
# 1 38.9379 17.8275 18.5374 -16.5983 0.4105 9.6267
# 2 17.8275 99.7106 10.8472 -13.8205 7.3372 3.8683
# 3 18.5374 10.8472 37.5865 -11.5946 11.1917 11.7031
# 4 -16.5983 -13.8205 -11.5946 27.6290 -5.4037 -1.0632
# 5 0.4105 7.3372 11.1917 -5.4037 22.5822 -0.8480
# 6 9.6267 3.8683 11.7031 -1.0632 -0.8480 33.6149
#
#
#
# Elastic Compliance Matrix: (Units=1/GPa)
#
#
# Indices 1 2 3 4 5 6 
#
# 1 0.046019 -0.004268 -0.017503 0.020682 0.013964 -0.005588
# 2 -0.004268 0.011351 0.000796 0.002779 -0.003354 -0.000358
# 3 -0.017503 0.000796 0.046813 0.004682 -0.022464 -0.011796
# 4 0.020682 0.002779 0.004682 0.053501 0.008980 -0.005954
# 5 0.013964 -0.003354 -0.022464 0.008980 0.058624 0.005971
# 6 -0.005588 -0.000358 -0.011796 -0.005954 0.005971 0.035459
#
#
# Mechanical properties :
#
#
# Convention : Reuss Voigt Hill
#
# Bulk Modulus (GPa) = 16.06798 30.07326 23.07062
# Shear Modulus (GPa) = 15.90017 25.36674 20.63346
#
# Velocity S-wave (km/s) = 2.83410 3.57970 3.22850
# Velocity P-wave (km/s) = 4.33894 5.68133 5.05489
#
# Compressibility (1/GPa) = 0.06223557
#
# Stress axis : x y z
#
# Youngs Moduli (GPa) = 21.73003 88.09588 21.36136
#
# Poissons Ratio (x) = 0.37598 0.37388
# Poissons Ratio (y) = 0.09274 -0.01701
# Poissons Ratio (z) = 0.38033 -0.07014
#
# Static dielectric constant tensor:
#      x y z
#    x 3.409280 -0.035040 -0.148250 
#    y -0.035040 3.614910 -0.158770 
#    z -0.148250 -0.158770 3.448230 
# 
# 
# High freq. dielectric constant tensor:
#      x y z
#    x 1.750420 -0.009790 -0.009070 
#    y -0.009790 1.783460 -0.013900 
#    z -0.009070 -0.013900 1.754700 
# 
# From -- ./inp_files/96442.got.cif
#   From: 2010.06.25/outbox.cif.g09.slc.cpg/sg2_49_cif.got.tgz:96442.got - 2010.06.27 13:26:56.
