data_PCOD8008230
_publ_section_title
;
Structure prediction by ZEFSAII (Michael W. Deem and Ramdas Pophale) SiO2 
 PCOD8008230
Probable space group: P -1
;
_chemical_formula_sum "Si O2"
_cell_formula_units_Z 16
_cell_length_a 14.564506
_cell_length_b 20.882196
_cell_length_c 8.815531
_cell_angle_alpha 131.867031
_cell_angle_beta 48.589659
_cell_angle_gamma 160.222984
_cell_volume 669.618695
_symmetry_space_group_name_H-M "P -1"
_symmetry_group_IT_number 2
_symmetry_cell_setting 'triclinic'
loop_
_space_group_symop_operation_xyz
x,y,z
-x,-y,-z
loop_
_atom_site_type_symbol
_atom_site_label
_atom_site_fract_x
_atom_site_fract_y
_atom_site_fract_z
Si Si1 0.698747 0.430878 0.107354
Si Si2 0.160384 0.445907 0.192968
Si Si3 0.579128 0.106026 0.374065
Si Si4 0.320446 0.227280 0.690632
Si Si5 0.982525 0.757757 0.451566
Si Si6 0.066529 0.218850 0.123990
Si Si7 0.783233 0.785441 0.544317
Si Si8 0.542504 0.149661 0.808188
O O1 0.931666 0.625018 0.259290
O O2 0.399521 0.271422 0.236880
O O3 0.722350 0.472974 0.974042
O O4 0.735873 0.350858 0.964629
O O5 0.387130 0.630202 0.351917
O O6 0.115029 0.320004 0.100060
O O7 0.862108 0.306477 0.295319
O O8 0.655960 0.175510 0.573502
O O9 0.496797 0.953774 0.195227
O O10 0.304510 0.984873 0.434880
O O11 0.339579 0.289586 0.608857
O O12 0.249831 0.251382 0.938055
O O13 0.095965 0.013050 0.576345
O O14 0.867119 0.701214 0.656725
O O15 0.794095 0.693421 0.440537
O O16 0.752737 0.991490 0.114450
#
# Coordination Sequence:
#
# PCOD8008230 Si02
#       8
#     2   2   2   2   2   2   2   2
#     4  12  24  41  67 104 134 172 226 281 332 390
#     4  11  24  39  69  98 135 176 224 268 329 402
#     4   9  22  45  66  97 133 183 222 267 332 396
#     4  11  23  42  68  99 133 179 220 278 339 396
#     4  11  24  42  70  97 142 176 219 277 333 393
#     4  10  20  42  68  94 133 179 219 268 336 396
#     4  11  25  42  65 105 140 165 220 287 343 391
#     4   9  20  41  69  92 133 176 226 272 323 401
#
# _framework density 23.894196000000001
#
# number of rings (size 3 to 8) (size 9 to 14) (size 15 to 20)
#    0.000    1.500    1.250    3.750    3.500    2.500 
#    0.000    0.000    0.000    0.000    0.000    0.000 
#    0.000    0.000    0.000    0.000    0.000    0.000 
#
# Total GULP energy -198261.724927 kJ/mol
# GULP energy per Si atom -12391.357808 kJ/mol
# Density = 2.383981 g / cm^3
# Si number density = 23.894196 Si / 1000 Ang^3
#
#
#
# Elastic Constant Matrix: (Units=GPa)
#
#
# Indices 1 2 3 4 5 6 
#
# 1 55.3156 23.7344 40.9091 -13.5414 12.2770 6.5771
# 2 23.7344 102.3154 45.7104 -3.6206 8.1046 12.8428
# 3 40.9091 45.7104 117.2106 2.3513 8.7347 -5.0177
# 4 -13.5414 -3.6206 2.3513 37.5298 -2.4589 0.4268
# 5 12.2770 8.1046 8.7347 -2.4589 35.2716 1.2127
# 6 6.5771 12.8428 -5.0177 0.4268 1.2127 30.2609
#
#
#
# Elastic Compliance Matrix: (Units=1/GPa)
#
#
# Indices 1 2 3 4 5 6 
#
# 1 0.031902 -0.000424 -0.011034 0.011788 -0.007161 -0.008463
# 2 -0.000424 0.013127 -0.005175 0.001426 -0.001271 -0.006306
# 3 -0.011034 -0.005175 0.014757 -0.005436 0.000753 0.007088
# 4 0.011788 0.001426 -0.005436 0.031379 -0.000743 -0.004482
# 5 -0.007161 -0.001271 0.000753 -0.000743 0.030864 0.000994
# 6 -0.008463 -0.006306 0.007088 -0.004482 0.000994 0.038760
#
#
# Mechanical properties :
#
#
# Convention : Reuss Voigt Hill
#
# Bulk Modulus (GPa) = 37.70822 55.06107 46.38464
# Shear Modulus (GPa) = 24.64313 31.57828 28.11071
#
# Velocity S-wave (km/s) = 3.21494 3.63931 3.43369
# Velocity P-wave (km/s) = 5.44028 6.38382 5.93085
#
# Compressibility (1/GPa) = 0.02651942
#
# Stress axis : x y z
#
# Youngs Moduli (GPa) = 31.34607 76.18003 67.76232
#
# Poissons Ratio (x) = 0.03231 0.74770
# Poissons Ratio (y) = 0.01329 0.35068
# Poissons Ratio (z) = 0.34588 0.39424
#
# Static dielectric constant tensor:
#      x y z
#    x 3.947090 0.044020 -0.030460 
#    y 0.044020 4.588370 -0.098910 
#    z -0.030460 -0.098910 4.122510 
# 
# 
# High freq. dielectric constant tensor:
#      x y z
#    x 1.923850 0.004310 -0.004870 
#    y 0.004310 1.967220 -0.003160 
#    z -0.004870 -0.003160 1.935400 
# 
# From -- ./inp_files/319466.got.cif
#   From: 2010.06.25/outbox.cif.g09.slc.cpg/sg2_160_cif.got.tgz:319466.got - 2010.06.27 13:26:56.
