data_PCOD8008710
_publ_section_title
;
Structure prediction by ZEFSAII (Michael W. Deem and Ramdas Pophale) SiO2 
 PCOD8008710
Probable space group: P -1
;
_chemical_formula_sum "Si O2"
_cell_formula_units_Z 14
_cell_length_a 16.652926
_cell_length_b 13.477145
_cell_length_c 11.146257
_cell_angle_alpha 126.151511
_cell_angle_beta 134.293449
_cell_angle_gamma 24.019184
_cell_volume 718.905166
_symmetry_space_group_name_H-M "P -1"
_symmetry_group_IT_number 2
_symmetry_cell_setting 'triclinic'
loop_
_space_group_symop_operation_xyz
x,y,z
-x,-y,-z
loop_
_atom_site_type_symbol
_atom_site_label
_atom_site_fract_x
_atom_site_fract_y
_atom_site_fract_z
Si Si1 0.240444 0.238404 0.225868
Si Si2 0.884786 0.393566 0.992906
Si Si3 0.735093 0.509607 0.490588
Si Si4 0.731163 0.978311 0.710132
Si Si5 0.177802 0.116179 0.537703
Si Si6 0.397875 0.139982 0.869066
Si Si7 0.591833 0.546322 0.603326
O O1 0.233554 0.390946 0.337097
O O2 0.311851 0.115403 0.343192
O O3 0.418926 0.029647 0.164129
O O4 0.001560 0.401882 0.054573
O O5 0.777797 0.401357 0.793778
O O6 0.698459 0.630159 0.055775
O O7 0.076498 0.138589 0.089350
O O8 0.712205 0.431200 0.516749
O O9 0.946615 0.276711 0.461003
O O10 0.505601 0.723636 0.324983
O O11 0.831010 0.870941 0.605141
O O12 0.197758 0.235923 0.692903
O O13 0.389689 0.836328 0.605421
O O14 0.500000 0.000000 0.000000
O O15 0.500000 0.500000 0.500000
#
# Coordination Sequence:
#
# PCOD8008710 Si02
#       7
#     2   2   2   2   2   2   2
#     4  10  21  33  60  90 129 154 185 236 304 359
#     4  10  23  36  62  89 121 157 190 246 297 356
#     4  11  21  38  61  87 126 157 195 239 300 354
#     4   9  22  36  56  96 124 159 186 236 305 365
#     4  11  22  37  62  90 124 158 192 242 302 351
#     4  12  21  33  56  94 130 151 195 239 293 363
#     4  11  25  45  61  83 116 160 211 249 290 346
#
# _framework density 19.474056000000001
#
# number of rings (size 3 to 8) (size 9 to 14) (size 15 to 20)
#    0.857    0.571    5.714    0.429    4.000    2.857 
#    0.000    2.857    0.000    1.714    0.000    0.000 
#    0.000    0.000    0.000    0.000    0.000    0.000 
#
# Total GULP energy -173513.173949 kJ/mol
# GULP energy per Si atom -12393.798139 kJ/mol
# Density = 1.942973 g / cm^3
# Si number density = 19.474056 Si / 1000 Ang^3
#
#
#
# Elastic Constant Matrix: (Units=GPa)
#
#
# Indices 1 2 3 4 5 6 
#
# 1 137.7840 32.2613 47.9098 -5.0315 -7.2903 -18.2027
# 2 32.2613 50.9206 37.0848 -16.5589 -4.5271 -23.5093
# 3 47.9098 37.0848 111.9742 -32.8264 -1.3580 8.9747
# 4 -5.0315 -16.5589 -32.8264 25.4891 4.1128 2.8481
# 5 -7.2903 -4.5271 -1.3580 4.1128 22.2025 3.5315
# 6 -18.2027 -23.5093 8.9747 2.8481 3.5315 36.4045
#
#
#
# Elastic Compliance Matrix: (Units=1/GPa)
#
#
# Indices 1 2 3 4 5 6 
#
# 1 0.010986 -0.000602 -0.007958 -0.009895 0.003640 0.007487
# 2 -0.000602 0.053335 -0.018745 0.005746 0.002409 0.038079
# 3 -0.007958 -0.018745 0.028079 0.026062 -0.005649 -0.024497
# 4 -0.009895 0.005746 0.026062 0.078065 -0.012954 -0.012513
# 5 0.003640 0.002409 -0.005649 -0.012954 0.048611 0.001066
# 6 0.007487 0.038079 -0.024497 -0.012513 0.001066 0.062718
#
#
# Mechanical properties :
#
#
# Convention : Reuss Voigt Hill
#
# Bulk Modulus (GPa) = 26.46203 59.46564 42.96384
# Shear Modulus (GPa) = 14.32662 29.04741 21.68701
#
# Velocity S-wave (km/s) = 2.71528 3.86631 3.34074
# Velocity P-wave (km/s) = 4.84233 7.10867 6.08200
#
# Compressibility (1/GPa) = 0.03779000
#
# Stress axis : x y z
#
# Youngs Moduli (GPa) = 91.02235 18.74957 35.61370
#
# Poissons Ratio (x) = 0.01129 0.28342
# Poissons Ratio (y) = 0.05481 0.66757
# Poissons Ratio (z) = 0.72437 0.35145
#
# Static dielectric constant tensor:
#      x y z
#    x 3.628760 -0.226870 -0.082410 
#    y -0.226870 3.497760 -0.280090 
#    z -0.082410 -0.280090 3.375760 
# 
# 
# High freq. dielectric constant tensor:
#      x y z
#    x 1.758540 -0.023620 -0.015090 
#    y -0.023620 1.742880 -0.029020 
#    z -0.015090 -0.029020 1.743200 
# 
# From -- ./inp_files/451660.got.cif
#   From: 2010.06.25/outbox.cif.g09.slc.cpg/sg2_226_cif.got.tgz:451660.got - 2010.06.27 13:26:56.
