data_PCOD8008170
_publ_section_title
;
Structure prediction by ZEFSAII (Michael W. Deem and Ramdas Pophale) SiO2 
 PCOD8008170
Probable space group: P -1
;
_chemical_formula_sum "Si O2"
_cell_formula_units_Z 16
_cell_length_a 11.794919
_cell_length_b 7.934090
_cell_length_c 9.199100
_cell_angle_alpha 55.685053
_cell_angle_beta 94.298186
_cell_angle_gamma 83.093653
_cell_volume 695.099942
_symmetry_space_group_name_H-M "P -1"
_symmetry_group_IT_number 2
_symmetry_cell_setting 'triclinic'
loop_
_space_group_symop_operation_xyz
x,y,z
-x,-y,-z
loop_
_atom_site_type_symbol
_atom_site_label
_atom_site_fract_x
_atom_site_fract_y
_atom_site_fract_z
Si Si1 0.965509 0.177526 0.026236
Si Si2 0.379179 0.915739 0.188053
Si Si3 0.333802 0.552462 0.849471
Si Si4 0.249233 0.645123 0.476401
Si Si5 0.446029 0.814443 0.929168
Si Si6 0.998197 0.878275 0.412915
Si Si7 0.804553 0.718337 0.887626
Si Si8 0.154127 0.414640 0.346145
O O1 0.880210 0.366567 0.849196
O O2 0.065393 0.286621 0.048311
O O3 0.000000 0.000000 0.000000
O O4 0.918999 0.048126 0.216107
O O5 0.276584 0.108920 0.110827
O O6 0.357259 0.736803 0.381266
O O7 0.370754 0.847833 0.052958
O O8 0.503586 0.977750 0.203301
O O9 0.280819 0.572008 0.675948
O O10 0.448548 0.376516 0.942055
O O11 0.366336 0.765188 0.812030
O O12 0.233426 0.498783 0.970331
O O13 0.241403 0.449471 0.466035
O O14 0.126616 0.811071 0.385964
O O15 0.948172 0.670096 0.539106
O O16 0.000000 0.000000 0.500000
O O17 0.790335 0.749544 0.694779
#
# Coordination Sequence:
#
# PCOD8008170 Si02
#       8
#     2   2   2   2   2   2   2   2
#     4  12  24  41  66  92 132 185 214 268 325 372
#     4  10  20  42  67  90 129 156 216 270 321 399
#     4  10  23  39  67  94 125 165 214 266 334 393
#     4  12  24  41  62  97 128 168 216 271 315 387
#     4   9  21  44  65  93 120 167 208 267 341 398
#     4  12  25  44  62  97 136 175 226 263 317 382
#     4  11  22  42  63  93 127 174 218 261 321 384
#     4  12  25  43  64  95 139 178 218 271 315 379
#
# _framework density 23.018274000000002
#
# number of rings (size 3 to 8) (size 9 to 14) (size 15 to 20)
#    0.000    1.000    3.750    2.250    3.500    1.000 
#    0.000    5.000    0.000    0.000    0.000    0.000 
#    0.000    0.000    0.000    0.000    0.000    0.000 
#
# Total GULP energy -198292.078090 kJ/mol
# GULP energy per Si atom -12393.254881 kJ/mol
# Density = 2.296588 g / cm^3
# Si number density = 23.018274 Si / 1000 Ang^3
#
#
#
# Elastic Constant Matrix: (Units=GPa)
#
#
# Indices 1 2 3 4 5 6 
#
# 1 64.6909 35.4385 48.6158 12.2881 -15.6447 26.5944
# 2 35.4385 119.3514 40.0688 30.1982 -5.4164 29.0698
# 3 48.6158 40.0688 139.1927 14.1068 -17.5345 17.0634
# 4 12.2881 30.1982 14.1068 42.8161 3.9098 4.3074
# 5 -15.6447 -5.4164 -17.5345 3.9098 43.3155 5.2421
# 6 26.5944 29.0698 17.0634 4.3074 5.2421 38.8648
#
#
#
# Elastic Compliance Matrix: (Units=1/GPa)
#
#
# Indices 1 2 3 4 5 6 
#
# 1 0.033409 -0.000580 -0.006853 -0.005985 0.012230 -0.020405
# 2 -0.000580 0.013223 -0.001437 -0.008087 0.002599 -0.008317
# 3 -0.006853 -0.001437 0.010066 -0.000581 0.001323 0.001231
# 4 -0.005985 -0.008087 -0.000581 0.030822 -0.007152 0.007948
# 5 0.012230 0.002599 0.001323 -0.007152 0.030734 -0.014246
# 6 -0.020405 -0.008317 0.001231 0.007948 -0.014246 0.046414
#
#
# Mechanical properties :
#
#
# Convention : Reuss Voigt Hill
#
# Bulk Modulus (GPa) = 25.66927 63.49792 44.58360
# Shear Modulus (GPa) = 25.58924 38.27341 31.93132
#
# Velocity S-wave (km/s) = 3.33782 4.08209 3.72858
# Velocity P-wave (km/s) = 5.10202 7.06143 6.16013
#
# Compressibility (1/GPa) = 0.03895709
#
# Stress axis : x y z
#
# Youngs Moduli (GPa) = 29.93214 75.62491 99.34084
#
# Poissons Ratio (x) = 0.04386 0.68081
# Poissons Ratio (y) = 0.01736 0.14280
# Poissons Ratio (z) = 0.20513 0.10871
#
# Static dielectric constant tensor:
#      x y z
#    x 4.301580 0.313780 -0.490560 
#    y 0.313780 4.649010 0.122890 
#    z -0.490560 0.122890 4.244030 
# 
# 
# High freq. dielectric constant tensor:
#      x y z
#    x 1.889510 0.017470 -0.027100 
#    y 0.017470 1.934250 0.015800 
#    z -0.027100 0.015800 1.906560 
# 
# From -- ./inp_files/241990.got.cif
#   From: 2010.06.25/outbox.cif.g09.slc.cpg/sg2_121_cif.got.tgz:241990.got - 2010.06.27 13:26:56.
