data_PCOD8008087
_publ_section_title
;
Structure prediction by ZEFSAII (Michael W. Deem and Ramdas Pophale) SiO2 
 PCOD8008087
Probable space group: P -1
;
_chemical_formula_sum "Si O2"
_cell_formula_units_Z 16
_cell_length_a 6.759288
_cell_length_b 24.764352
_cell_length_c 16.564053
_cell_angle_alpha 26.256473
_cell_angle_beta 49.297911
_cell_angle_gamma 67.466939
_cell_volume 743.087205
_symmetry_space_group_name_H-M "P -1"
_symmetry_group_IT_number 2
_symmetry_cell_setting 'triclinic'
loop_
_space_group_symop_operation_xyz
x,y,z
-x,-y,-z
loop_
_atom_site_type_symbol
_atom_site_label
_atom_site_fract_x
_atom_site_fract_y
_atom_site_fract_z
Si Si1 0.633630 0.231554 0.944390
Si Si2 0.771344 0.149385 0.179912
Si Si3 0.686469 0.672721 0.432401
Si Si4 0.621280 0.577517 0.277269
Si Si5 0.415298 0.835675 0.233583
Si Si6 0.797289 0.946174 0.837842
Si Si7 0.639862 0.448117 0.149460
Si Si8 0.805752 0.719582 0.642356
O O1 0.593468 0.365597 0.767528
O O2 0.962445 0.280304 0.747905
O O3 0.619787 0.196004 0.090534
O O4 0.322887 0.076384 0.192538
O O5 0.500000 0.000000 0.500000
O O6 0.995743 0.116776 0.116540
O O7 0.991599 0.285397 0.003330
O O8 0.418935 0.538866 0.622583
O O9 0.669187 0.815581 0.237662
O O10 0.591742 0.614495 0.627134
O O11 0.500000 0.500000 0.500000
O O12 0.058276 0.711278 0.531471
O O13 0.500000 0.000000 0.000000
O O14 0.460905 0.829945 0.133196
O O15 0.017977 0.120393 0.573880
O O16 0.474667 0.318753 0.295549
O O17 0.657023 0.592406 0.921390
O O18 0.000000 0.500000 0.000000
#
# Coordination Sequence:
#
# PCOD8008087 Si02
#       8
#     2   2   2   2   2   2   2   2
#     4  11  23  43  68  99 130 169 232 279 329 415
#     4  11  25  43  64 100 137 173 221 285 342 404
#     4  12  22  41  71  97 129 181 222 274 340 391
#     4  11  24  44  70 100 136 172 231 284 336 404
#     4  10  20  42  65  93 129 170 217 274 325 389
#     4  10  22  42  66  91 130 176 214 269 343 393
#     4  11  24  41  61  95 132 173 226 267 325 402
#     4  10  23  43  61  90 137 169 215 281 320 388
#
# _framework density 21.531791999999999
#
# number of rings (size 3 to 8) (size 9 to 14) (size 15 to 20)
#    0.000    1.250    3.750    1.875    0.000    6.000 
#    0.000    2.500    0.000    0.000    0.000    0.000 
#    0.000    0.000    0.000    0.000    0.000    0.000 
#
# Total GULP energy -198304.498727 kJ/mol
# GULP energy per Si atom -12394.031170 kJ/mol
# Density = 2.148278 g / cm^3
# Si number density = 21.531792 Si / 1000 Ang^3
#
#
#
# Elastic Constant Matrix: (Units=GPa)
#
#
# Indices 1 2 3 4 5 6 
#
# 1 142.0397 42.5253 43.9498 -6.6803 14.6987 12.0029
# 2 42.5253 79.0536 29.4692 -14.7718 10.6980 9.1368
# 3 43.9498 29.4692 103.8591 -5.9642 12.3303 12.6743
# 4 -6.6803 -14.7718 -5.9642 38.1077 9.1207 -3.1304
# 5 14.6987 10.6980 12.3303 9.1207 40.7327 -1.7584
# 6 12.0029 9.1368 12.6743 -3.1304 -1.7584 33.5423
#
#
#
# Elastic Compliance Matrix: (Units=1/GPa)
#
#
# Indices 1 2 3 4 5 6 
#
# 1 0.009190 -0.003598 -0.002482 0.000118 -0.001709 -0.001450
# 2 -0.003598 0.017497 -0.002297 0.006611 -0.004178 -0.002213
# 3 -0.002482 -0.002297 0.012054 0.000903 -0.002486 -0.003087
# 4 0.000118 0.006611 0.000903 0.031144 -0.009015 0.000250
# 5 -0.001709 -0.004178 -0.002486 -0.009015 0.029181 0.003377
# 6 -0.001450 -0.002213 -0.003087 0.000250 0.003377 0.032302
#
#
# Mechanical properties :
#
#
# Convention : Reuss Voigt Hill
#
# Bulk Modulus (GPa) = 45.47593 61.87123 53.67358
# Shear Modulus (GPa) = 32.16472 36.41041 34.28756
#
# Velocity S-wave (km/s) = 3.86920 4.11665 3.99484
# Velocity P-wave (km/s) = 6.41304 7.16889 6.80147
#
# Compressibility (1/GPa) = 0.02198966
#
# Stress axis : x y z
#
# Youngs Moduli (GPa) = 108.81192 57.15110 82.96104
#
# Poissons Ratio (x) = 0.20561 0.20587
# Poissons Ratio (y) = 0.39147 0.19053
# Poissons Ratio (z) = 0.27002 0.13126
#
# Static dielectric constant tensor:
#      x y z
#    x 4.346500 -0.168700 -0.362780 
#    y -0.168700 4.424940 0.411820 
#    z -0.362780 0.411820 4.409600 
# 
# 
# High freq. dielectric constant tensor:
#      x y z
#    x 1.853600 0.005700 0.002850 
#    y 0.005700 1.840800 0.002430 
#    z 0.002850 0.002430 1.849280 
# 
# From -- ./inp_files/485959.got.cif
#   From: 2010.06.25/outbox.cif.g09.slc.cpg/sg2_243_cif.got.tgz:485959.got - 2010.06.27 13:26:56.
