data_PCOD8008333
_publ_section_title
;
Structure prediction by ZEFSAII (Michael W. Deem and Ramdas Pophale) SiO2 
 PCOD8008333
Probable space group: P -1
;
_chemical_formula_sum "Si O2"
_cell_formula_units_Z 14
_cell_length_a 15.004581
_cell_length_b 14.654120
_cell_length_c 14.005715
_cell_angle_alpha 150.868444
_cell_angle_beta 150.569997
_cell_angle_gamma 30.305371
_cell_volume 665.486748
_symmetry_space_group_name_H-M "P -1"
_symmetry_group_IT_number 2
_symmetry_cell_setting 'triclinic'
loop_
_space_group_symop_operation_xyz
x,y,z
-x,-y,-z
loop_
_atom_site_type_symbol
_atom_site_label
_atom_site_fract_x
_atom_site_fract_y
_atom_site_fract_z
Si Si1 0.168523 0.786505 0.760978
Si Si2 0.917853 0.834681 0.296701
Si Si3 0.353270 0.854050 0.530317
Si Si4 0.962871 0.812138 0.112378
Si Si5 0.727379 0.948100 0.563984
Si Si6 0.786429 0.534479 0.639089
Si Si7 0.449815 0.736394 0.147775
O O1 0.240708 0.561901 0.574171
O O2 0.965470 0.832258 0.669730
O O3 0.136678 0.949632 0.795637
O O4 0.333206 0.795754 0.993548
O O5 0.866629 0.777027 0.090740
O O6 0.092075 0.638172 0.328169
O O7 0.726391 0.946864 0.290187
O O8 0.000000 0.000000 0.500000
O O9 0.566029 0.683185 0.609350
O O10 0.201405 0.743687 0.281812
O O11 0.380539 0.936432 0.527801
O O12 0.914347 0.668384 0.860557
O O13 0.649048 0.775608 0.360683
O O14 0.686289 0.118685 0.763229
O O15 0.500000 0.500000 0.000000
#
# Coordination Sequence:
#
# PCOD8008333 Si02
#       7
#     2   2   2   2   2   2   2
#     4  11  23  42  63  92 131 162 207 266 308 372
#     4  10  20  43  61  93 135 162 213 266 299 372
#     4  10  22  42  66  92 130 167 209 263 311 372
#     4  10  23  42  63  93 130 167 214 260 308 374
#     4  10  22  44  62  91 131 158 204 268 308 370
#     4  12  22  39  66  91 126 176 210 250 320 366
#     4  11  24  40  66  94 120 164 212 253 320 384
#
# _framework density 21.037234000000002
#
# number of rings (size 3 to 8) (size 9 to 14) (size 15 to 20)
#    0.000    1.429    4.286    2.571    0.000    8.000 
#    2.571    0.000    0.000    0.000    0.000    0.000 
#    0.000    0.000    0.000    0.000    0.000    0.000 
#
# Total GULP energy -173566.098983 kJ/mol
# GULP energy per Si atom -12397.578499 kJ/mol
# Density = 2.098935 g / cm^3
# Si number density = 21.037234 Si / 1000 Ang^3
#
#
#
# Elastic Constant Matrix: (Units=GPa)
#
#
# Indices 1 2 3 4 5 6 
#
# 1 93.8584 32.0234 36.6434 1.4468 -15.4797 0.2794
# 2 32.0234 124.1249 45.7429 -2.5516 2.6999 -13.3710
# 3 36.6434 45.7429 120.7262 13.5426 2.3589 -1.4832
# 4 1.4468 -2.5516 13.5426 31.8950 0.5155 1.6447
# 5 -15.4797 2.6999 2.3589 0.5155 27.5817 -0.9385
# 6 0.2794 -13.3710 -1.4832 1.6447 -0.9385 17.2328
#
#
#
# Elastic Compliance Matrix: (Units=1/GPa)
#
#
# Indices 1 2 3 4 5 6 
#
# 1 0.014429 -0.002831 -0.003573 0.000617 0.008590 -0.002329
# 2 -0.002831 0.010985 -0.003396 0.002073 -0.002142 0.007963
# 3 -0.003573 -0.003396 0.011224 -0.004766 -0.002588 -0.001297
# 4 0.000617 0.002073 -0.004766 0.033622 -0.000146 -0.002029
# 5 0.008590 -0.002142 -0.002588 -0.000146 0.041519 0.000251
# 6 -0.002329 0.007963 -0.001297 -0.002029 0.000251 0.064341
#
#
# Mechanical properties :
#
#
# Convention : Reuss Voigt Hill
#
# Bulk Modulus (GPa) = 58.68941 63.05876 60.87409
# Shear Modulus (GPa) = 24.82643 30.29521 27.56082
#
# Velocity S-wave (km/s) = 3.43901 3.79895 3.62345
# Velocity P-wave (km/s) = 6.61268 7.02016 6.81946
#
# Compressibility (1/GPa) = 0.01703885
#
# Stress axis : x y z
#
# Youngs Moduli (GPa) = 69.30374 91.03135 89.09829
#
# Poissons Ratio (x) = 0.25772 0.31831
# Poissons Ratio (y) = 0.19621 0.30256
# Poissons Ratio (z) = 0.24759 0.30913
#
# Static dielectric constant tensor:
#      x y z
#    x 4.671530 0.079140 -0.449210 
#    y 0.079140 3.819890 0.159040 
#    z -0.449210 0.159040 4.372750 
# 
# 
# High freq. dielectric constant tensor:
#      x y z
#    x 1.824370 0.002820 -0.012350 
#    y 0.002820 1.819080 0.005150 
#    z -0.012350 0.005150 1.833270 
# 
# From -- ./inp_files/534615.got.cif
#   From: 2010.06.25/outbox.cif.g09.slc.cpg/sg2_268_cif.got.tgz:534615.got - 2010.06.27 13:26:56.
