data_PCOD8008042
_publ_section_title
;
Structure prediction by ZEFSAII (Michael W. Deem and Ramdas Pophale) SiO2 
 PCOD8008042
Probable space group: P -1
;
_chemical_formula_sum "Si O2"
_cell_formula_units_Z 16
_cell_length_a 5.346346
_cell_length_b 9.566041
_cell_length_c 24.066668
_cell_angle_alpha 44.847542
_cell_angle_beta 128.434239
_cell_angle_gamma 134.763786
_cell_volume 597.626148
_symmetry_space_group_name_H-M "P -1"
_symmetry_group_IT_number 2
_symmetry_cell_setting 'triclinic'
loop_
_space_group_symop_operation_xyz
x,y,z
-x,-y,-z
loop_
_atom_site_type_symbol
_atom_site_label
_atom_site_fract_x
_atom_site_fract_y
_atom_site_fract_z
Si Si1 0.673077 0.783098 0.067731
Si Si2 0.814742 0.264706 0.073724
Si Si3 0.130076 0.996817 0.435798
Si Si4 0.659016 0.804186 0.323677
Si Si5 0.390822 0.459602 0.717720
Si Si6 0.914087 0.664403 0.590645
Si Si7 0.859385 0.033490 0.825137
Si Si8 0.985333 0.487561 0.863689
O O1 0.335077 0.682564 0.092303
O O2 0.043201 0.975809 0.093368
O O3 0.751613 0.594975 0.103752
O O4 0.550227 0.892570 0.968571
O O5 0.738485 0.303018 0.116981
O O6 0.071960 0.147732 0.148060
O O7 0.000000 0.500000 0.000000
O O8 0.018431 0.934377 0.373982
O O9 0.845226 0.800404 0.493229
O O10 0.500000 0.000000 0.500000
O O11 0.134351 0.232865 0.386017
O O12 0.731373 0.698495 0.308823
O O13 0.368459 0.599244 0.378833
O O14 0.532840 0.989120 0.236615
O O15 0.807434 0.556134 0.768217
O O16 0.312762 0.673490 0.639359
O O17 0.136811 0.296345 0.776794
#
# Coordination Sequence:
#
# PCOD8008042 Si02
#       8
#     2   2   2   2   2   2   2   2
#     4  10  20  42  64  92 132 177 229 287 348 417
#     4  10  22  41  63  96 131 180 230 296 353 418
#     4  11  25  44  69 108 135 178 232 285 349 428
#     4  11  23  45  70  96 139 186 228 287 355 423
#     4  10  22  42  63  97 130 180 223 289 345 420
#     4  10  24  44  70  98 140 179 228 285 350 418
#     4  10  22  42  62  96 129 180 233 284 355 423
#     4  10  21  40  64  95 134 173 231 284 350 414
#
# _framework density 26.772593000000001
#
# number of rings (size 3 to 8) (size 9 to 14) (size 15 to 20)
#    0.000    1.750    1.250    1.875    1.750    6.000 
#   11.250    3.750    0.000    0.000    0.000    0.000 
#    0.000    0.000    0.000    0.000    0.000    0.000 
#
# Total GULP energy -198291.442709 kJ/mol
# GULP energy per Si atom -12393.215169 kJ/mol
# Density = 2.671166 g / cm^3
# Si number density = 26.772593 Si / 1000 Ang^3
#
#
#
# Elastic Constant Matrix: (Units=GPa)
#
#
# Indices 1 2 3 4 5 6 
#
# 1 71.7017 26.5979 38.6884 8.8111 28.4297 -34.2850
# 2 26.5979 124.8807 70.3847 37.3797 22.5453 -33.4705
# 3 38.6884 70.3847 128.3486 16.4788 34.8423 -9.3413
# 4 8.8111 37.3797 16.4788 71.2291 -4.0548 3.5662
# 5 28.4297 22.5453 34.8423 -4.0548 51.0278 -12.6818
# 6 -34.2850 -33.4705 -9.3413 3.5662 -12.6818 48.5743
#
#
#
# Elastic Compliance Matrix: (Units=1/GPa)
#
#
# Indices 1 2 3 4 5 6 
#
# 1 0.033464 0.010084 -0.009616 -0.009145 -0.010647 0.026611
# 2 0.010084 0.021110 -0.010809 -0.011004 -0.003605 0.019451
# 3 -0.009616 -0.010809 0.016298 0.003494 -0.003786 -0.012346
# 4 -0.009145 -0.011004 0.003494 0.021144 0.005929 -0.013370
# 5 -0.010647 -0.003605 -0.003786 0.005929 0.029305 -0.003511
# 6 0.026611 0.019451 -0.012346 -0.013370 -0.003511 0.050463
#
#
# Mechanical properties :
#
#
# Convention : Reuss Voigt Hill
#
# Bulk Modulus (GPa) = 19.92429 66.25257 43.08843
# Shear Modulus (GPa) = 23.90107 46.78356 35.34232
#
# Velocity S-wave (km/s) = 2.99112 4.18478 3.63725
# Velocity P-wave (km/s) = 4.40310 6.93902 5.81108
#
# Compressibility (1/GPa) = 0.05018999
#
# Stress axis : x y z
#
# Youngs Moduli (GPa) = 29.88291 47.37130 61.35749
#
# Poissons Ratio (x) = -0.47769 0.59000
# Poissons Ratio (y) = -0.30134 0.66321
# Poissons Ratio (z) = 0.28735 0.51203
#
# Static dielectric constant tensor:
#      x y z
#    x 4.723820 0.077240 -0.079680 
#    y 0.077240 5.090440 0.538630 
#    z -0.079680 0.538630 5.827620 
# 
# 
# High freq. dielectric constant tensor:
#      x y z
#    x 2.075600 -0.003090 -0.006780 
#    y -0.003090 2.071940 0.000720 
#    z -0.006780 0.000720 2.092540 
# 
# From -- ./inp_files/45021.got.cif
#   From: 2010.06.25/outbox.cif.g09.slc.cpg/sg2_23_cif.got.tgz:45021.got - 2010.06.27 13:26:56.
