data_PCOD8008902
_publ_section_title
;
Structure prediction by ZEFSAII (Michael W. Deem and Ramdas Pophale) SiO2 
 PCOD8008902
Probable space group: P -1
;
_chemical_formula_sum "Si O2"
_cell_formula_units_Z 14
_cell_length_a 10.862645
_cell_length_b 13.802034
_cell_length_c 11.934517
_cell_angle_alpha 64.444755
_cell_angle_beta 123.442600
_cell_angle_gamma 66.561761
_cell_volume 722.092326
_symmetry_space_group_name_H-M "P -1"
_symmetry_group_IT_number 2
_symmetry_cell_setting 'triclinic'
loop_
_space_group_symop_operation_xyz
x,y,z
-x,-y,-z
loop_
_atom_site_type_symbol
_atom_site_label
_atom_site_fract_x
_atom_site_fract_y
_atom_site_fract_z
Si Si1 0.416804 0.523100 0.259232
Si Si2 0.857623 0.496326 0.001879
Si Si3 0.382302 0.243178 0.055622
Si Si4 0.306838 0.469584 0.739277
Si Si5 0.736802 0.235921 0.750236
Si Si6 0.187639 0.210907 0.514735
Si Si7 0.773151 0.582011 0.509722
O O1 0.487393 0.560992 0.174657
O O2 0.698120 0.316075 0.569515
O O3 0.218458 0.703666 0.159893
O O4 0.264298 0.514740 0.138631
O O5 0.610346 0.702025 0.847415
O O6 0.078755 0.302757 0.289796
O O7 0.000000 0.500000 0.000000
O O8 0.462503 0.282451 0.982817
O O9 0.071882 0.389123 0.813190
O O10 0.592249 0.017569 0.268136
O O11 0.190209 0.481637 0.565882
O O12 0.061658 0.672305 0.587891
O O13 0.453173 0.346765 0.573500
O O14 0.000000 0.000000 0.000000
O O15 0.323203 0.234283 0.625694
#
# Coordination Sequence:
#
# PCOD8008902 Si02
#       7
#     2   2   2   2   2   2   2
#     4  10  21  39  58  79 116 149 175 230 282 318
#     4  10  22  40  57  79 110 145 186 228 275 327
#     4  10  21  36  56  84 112 144 189 226 264 327
#     4   9  20  36  54  82 114 147 183 224 277 326
#     4  10  22  37  58  87 110 141 187 226 273 333
#     4  10  21  35  58  84 109 147 186 226 270 322
#     4   9  19  36  56  83 116 144 180 229 275 322
#
# _framework density 19.388103999999998
#
# number of rings (size 3 to 8) (size 9 to 14) (size 15 to 20)
#    0.000    2.571    0.000    3.429    0.000   13.143 
#    0.000    1.429    0.000    0.000    0.000    0.000 
#    0.000    0.000    0.000    0.000    0.000    0.000 
#
# Total GULP energy -173548.825610 kJ/mol
# GULP energy per Si atom -12396.344686 kJ/mol
# Density = 1.934398 g / cm^3
# Si number density = 19.388104 Si / 1000 Ang^3
#
#
#
# Elastic Constant Matrix: (Units=GPa)
#
#
# Indices 1 2 3 4 5 6 
#
# 1 115.0306 58.6148 49.4657 4.3900 -11.2116 3.3803
# 2 58.6148 159.7399 82.6315 -9.5151 -2.5022 13.8114
# 3 49.4657 82.6315 102.4785 -29.2440 -12.5896 -1.6652
# 4 4.3900 -9.5151 -29.2440 49.7512 6.7125 -1.4024
# 5 -11.2116 -2.5022 -12.5896 6.7125 20.5348 7.0819
# 6 3.3803 13.8114 -1.6652 -1.4024 7.0819 27.5082
#
#
#
# Elastic Compliance Matrix: (Units=1/GPa)
#
#
# Indices 1 2 3 4 5 6 
#
# 1 0.013004 -0.001768 -0.005791 -0.005818 0.006260 -0.002969
# 2 -0.001768 0.012923 -0.011060 -0.003683 -0.002754 -0.006419
# 3 -0.005791 -0.011060 0.025922 0.013229 0.004526 0.007343
# 4 -0.005818 -0.003683 0.013229 0.028853 -0.007259 0.006705
# 5 0.006260 -0.002754 0.004526 -0.007259 0.062279 -0.015516
# 6 -0.002969 -0.006419 0.007343 0.006705 -0.015516 0.044722
#
#
# Mechanical properties :
#
#
# Convention : Reuss Voigt Hill
#
# Bulk Modulus (GPa) = 68.44289 84.29702 76.36996
# Shear Modulus (GPa) = 21.75709 31.99464 26.87586
#
# Velocity S-wave (km/s) = 3.35354 4.06670 3.72721
# Velocity P-wave (km/s) = 7.09740 8.10085 7.61567
#
# Compressibility (1/GPa) = 0.01461072
#
# Stress axis : x y z
#
# Youngs Moduli (GPa) = 76.90127 77.38281 38.57724
#
# Poissons Ratio (x) = 0.13680 0.22339
# Poissons Ratio (y) = 0.13595 0.42668
# Poissons Ratio (z) = 0.44531 0.85588
#
# Static dielectric constant tensor:
#      x y z
#    x 3.663610 -0.017770 -0.215590 
#    y -0.017770 3.773590 0.091810 
#    z -0.215590 0.091810 3.269740 
# 
# 
# High freq. dielectric constant tensor:
#      x y z
#    x 1.763270 0.001190 -0.018730 
#    y 0.001190 1.769900 0.005980 
#    z -0.018730 0.005980 1.728680 
# 
# From -- ./inp_files/421188.got.cif
#   From: 2010.06.25/outbox.cif.g09.slc.cpg/sg2_211_cif.got.tgz:421188.got - 2010.06.27 13:26:56.
