data_PCOD8008164
_publ_section_title
;
Structure prediction by ZEFSAII (Michael W. Deem and Ramdas Pophale) SiO2 
 PCOD8008164
Probable space group: P -1
;
_chemical_formula_sum "Si O2"
_cell_formula_units_Z 14
_cell_length_a 6.977062
_cell_length_b 15.187909
_cell_length_c 8.389682
_cell_angle_alpha 82.604084
_cell_angle_beta 118.181629
_cell_angle_gamma 122.290843
_cell_volume 653.274787
_symmetry_space_group_name_H-M "P -1"
_symmetry_group_IT_number 2
_symmetry_cell_setting 'triclinic'
loop_
_space_group_symop_operation_xyz
x,y,z
-x,-y,-z
loop_
_atom_site_type_symbol
_atom_site_label
_atom_site_fract_x
_atom_site_fract_y
_atom_site_fract_z
Si Si1 0.883041 0.093842 0.198023
Si Si2 0.840009 0.340541 0.063053
Si Si3 0.279020 0.501216 0.007517
Si Si4 0.529620 0.784484 0.527379
Si Si5 0.458394 0.396867 0.593979
Si Si6 0.099347 0.756241 0.597269
Si Si7 0.528013 0.133686 0.840941
O O1 0.825732 0.128233 0.340135
O O2 0.190087 0.146112 0.294353
O O3 0.740422 0.967363 0.180040
O O4 0.768506 0.122504 0.992415
O O5 0.974756 0.307845 0.251092
O O6 0.030999 0.385019 0.972144
O O7 0.798311 0.423754 0.125256
O O8 0.569518 0.237446 0.921324
O O9 0.352881 0.559112 0.193623
O O10 0.500000 0.500000 0.000000
O O11 0.472670 0.671112 0.476653
O O12 0.327591 0.761847 0.590712
O O13 0.489413 0.849663 0.358504
O O14 0.500000 0.500000 0.500000
O O15 0.175645 0.315056 0.582143
#
# Coordination Sequence:
#
# PCOD8008164 Si02
#       7
#     2   2   2   2   2   2   2
#     4   9  22  43  63  91 126 160 201 264 302 360
#     4  10  22  41  56  89 124 154 204 255 300 364
#     4  11  24  38  61  86 117 163 202 251 304 362
#     4  11  23  41  65  91 125 166 201 253 311 364
#     4  11  23  41  59  89 124 161 204 252 305 361
#     4  10  23  39  62  90 123 159 205 251 305 369
#     4  10  20  42  67  87 125 163 205 255 308 361
#
# _framework density 21.430491
#
# number of rings (size 3 to 8) (size 9 to 14) (size 15 to 20)
#    0.000    1.714    2.857    0.429    4.000    1.143 
#    0.000    7.857    0.000    0.000    0.000    0.000 
#    0.000    0.000    0.000    0.000    0.000    0.000 
#
# Total GULP energy -173435.978621 kJ/mol
# GULP energy per Si atom -12388.284187 kJ/mol
# Density = 2.138171 g / cm^3
# Si number density = 21.430491 Si / 1000 Ang^3
#
#
#
# Elastic Constant Matrix: (Units=GPa)
#
#
# Indices 1 2 3 4 5 6 
#
# 1 150.9237 43.8967 6.8328 10.1544 -2.9046 8.6250
# 2 43.8967 134.6622 23.5114 10.5195 -1.4963 1.1766
# 3 6.8328 23.5114 64.8302 3.5005 15.7938 7.7594
# 4 10.1544 10.5195 3.5005 34.7542 1.1319 4.0880
# 5 -2.9046 -1.4963 15.7938 1.1319 23.3627 1.8826
# 6 8.6250 1.1766 7.7594 4.0880 1.8826 16.0454
#
#
#
# Elastic Compliance Matrix: (Units=1/GPa)
#
#
# Indices 1 2 3 4 5 6 
#
# 1 0.007630 -0.002424 0.000385 -0.001101 0.000903 -0.003935
# 2 -0.002424 0.009072 -0.003938 -0.002055 0.002821 0.002735
# 3 0.000385 -0.003938 0.021202 0.000413 -0.013860 -0.008650
# 4 -0.001101 -0.002055 0.000413 0.030555 -0.001458 -0.007071
# 5 0.000903 0.002821 -0.013860 -0.001458 0.052519 0.000220
# 6 -0.003935 0.002735 -0.008650 -0.007071 0.000220 0.070197
#
#
# Mechanical properties :
#
#
# Convention : Reuss Voigt Hill
#
# Bulk Modulus (GPa) = 38.53536 55.43311 46.98423
# Shear Modulus (GPa) = 23.60964 33.24416 28.42690
#
# Velocity S-wave (km/s) = 3.32276 3.94287 3.64602
# Velocity P-wave (km/s) = 5.72203 6.83015 6.30050
#
# Compressibility (1/GPa) = 0.02595019
#
# Stress axis : x y z
#
# Youngs Moduli (GPa) = 131.06503 110.23317 47.16487
#
# Poissons Ratio (x) = 0.26720 -0.01818
# Poissons Ratio (y) = 0.31770 0.18574
# Poissons Ratio (z) = -0.05051 0.43411
#
# Static dielectric constant tensor:
#      x y z
#    x 3.410910 -0.111270 0.269070 
#    y -0.111270 4.363140 0.041070 
#    z 0.269070 0.041070 4.148330 
# 
# 
# High freq. dielectric constant tensor:
#      x y z
#    x 1.808730 -0.004980 0.027310 
#    y -0.004980 1.861870 0.008230 
#    z 0.027310 0.008230 1.845050 
# 
# From -- ./inp_files/36996.got.cif
#   From: 2010.06.25/outbox.cif.g09.slc.cpg/sg2_19_cif.got.tgz:36996.got - 2010.06.27 13:26:56.
