data_PCOD8008398
_publ_section_title
;
Structure prediction by ZEFSAII (Michael W. Deem and Ramdas Pophale) SiO2 
 PCOD8008398
Probable space group: P -1
;
_chemical_formula_sum "Si O2"
_cell_formula_units_Z 16
_cell_length_a 15.217542
_cell_length_b 15.600203
_cell_length_c 8.679078
_cell_angle_alpha 113.677552
_cell_angle_beta 120.696658
_cell_angle_gamma 26.346892
_cell_volume 777.809726
_symmetry_space_group_name_H-M "P -1"
_symmetry_group_IT_number 2
_symmetry_cell_setting 'triclinic'
loop_
_space_group_symop_operation_xyz
x,y,z
-x,-y,-z
loop_
_atom_site_type_symbol
_atom_site_label
_atom_site_fract_x
_atom_site_fract_y
_atom_site_fract_z
Si Si1 0.945473 0.001403 0.788858
Si Si2 0.687669 0.083464 0.808563
Si Si3 0.009406 0.522708 0.850477
Si Si4 0.591063 0.348635 0.080231
Si Si5 0.318342 0.619510 0.305765
Si Si6 0.963725 0.758519 0.079846
Si Si7 0.454744 0.124231 0.445232
Si Si8 0.694991 0.876011 0.186136
O O1 0.840584 0.986008 0.728095
O O2 0.783171 0.199639 0.699502
O O3 0.170411 0.813833 0.763910
O O4 0.000000 0.000000 0.000000
O O5 0.496090 0.179399 0.631661
O O6 0.809468 0.931848 0.944100
O O7 0.583623 0.258231 0.916023
O O8 0.064662 0.589233 0.953451
O O9 0.788729 0.680001 0.681994
O O10 0.186726 0.313149 0.780245
O O11 0.000000 0.500000 0.000000
O O12 0.431679 0.469533 0.165897
O O13 0.500000 0.500000 0.000000
O O14 0.500000 0.500000 0.500000
O O15 0.137386 0.692441 0.253074
O O16 0.841336 0.823973 0.171636
O O17 0.500000 0.000000 0.500000
O O18 0.611133 0.000810 0.348059
O O19 0.500000 0.000000 0.000000
#
# Coordination Sequence:
#
# PCOD8008398 Si02
#       8
#     2   2   2   2   2   2   2   2
#     4  10  20  43  66  93 137 172 227 279 333 401
#     4  11  22  43  72  98 137 185 230 280 340 404
#     4  10  22  44  68  96 142 176 221 275 340 408
#     4  11  21  45  71  90 134 187 220 280 351 389
#     4  12  26  43  68 104 135 173 236 291 332 413
#     4  11  22  45  68  99 137 185 224 278 353 407
#     4  12  24  44  69 105 137 172 236 285 324 421
#     4  11  23  45  70  97 141 184 217 282 352 398
#
# _framework density 20.570582999999999
#
# number of rings (size 3 to 8) (size 9 to 14) (size 15 to 20)
#    0.000    1.000    8.750    0.000    0.000    6.000 
#    6.750    0.000    0.000    0.000    0.000    0.000 
#    0.000    0.000    0.000    0.000    0.000    0.000 
#
# Total GULP energy -198275.128412 kJ/mol
# GULP energy per Si atom -12392.195526 kJ/mol
# Density = 2.052376 g / cm^3
# Si number density = 20.570583 Si / 1000 Ang^3
#
#
#
# Elastic Constant Matrix: (Units=GPa)
#
#
# Indices 1 2 3 4 5 6 
#
# 1 111.5388 34.3203 47.7407 -7.2898 2.8675 7.8643
# 2 34.3203 130.0273 49.8508 -16.2193 -4.9722 16.5366
# 3 47.7407 49.8508 130.0003 -22.4639 19.4143 10.1762
# 4 -7.2898 -16.2193 -22.4639 42.3803 -2.5975 -1.7319
# 5 2.8675 -4.9722 19.4143 -2.5975 30.2618 2.3663
# 6 7.8643 16.5366 10.1762 -1.7319 2.3663 40.6053
#
#
#
# Elastic Compliance Matrix: (Units=1/GPa)
#
#
# Indices 1 2 3 4 5 6 
#
# 1 0.010966 -0.001418 -0.003692 -0.000575 0.001102 -0.000710
# 2 -0.001418 0.010219 -0.003474 0.001969 0.004461 -0.003192
# 3 -0.003692 -0.003474 0.012256 0.004046 -0.007711 -0.000320
# 4 -0.000575 0.001969 0.004046 0.026377 0.000092 -0.000585
# 5 0.001102 0.004461 -0.007711 0.000092 0.038813 -0.002356
# 6 -0.000710 -0.003192 -0.000320 -0.000585 -0.002356 0.026257
#
#
# Mechanical properties :
#
#
# Convention : Reuss Voigt Hill
#
# Bulk Modulus (GPa) = 61.45044 70.59892 66.02468
# Shear Modulus (GPa) = 33.90280 38.62643 36.26462
#
# Velocity S-wave (km/s) = 4.06411 4.33800 4.20329
# Velocity P-wave (km/s) = 7.20836 7.71271 7.46480
#
# Compressibility (1/GPa) = 0.01627328
#
# Stress axis : x y z
#
# Youngs Moduli (GPa) = 91.18957 97.85644 81.59313
#
# Poissons Ratio (x) = 0.13880 0.30121
# Poissons Ratio (y) = 0.12935 0.28344
# Poissons Ratio (z) = 0.33664 0.33994
#
# Static dielectric constant tensor:
#      x y z
#    x 4.989750 0.036480 0.536220 
#    y 0.036480 4.520060 -0.010200 
#    z 0.536220 -0.010200 2.829550 
# 
# 
# High freq. dielectric constant tensor:
#      x y z
#    x 1.811270 0.006320 0.003220 
#    y 0.006320 1.813740 -0.010800 
#    z 0.003220 -0.010800 1.797270 
# 
# From -- ./inp_files/315674.got.cif
#   From: 2010.06.25/outbox.cif.g09.slc.cpg/sg2_158_cif.got.tgz:315674.got - 2010.06.27 13:26:56.
