data_PCOD8008859
_publ_section_title
;
Structure prediction by ZEFSAII (Michael W. Deem and Ramdas Pophale) SiO2 
 PCOD8008859
Probable space group: P -1
;
_chemical_formula_sum "Si O2"
_cell_formula_units_Z 16
_cell_length_a 11.752117
_cell_length_b 28.012761
_cell_length_c 28.077691
_cell_angle_alpha 10.582550
_cell_angle_beta 26.325701
_cell_angle_gamma 26.419324
_cell_volume 740.770702
_symmetry_space_group_name_H-M "P -1"
_symmetry_group_IT_number 2
_symmetry_cell_setting 'triclinic'
loop_
_space_group_symop_operation_xyz
x,y,z
-x,-y,-z
loop_
_atom_site_type_symbol
_atom_site_label
_atom_site_fract_x
_atom_site_fract_y
_atom_site_fract_z
Si Si1 0.757279 0.996266 0.377317
Si Si2 0.212494 0.548059 0.153887
Si Si3 0.077105 0.369711 0.547981
Si Si4 0.534860 0.482659 0.811722
Si Si5 0.494615 0.622719 0.256527
Si Si6 0.403021 0.971106 0.326857
Si Si7 0.746071 0.043022 0.703410
Si Si8 0.357168 0.286087 0.786363
O O1 0.989211 0.003343 0.320614
O O2 0.500000 0.000000 0.500000
O O3 0.815051 0.734751 0.580090
O O4 0.712350 0.256874 0.105858
O O5 0.421567 0.513851 0.151378
O O6 0.941008 0.674840 0.156711
O O7 0.813497 0.296821 0.696158
O O8 0.000000 0.500000 0.500000
O O9 0.196042 0.557205 0.281513
O O10 0.299569 0.109625 0.726473
O O11 0.355158 0.761911 0.590654
O O12 0.370084 0.256529 0.083203
O O13 0.654867 0.682962 0.183069
O O14 0.563212 0.316568 0.517614
O O15 0.585004 0.804557 0.003606
O O16 0.198432 0.961355 0.369925
O O17 0.500000 0.500000 0.500000
O O18 0.500000 0.000000 0.000000
#
# Coordination Sequence:
#
# PCOD8008859 Si02
#       8
#     2   2   2   2   2   2   2   2
#     4  12  26  47  75  97 120 168 228 294 354 385
#     4  12  24  46  66  97 138 169 220 278 331 405
#     4  10  21  35  55  90 126 179 224 247 290 381
#     4  10  23  38  60  91 130 178 207 255 318 382
#     4  12  23  35  57  85 130 169 213 262 303 374
#     4  10  22  37  59  88 126 177 214 257 309 375
#     4  12  22  42  61  91 124 162 214 279 331 373
#     4  12  24  37  57  91 133 183 208 246 316 394
#
# _framework density 21.599125999999998
#
# number of rings (size 3 to 8) (size 9 to 14) (size 15 to 20)
#    0.750    0.000    3.750    4.875    3.500    1.000 
#    0.000    0.000    0.000    4.500    0.000    0.000 
#    0.000    0.000    0.000    0.000    0.000    0.000 
#
# Total GULP energy -198366.242203 kJ/mol
# GULP energy per Si atom -12397.890138 kJ/mol
# Density = 2.154997 g / cm^3
# Si number density = 21.599126 Si / 1000 Ang^3
#
#
#
# Elastic Constant Matrix: (Units=GPa)
#
#
# Indices 1 2 3 4 5 6 
#
# 1 164.8026 4.4363 52.4540 -2.8046 9.5193 14.4673
# 2 4.4363 39.1369 18.7466 5.2694 1.8930 2.5342
# 3 52.4540 18.7466 136.8845 -2.1777 11.9971 0.3583
# 4 -2.8046 5.2694 -2.1777 25.2583 7.6809 1.1504
# 5 9.5193 1.8930 11.9971 7.6809 35.3100 0.5500
# 6 14.4673 2.5342 0.3583 1.1504 0.5500 12.7441
#
#
#
# Elastic Compliance Matrix: (Units=1/GPa)
#
#
# Indices 1 2 3 4 5 6 
#
# 1 0.007895 0.001039 -0.003013 0.001206 -0.001281 -0.009139
# 2 0.001039 0.028809 -0.004534 -0.006365 0.001198 -0.006258
# 3 -0.003013 -0.004534 0.009332 0.002031 -0.002619 0.003989
# 4 0.001206 -0.006365 0.002031 0.044531 -0.010302 -0.003735
# 5 -0.001281 0.001198 -0.002619 -0.010302 0.031719 0.000850
# 6 -0.009139 -0.006258 0.003989 -0.003735 0.000850 0.090275
#
#
# Mechanical properties :
#
#
# Convention : Reuss Voigt Hill
#
# Bulk Modulus (GPa) = 30.28152 54.67753 42.47952
# Shear Modulus (GPa) = 21.13419 32.34163 26.73791
#
# Velocity S-wave (km/s) = 3.13145 3.87377 3.52222
# Velocity P-wave (km/s) = 5.20815 6.73630 6.02091
#
# Compressibility (1/GPa) = 0.03302344
#
# Stress axis : x y z
#
# Youngs Moduli (GPa) = 126.65499 34.71084 107.15630
#
# Poissons Ratio (x) = -0.03608 0.32281
# Poissons Ratio (y) = -0.13164 0.48581
# Poissons Ratio (z) = 0.38155 0.15737
#
# Static dielectric constant tensor:
#      x y z
#    x 4.239450 0.044370 0.068060 
#    y 0.044370 3.577490 -0.102020 
#    z 0.068060 -0.102020 3.965410 
# 
# 
# High freq. dielectric constant tensor:
#      x y z
#    x 1.864460 0.003010 0.004590 
#    y 0.003010 1.811970 -0.004390 
#    z 0.004590 -0.004390 1.859790 
# 
# From -- ./inp_files/618850.got.cif
#   From: 2010.06.25/outbox.cif.g09.slc.cpg/sg2_310_cif.got.tgz:618850.got - 2010.06.27 13:26:56.
