data_PCOD8008485
_publ_section_title
;
Structure prediction by ZEFSAII (Michael W. Deem and Ramdas Pophale) SiO2 
 PCOD8008485
Probable space group: P -1
;
_chemical_formula_sum "Si O2"
_cell_formula_units_Z 16
_cell_length_a 13.150997
_cell_length_b 12.125929
_cell_length_c 13.661269
_cell_angle_alpha 129.922956
_cell_angle_beta 142.879002
_cell_angle_gamma 79.236364
_cell_volume 717.975392
_symmetry_space_group_name_H-M "P -1"
_symmetry_group_IT_number 2
_symmetry_cell_setting 'triclinic'
loop_
_space_group_symop_operation_xyz
x,y,z
-x,-y,-z
loop_
_atom_site_type_symbol
_atom_site_label
_atom_site_fract_x
_atom_site_fract_y
_atom_site_fract_z
Si Si1 0.849399 0.264986 0.740707
Si Si2 0.829066 0.780280 0.140217
Si Si3 0.893066 0.822159 0.634281
Si Si4 0.096398 0.233981 0.597670
Si Si5 0.684491 0.062465 0.877322
Si Si6 0.086506 0.858710 0.097586
Si Si7 0.995235 0.504256 0.382286
Si Si8 0.679456 0.528719 0.470815
O O1 0.797264 0.188771 0.768971
O O2 0.980640 0.220346 0.753495
O O3 0.589447 0.129099 0.414863
O O4 0.000000 0.500000 0.000000
O O5 0.757189 0.693914 0.148156
O O6 0.901535 0.990623 0.313187
O O7 0.597500 0.635983 0.812251
O O8 0.720743 0.677378 0.506907
O O9 0.767317 0.709809 0.369194
O O10 0.942108 0.019404 0.788043
O O11 0.148071 0.894101 0.881247
O O12 0.994031 0.333647 0.567381
O O13 0.752897 0.018337 0.804906
O O14 0.756815 0.273775 0.034864
O O15 0.821833 0.649911 0.747542
O O16 0.231109 0.568468 0.560153
O O17 0.000000 0.500000 0.500000
#
# Coordination Sequence:
#
# PCOD8008485 Si02
#       8
#     2   2   2   2   2   2   2   2
#     4  12  28  43  61  97 138 173 214 266 335 396
#     4  11  28  44  60  97 143 177 215 256 338 403
#     4  10  20  43  70  96 123 167 227 274 321 380
#     4  11  23  47  63  96 136 177 217 266 324 394
#     4  10  23  42  70  98 125 167 220 277 328 381
#     4  10  22  44  69  94 126 166 228 273 329 380
#     4  10  20  43  71 100 122 166 234 273 318 373
#     4  10  23  41  69 100 124 171 219 276 330 387
#
# _framework density 22.284884999999999
#
# number of rings (size 3 to 8) (size 9 to 14) (size 15 to 20)
#    0.000    1.750    3.750    1.875    7.000    5.500 
#    0.000    0.000    0.000    0.000    0.000    0.000 
#    0.000    0.000    0.000    0.000    0.000    0.000 
#
# Total GULP energy -198246.659310 kJ/mol
# GULP energy per Si atom -12390.416207 kJ/mol
# Density = 2.223416 g / cm^3
# Si number density = 22.284885 Si / 1000 Ang^3
#
#
#
# Elastic Constant Matrix: (Units=GPa)
#
#
# Indices 1 2 3 4 5 6 
#
# 1 70.0400 13.2285 20.1208 3.4228 -11.0146 -17.3302
# 2 13.2285 125.7863 12.3306 14.4629 -3.2979 -15.2205
# 3 20.1208 12.3306 97.3426 12.5296 17.1507 -18.9478
# 4 3.4228 14.4629 12.5296 18.6227 3.6712 -10.4183
# 5 -11.0146 -3.2979 17.1507 3.6712 37.2195 -5.3031
# 6 -17.3302 -15.2205 -18.9478 -10.4183 -5.3031 35.1302
#
#
#
# Elastic Compliance Matrix: (Units=1/GPa)
#
#
# Indices 1 2 3 4 5 6 
#
# 1 0.018951 -0.000642 -0.003932 0.003126 0.008357 0.009138
# 2 -0.000642 0.008997 -0.000123 -0.005986 0.001535 0.001971
# 3 -0.003932 -0.000123 0.013463 -0.005473 -0.006458 0.002671
# 4 0.003126 -0.005986 -0.005473 0.071224 -0.001706 0.016861
# 5 0.008357 0.001535 -0.006458 -0.001706 0.033454 0.005849
# 6 0.009138 0.001971 0.002671 0.016861 0.005849 0.041151
#
#
# Mechanical properties :
#
#
# Convention : Reuss Voigt Hill
#
# Bulk Modulus (GPa) = 31.23352 42.72540 36.97946
# Shear Modulus (GPa) = 24.11885 34.69375 29.40630
#
# Velocity S-wave (km/s) = 3.29340 3.94995 3.63652
# Velocity P-wave (km/s) = 5.33928 6.32588 5.85341
#
# Compressibility (1/GPa) = 0.03201689
#
# Stress axis : x y z
#
# Youngs Moduli (GPa) = 52.76782 111.15258 74.27523
#
# Poissons Ratio (x) = 0.07137 0.29203
# Poissons Ratio (y) = 0.03388 0.00915
# Poissons Ratio (z) = 0.20747 0.01369
#
# Static dielectric constant tensor:
#      x y z
#    x 3.946720 -0.018170 -0.337460 
#    y -0.018170 4.226440 0.025360 
#    z -0.337460 0.025360 4.117340 
# 
# 
# High freq. dielectric constant tensor:
#      x y z
#    x 1.871190 -0.003030 -0.026520 
#    y -0.003030 1.887100 0.002620 
#    z -0.026520 0.002620 1.863100 
# 
# From -- ./inp_files/532689.got.cif
#   From: 2010.06.25/outbox.cif.g09.slc.cpg/sg2_267_cif.got.tgz:532689.got - 2010.06.27 13:26:56.
