data_PCOD8008867
_publ_section_title
;
Structure prediction by ZEFSAII (Michael W. Deem and Ramdas Pophale) SiO2 
 PCOD8008867
Probable space group: P -1
;
_chemical_formula_sum "Si O2"
_cell_formula_units_Z 16
_cell_length_a 12.184409
_cell_length_b 17.405178
_cell_length_c 7.969761
_cell_angle_alpha 97.204281
_cell_angle_beta 60.385306
_cell_angle_gamma 146.106939
_cell_volume 663.105459
_symmetry_space_group_name_H-M "P -1"
_symmetry_group_IT_number 2
_symmetry_cell_setting 'triclinic'
loop_
_space_group_symop_operation_xyz
x,y,z
-x,-y,-z
loop_
_atom_site_type_symbol
_atom_site_label
_atom_site_fract_x
_atom_site_fract_y
_atom_site_fract_z
Si Si1 0.942807 0.266247 0.283083
Si Si2 0.809713 0.378379 0.769300
Si Si3 0.043387 0.182378 0.383974
Si Si4 0.423425 0.024017 0.774185
Si Si5 0.687918 0.323395 0.300802
Si Si6 0.429600 0.623838 0.876204
Si Si7 0.809419 0.965366 0.186553
Si Si8 0.470180 0.894935 0.883722
O O1 0.729843 0.095277 0.302797
O O2 0.118883 0.309141 0.292048
O O3 0.149251 0.420929 0.043810
O O4 0.745420 0.217150 0.525824
O O5 0.576050 0.318031 0.945883
O O6 0.000000 0.500000 0.500000
O O7 0.992215 0.487896 0.833538
O O8 0.654551 0.208030 0.869139
O O9 0.307762 0.288753 0.301197
O O10 0.953292 0.079449 0.271526
O O11 0.798732 0.057906 0.672606
O O12 0.400981 0.950113 0.927775
O O13 0.249967 0.009685 0.921392
O O14 0.503939 0.229598 0.581648
O O15 0.664129 0.225743 0.203433
O O16 0.566465 0.327017 0.284461
O O17 0.000000 0.000000 0.000000
#
# Coordination Sequence:
#
# PCOD8008867 Si02
#       8
#     2   2   2   2   2   2   2   2
#     4   9  16  31  58  88 112 141 199 248 277 329
#     4  11  23  35  56  88 118 152 185 240 293 345
#     4   9  20  34  58  90 109 156 195 238 291 329
#     4   9  16  32  60  84 108 153 195 238 283 331
#     4  10  21  36  56  85 107 153 199 232 289 336
#     4  11  20  35  59  84 121 148 193 245 282 339
#     4  10  21  35  56  83 122 152 191 233 289 354
#     4   9  18  37  61  84 112 144 204 238 274 346
#
# _framework density 24.128893000000001
#
# number of rings (size 3 to 8) (size 9 to 14) (size 15 to 20)
#    0.000    2.250    0.000    6.375    1.750    4.500 
#    0.000    0.000    5.500    4.500    3.250    0.000 
#    0.000    0.000    0.000    0.000    0.000    0.000 
#
# Total GULP energy -198245.318064 kJ/mol
# GULP energy per Si atom -12390.332379 kJ/mol
# Density = 2.407397 g / cm^3
# Si number density = 24.128893 Si / 1000 Ang^3
#
#
#
# Elastic Constant Matrix: (Units=GPa)
#
#
# Indices 1 2 3 4 5 6 
#
# 1 212.8222 42.0321 77.9158 -6.8767 -16.3921 -11.4719
# 2 42.0321 42.0598 25.4356 -16.8682 3.3812 -4.5392
# 3 77.9158 25.4356 124.0385 -3.7182 -0.6599 -14.0524
# 4 -6.8767 -16.8682 -3.7182 34.8462 -0.8424 7.8344
# 5 -16.3921 3.3812 -0.6599 -0.8424 47.7888 -4.4390
# 6 -11.4719 -4.5392 -14.0524 7.8344 -4.4390 39.0665
#
#
#
# Elastic Compliance Matrix: (Units=1/GPa)
#
#
# Indices 1 2 3 4 5 6 
#
# 1 0.007366 -0.006384 -0.003250 -0.002141 0.002990 0.001021
# 2 -0.006384 0.039953 -0.003991 0.018182 -0.005019 -0.002885
# 3 -0.003250 -0.003991 0.011195 -0.002058 -0.000438 0.002971
# 4 -0.002141 0.018182 -0.002058 0.038425 -0.002040 -0.007194
# 5 0.002990 -0.005019 -0.000438 -0.002040 0.022553 0.003109
# 6 0.001021 -0.002885 0.002971 -0.007194 0.003109 0.028427
#
#
# Mechanical properties :
#
#
# Convention : Reuss Voigt Hill
#
# Bulk Modulus (GPa) = 31.98705 74.40972 53.19838
# Shear Modulus (GPa) = 26.94102 39.90946 33.42524
#
# Velocity S-wave (km/s) = 3.34510 4.07137 3.72597
# Velocity P-wave (km/s) = 5.31085 7.28057 6.37228
#
# Compressibility (1/GPa) = 0.03126265
#
# Stress axis : x y z
#
# Youngs Moduli (GPa) = 135.76302 25.02926 89.32729
#
# Poissons Ratio (x) = 0.15979 0.29034
# Poissons Ratio (y) = 0.86673 0.35652
# Poissons Ratio (z) = 0.44127 0.09990
#
# Static dielectric constant tensor:
#      x y z
#    x 4.757830 -0.155010 0.044110 
#    y -0.155010 4.515840 -0.049170 
#    z 0.044110 -0.049170 4.329210 
# 
# 
# High freq. dielectric constant tensor:
#      x y z
#    x 1.979890 -0.003990 0.014400 
#    y -0.003990 1.958530 -0.000320 
#    z 0.014400 -0.000320 1.953430 
# 
# From -- ./inp_files/281911.got.cif
#   From: 2010.06.25/outbox.cif.g09.slc.cpg/sg2_141_cif.got.tgz:281911.got - 2010.06.27 13:26:56.
