data_PCOD8008428
_publ_section_title
;
Structure prediction by ZEFSAII (Michael W. Deem and Ramdas Pophale) SiO2 
 PCOD8008428
Probable space group: P -1
;
_chemical_formula_sum "Si O2"
_cell_formula_units_Z 14
_cell_length_a 17.933879
_cell_length_b 4.998506
_cell_length_c 15.331704
_cell_angle_alpha 56.902858
_cell_angle_beta 149.188999
_cell_angle_gamma 123.052563
_cell_volume 580.316360
_symmetry_space_group_name_H-M "P -1"
_symmetry_group_IT_number 2
_symmetry_cell_setting 'triclinic'
loop_
_space_group_symop_operation_xyz
x,y,z
-x,-y,-z
loop_
_atom_site_type_symbol
_atom_site_label
_atom_site_fract_x
_atom_site_fract_y
_atom_site_fract_z
Si Si1 0.602383 0.309350 0.080851
Si Si2 0.330171 0.861377 0.533841
Si Si3 0.758857 0.548212 0.021734
Si Si4 0.392741 0.010957 0.310077
Si Si5 0.948674 0.133558 0.194435
Si Si6 0.237581 0.117270 0.569417
Si Si7 0.881197 0.229895 0.824887
O O1 0.672135 0.507946 0.032671
O O2 0.728774 0.181509 0.286339
O O3 0.500000 0.500000 0.000000
O O4 0.500000 0.000000 0.000000
O O5 0.312822 0.479301 0.613186
O O6 0.218966 0.893534 0.337466
O O7 0.500707 0.036422 0.655364
O O8 0.292321 0.087004 0.531943
O O9 0.812388 0.229892 0.095176
O O10 0.899127 0.829856 0.134593
O O11 0.658243 0.647101 0.824520
O O12 0.236711 0.764277 0.213750
O O13 0.500000 0.000000 0.500000
O O14 0.059822 0.066041 0.394715
O O15 0.027571 0.412620 0.159322
O O16 0.000000 0.000000 0.000000
#
# Coordination Sequence:
#
# PCOD8008428 Si02
#       7
#     2   2   2   2   2   2   2
#     4  12  26  45  73 101 132 179 227 280 343 406
#     4  10  23  43  67 101 134 179 225 280 338 401
#     4  12  25  44  68 100 138 171 231 281 334 412
#     4  10  22  42  66  98 133 179 226 282 335 396
#     4  11  25  43  67 101 136 180 219 279 345 402
#     4  11  23  45  70  96 141 175 223 280 345 401
#     4  10  20  43  67  97 136 181 227 276 334 404
#
# _framework density 24.124772
#
# number of rings (size 3 to 8) (size 9 to 14) (size 15 to 20)
#    0.000    1.143    1.429    5.143    0.000    2.857 
#    5.143    7.857    0.000    0.000    0.000    0.000 
#    0.000    0.000    0.000    0.000    0.000    0.000 
#
# Total GULP energy -173449.655304 kJ/mol
# GULP energy per Si atom -12389.261093 kJ/mol
# Density = 2.406986 g / cm^3
# Si number density = 24.124772 Si / 1000 Ang^3
#
#
#
# Elastic Constant Matrix: (Units=GPa)
#
#
# Indices 1 2 3 4 5 6 
#
# 1 91.8090 15.6242 22.4112 -8.7779 19.3507 8.5960
# 2 15.6242 79.6388 33.6609 -2.0482 1.8250 0.4803
# 3 22.4112 33.6609 147.9163 -31.9262 7.5471 13.1923
# 4 -8.7779 -2.0482 -31.9262 42.4738 5.7989 -0.0573
# 5 19.3507 1.8250 7.5471 5.7989 35.5300 -3.3135
# 6 8.5960 0.4803 13.1923 -0.0573 -3.3135 44.0635
#
#
#
# Elastic Compliance Matrix: (Units=1/GPa)
#
#
# Indices 1 2 3 4 5 6 
#
# 1 0.013717 -0.002387 0.000012 0.003855 -0.008285 -0.003271
# 2 -0.002387 0.014508 -0.003817 -0.002933 0.001993 0.001596
# 3 0.000012 -0.003817 0.009715 0.007581 -0.003402 -0.003115
# 4 0.003855 -0.002933 0.007581 0.031118 -0.008976 -0.003624
# 5 -0.008285 0.001993 -0.003402 -0.008976 0.035232 0.005251
# 6 -0.003271 0.001596 -0.003115 -0.003624 0.005251 0.024638
#
#
# Mechanical properties :
#
#
# Convention : Reuss Voigt Hill
#
# Bulk Modulus (GPa) = 39.13232 51.41743 45.27487
# Shear Modulus (GPa) = 33.37097 40.92466 37.14781
#
# Velocity S-wave (km/s) = 3.72326 4.12318 3.92831
# Velocity P-wave (km/s) = 5.89403 6.63527 6.27560
#
# Compressibility (1/GPa) = 0.02555433
#
# Stress axis : x y z
#
# Youngs Moduli (GPa) = 72.90413 68.92961 102.93234
#
# Poissons Ratio (x) = 0.16455 -0.00118
# Poissons Ratio (y) = 0.17404 0.39287
# Poissons Ratio (z) = -0.00084 0.26309
#
# Static dielectric constant tensor:
#      x y z
#    x 4.430790 0.106680 0.313390 
#    y 0.106680 3.890340 0.018540 
#    z 0.313390 0.018540 4.902710 
# 
# 
# High freq. dielectric constant tensor:
#      x y z
#    x 1.959870 0.008050 0.013540 
#    y 0.008050 1.938270 -0.009560 
#    z 0.013540 -0.009560 1.984120 
# 
# From -- ./inp_files/536161.got.cif
#   From: 2010.06.25/outbox.cif.g09.slc.cpg/sg2_269_cif.got.tgz:536161.got - 2010.06.27 13:26:56.
