data_PCOD8008583
_publ_section_title
;
Structure prediction by ZEFSAII (Michael W. Deem and Ramdas Pophale) SiO2 
 PCOD8008583
Probable space group: P -1
;
_chemical_formula_sum "Si O2"
_cell_formula_units_Z 14
_cell_length_a 13.203559
_cell_length_b 9.271093
_cell_length_c 18.986931
_cell_angle_alpha 136.637874
_cell_angle_beta 28.229465
_cell_angle_gamma 146.490619
_cell_volume 606.672884
_symmetry_space_group_name_H-M "P -1"
_symmetry_group_IT_number 2
_symmetry_cell_setting 'triclinic'
loop_
_space_group_symop_operation_xyz
x,y,z
-x,-y,-z
loop_
_atom_site_type_symbol
_atom_site_label
_atom_site_fract_x
_atom_site_fract_y
_atom_site_fract_z
Si Si1 0.642664 0.865442 0.350687
Si Si2 0.246157 0.060508 0.222918
Si Si3 0.447054 0.262208 0.021605
Si Si4 0.285209 0.752926 0.889588
Si Si5 0.124775 0.435349 0.461364
Si Si6 0.713806 0.589559 0.339817
Si Si7 0.891646 0.591913 0.771856
O O1 0.449272 0.626432 0.331599
O O2 0.701315 0.764775 0.349514
O O3 0.500000 0.000000 0.500000
O O4 0.909222 0.094411 0.228865
O O5 0.424203 0.174413 0.084151
O O6 0.455897 0.140058 0.183138
O O7 0.061108 0.156536 0.387225
O O8 0.012681 0.752220 0.246370
O O9 0.344455 0.442197 0.142534
O O10 0.761069 0.440818 0.871511
O O11 0.279781 0.003915 0.980539
O O12 0.346974 0.675503 0.750264
O O13 0.000000 0.500000 0.000000
O O14 0.000000 0.500000 0.500000
O O15 0.014467 0.457709 0.611354
O O16 0.500000 0.500000 0.500000
#
# Coordination Sequence:
#
# PCOD8008583 Si02
#       7
#     2   2   2   2   2   2   2
#     4  10  20  44  68  98 143 179 228 295 348 409
#     4  12  24  45  73  99 141 187 232 288 361 413
#     4  11  23  43  68 102 139 182 230 283 348 421
#     4  12  26  48  70  99 147 191 233 288 358 430
#     4  11  21  40  70 100 137 181 234 289 349 410
#     4  12  27  46  72 107 142 183 243 297 350 424
#     4  10  22  42  69  98 138 179 229 290 343 415
#
# _framework density 23.076685999999999
#
# number of rings (size 3 to 8) (size 9 to 14) (size 15 to 20)
#    0.000    0.857    5.714    1.286    2.000    2.857 
#    0.000    0.714    0.000    0.000    0.000    0.000 
#    0.000    0.000    0.000    0.000    0.000    0.000 
#
# Total GULP energy -173444.282349 kJ/mol
# GULP energy per Si atom -12388.877311 kJ/mol
# Density = 2.302416 g / cm^3
# Si number density = 23.076686 Si / 1000 Ang^3
#
#
#
# Elastic Constant Matrix: (Units=GPa)
#
#
# Indices 1 2 3 4 5 6 
#
# 1 84.5889 38.8814 37.7866 -14.9071 -7.2398 27.1111
# 2 38.8814 109.4677 51.5791 -11.2063 12.5650 10.4754
# 3 37.7866 51.5791 124.4736 -11.8197 21.5300 7.7996
# 4 -14.9071 -11.2063 -11.8197 62.4680 -3.8880 -2.0190
# 5 -7.2398 12.5650 21.5300 -3.8880 41.1596 0.3186
# 6 27.1111 10.4754 7.7996 -2.0190 0.3186 34.4682
#
#
#
# Elastic Compliance Matrix: (Units=1/GPa)
#
#
# Indices 1 2 3 4 5 6 
#
# 1 0.022379 -0.004769 -0.005009 0.003583 0.008466 -0.014888
# 2 -0.004769 0.012699 -0.003313 0.000352 -0.002955 0.000689
# 3 -0.005009 -0.003313 0.011845 0.000149 -0.006070 0.002331
# 4 0.003583 0.000352 0.000149 0.017019 0.002068 -0.001981
# 5 0.008466 -0.002955 -0.006070 0.002068 0.030092 -0.004544
# 6 -0.014888 0.000689 0.002331 -0.001981 -0.004544 0.039912
#
#
# Mechanical properties :
#
#
# Convention : Reuss Voigt Hill
#
# Bulk Modulus (GPa) = 48.21232 63.89160 56.05196
# Shear Modulus (GPa) = 29.93253 40.30470 35.11862
#
# Velocity S-wave (km/s) = 3.60542 4.18371 3.90529
# Velocity P-wave (km/s) = 6.18625 7.14736 6.68410
#
# Compressibility (1/GPa) = 0.02074159
#
# Stress axis : x y z
#
# Youngs Moduli (GPa) = 44.68467 78.74410 84.42209
#
# Poissons Ratio (x) = 0.37553 0.42284
# Poissons Ratio (y) = 0.21310 0.27972
# Poissons Ratio (z) = 0.22381 0.26091
#
# Static dielectric constant tensor:
#      x y z
#    x 4.081230 0.578050 -0.173470 
#    y 0.578050 5.644990 -0.025050 
#    z -0.173470 -0.025050 4.859810 
# 
# 
# High freq. dielectric constant tensor:
#      x y z
#    x 1.884200 0.007940 -0.017810 
#    y 0.007940 1.920360 0.006470 
#    z -0.017810 0.006470 1.931780 
# 
# From -- ./inp_files/566904.got.cif
#   From: 2010.06.25/outbox.cif.g09.slc.cpg/sg2_284_cif.got.tgz:566904.got - 2010.06.27 13:26:56.
