data_PCOD8008940
_publ_section_title
;
Structure prediction by ZEFSAII (Michael W. Deem and Ramdas Pophale) SiO2 
 PCOD8008940
Probable space group: P -1
;
_chemical_formula_sum "Si O2"
_cell_formula_units_Z 12
_cell_length_a 10.109109
_cell_length_b 10.807615
_cell_length_c 11.276550
_cell_angle_alpha 50.185506
_cell_angle_beta 79.541582
_cell_angle_gamma 41.251545
_cell_volume 502.858106
_symmetry_space_group_name_H-M "P -1"
_symmetry_group_IT_number 2
_symmetry_cell_setting 'triclinic'
loop_
_space_group_symop_operation_xyz
x,y,z
-x,-y,-z
loop_
_atom_site_type_symbol
_atom_site_label
_atom_site_fract_x
_atom_site_fract_y
_atom_site_fract_z
Si Si1 0.492045 0.803249 0.335844
Si Si2 0.336406 0.321888 0.046954
Si Si3 0.134745 0.654989 0.627295
Si Si4 0.241449 0.876579 0.945171
Si Si5 0.379482 0.724841 0.617252
Si Si6 0.045262 0.114719 0.082958
O O1 0.748811 0.560518 0.369947
O O2 0.539325 0.680234 0.532857
O O3 0.307476 0.868613 0.256113
O O4 0.363225 0.105008 0.184089
O O5 0.217712 0.488031 0.838716
O O6 0.606719 0.133627 0.136139
O O7 0.155102 0.556222 0.038837
O O8 0.235179 0.736232 0.556200
O O9 0.835511 0.953331 0.480305
O O10 0.435640 0.539912 0.156664
O O11 0.090766 0.099097 0.945259
O O12 0.052402 0.972475 0.828484
#
# Coordination Sequence:
#
# PCOD8008940 Si02
#       6
#     2   2   2   2   2   2
#     4  12  22  36  66  91 116 147 205 248 286 337
#     4  11  22  38  61  92 115 156 196 245 287 348
#     4  10  21  35  60  88 119 151 195 243 289 339
#     4  10  24  41  61  85 122 158 193 238 296 356
#     4  10  21  37  58  90 116 157 194 243 289 346
#     4  11  22  39  63  88 117 157 198 238 292 354
#
# _framework density 23.863593000000002
#
# number of rings (size 3 to 8) (size 9 to 14) (size 15 to 20)
#    0.000    1.333    5.000    2.000    0.000    0.000 
#    0.000    0.833    0.000    5.000    0.000    0.000 
#    0.000    0.000    0.000    0.000    0.000    0.000 
#
# Total GULP energy -148814.269450 kJ/mol
# GULP energy per Si atom -12401.189121 kJ/mol
# Density = 2.380928 g / cm^3
# Si number density = 23.863593 Si / 1000 Ang^3
#
#
#
# Elastic Constant Matrix: (Units=GPa)
#
#
# Indices 1 2 3 4 5 6 
#
# 1 78.4995 15.0569 22.4752 4.6179 4.1380 -4.8437
# 2 15.0569 152.0784 23.2403 -29.0874 2.9061 -14.1816
# 3 22.4752 23.2403 59.2022 -1.4230 -21.3627 -0.2513
# 4 4.6179 -29.0874 -1.4230 18.9402 -4.4148 1.8051
# 5 4.1380 2.9061 -21.3627 -4.4148 22.6464 -2.8768
# 6 -4.8437 -14.1816 -0.2513 1.8051 -2.8768 24.1467
#
#
#
# Elastic Compliance Matrix: (Units=1/GPa)
#
#
# Indices 1 2 3 4 5 6 
#
# 1 0.018568 -0.001765 -0.013050 -0.012482 -0.017736 0.001373
# 2 -0.001765 0.010808 -0.003320 0.016230 -0.000436 0.004694
# 3 -0.013050 -0.003320 0.038123 0.010466 0.040801 -0.000092
# 4 -0.012482 0.016230 0.010466 0.087627 0.027647 0.003880
# 5 -0.017736 -0.000436 0.040801 0.027647 0.092032 0.005508
# 6 0.001373 0.004694 -0.000092 0.003880 0.005508 0.044811
#
#
# Mechanical properties :
#
#
# Convention : Reuss Voigt Hill
#
# Bulk Modulus (GPa) = 32.02206 45.70275 38.86240
# Shear Modulus (GPa) = 14.76457 28.41384 21.58920
#
# Velocity S-wave (km/s) = 2.49008 3.45436 3.01107
# Velocity P-wave (km/s) = 4.65996 5.92481 5.33004
#
# Compressibility (1/GPa) = 0.03122847
#
# Stress axis : x y z
#
# Youngs Moduli (GPa) = 53.85682 92.52454 26.23079
#
# Poissons Ratio (x) = 0.16327 0.34232
# Poissons Ratio (y) = 0.09503 0.08709
# Poissons Ratio (z) = 0.70285 0.30720
#
# Static dielectric constant tensor:
#      x y z
#    x 4.383270 -0.331930 0.043040 
#    y -0.331930 4.577570 -0.160200 
#    z 0.043040 -0.160200 3.871560 
# 
# 
# High freq. dielectric constant tensor:
#      x y z
#    x 1.926310 -0.021660 0.001470 
#    y -0.021660 1.966660 -0.011510 
#    z 0.001470 -0.011510 1.916350 
# 
# From -- ./inp_files/152566.got.cif
#   From: 2010.06.25/outbox.cif.g09.slc.cpg/sg2_77_cif.got.tgz:152566.got - 2010.06.27 13:26:56.
