data_PCOD8008955
_publ_section_title
;
Structure prediction by ZEFSAII (Michael W. Deem and Ramdas Pophale) SiO2 
 PCOD8008955
Probable space group: P -1
;
_chemical_formula_sum "Si O2"
_cell_formula_units_Z 16
_cell_length_a 11.620086
_cell_length_b 27.413491
_cell_length_c 9.014161
_cell_angle_alpha 39.890796
_cell_angle_beta 50.777996
_cell_angle_gamma 24.659699
_cell_volume 745.345377
_symmetry_space_group_name_H-M "P -1"
_symmetry_group_IT_number 2
_symmetry_cell_setting 'triclinic'
loop_
_space_group_symop_operation_xyz
x,y,z
-x,-y,-z
loop_
_atom_site_type_symbol
_atom_site_label
_atom_site_fract_x
_atom_site_fract_y
_atom_site_fract_z
Si Si1 0.623146 0.530777 0.157647
Si Si2 0.407584 0.311579 0.732067
Si Si3 0.247431 0.398027 0.332813
Si Si4 0.155691 0.305117 0.417309
Si Si5 0.938374 0.286318 0.859146
Si Si6 0.579050 0.397129 0.383944
Si Si7 0.541067 0.861229 0.749972
Si Si8 0.098447 0.176090 0.288871
O O1 0.282822 0.675563 0.132112
O O2 0.727940 0.396239 0.368900
O O3 0.825636 0.474398 0.254708
O O4 0.658640 0.562272 0.903542
O O5 0.425341 0.303666 0.556657
O O6 0.570569 0.315778 0.649035
O O7 0.084040 0.454206 0.712507
O O8 0.555016 0.173391 0.005609
O O9 0.313066 0.303709 0.379378
O O10 0.324024 0.216566 0.337000
O O11 0.147740 0.233425 0.693461
O O12 0.751406 0.431520 0.765580
O O13 0.130413 0.161225 0.118594
O O14 0.762911 0.315479 0.273676
O O15 0.769421 0.804654 0.797409
O O16 0.257898 0.033830 0.558202
#
# Coordination Sequence:
#
# PCOD8008955 Si02
#       8
#     2   2   2   2   2   2   2   2
#     4  10  21  35  60  94 118 152 189 253 307 342
#     4  11  22  37  59  96 115 161 196 246 299 349
#     4  11  21  34  63  88 128 148 198 249 299 354
#     4  12  21  39  57  94 123 155 191 249 306 352
#     4  10  22  36  64  89 118 150 202 249 296 346
#     4  10  21  37  66  89 116 151 201 254 293 345
#     4  11  25  39  61  84 127 162 200 238 294 364
#     4  11  22  43  61  86 118 165 203 244 287 357
#
# _framework density 21.466556000000001
#
# number of rings (size 3 to 8) (size 9 to 14) (size 15 to 20)
#    0.750    0.500    3.750    2.625    3.500    1.000 
#    0.000    0.000    0.000    3.000    0.000    0.000 
#    0.000    0.000    0.000    0.000    0.000    0.000 
#
# Total GULP energy -198258.102862 kJ/mol
# GULP energy per Si atom -12391.131429 kJ/mol
# Density = 2.141770 g / cm^3
# Si number density = 21.466556 Si / 1000 Ang^3
#
#
#
# Elastic Constant Matrix: (Units=GPa)
#
#
# Indices 1 2 3 4 5 6 
#
# 1 78.9472 20.0975 38.0280 8.7757 -13.4891 3.6844
# 2 20.0975 21.6652 15.1444 6.8023 -1.6705 2.3321
# 3 38.0280 15.1444 149.5694 22.0793 -14.5465 -3.4376
# 4 8.7757 6.8023 22.0793 21.1661 -1.7299 0.1296
# 5 -13.4891 -1.6705 -14.5465 -1.7299 37.8972 5.9197
# 6 3.6844 2.3321 -3.4376 0.1296 5.9197 16.2694
#
#
#
# Elastic Compliance Matrix: (Units=1/GPa)
#
#
# Indices 1 2 3 4 5 6 
#
# 1 0.019007 -0.014728 -0.002958 0.000440 0.005770 -0.004921
# 2 -0.014728 0.065362 -0.001210 -0.013821 -0.002641 -0.005219
# 3 -0.002958 -0.001210 0.008879 -0.007528 0.001616 0.002192
# 4 0.000440 -0.013821 -0.007528 0.059305 -0.000643 0.000052
# 5 0.005770 -0.002641 0.001616 -0.000643 0.030754 -0.011771
# 6 -0.004921 -0.005219 0.002192 0.000052 -0.011771 0.068074
#
#
# Mechanical properties :
#
#
# Convention : Reuss Voigt Hill
#
# Bulk Modulus (GPa) = 18.03206 44.08019 31.05612
# Shear Modulus (GPa) = 16.25171 26.86067 21.55619
#
# Velocity S-wave (km/s) = 2.75448 3.54118 3.17231
# Velocity P-wave (km/s) = 4.30517 6.10728 5.28362
#
# Compressibility (1/GPa) = 0.05545678
#
# Stress axis : x y z
#
# Youngs Moduli (GPa) = 52.61088 15.29931 112.62010
#
# Poissons Ratio (x) = 0.22532 0.33317
# Poissons Ratio (y) = 0.77484 0.13629
# Poissons Ratio (z) = 0.15564 0.01851
#
# Static dielectric constant tensor:
#      x y z
#    x 3.857460 -0.040270 -0.171260 
#    y -0.040270 3.452290 0.194450 
#    z -0.171260 0.194450 4.024950 
# 
# 
# High freq. dielectric constant tensor:
#      x y z
#    x 1.839200 -0.001680 -0.008540 
#    y -0.001680 1.799020 0.028020 
#    z -0.008540 0.028020 1.849150 
# 
# From -- ./inp_files/285452.got.cif
#   From: 2010.06.25/outbox.cif.g09.slc.cpg/sg2_143_cif.got.tgz:285452.got - 2010.06.27 13:26:56.
