data_PCOD8008964
_publ_section_title
;
Structure prediction by ZEFSAII (Michael W. Deem and Ramdas Pophale) SiO2 
 PCOD8008964
Probable space group: P -1
;
_chemical_formula_sum "Si O2"
_cell_formula_units_Z 16
_cell_length_a 12.485626
_cell_length_b 20.116874
_cell_length_c 17.129843
_cell_angle_alpha 31.716342
_cell_angle_beta 157.061074
_cell_angle_gamma 151.631632
_cell_volume 777.637814
_symmetry_space_group_name_H-M "P -1"
_symmetry_group_IT_number 2
_symmetry_cell_setting 'triclinic'
loop_
_space_group_symop_operation_xyz
x,y,z
-x,-y,-z
loop_
_atom_site_type_symbol
_atom_site_label
_atom_site_fract_x
_atom_site_fract_y
_atom_site_fract_z
Si Si1 0.818499 0.833952 0.024371
Si Si2 0.142980 0.668156 0.343158
Si Si3 0.767396 0.359479 0.898988
Si Si4 0.249661 0.674147 0.908446
Si Si5 0.389102 0.834998 0.601881
Si Si6 0.430906 0.630493 0.717272
Si Si7 0.866882 0.643435 0.543176
Si Si8 0.917662 0.357159 0.841477
O O1 0.599194 0.744250 0.038909
O O2 0.607120 0.805358 0.835990
O O3 0.071048 0.781714 0.227189
O O4 0.000000 0.000000 0.000000
O O5 0.397880 0.644734 0.587320
O O6 0.835318 0.516670 0.279877
O O7 0.265329 0.719113 0.285319
O O8 0.498410 0.406959 0.657834
O O9 0.104809 0.501362 0.987873
O O10 0.757970 0.271832 0.900696
O O11 0.724228 0.270208 0.039286
O O12 0.020798 0.711218 0.663926
O O13 0.401193 0.763882 0.599940
O O14 0.039110 0.763538 0.472732
O O15 0.500000 0.000000 0.500000
O O16 0.747289 0.632483 0.950062
O O17 0.939538 0.512825 0.706922
#
# Coordination Sequence:
#
# PCOD8008964 Si02
#       8
#     2   2   2   2   2   2   2   2
#     4  11  23  39  62  90 126 162 202 254 307 365
#     4  11  22  35  59  88 122 160 199 252 309 360
#     4  10  21  35  61  88 121 165 201 248 299 354
#     4   9  20  36  55  87 120 155 205 248 296 349
#     4  11  22  38  60  89 125 160 201 251 304 368
#     4  11  22  36  57  89 122 159 200 251 311 354
#     4  10  21  36  59  87 124 158 202 250 297 359
#     4  11  20  36  56  87 124 154 194 252 300 355
#
# _framework density 20.575130999999999
#
# number of rings (size 3 to 8) (size 9 to 14) (size 15 to 20)
#    0.000    1.500    2.500    4.875    3.500    4.000 
#    0.000    0.000    0.000    3.000    0.000    7.875 
#    0.000    0.000    0.000    0.000    0.000    0.000 
#
# Total GULP energy -198288.093591 kJ/mol
# GULP energy per Si atom -12393.005849 kJ/mol
# Density = 2.052830 g / cm^3
# Si number density = 20.575131 Si / 1000 Ang^3
#
#
#
# Elastic Constant Matrix: (Units=GPa)
#
#
# Indices 1 2 3 4 5 6 
#
# 1 174.5811 34.7174 39.1059 2.1367 -17.7300 0.9861
# 2 34.7174 62.5257 15.6880 -14.2385 12.6328 -3.9710
# 3 39.1059 15.6880 60.8579 -5.3798 -10.0508 -4.4912
# 4 2.1367 -14.2385 -5.3798 19.7522 -7.7790 1.2048
# 5 -17.7300 12.6328 -10.0508 -7.7790 30.3277 -0.4074
# 6 0.9861 -3.9710 -4.4912 1.2048 -0.4074 24.9091
#
#
#
# Elastic Compliance Matrix: (Units=1/GPa)
#
#
# Indices 1 2 3 4 5 6 
#
# 1 0.008189 -0.005673 -0.003428 -0.003841 0.005008 -0.001579
# 2 -0.005673 0.025598 -0.003492 0.013343 -0.011676 0.002839
# 3 -0.003428 -0.003492 0.021796 0.006934 0.008497 0.003312
# 4 -0.003841 0.013343 0.006934 0.067137 0.011722 0.000474
# 5 0.005008 -0.011676 0.008497 0.011722 0.046582 -0.000333
# 6 -0.001579 0.002839 0.003312 0.000474 -0.000333 0.041230
#
#
# Mechanical properties :
#
#
# Convention : Reuss Voigt Hill
#
# Bulk Modulus (GPa) = 32.90116 52.99859 42.94988
# Shear Modulus (GPa) = 20.33756 28.89470 24.61613
#
# Velocity S-wave (km/s) = 3.14738 3.75153 3.46266
# Velocity P-wave (km/s) = 5.40680 6.67681 6.07508
#
# Compressibility (1/GPa) = 0.03039406
#
# Stress axis : x y z
#
# Youngs Moduli (GPa) = 122.12053 39.06616 45.88073
#
# Poissons Ratio (x) = 0.22163 0.15730
# Poissons Ratio (y) = 0.69281 0.16023
# Poissons Ratio (z) = 0.41868 0.13643
#
# Static dielectric constant tensor:
#      x y z
#    x 9.280490 3.714430 -0.632170 
#    y 3.714430 6.127290 -0.091310 
#    z -0.632170 -0.091310 3.674190 
# 
# 
# High freq. dielectric constant tensor:
#      x y z
#    x 1.827760 0.001420 -0.023550 
#    y 0.001420 1.751580 0.015000 
#    z -0.023550 0.015000 1.801340 
# 
# From -- ./inp_files/570743.got.cif
#   From: 2010.06.25/outbox.cif.g09.slc.cpg/sg2_286_cif.got.tgz:570743.got - 2010.06.27 13:26:56.
