data_PCOD8008226
_publ_section_title
;
Structure prediction by ZEFSAII (Michael W. Deem and Ramdas Pophale) SiO2 
 PCOD8008226
Probable space group: P -1
;
_chemical_formula_sum "Si O2"
_cell_formula_units_Z 16
_cell_length_a 9.482558
_cell_length_b 10.049402
_cell_length_c 22.540732
_cell_angle_alpha 153.049159
_cell_angle_beta 57.441532
_cell_angle_gamma 127.099862
_cell_volume 776.471022
_symmetry_space_group_name_H-M "P -1"
_symmetry_group_IT_number 2
_symmetry_cell_setting 'triclinic'
loop_
_space_group_symop_operation_xyz
x,y,z
-x,-y,-z
loop_
_atom_site_type_symbol
_atom_site_label
_atom_site_fract_x
_atom_site_fract_y
_atom_site_fract_z
Si Si1 0.639859 0.735501 0.771491
Si Si2 0.852507 0.802148 0.998924
Si Si3 0.097308 0.688389 0.998191
Si Si4 0.597704 0.183253 0.243755
Si Si5 0.358704 0.334222 0.767547
Si Si6 0.701432 0.158006 0.501517
Si Si7 0.596712 0.196564 0.753676
Si Si8 0.796428 0.915273 0.499882
O O1 0.542134 0.889750 0.807855
O O2 0.506103 0.519864 0.762341
O O3 0.738970 0.526563 0.630956
O O4 0.783362 0.977902 0.874760
O O5 0.948522 0.709759 0.995609
O O6 0.735045 0.003297 0.128496
O O7 0.733279 0.492878 0.871128
O O8 0.000000 0.000000 0.000000
O O9 0.218288 0.512241 0.871518
O O10 0.000000 0.500000 0.000000
O O11 0.698777 0.548635 0.370795
O O12 0.493437 0.062869 0.280243
O O13 0.444768 0.305980 0.800175
O O14 0.258067 0.988266 0.627340
O O15 0.500000 0.000000 0.500000
O O16 0.810768 0.086569 0.502180
O O17 0.696103 0.052750 0.626022
O O18 0.000000 0.000000 0.500000
#
# Coordination Sequence:
#
# PCOD8008226 Si02
#       8
#     2   2   2   2   2   2   2   2
#     4  11  21  43  70  89 124 174 221 250 310 393
#     4  12  26  42  64 100 136 166 220 268 322 378
#     4  12  26  42  62  98 134 164 210 274 322 366
#     4  12  24  43  67  97 132 173 213 265 326 389
#     4  11  21  43  70  89 124 174 221 250 310 393
#     4  10  20  42  68  94 119 165 222 260 297 395
#     4  12  24  43  67  97 132 173 213 265 326 389
#     4  12  25  42  68 100 131 164 217 274 326 376
#
# _framework density 20.60605
#
# number of rings (size 3 to 8) (size 9 to 14) (size 15 to 20)
#    0.000    0.500    5.000    5.625    3.500    0.000 
#    0.000    0.625    0.000    0.000    0.000    0.000 
#    0.000    0.000    0.000    0.000    0.000    0.000 
#
# Total GULP energy -198402.746370 kJ/mol
# GULP energy per Si atom -12400.171648 kJ/mol
# Density = 2.055915 g / cm^3
# Si number density = 20.606050 Si / 1000 Ang^3
#
#
#
# Elastic Constant Matrix: (Units=GPa)
#
#
# Indices 1 2 3 4 5 6 
#
# 1 255.4930 90.9466 82.4623 88.3099 99.0400 -50.1335
# 2 90.9466 123.1670 27.9440 57.7895 67.0915 -29.3662
# 3 82.4623 27.9440 180.5581 24.5184 28.8521 3.4870
# 4 88.3099 57.7895 24.5184 79.9653 63.9820 -25.1542
# 5 99.0400 67.0915 28.8521 63.9820 114.8514 -26.0591
# 6 -50.1335 -29.3662 3.4870 -25.1542 -26.0591 41.4823
#
#
#
# Elastic Compliance Matrix: (Units=1/GPa)
#
#
# Indices 1 2 3 4 5 6 
#
# 1 0.008923 -0.001078 -0.003050 -0.004120 -0.002610 0.006139
# 2 -0.001078 0.014152 -0.000518 -0.004772 -0.003753 0.003508
# 3 -0.003050 -0.000518 0.007076 0.000079 0.000079 -0.004551
# 4 -0.004120 -0.004772 0.000079 0.028652 -0.008859 0.003445
# 5 -0.002610 -0.003753 0.000079 -0.008859 0.018108 0.000185
# 6 0.006139 0.003508 -0.004551 0.003445 0.000185 0.036597
#
#
# Mechanical properties :
#
#
# Convention : Reuss Voigt Hill
#
# Bulk Modulus (GPa) = 47.94087 106.88043 77.41065
# Shear Modulus (GPa) = 38.53480 71.11750 54.82615
#
# Velocity S-wave (km/s) = 4.32912 5.88114 5.16378
# Velocity P-wave (km/s) = 6.95013 9.90445 8.55577
#
# Compressibility (1/GPa) = 0.02085903
#
# Stress axis : x y z
#
# Youngs Moduli (GPa) = 112.07441 70.65963 141.31887
#
# Poissons Ratio (x) = 0.07616 0.43105
# Poissons Ratio (y) = 0.12080 0.07321
# Poissons Ratio (z) = 0.34185 0.03660
#
# Static dielectric constant tensor:
#      x y z
#    x 5.792260 -0.475660 1.024110 
#    y -0.475660 3.734520 -0.161940 
#    z 1.024110 -0.161940 4.869380 
# 
# 
# High freq. dielectric constant tensor:
#      x y z
#    x 1.823800 -0.013160 0.001140 
#    y -0.013160 1.797250 0.002070 
#    z 0.001140 0.002070 1.831200 
# 
# From -- ./inp_files/588273.got.cif
#   From: 2010.06.25/outbox.cif.g09.slc.cpg/sg2_295_cif.got.tgz:588273.got - 2010.06.27 13:26:56.
