data_PCOD8008990
_publ_section_title
;
Structure prediction by ZEFSAII (Michael W. Deem and Ramdas Pophale) SiO2 
 PCOD8008990
Probable space group: P -1
;
_chemical_formula_sum "Si O2"
_cell_formula_units_Z 16
_cell_length_a 18.530523
_cell_length_b 14.356486
_cell_length_c 9.981919
_cell_angle_alpha 151.378036
_cell_angle_beta 39.380108
_cell_angle_gamma 143.725730
_cell_volume 732.387370
_symmetry_space_group_name_H-M "P -1"
_symmetry_group_IT_number 2
_symmetry_cell_setting 'triclinic'
loop_
_space_group_symop_operation_xyz
x,y,z
-x,-y,-z
loop_
_atom_site_type_symbol
_atom_site_label
_atom_site_fract_x
_atom_site_fract_y
_atom_site_fract_z
Si Si1 0.716871 0.278502 0.764611
Si Si2 0.066221 0.145133 0.963988
Si Si3 0.961651 0.770231 0.455049
Si Si4 0.509785 0.446444 0.263324
Si Si5 0.331688 0.208695 0.733339
Si Si6 0.126106 0.733852 0.704632
Si Si7 0.283450 0.233969 0.130253
Si Si8 0.052791 0.463859 0.067688
O O1 0.779264 0.334011 0.598111
O O2 0.815010 0.455756 0.944184
O O3 0.690959 0.039695 0.551064
O O4 0.588944 0.304973 0.969815
O O5 0.213355 0.250198 0.906580
O O6 0.034416 0.017153 0.706770
O O7 0.001295 0.310871 0.257466
O O8 0.000000 0.000000 0.000000
O O9 0.818944 0.664897 0.586446
O O10 0.051215 0.659005 0.231835
O O11 0.953049 0.738010 0.266417
O O12 0.500000 0.500000 0.500000
O O13 0.562162 0.655746 0.354904
O O14 0.374742 0.302833 0.213817
O O15 0.359576 0.293676 0.954637
O O16 0.074669 0.603803 0.749213
O O17 0.201611 0.982628 0.942944
#
# Coordination Sequence:
#
# PCOD8008990 Si02
#       8
#     2   2   2   2   2   2   2   2
#     4  11  23  42  67  93 127 163 223 261 316 389
#     4  11  17  38  63  94 127 159 203 255 323 383
#     4  10  21  35  62  87 137 158 200 255 322 386
#     4  12  28  46  64  91 128 174 222 268 318 377
#     4  11  23  42  71  94 123 176 211 271 320 370
#     4  10  22  35  66  94 126 164 207 265 318 380
#     4  10  23  44  60  92 124 169 218 260 316 377
#     4  11  21  36  57 103 127 161 200 261 325 387
#
# _framework density 21.846364000000001
#
# number of rings (size 3 to 8) (size 9 to 14) (size 15 to 20)
#    0.000    1.250    5.000    2.250    1.750    5.500 
#    2.250    0.000    0.000    0.000    0.000    0.000 
#    0.000    0.000    0.000    0.000    0.000    0.000 
#
# Total GULP energy -198273.871208 kJ/mol
# GULP energy per Si atom -12392.116951 kJ/mol
# Density = 2.179664 g / cm^3
# Si number density = 21.846364 Si / 1000 Ang^3
#
#
#
# Elastic Constant Matrix: (Units=GPa)
#
#
# Indices 1 2 3 4 5 6 
#
# 1 105.8134 17.4410 40.5348 -3.1726 13.9211 18.0056
# 2 17.4410 53.0177 1.9255 -13.9876 7.0764 -4.6569
# 3 40.5348 1.9255 102.5801 -14.2213 11.6506 -0.2259
# 4 -3.1726 -13.9876 -14.2213 20.4238 -3.0220 1.3653
# 5 13.9211 7.0764 11.6506 -3.0220 44.3174 -7.3037
# 6 18.0056 -4.6569 -0.2259 1.3653 -7.3037 34.7485
#
#
#
# Elastic Compliance Matrix: (Units=1/GPa)
#
#
# Indices 1 2 3 4 5 6 
#
# 1 0.014805 -0.006655 -0.006209 -0.006547 -0.003913 -0.009169
# 2 -0.006655 0.026929 0.005095 0.020381 -0.001163 0.006045
# 3 -0.006209 0.005095 0.013882 0.011799 -0.001167 0.003281
# 4 -0.006547 0.020381 0.011799 0.070034 0.001082 0.003677
# 5 -0.003913 -0.001163 -0.001167 0.001082 0.025545 0.007191
# 6 -0.009169 0.006045 0.003281 0.003677 0.007191 0.035728
#
#
# Mechanical properties :
#
#
# Convention : Reuss Voigt Hill
#
# Bulk Modulus (GPa) = 24.95107 42.35711 33.65409
# Shear Modulus (GPa) = 23.16753 33.33193 28.24973
#
# Velocity S-wave (km/s) = 3.26003 3.91031 3.59988
# Velocity P-wave (km/s) = 5.06126 6.31016 5.71990
#
# Compressibility (1/GPa) = 0.04007844
#
# Stress axis : x y z
#
# Youngs Moduli (GPa) = 67.54623 37.13436 72.03674
#
# Poissons Ratio (x) = 0.24714 0.44725
# Poissons Ratio (y) = 0.44954 -0.36705
# Poissons Ratio (z) = 0.41937 -0.18921
#
# Static dielectric constant tensor:
#      x y z
#    x 5.361430 0.803510 0.040860 
#    y 0.803510 4.384530 -0.109500 
#    z 0.040860 -0.109500 4.333330 
# 
# 
# High freq. dielectric constant tensor:
#      x y z
#    x 1.861490 -0.001270 0.004280 
#    y -0.001270 1.844640 0.001590 
#    z 0.004280 0.001590 1.868470 
# 
# From -- ./inp_files/243008.got.cif
#   From: 2010.06.25/outbox.cif.g09.slc.cpg/sg2_122_cif.got.tgz:243008.got - 2010.06.27 13:26:56.
