data_PCOD8008911
_publ_section_title
;
Structure prediction by ZEFSAII (Michael W. Deem and Ramdas Pophale) SiO2 
 PCOD8008911
Probable space group: P -1
;
_chemical_formula_sum "Si O2"
_cell_formula_units_Z 16
_cell_length_a 9.516182
_cell_length_b 13.325676
_cell_length_c 12.393203
_cell_angle_alpha 76.882016
_cell_angle_beta 38.663334
_cell_angle_gamma 59.824308
_cell_volume 807.933288
_symmetry_space_group_name_H-M "P -1"
_symmetry_group_IT_number 2
_symmetry_cell_setting 'triclinic'
loop_
_space_group_symop_operation_xyz
x,y,z
-x,-y,-z
loop_
_atom_site_type_symbol
_atom_site_label
_atom_site_fract_x
_atom_site_fract_y
_atom_site_fract_z
Si Si1 0.541067 0.860816 0.892755
Si Si2 0.177928 0.255694 0.810445
Si Si3 0.094461 0.673472 0.554760
Si Si4 0.695078 0.298700 0.973143
Si Si5 0.143278 0.450318 0.651981
Si Si6 0.264302 0.541455 0.262129
Si Si7 0.205394 0.136451 0.040670
Si Si8 0.341598 0.757212 0.548152
O O1 0.802566 0.791656 0.676730
O O2 0.371269 0.001348 0.924000
O O3 0.365208 0.803294 0.996273
O O4 0.630731 0.848786 0.966432
O O5 0.061285 0.400257 0.818346
O O6 0.156708 0.233247 0.954165
O O7 0.489023 0.180309 0.600578
O O8 0.996119 0.222483 0.857668
O O9 0.058965 0.589980 0.685806
O O10 0.226411 0.586900 0.395331
O O11 0.281186 0.715964 0.480566
O O12 0.654383 0.376346 0.871637
O O13 0.492494 0.397483 0.158206
O O14 0.464428 0.362612 0.466348
O O15 0.006631 0.439795 0.628031
O O16 0.928557 0.155800 0.245899
#
# Coordination Sequence:
#
# PCOD8008911 Si02
#       8
#     2   2   2   2   2   2   2   2
#     4  10  23  40  64  88 116 156 211 243 290 360
#     4   9  22  39  61  86 121 160 197 247 298 355
#     4  11  20  37  61  91 118 158 195 249 304 352
#     4  10  21  39  56  91 122 155 201 241 295 367
#     4   9  19  37  56  90 121 148 198 246 291 371
#     4  10  21  35  58  89 126 156 190 244 303 359
#     4  10  22  45  62  85 121 162 199 257 289 340
#     4   9  22  39  58  91 120 154 202 244 297 358
#
# _framework density 19.803616000000002
#
# number of rings (size 3 to 8) (size 9 to 14) (size 15 to 20)
#    0.750    1.500    1.250    0.750    3.500    0.500 
#    2.250    5.625    0.000    0.000    0.000    0.000 
#    0.000    0.000    0.000    0.000    0.000    0.000 
#
# Total GULP energy -198237.564273 kJ/mol
# GULP energy per Si atom -12389.847767 kJ/mol
# Density = 1.975854 g / cm^3
# Si number density = 19.803616 Si / 1000 Ang^3
#
#
#
# Elastic Constant Matrix: (Units=GPa)
#
#
# Indices 1 2 3 4 5 6 
#
# 1 98.5031 47.2947 58.3047 -2.1900 -23.3806 3.4050
# 2 47.2947 75.0077 41.4546 8.0040 3.3847 6.0434
# 3 58.3047 41.4546 108.9586 6.7445 -10.9346 6.3206
# 4 -2.1900 8.0040 6.7445 26.4706 -2.0431 2.9023
# 5 -23.3806 3.3847 -10.9346 -2.0431 36.3369 -4.4176
# 6 3.4050 6.0434 6.3206 2.9023 -4.4176 27.3105
#
#
#
# Elastic Compliance Matrix: (Units=1/GPa)
#
#
# Indices 1 2 3 4 5 6 
#
# 1 0.024846 -0.013580 -0.007265 0.008891 0.015958 0.003225
# 2 -0.013580 0.025353 -0.002895 -0.008568 -0.012992 -0.004438
# 3 -0.007265 -0.002895 0.014413 -0.003266 -0.000435 -0.001513
# 4 0.008891 -0.008568 -0.003266 0.042724 0.007726 -0.001747
# 5 0.015958 -0.012992 -0.000435 0.007726 0.040111 0.006653
# 6 0.003225 -0.004438 -0.001513 -0.001747 0.006653 0.038808
#
#
# Mechanical properties :
#
#
# Convention : Reuss Voigt Hill
#
# Bulk Modulus (GPa) = 58.36898 64.06417 61.21658
# Shear Modulus (GPa) = 20.88172 27.05130 23.96651
#
# Velocity S-wave (km/s) = 3.25074 3.69992 3.48258
# Velocity P-wave (km/s) = 6.60512 7.11846 6.86659
#
# Compressibility (1/GPa) = 0.01713239
#
# Stress axis : x y z
#
# Youngs Moduli (GPa) = 40.24787 39.44364 69.38250
#
# Poissons Ratio (x) = 0.53564 0.50404
# Poissons Ratio (y) = 0.54656 0.20086
# Poissons Ratio (z) = 0.29239 0.11419
#
# Static dielectric constant tensor:
#      x y z
#    x 3.562830 -0.052020 -0.303770 
#    y -0.052020 3.517280 -0.011900 
#    z -0.303770 -0.011900 3.539280 
# 
# 
# High freq. dielectric constant tensor:
#      x y z
#    x 1.773760 -0.004910 -0.025970 
#    y -0.004910 1.753720 -0.004460 
#    z -0.025970 -0.004460 1.760720 
# 
# From -- ./inp_files/397335.got.cif
#   From: 2010.06.25/outbox.cif.g09.slc.cpg/sg2_199_cif.got.tgz:397335.got - 2010.06.27 13:26:56.
