data_PCOD8008285
_publ_section_title
;
Structure prediction by ZEFSAII (Michael W. Deem and Ramdas Pophale) SiO2 
 PCOD8008285
Probable space group: P -1
;
_chemical_formula_sum "Si O2"
_cell_formula_units_Z 14
_cell_length_a 12.385776
_cell_length_b 11.962080
_cell_length_c 9.575202
_cell_angle_alpha 42.021500
_cell_angle_beta 44.115317
_cell_angle_gamma 47.919292
_cell_volume 631.925721
_symmetry_space_group_name_H-M "P -1"
_symmetry_group_IT_number 2
_symmetry_cell_setting 'triclinic'
loop_
_space_group_symop_operation_xyz
x,y,z
-x,-y,-z
loop_
_atom_site_type_symbol
_atom_site_label
_atom_site_fract_x
_atom_site_fract_y
_atom_site_fract_z
Si Si1 0.905075 0.017035 0.715347
Si Si2 0.536977 0.175215 0.845412
Si Si3 0.271427 0.257380 0.516524
Si Si4 0.336610 0.426261 0.019915
Si Si5 0.844072 0.018871 0.279930
Si Si6 0.985033 0.302883 0.911040
Si Si7 0.542391 0.266516 0.454992
O O1 0.003645 0.101381 0.659146
O O2 0.916331 0.819538 0.941063
O O3 0.720402 0.137676 0.766217
O O4 0.000000 0.000000 0.500000
O O5 0.407805 0.264676 0.001025
O O6 0.506047 0.300014 0.622219
O O7 0.500000 0.000000 0.000000
O O8 0.407310 0.201833 0.560237
O O9 0.231764 0.080954 0.669383
O O10 0.331936 0.357013 0.245179
O O11 0.105706 0.374123 0.635947
O O12 0.151963 0.531918 0.051025
O O13 0.450752 0.552688 0.789303
O O14 0.900895 0.179283 0.009258
O O15 0.707983 0.110695 0.435113
#
# Coordination Sequence:
#
# PCOD8008285 Si02
#       7
#     2   2   2   2   2   2   2
#     4  10  20  42  70  95 133 168 222 274 332 385
#     4  12  24  44  72 101 128 171 228 276 333 396
#     4  12  22  42  66 101 133 179 225 267 327 400
#     4  11  25  44  65  95 139 179 217 275 333 395
#     4   9  21  40  70  95 132 171 222 272 330 383
#     4   9  22  43  67  96 132 173 219 278 326 389
#     4  11  23  43  66  99 139 171 219 278 333 394
#
# _framework density 22.154502000000001
#
# number of rings (size 3 to 8) (size 9 to 14) (size 15 to 20)
#    0.857    0.571    1.429    3.857    0.000    1.143 
#    7.714    2.857    0.000    0.000    0.000    0.000 
#    0.000    0.000    0.000    0.000    0.000    0.000 
#
# Total GULP energy -173479.293989 kJ/mol
# GULP energy per Si atom -12391.378142 kJ/mol
# Density = 2.210408 g / cm^3
# Si number density = 22.154502 Si / 1000 Ang^3
#
#
#
# Elastic Constant Matrix: (Units=GPa)
#
#
# Indices 1 2 3 4 5 6 
#
# 1 141.7937 53.2776 45.9469 5.7814 -1.2778 -6.8299
# 2 53.2776 108.0527 51.9547 10.8716 0.8046 -6.0262
# 3 45.9469 51.9547 125.0975 23.3482 1.0236 -8.0610
# 4 5.7814 10.8716 23.3482 26.2092 2.3582 0.2053
# 5 -1.2778 0.8046 1.0236 2.3582 32.4701 -5.2994
# 6 -6.8299 -6.0262 -8.0610 0.2053 -5.2994 22.7245
#
#
#
# Elastic Compliance Matrix: (Units=1/GPa)
#
#
# Indices 1 2 3 4 5 6 
#
# 1 0.009052 -0.003561 -0.001996 0.001194 0.000617 0.001201
# 2 -0.003561 0.013021 -0.003804 -0.001227 -0.000087 0.001024
# 3 -0.001996 -0.003804 0.012152 -0.008899 0.000762 0.002960
# 4 0.001194 -0.001227 -0.008899 0.046700 -0.003755 -0.004421
# 5 0.000617 -0.000087 0.000762 -0.003755 0.032381 0.008018
# 6 0.001201 0.001024 0.002960 -0.004421 0.008018 0.047598
#
#
# Mechanical properties :
#
#
# Convention : Reuss Voigt Hill
#
# Bulk Modulus (GPa) = 64.50604 75.25580 69.88092
# Shear Modulus (GPa) = 27.05693 31.19842 29.12767
#
# Velocity S-wave (km/s) = 3.49848 3.75670 3.62988
# Velocity P-wave (km/s) = 6.74528 7.27045 7.01278
#
# Compressibility (1/GPa) = 0.01550242
#
# Stress axis : x y z
#
# Youngs Moduli (GPa) = 110.47047 76.79898 82.28892
#
# Poissons Ratio (x) = 0.27350 0.16426
# Poissons Ratio (y) = 0.39341 0.31303
# Poissons Ratio (z) = 0.22052 0.29215
#
# Static dielectric constant tensor:
#      x y z
#    x 3.933640 -0.174980 -0.114170 
#    y -0.174980 3.788410 0.229330 
#    z -0.114170 0.229330 4.181320 
# 
# 
# High freq. dielectric constant tensor:
#      x y z
#    x 1.861510 -0.013240 -0.007770 
#    y -0.013240 1.852220 0.018590 
#    z -0.007770 0.018590 1.887120 
# 
# From -- ./inp_files/256196.got.cif
#   From: 2010.06.25/outbox.cif.g09.slc.cpg/sg2_129_cif.got.tgz:256196.got - 2010.06.27 13:26:56.
