data_PCOD8008625
_publ_section_title
;
Structure prediction by ZEFSAII (Michael W. Deem and Ramdas Pophale) SiO2 
 PCOD8008625
Probable space group: P -1
;
_chemical_formula_sum "Si O2"
_cell_formula_units_Z 14
_cell_length_a 16.617123
_cell_length_b 8.426770
_cell_length_c 9.233454
_cell_angle_alpha 52.020553
_cell_angle_beta 114.427205
_cell_angle_gamma 140.346770
_cell_volume 645.671962
_symmetry_space_group_name_H-M "P -1"
_symmetry_group_IT_number 2
_symmetry_cell_setting 'triclinic'
loop_
_space_group_symop_operation_xyz
x,y,z
-x,-y,-z
loop_
_atom_site_type_symbol
_atom_site_label
_atom_site_fract_x
_atom_site_fract_y
_atom_site_fract_z
Si Si1 0.781893 0.933272 0.661482
Si Si2 0.910158 0.746624 0.871253
Si Si3 0.450251 0.937902 0.836666
Si Si4 0.797496 0.237600 0.258771
Si Si5 0.635948 0.633028 0.995996
Si Si6 0.817759 0.912124 0.238937
Si Si7 0.288895 0.500170 0.359000
O O1 0.894945 0.961391 0.772852
O O2 0.690583 0.673045 0.620693
O O3 0.835087 0.219999 0.458409
O O4 0.701926 0.861912 0.784112
O O5 0.809557 0.520748 0.794822
O O6 0.876798 0.567747 0.092407
O O7 0.051066 0.932537 0.823521
O O8 0.353513 0.965967 0.739299
O O9 0.372723 0.614923 0.912600
O O10 0.574363 0.172810 0.696734
O O11 0.500000 0.000000 0.000000
O O12 0.836896 0.137256 0.226157
O O13 0.716764 0.799148 0.105501
O O14 0.500000 0.500000 0.000000
O O15 0.770322 0.643941 0.447732
#
# Coordination Sequence:
#
# PCOD8008625 Si02
#       7
#     2   2   2   2   2   2   2
#     4   9  22  41  63  94 125 172 210 259 314 390
#     4  10  20  45  68  93 132 164 226 251 317 383
#     4  12  20  43  67  89 128 172 217 260 319 385
#     4  11  22  40  72  92 121 176 220 253 316 387
#     4  12  26  42  60  98 136 164 211 276 324 367
#     4  11  25  39  67  99 130 169 207 276 317 368
#     4   9  21  39  69  90 123 175 211 259 310 388
#
# _framework density 21.682839000000001
#
# number of rings (size 3 to 8) (size 9 to 14) (size 15 to 20)
#    0.857    0.571    4.286    1.714    2.000    2.286 
#    0.000    0.714    0.000    0.000    0.000    0.000 
#    0.000    0.000    0.000    0.000    0.000    0.000 
#
# Total GULP energy -173553.995009 kJ/mol
# GULP energy per Si atom -12396.713929 kJ/mol
# Density = 2.163349 g / cm^3
# Si number density = 21.682839 Si / 1000 Ang^3
#
#
#
# Elastic Constant Matrix: (Units=GPa)
#
#
# Indices 1 2 3 4 5 6 
#
# 1 119.7249 15.9834 46.4842 0.4467 -2.0006 34.6010
# 2 15.9834 25.3149 27.4527 1.8648 -10.1065 18.1417
# 3 46.4842 27.4527 188.2374 -4.6125 -0.9857 17.3796
# 4 0.4467 1.8648 -4.6125 25.5850 -0.2270 -8.5164
# 5 -2.0006 -10.1065 -0.9857 -0.2270 33.6344 -5.1124
# 6 34.6010 18.1417 17.3796 -8.5164 -5.1124 36.4509
#
#
#
# Elastic Compliance Matrix: (Units=1/GPa)
#
#
# Indices 1 2 3 4 5 6 
#
# 1 0.013287 0.007109 -0.002980 -0.006693 0.000324 -0.016248
# 2 0.007109 0.094147 -0.011266 -0.025959 0.020388 -0.051440
# 3 -0.002980 -0.011266 0.007263 0.004012 -0.002477 0.005563
# 4 -0.006693 -0.025959 0.004012 0.051409 -0.003341 0.028902
# 5 0.000324 0.020388 -0.002477 -0.003341 0.035000 -0.005146
# 6 -0.016248 -0.051440 0.005563 0.028902 -0.005146 0.071838
#
#
# Mechanical properties :
#
#
# Convention : Reuss Voigt Hill
#
# Bulk Modulus (GPa) = 9.95788 57.01310 33.48549
# Shear Modulus (GPa) = 15.59132 35.35783 25.47458
#
# Velocity S-wave (km/s) = 2.68444 4.04255 3.43136
# Velocity P-wave (km/s) = 3.76972 6.93836 5.58353
#
# Compressibility (1/GPa) = 0.10042298
#
# Stress axis : x y z
#
# Youngs Moduli (GPa) = 75.26435 10.62167 137.68177
#
# Poissons Ratio (x) = -0.07551 0.41029
# Poissons Ratio (y) = -0.53507 1.55114
# Poissons Ratio (z) = 0.22429 0.11966
#
# Static dielectric constant tensor:
#      x y z
#    x 3.844790 0.067060 -0.013200 
#    y 0.067060 3.630250 -0.065400 
#    z -0.013200 -0.065400 4.298570 
# 
# 
# High freq. dielectric constant tensor:
#      x y z
#    x 1.849000 0.016520 -0.005270 
#    y 0.016520 1.816390 -0.000300 
#    z -0.005270 -0.000300 1.868300 
# 
# From -- ./inp_files/325618.got.cif
#   From: 2010.06.25/outbox.cif.g09.slc.cpg/sg2_163_cif.got.tgz:325618.got - 2010.06.27 13:26:56.
