data_PCOD8008606
_publ_section_title
;
Structure prediction by ZEFSAII (Michael W. Deem and Ramdas Pophale) SiO2 
 PCOD8008606
Probable space group: P -1
;
_chemical_formula_sum "Si O2"
_cell_formula_units_Z 14
_cell_length_a 14.132880
_cell_length_b 21.852244
_cell_length_c 13.737493
_cell_angle_alpha 156.680512
_cell_angle_beta 147.430456
_cell_angle_gamma 19.604273
_cell_volume 555.471694
_symmetry_space_group_name_H-M "P -1"
_symmetry_group_IT_number 2
_symmetry_cell_setting 'triclinic'
loop_
_space_group_symop_operation_xyz
x,y,z
-x,-y,-z
loop_
_atom_site_type_symbol
_atom_site_label
_atom_site_fract_x
_atom_site_fract_y
_atom_site_fract_z
Si Si1 0.692340 0.944962 0.356764
Si Si2 0.526888 0.350202 0.104930
Si Si3 0.363123 0.044374 0.045854
Si Si4 0.075883 0.393837 0.535294
Si Si5 0.006422 0.883474 0.958299
Si Si6 0.787353 0.722421 0.307945
Si Si7 0.837233 0.154452 0.393016
O O1 0.874407 0.736719 0.299226
O O2 0.880726 0.949650 0.475210
O O3 0.600709 0.881867 0.101920
O O4 0.405896 0.218770 0.555304
O O5 0.440583 0.547096 0.391857
O O6 0.658952 0.333652 0.097294
O O7 0.250508 0.436287 0.972196
O O8 0.782764 0.057995 0.931459
O O9 0.127070 0.338217 0.297545
O O10 0.500000 0.000000 0.000000
O O11 0.215869 0.979567 0.805469
O O12 0.036164 0.259537 0.245518
O O13 0.993604 0.417884 0.614731
O O14 0.904990 0.087842 0.241147
O O15 0.500000 0.000000 0.500000
#
# Coordination Sequence:
#
# PCOD8008606 Si02
#       7
#     2   2   2   2   2   2   2
#     4  11  25  47  74 107 142 191 250 297 369 435
#     4  11  23  41  71 109 151 188 243 304 369 437
#     4  12  28  51  70 103 153 198 244 303 367 443
#     4  11  23  47  76 102 151 196 242 302 370 439
#     4  11  22  43  73 106 152 195 239 302 376 433
#     4  10  20  44  71 111 141 184 244 303 362 430
#     4  12  27  46  72 112 145 193 251 302 367 442
#
# _framework density 25.203803000000001
#
# number of rings (size 3 to 8) (size 9 to 14) (size 15 to 20)
#    0.000    0.857    4.286    3.429    4.000    1.714 
#    5.143    0.000    0.000    0.000    0.000    0.000 
#    0.000    0.000    0.000    0.000    0.000    0.000 
#
# Total GULP energy -173475.884240 kJ/mol
# GULP energy per Si atom -12391.134589 kJ/mol
# Density = 2.514644 g / cm^3
# Si number density = 25.203803 Si / 1000 Ang^3
#
#
#
# Elastic Constant Matrix: (Units=GPa)
#
#
# Indices 1 2 3 4 5 6 
#
# 1 127.4829 42.3897 43.5130 -8.8592 7.4057 -13.4936
# 2 42.3897 61.5327 28.9898 -10.8033 20.8262 -6.0179
# 3 43.5130 28.9898 167.8822 -2.2431 16.0035 -18.6121
# 4 -8.8592 -10.8033 -2.2431 32.1014 -3.6340 1.3418
# 5 7.4057 20.8262 16.0035 -3.6340 47.3711 -8.1655
# 6 -13.4936 -6.0179 -18.6121 1.3418 -8.1655 47.5720
#
#
#
# Elastic Compliance Matrix: (Units=1/GPa)
#
#
# Indices 1 2 3 4 5 6 
#
# 1 0.010918 -0.007294 -0.001576 0.000640 0.002418 0.001955
# 2 -0.007294 0.026229 -0.001790 0.005658 -0.009568 -0.001253
# 3 -0.001576 -0.001790 0.006975 -0.000748 -0.001054 0.001896
# 4 0.000640 0.005658 -0.000748 0.033211 0.000160 -0.000305
# 5 0.002418 -0.009568 -0.001054 0.000160 0.025911 0.003506
# 6 0.001955 -0.001253 0.001896 -0.000305 0.003506 0.022769
#
#
# Mechanical properties :
#
#
# Convention : Reuss Voigt Hill
#
# Bulk Modulus (GPa) = 43.85455 65.18698 54.52076
# Shear Modulus (GPa) = 32.27208 41.54259 36.90733
#
# Velocity S-wave (km/s) = 3.58221 4.06429 3.83084
# Velocity P-wave (km/s) = 5.87770 6.92421 6.42231
#
# Compressibility (1/GPa) = 0.02280265
#
# Stress axis : x y z
#
# Youngs Moduli (GPa) = 91.58942 38.12579 143.37710
#
# Poissons Ratio (x) = 0.27809 0.22590
# Poissons Ratio (y) = 0.66806 0.25663
# Poissons Ratio (z) = 0.14431 0.06824
#
# Static dielectric constant tensor:
#      x y z
#    x 4.773630 -0.036730 -0.072110 
#    y -0.036730 4.405950 -0.150280 
#    z -0.072110 -0.150280 4.623040 
# 
# 
# High freq. dielectric constant tensor:
#      x y z
#    x 2.014790 -0.016590 -0.010320 
#    y -0.016590 1.967920 -0.003450 
#    z -0.010320 -0.003450 2.016990 
# 
# From -- ./inp_files/535356.got.cif
#   From: 2010.06.25/outbox.cif.g09.slc.cpg/sg2_268_cif.got.tgz:535356.got - 2010.06.27 13:26:56.
