data_PCOD8008278
_publ_section_title
;
Structure prediction by ZEFSAII (Michael W. Deem and Ramdas Pophale) SiO2 
 PCOD8008278
Probable space group: P -1
;
_chemical_formula_sum "Si O2"
_cell_formula_units_Z 16
_cell_length_a 8.063166
_cell_length_b 8.897572
_cell_length_c 11.914944
_cell_angle_alpha 62.830873
_cell_angle_beta 107.133480
_cell_angle_gamma 113.485627
_cell_volume 690.816147
_symmetry_space_group_name_H-M "P -1"
_symmetry_group_IT_number 2
_symmetry_cell_setting 'triclinic'
loop_
_space_group_symop_operation_xyz
x,y,z
-x,-y,-z
loop_
_atom_site_type_symbol
_atom_site_label
_atom_site_fract_x
_atom_site_fract_y
_atom_site_fract_z
Si Si1 0.076900 0.957226 0.415516
Si Si2 0.720339 0.864928 0.245515
Si Si3 0.189816 0.155796 0.980467
Si Si4 0.465961 0.175257 0.393737
Si Si5 0.290345 0.492334 0.563621
Si Si6 0.025480 0.587095 0.626798
Si Si7 0.454122 0.834656 0.834301
Si Si8 0.874175 0.478453 0.090688
O O1 0.119119 0.772873 0.514086
O O2 0.933080 0.944639 0.292349
O O3 0.247936 0.123342 0.356712
O O4 0.000000 0.000000 0.500000
O O5 0.709297 0.836137 0.120505
O O6 0.635056 0.676869 0.356925
O O7 0.604224 0.989990 0.219141
O O8 0.153364 0.337314 0.943490
O O9 0.334270 0.119146 0.107849
O O10 0.000000 0.000000 0.000000
O O11 0.538345 0.331968 0.445541
O O12 0.567544 0.230986 0.276704
O O13 0.500000 0.000000 0.500000
O O14 0.140432 0.463338 0.644373
O O15 0.188148 0.492795 0.423934
O O16 0.036267 0.597337 0.760675
O O17 0.318935 0.667294 0.931213
O O18 0.000000 0.500000 0.000000
#
# Coordination Sequence:
#
# PCOD8008278 Si02
#       8
#     2   2   2   2   2   2   2   2
#     4  11  23  41  70 103 140 180 228 289 354 416
#     4  11  23  45  67  97 141 184 229 284 349 417
#     4  12  26  46  70 100 135 186 233 291 351 413
#     4  12  22  41  70 103 138 179 232 291 353 411
#     4  10  21  40  73 100 136 180 225 284 350 406
#     4  10  20  42  70 100 138 179 225 282 349 414
#     4  12  26  46  70 102 138 186 237 291 342 419
#     4  12  25  46  72 104 140 186 236 289 350 418
#
# _framework density 23.161007999999999
#
# number of rings (size 3 to 8) (size 9 to 14) (size 15 to 20)
#    0.000    0.750    3.750    3.750    0.000    2.000 
#    0.000    9.375    0.000    0.000    0.000    0.000 
#    0.000    0.000    0.000    0.000    0.000    0.000 
#
# Total GULP energy -198405.670395 kJ/mol
# GULP energy per Si atom -12400.354400 kJ/mol
# Density = 2.310829 g / cm^3
# Si number density = 23.161008 Si / 1000 Ang^3
#
#
#
# Elastic Constant Matrix: (Units=GPa)
#
#
# Indices 1 2 3 4 5 6 
#
# 1 102.1986 61.3311 39.9402 -7.7820 -0.9683 9.6693
# 2 61.3311 170.1402 31.3752 -13.8111 17.5628 18.9548
# 3 39.9402 31.3752 92.5242 9.9586 6.3985 7.6226
# 4 -7.7820 -13.8111 9.9586 36.9164 -5.8230 1.7109
# 5 -0.9683 17.5628 6.3985 -5.8230 39.1670 5.2902
# 6 9.6693 18.9548 7.6226 1.7109 5.2902 44.4917
#
#
#
# Elastic Compliance Matrix: (Units=1/GPa)
#
#
# Indices 1 2 3 4 5 6 
#
# 1 0.015006 -0.004368 -0.005580 0.003704 0.003934 -0.001054
# 2 -0.004368 0.008318 -0.000756 0.002003 -0.003124 -0.002171
# 3 -0.005580 -0.000756 0.014327 -0.005773 -0.002951 -0.000347
# 4 0.003704 0.002003 -0.005773 0.031094 0.005093 -0.002470
# 5 0.003934 -0.003124 -0.002951 0.005093 0.028622 -0.002618
# 6 -0.001054 -0.002171 -0.000347 -0.002470 -0.002618 0.024096
#
#
# Mechanical properties :
#
#
# Convention : Reuss Voigt Hill
#
# Bulk Modulus (GPa) = 61.56550 70.01732 65.79141
# Shear Modulus (GPa) = 33.71831 39.59612 36.65722
#
# Velocity S-wave (km/s) = 3.81966 4.13922 3.98265
# Velocity P-wave (km/s) = 6.78913 7.28975 7.04389
#
# Compressibility (1/GPa) = 0.01624286
#
# Stress axis : x y z
#
# Youngs Moduli (GPa) = 66.63853 120.21528 69.79696
#
# Poissons Ratio (x) = 0.52514 0.38949
# Poissons Ratio (y) = 0.29110 0.05276
# Poissons Ratio (z) = 0.37187 0.09087
#
# Static dielectric constant tensor:
#      x y z
#    x 4.525960 0.224150 0.030700 
#    y 0.224150 4.140470 0.364920 
#    z 0.030700 0.364920 3.824600 
# 
# 
# High freq. dielectric constant tensor:
#      x y z
#    x 1.913580 -0.002340 0.008480 
#    y -0.002340 1.934870 0.008610 
#    z 0.008480 0.008610 1.908020 
# 
# From -- ./inp_files/352104.got.cif
#   From: 2010.06.25/outbox.cif.g09.slc.cpg/sg2_177_cif.got.tgz:352104.got - 2010.06.27 13:26:56.
