data_PCOD8008303
_publ_section_title
;
Structure prediction by ZEFSAII (Michael W. Deem and Ramdas Pophale) SiO2 
 PCOD8008303
Probable space group: P -1
;
_chemical_formula_sum "Si O2"
_cell_formula_units_Z 12
_cell_length_a 11.380480
_cell_length_b 7.073788
_cell_length_c 18.517289
_cell_angle_alpha 50.937658
_cell_angle_beta 31.717156
_cell_angle_gamma 69.512122
_cell_volume 541.638682
_symmetry_space_group_name_H-M "P -1"
_symmetry_group_IT_number 2
_symmetry_cell_setting 'triclinic'
loop_
_space_group_symop_operation_xyz
x,y,z
-x,-y,-z
loop_
_atom_site_type_symbol
_atom_site_label
_atom_site_fract_x
_atom_site_fract_y
_atom_site_fract_z
Si Si1 0.320768 0.476296 0.464607
Si Si2 0.911658 0.103167 0.860210
Si Si3 0.112136 0.272499 0.922003
Si Si4 0.114202 0.989946 0.258637
Si Si5 0.254913 0.001216 0.339535
Si Si6 0.781628 0.421906 0.970296
O O1 0.605507 0.531790 0.297284
O O2 0.202240 0.322832 0.639609
O O3 0.289315 0.751338 0.414215
O O4 0.165993 0.267896 0.530385
O O5 0.786238 0.222435 0.952914
O O6 0.762301 0.030880 0.878342
O O7 0.900666 0.820648 0.965396
O O8 0.942187 0.424277 0.956778
O O9 0.000000 0.000000 0.000000
O O10 0.263236 0.976453 0.254071
O O11 0.103495 0.277131 0.195199
O O12 0.484875 0.288152 0.176733
O O13 0.000000 0.000000 0.500000
#
# Coordination Sequence:
#
# PCOD8008303 Si02
#       6
#     2   2   2   2   2   2
#     4  10  22  44  66 103 129 177 221 269 343 381
#     4   9  22  42  68 100 131 174 217 276 335 380
#     4  10  20  42  71  98 135 172 221 276 333 399
#     4  10  25  42  66 101 135 176 221 275 328 400
#     4  12  24  44  67  98 138 179 225 272 330 402
#     4  11  23  45  68 100 135 177 223 272 338 392
#
# _framework density 22.154990000000002
#
# number of rings (size 3 to 8) (size 9 to 14) (size 15 to 20)
#    1.000    0.667    3.333    2.000    0.000    6.000 
#    6.000    0.000    0.000    0.000    0.000    0.000 
#    0.000    0.000    0.000    0.000    0.000    0.000 
#
# Total GULP energy -148670.666732 kJ/mol
# GULP energy per Si atom -12389.222228 kJ/mol
# Density = 2.210456 g / cm^3
# Si number density = 22.154990 Si / 1000 Ang^3
#
#
#
# Elastic Constant Matrix: (Units=GPa)
#
#
# Indices 1 2 3 4 5 6 
#
# 1 42.3970 5.7464 22.0556 10.7750 9.1653 -7.6654
# 2 5.7464 63.9245 20.0890 -8.6852 -6.1399 -2.8543
# 3 22.0556 20.0890 134.4174 -5.8261 -13.1801 -19.1768
# 4 10.7750 -8.6852 -5.8261 26.9523 5.9106 -4.0710
# 5 9.1653 -6.1399 -13.1801 5.9106 44.6123 3.6500
# 6 -7.6654 -2.8543 -19.1768 -4.0710 3.6500 18.4391
#
#
#
# Elastic Compliance Matrix: (Units=1/GPa)
#
#
# Indices 1 2 3 4 5 6 
#
# 1 0.032826 -0.003479 -0.005263 -0.012759 -0.007604 0.006323
# 2 -0.003479 0.017502 -0.001478 0.006444 0.001768 0.000798
# 3 -0.005263 -0.001478 0.010219 0.004588 0.002576 0.008714
# 4 -0.012759 0.006444 0.004588 0.047516 -0.002366 0.011424
# 5 -0.007604 0.001768 0.002576 -0.002366 0.025773 -0.005833
# 6 0.006323 0.000798 0.008714 0.011424 -0.005833 0.069723
#
#
# Mechanical properties :
#
#
# Convention : Reuss Voigt Hill
#
# Bulk Modulus (GPa) = 24.93374 37.39121 31.16247
# Shear Modulus (GPa) = 21.06451 30.85726 25.96088
#
# Velocity S-wave (km/s) = 3.08682 3.73606 3.42685
# Velocity P-wave (km/s) = 4.89727 5.96025 5.45472
#
# Compressibility (1/GPa) = 0.04010630
#
# Stress axis : x y z
#
# Youngs Moduli (GPa) = 30.46408 57.13735 97.86103
#
# Poissons Ratio (x) = 0.19875 0.51503
# Poissons Ratio (y) = 0.10597 0.14468
# Poissons Ratio (z) = 0.16033 0.08447
#
# Static dielectric constant tensor:
#      x y z
#    x 4.491040 -0.238910 0.163270 
#    y -0.238910 3.795220 -0.290470 
#    z 0.163270 -0.290470 4.035850 
# 
# 
# High freq. dielectric constant tensor:
#      x y z
#    x 1.873860 -0.002420 0.005540 
#    y -0.002420 1.855240 -0.020910 
#    z 0.005540 -0.020910 1.874550 
# 
# From -- ./inp_files/412284.got.cif
#   From: 2010.06.25/outbox.cif.g09.slc.cpg/sg2_207_cif.got.tgz:412284.got - 2010.06.27 13:26:56.
