data_PCOD8008284
_publ_section_title
;
Structure prediction by ZEFSAII (Michael W. Deem and Ramdas Pophale) SiO2 
 PCOD8008284
Probable space group: P -1
;
_chemical_formula_sum "Si O2"
_cell_formula_units_Z 16
_cell_length_a 9.586753
_cell_length_b 28.348755
_cell_length_c 28.093888
_cell_angle_alpha 10.180811
_cell_angle_beta 39.044790
_cell_angle_gamma 37.990859
_cell_volume 830.665080
_symmetry_space_group_name_H-M "P -1"
_symmetry_group_IT_number 2
_symmetry_cell_setting 'triclinic'
loop_
_space_group_symop_operation_xyz
x,y,z
-x,-y,-z
loop_
_atom_site_type_symbol
_atom_site_label
_atom_site_fract_x
_atom_site_fract_y
_atom_site_fract_z
Si Si1 0.166964 0.441223 0.329094
Si Si2 0.243745 0.547377 0.507264
Si Si3 0.323577 0.904921 0.968054
Si Si4 0.518736 0.636130 0.587115
Si Si5 0.726117 0.365694 0.046709
Si Si6 0.820143 0.950477 0.040492
Si Si7 0.984288 0.171646 0.493905
Si Si8 0.836802 0.065128 0.226834
O O1 0.362352 0.445832 0.312063
O O2 0.105769 0.732076 0.029730
O O3 0.926124 0.420195 0.435498
O O4 0.256565 0.179794 0.530612
O O5 0.500000 0.500000 0.500000
O O6 0.244063 0.293648 0.726878
O O7 0.166804 0.815720 0.231475
O O8 0.486006 0.633112 0.175229
O O9 0.073967 0.843374 0.097983
O O10 0.344085 0.163680 0.673709
O O11 0.368792 0.962245 0.954540
O O12 0.253408 0.773493 0.525555
O O13 0.894640 0.573417 0.792076
O O14 0.660954 0.260048 0.116318
O O15 0.500000 0.500000 0.000000
O O16 0.857161 0.093268 0.310822
O O17 0.955742 0.081608 0.646854
#
# Coordination Sequence:
#
# PCOD8008284 Si02
#       8
#     2   2   2   2   2   2   2   2
#     4  12  22  40  61  85 130 164 198 254 318 368
#     4  12  25  40  56  83 118 167 210 256 313 367
#     4  11  22  38  64  77 113 160 208 264 308 359
#     4  12  23  39  63  90 124 161 201 262 318 355
#     4  10  20  42  70  95 126 158 199 244 293 364
#     4  11  22  42  55  84 107 154 223 253 308 367
#     4  10  22  39  62 101 119 153 211 240 295 357
#     4  10  22  39  62  94 118 162 204 237 304 371
#
# _framework density 19.261675
#
# number of rings (size 3 to 8) (size 9 to 14) (size 15 to 20)
#    0.750    0.250    3.750    3.750    0.000    5.000 
#    0.000    0.000    0.000    4.500    0.000    0.000 
#    0.000    0.000    0.000    0.000    0.000    0.000 
#
# Total GULP energy -198213.235583 kJ/mol
# GULP energy per Si atom -12388.327224 kJ/mol
# Density = 1.921783 g / cm^3
# Si number density = 19.261675 Si / 1000 Ang^3
#
#
#
# Elastic Constant Matrix: (Units=GPa)
#
#
# Indices 1 2 3 4 5 6 
#
# 1 71.4717 49.1545 31.9668 0.2383 -3.9431 -6.2690
# 2 49.1545 89.2103 23.6785 -15.7178 -7.8160 -2.2933
# 3 31.9668 23.6785 124.2112 -13.3658 -12.3695 2.5994
# 4 0.2383 -15.7178 -13.3658 31.9009 4.5458 -1.3042
# 5 -3.9431 -7.8160 -12.3695 4.5458 30.7940 -6.1286
# 6 -6.2690 -2.2933 2.5994 -1.3042 -6.1286 23.9253
#
#
#
# Elastic Compliance Matrix: (Units=1/GPa)
#
#
# Indices 1 2 3 4 5 6 
#
# 1 0.027386 -0.015236 -0.005300 -0.009709 0.000096 0.005786
# 2 -0.015236 0.021344 0.001253 0.010805 0.002189 -0.000933
# 3 -0.005300 0.001253 0.009946 0.004381 0.002706 -0.001417
# 4 -0.009709 0.010805 0.004381 0.038926 -0.002592 -0.000526
# 5 0.000096 0.002189 0.002706 -0.002592 0.036323 0.009104
# 6 0.005786 -0.000933 -0.001417 -0.000526 0.009104 0.045681
#
#
# Mechanical properties :
#
#
# Convention : Reuss Voigt Hill
#
# Bulk Modulus (GPa) = 49.72931 54.94363 52.33647
# Shear Modulus (GPa) = 22.23443 29.33029 25.78236
#
# Velocity S-wave (km/s) = 3.40124 3.90645 3.66256
# Velocity P-wave (km/s) = 6.42638 6.99528 6.71685
#
# Compressibility (1/GPa) = 0.02010887
#
# Stress axis : x y z
#
# Youngs Moduli (GPa) = 36.51511 46.85233 100.53816
#
# Poissons Ratio (x) = 0.71386 0.53283
# Poissons Ratio (y) = 0.55636 -0.12593
# Poissons Ratio (z) = 0.19352 -0.05869
#
# Static dielectric constant tensor:
#      x y z
#    x 3.367290 0.198100 -0.127400 
#    y 0.198100 3.367280 -0.239550 
#    z -0.127400 -0.239550 3.968770 
# 
# 
# High freq. dielectric constant tensor:
#      x y z
#    x 1.737470 0.010410 -0.001400 
#    y 0.010410 1.723780 -0.014880 
#    z -0.001400 -0.014880 1.778340 
# 
# From -- ./inp_files/617660.got.cif
#   From: 2010.06.25/outbox.cif.g09.slc.cpg/sg2_309_cif.got.tgz:617660.got - 2010.06.27 13:26:56.
