data_PCOD8008003
_publ_section_title
;
Structure prediction by ZEFSAII (Michael W. Deem and Ramdas Pophale) SiO2 
 PCOD8008003
Probable space group: P -1
;
_chemical_formula_sum "Si O2"
_cell_formula_units_Z 14
_cell_length_a 9.298131
_cell_length_b 19.143747
_cell_length_c 18.256894
_cell_angle_alpha 27.987586
_cell_angle_beta 142.513336
_cell_angle_gamma 152.493081
_cell_volume 703.558173
_symmetry_space_group_name_H-M "P -1"
_symmetry_group_IT_number 2
_symmetry_cell_setting 'triclinic'
loop_
_space_group_symop_operation_xyz
x,y,z
-x,-y,-z
loop_
_atom_site_type_symbol
_atom_site_label
_atom_site_fract_x
_atom_site_fract_y
_atom_site_fract_z
Si Si1 0.672932 0.933905 0.942217
Si Si2 0.478688 0.902378 0.156885
Si Si3 0.796184 0.515643 0.613355
Si Si4 0.219677 0.848607 0.723720
Si Si5 0.909343 0.793160 0.796677
Si Si6 0.531906 0.131299 0.456303
Si Si7 0.917189 0.462649 0.872218
O O1 0.545791 0.940458 0.807818
O O2 0.726005 0.089031 0.876719
O O3 0.436819 0.717222 0.081911
O O4 0.000000 0.000000 0.000000
O O5 0.296739 0.675331 0.284700
O O6 0.821530 0.015832 0.223808
O O7 0.500000 0.000000 0.000000
O O8 0.500000 0.500000 0.500000
O O9 0.908112 0.539115 0.719883
O O10 0.105583 0.709604 0.519516
O O11 0.994597 0.832937 0.707491
O O12 0.062086 0.632894 0.831880
O O13 0.302301 0.991809 0.558467
O O14 0.592881 0.754362 0.722087
O O15 0.883279 0.609511 0.981673
O O16 0.500000 0.000000 0.500000
#
# Coordination Sequence:
#
# PCOD8008003 Si02
#       7
#     2   2   2   2   2   2   2
#     4  10  22  38  68  94 123 163 211 262 308 368
#     4  10  20  42  63  89 124 164 207 254 315 369
#     4  12  25  41  62  96 131 163 209 263 316 371
#     4  10  22  43  63  94 128 162 211 257 318 369
#     4  10  22  42  67  91 126 161 213 264 309 371
#     4  12  25  41  63  97 124 169 209 258 316 375
#     4  10  21  43  65  92 125 168 207 260 313 363
#
# _framework density 19.898852000000002
#
# number of rings (size 3 to 8) (size 9 to 14) (size 15 to 20)
#    0.000    1.714    4.286    3.000    2.000    4.000 
#    0.000    2.857    0.000    0.000    0.000    0.000 
#    0.000    0.000    0.000    0.000    0.000    0.000 
#
# Total GULP energy -173555.603034 kJ/mol
# GULP energy per Si atom -12396.828788 kJ/mol
# Density = 1.985356 g / cm^3
# Si number density = 19.898852 Si / 1000 Ang^3
#
#
#
# Elastic Constant Matrix: (Units=GPa)
#
#
# Indices 1 2 3 4 5 6 
#
# 1 102.1679 65.6097 53.6249 10.3722 23.7975 -5.6343
# 2 65.6097 115.4264 43.2884 -12.5130 33.9347 -12.7637
# 3 53.6249 43.2884 89.7444 -4.8861 11.8756 2.0483
# 4 10.3722 -12.5130 -4.8861 38.0782 0.9592 7.2688
# 5 23.7975 33.9347 11.8756 0.9592 39.7130 10.8567
# 6 -5.6343 -12.7637 2.0483 7.2688 10.8567 44.8344
#
#
#
# Elastic Compliance Matrix: (Units=1/GPa)
#
#
# Indices 1 2 3 4 5 6 
#
# 1 0.022713 -0.009152 -0.009347 -0.010938 -0.003642 0.003331
# 2 -0.009152 0.020105 -0.002228 0.007892 -0.013010 0.006546
# 3 -0.009347 -0.002228 0.017732 0.004806 0.003229 -0.004180
# 4 -0.010938 0.007892 0.004806 0.033333 -0.001213 -0.004458
# 5 -0.003642 -0.013010 0.003229 -0.001213 0.041409 -0.014139
# 6 0.003331 0.006546 -0.004180 -0.004458 -0.014139 0.028924
#
#
# Mechanical properties :
#
#
# Convention : Reuss Voigt Hill
#
# Bulk Modulus (GPa) = 52.36186 70.26497 61.31341
# Shear Modulus (GPa) = 23.58107 34.17952 28.88029
#
# Velocity S-wave (km/s) = 3.44619 4.14897 3.81380
# Velocity P-wave (km/s) = 6.49662 7.63804 7.09033
#
# Compressibility (1/GPa) = 0.01909787
#
# Stress axis : x y z
#
# Youngs Moduli (GPa) = 44.02729 49.73890 56.39472
#
# Poissons Ratio (x) = 0.45519 0.52712
# Poissons Ratio (y) = 0.40292 0.12562
# Poissons Ratio (z) = 0.41153 0.11079
#
# Static dielectric constant tensor:
#      x y z
#    x 3.596870 -0.080470 -0.063620 
#    y -0.080470 3.722680 0.069170 
#    z -0.063620 0.069170 3.441220 
# 
# 
# High freq. dielectric constant tensor:
#      x y z
#    x 1.777300 -0.014230 0.003130 
#    y -0.014230 1.782200 -0.001640 
#    z 0.003130 -0.001640 1.776990 
# 
# From -- ./inp_files/175266.got.cif
#   From: 2010.06.25/outbox.cif.g09.slc.cpg/sg2_88_cif.got.tgz:175266.got - 2010.06.27 13:26:56.
