data_PCOD8008720
_publ_section_title
;
Structure prediction by ZEFSAII (Michael W. Deem and Ramdas Pophale) SiO2 
 PCOD8008720
Probable space group: P -1
;
_chemical_formula_sum "Si O2"
_cell_formula_units_Z 16
_cell_length_a 15.885263
_cell_length_b 8.556375
_cell_length_c 15.281283
_cell_angle_alpha 76.576833
_cell_angle_beta 152.128629
_cell_angle_gamma 108.926411
_cell_volume 911.469482
_symmetry_space_group_name_H-M "P -1"
_symmetry_group_IT_number 2
_symmetry_cell_setting 'triclinic'
loop_
_space_group_symop_operation_xyz
x,y,z
-x,-y,-z
loop_
_atom_site_type_symbol
_atom_site_label
_atom_site_fract_x
_atom_site_fract_y
_atom_site_fract_z
Si Si1 0.187873 0.453962 0.923761
Si Si2 0.601773 0.513065 0.323478
Si Si3 0.399686 0.798484 0.524241
Si Si4 0.073100 0.557900 0.464793
Si Si5 0.936734 0.392592 0.041231
Si Si6 0.068671 0.853006 0.323331
Si Si7 0.224035 0.224765 0.411992
Si Si8 0.586685 0.164749 0.665574
O O1 0.116685 0.494818 0.947162
O O2 0.078178 0.529786 0.737570
O O3 0.133885 0.251281 0.887055
O O4 0.407804 0.531154 0.103133
O O5 0.552248 0.357364 0.364623
O O6 0.732771 0.489103 0.367094
O O7 0.704387 0.681845 0.444813
O O8 0.211091 0.830097 0.382622
O O9 0.369330 0.753707 0.400115
O O10 0.566027 0.966370 0.668777
O O11 0.109860 0.759235 0.462313
O O12 0.000000 0.500000 0.500000
O O13 0.109573 0.323834 0.237034
O O14 0.756233 0.241207 0.876341
O O15 0.000000 0.500000 0.000000
O O16 0.085334 0.045026 0.333051
O O17 0.398314 0.204831 0.519266
#
# Coordination Sequence:
#
# PCOD8008720 Si02
#       8
#     2   2   2   2   2   2   2   2
#     4  10  21  37  56  84 112 144 190 223 277 339
#     4  11  20  35  60  80 111 147 177 237 283 331
#     4   9  19  37  51  77 116 149 191 227 279 323
#     4   9  20  41  63  82 110 143 182 234 288 343
#     4  12  23  34  54  83 117 155 194 225 272 323
#     4   8  19  38  56  80 112 143 187 228 280 332
#     4  11  21  36  55  82 115 150 187 231 278 320
#     4  10  21  34  52  79 111 152 194 233 263 329
#
# _framework density 17.554072999999999
#
# number of rings (size 3 to 8) (size 9 to 14) (size 15 to 20)
#    0.750    1.250    2.500    1.500    3.500    1.500 
#    0.000    3.125    0.000    0.750    0.000    0.000 
#    0.000    0.000    0.000    0.000    0.000    0.000 
#
# Total GULP energy -198306.785892 kJ/mol
# GULP energy per Si atom -12394.174118 kJ/mol
# Density = 1.751412 g / cm^3
# Si number density = 17.554073 Si / 1000 Ang^3
#
#
#
# Elastic Constant Matrix: (Units=GPa)
#
#
# Indices 1 2 3 4 5 6 
#
# 1 114.7018 33.8596 30.4840 -0.3191 -2.6033 12.5980
# 2 33.8596 82.5917 30.4881 16.1307 -0.3220 -3.3342
# 3 30.4840 30.4881 111.4142 11.7742 6.9302 -2.6864
# 4 -0.3191 16.1307 11.7742 28.0135 -7.2915 1.3094
# 5 -2.6033 -0.3220 6.9302 -7.2915 19.0522 -1.9320
# 6 12.5980 -3.3342 -2.6864 1.3094 -1.9320 15.7361
#
#
#
# Elastic Compliance Matrix: (Units=1/GPa)
#
#
# Indices 1 2 3 4 5 6 
#
# 1 0.012656 -0.005752 -0.003095 0.006350 0.003979 -0.011919
# 2 -0.005752 0.017500 -0.001695 -0.010629 -0.003077 0.008530
# 3 -0.003095 -0.001695 0.011373 -0.005676 -0.006380 0.003749
# 4 0.006350 -0.010629 -0.005676 0.050193 0.020957 -0.009908
# 5 0.003979 -0.003077 -0.006380 0.020957 0.063434 0.001117
# 6 -0.011919 0.008530 0.003749 -0.009908 0.001117 0.076499
#
#
# Mechanical properties :
#
#
# Convention : Reuss Voigt Hill
#
# Bulk Modulus (GPa) = 48.90878 55.37458 52.14168
# Shear Modulus (GPa) = 19.26398 26.81876 23.04137
#
# Velocity S-wave (km/s) = 3.31631 3.91292 3.62690
# Velocity P-wave (km/s) = 6.52581 7.21306 6.87802
#
# Compressibility (1/GPa) = 0.02044623
#
# Stress axis : x y z
#
# Youngs Moduli (GPa) = 79.01608 57.14397 87.92726
#
# Poissons Ratio (x) = 0.32868 0.27211
# Poissons Ratio (y) = 0.45448 0.14900
# Poissons Ratio (z) = 0.24453 0.09684
#
# Static dielectric constant tensor:
#      x y z
#    x 2.994280 -0.043990 0.089760 
#    y -0.043990 3.463370 0.251650 
#    z 0.089760 0.251650 3.344120 
# 
# 
# High freq. dielectric constant tensor:
#      x y z
#    x 1.660010 -0.006490 0.010100 
#    y -0.006490 1.672280 0.013020 
#    z 0.010100 0.013020 1.680290 
# 
# From -- ./inp_files/220828.got.cif
#   From: 2010.06.25/outbox.cif.g09.slc.cpg/sg2_111_cif.got.tgz:220828.got - 2010.06.27 13:26:56.
