data_PCOD8008723
_publ_section_title
;
Structure prediction by ZEFSAII (Michael W. Deem and Ramdas Pophale) SiO2 
 PCOD8008723
Probable space group: P -1
;
_chemical_formula_sum "Si O2"
_cell_formula_units_Z 16
_cell_length_a 8.941445
_cell_length_b 14.516440
_cell_length_c 17.745382
_cell_angle_alpha 159.563966
_cell_angle_beta 89.392319
_cell_angle_gamma 92.788635
_cell_volume 799.224410
_symmetry_space_group_name_H-M "P -1"
_symmetry_group_IT_number 2
_symmetry_cell_setting 'triclinic'
loop_
_space_group_symop_operation_xyz
x,y,z
-x,-y,-z
loop_
_atom_site_type_symbol
_atom_site_label
_atom_site_fract_x
_atom_site_fract_y
_atom_site_fract_z
Si Si1 0.886398 0.970267 0.762425
Si Si2 0.327432 0.406355 0.101393
Si Si3 0.449939 0.085923 0.474157
Si Si4 0.610115 0.169484 0.865232
Si Si5 0.914039 0.704477 0.109188
Si Si6 0.117042 0.148401 0.027612
Si Si7 0.316895 0.252527 0.740334
Si Si8 0.060638 0.595497 0.653294
O O1 0.856438 0.650913 0.505600
O O2 0.727000 0.088852 0.865520
O O3 0.969794 0.087489 0.775977
O O4 0.977721 0.059133 0.904763
O O5 0.414142 0.689510 0.336613
O O6 0.446031 0.200292 0.921814
O O7 0.206259 0.436015 0.058472
O O8 0.254107 0.294066 0.092745
O O9 0.306020 0.122089 0.556213
O O10 0.397893 0.079053 0.383224
O O11 0.519988 0.808504 0.275782
O O12 0.683418 0.432601 0.023988
O O13 0.819848 0.859544 0.290033
O O14 0.000000 0.500000 0.000000
O O15 0.164894 0.877847 0.859102
O O16 0.072525 0.351791 0.247534
O O17 0.000000 0.500000 0.500000
#
# Coordination Sequence:
#
# PCOD8008723 Si02
#       8
#     2   2   2   2   2   2   2   2
#     4  10  22  36  60  87 113 152 189 234 287 332
#     4  10  23  37  59  83 114 153 192 235 284 336
#     4  10  22  34  56  78 109 162 202 227 277 336
#     4  11  21  39  55  78 121 153 190 236 279 331
#     4  11  21  38  56  81 122 154 192 243 277 323
#     4   9  20  40  62  89 113 140 187 238 286 340
#     4  10  21  34  53  77 110 160 197 233 275 321
#     4   9  19  38  65  87 113 144 180 232 294 346
#
# _framework density 20.019409
#
# number of rings (size 3 to 8) (size 9 to 14) (size 15 to 20)
#    0.000    2.000    2.500    0.375    5.250    3.000 
#    0.000    1.875    0.000    7.500    0.000    0.000 
#    0.000    0.000    0.000    0.000    0.000    0.000 
#
# Total GULP energy -198238.963055 kJ/mol
# GULP energy per Si atom -12389.935191 kJ/mol
# Density = 1.997384 g / cm^3
# Si number density = 20.019409 Si / 1000 Ang^3
#
#
#
# Elastic Constant Matrix: (Units=GPa)
#
#
# Indices 1 2 3 4 5 6 
#
# 1 74.9110 43.8890 30.4784 -1.7012 -18.7897 -1.7608
# 2 43.8890 109.7198 44.4621 0.1474 -14.4976 14.0677
# 3 30.4784 44.4621 95.7484 -2.3583 -19.4185 -6.1134
# 4 -1.7012 0.1474 -2.3583 36.7121 3.4002 -12.3523
# 5 -18.7897 -14.4976 -19.4185 3.4002 19.2368 -6.1389
# 6 -1.7608 14.0677 -6.1134 -12.3523 -6.1389 26.5664
#
#
#
# Elastic Compliance Matrix: (Units=1/GPa)
#
#
# Indices 1 2 3 4 5 6 
#
# 1 0.023948 -0.009341 0.002258 0.003950 0.022423 0.014071
# 2 -0.009341 0.016923 -0.007699 -0.005563 -0.008212 -0.015836
# 3 0.002258 -0.007699 0.018140 0.004564 0.018641 0.014830
# 4 0.003950 -0.005563 0.004564 0.034491 0.005023 0.021456
# 5 0.022423 -0.008212 0.018641 0.005023 0.096736 0.034813
# 6 0.014071 -0.015836 0.014830 0.021456 0.034813 0.068393
#
#
# Mechanical properties :
#
#
# Convention : Reuss Voigt Hill
#
# Bulk Modulus (GPa) = 33.95850 57.55979 45.75915
# Shear Modulus (GPa) = 16.77791 27.27305 22.02548
#
# Velocity S-wave (km/s) = 2.89811 3.69498 3.32053
# Velocity P-wave (km/s) = 5.31021 6.85699 6.13256
#
# Compressibility (1/GPa) = 0.02944771
#
# Stress axis : x y z
#
# Youngs Moduli (GPa) = 41.75702 59.09019 55.12654
#
# Poissons Ratio (x) = 0.55196 -0.12447
# Poissons Ratio (y) = 0.39005 0.42440
# Poissons Ratio (z) = -0.09428 0.45492
#
# Static dielectric constant tensor:
#      x y z
#    x 3.499910 0.062540 -0.199460 
#    y 0.062540 3.951030 0.055320 
#    z -0.199460 0.055320 3.783070 
# 
# 
# High freq. dielectric constant tensor:
#      x y z
#    x 1.756100 0.008070 -0.016380 
#    y 0.008070 1.784710 -0.005030 
#    z -0.016380 -0.005030 1.784050 
# 
# From -- ./inp_files/48288.got.cif
#   From: 2010.06.25/outbox.cif.g09.slc.cpg/sg2_25_cif.got.tgz:48288.got - 2010.06.27 13:26:56.
