data_PCOD8008168
_publ_section_title
;
Structure prediction by ZEFSAII (Michael W. Deem and Ramdas Pophale) SiO2 
 PCOD8008168
Probable space group: P -1
;
_chemical_formula_sum "Si O2"
_cell_formula_units_Z 16
_cell_length_a 8.858257
_cell_length_b 8.140875
_cell_length_c 23.099581
_cell_angle_alpha 143.551153
_cell_angle_beta 45.193068
_cell_angle_gamma 124.166510
_cell_volume 702.095468
_symmetry_space_group_name_H-M "P -1"
_symmetry_group_IT_number 2
_symmetry_cell_setting 'triclinic'
loop_
_space_group_symop_operation_xyz
x,y,z
-x,-y,-z
loop_
_atom_site_type_symbol
_atom_site_label
_atom_site_fract_x
_atom_site_fract_y
_atom_site_fract_z
Si Si1 0.713879 0.572001 0.167781
Si Si2 0.544381 0.814595 0.073874
Si Si3 0.662666 0.030527 0.217879
Si Si4 0.310544 0.213558 0.169509
Si Si5 0.144445 0.630227 0.417416
Si Si6 0.478773 0.028354 0.581768
Si Si7 0.685921 0.539335 0.552217
Si Si8 0.106282 0.995568 0.047608
O O1 0.748272 0.814936 0.181407
O O2 0.512825 0.396977 0.152936
O O3 0.674022 0.718117 0.282737
O O4 0.905170 0.343217 0.051974
O O5 0.511789 0.905893 0.174610
O O6 0.365624 0.960726 0.125122
O O7 0.500000 0.500000 0.000000
O O8 0.782268 0.878181 0.003662
O O9 0.521879 0.274129 0.352747
O O10 0.873636 0.132931 0.156668
O O11 0.139040 0.407696 0.303793
O O12 0.237639 0.084733 0.093258
O O13 0.274372 0.510983 0.404318
O O14 0.897263 0.691791 0.514785
O O15 0.279914 0.905656 0.440645
O O16 0.369592 0.740289 0.548177
O O17 0.500000 0.000000 0.500000
#
# Coordination Sequence:
#
# PCOD8008168 Si02
#       8
#     2   2   2   2   2   2   2   2
#     4  10  22  41  65  90 131 174 215 262 323 399
#     4  11  22  42  64  94 128 169 218 268 323 389
#     4  12  24  41  61 100 134 160 218 277 323 379
#     4  10  20  42  67  89 125 176 218 258 327 401
#     4   9  19  41  65  90 123 173 216 261 330 391
#     4   9  20  40  66  92 123 173 220 264 318 390
#     4  10  21  40  64  93 130 164 219 270 322 385
#     4  11  24  41  65  93 132 174 209 266 334 389
#
# _framework density 22.788924000000002
#
# number of rings (size 3 to 8) (size 9 to 14) (size 15 to 20)
#    0.000    1.750    1.250    3.750    3.500    0.500 
#    4.500    1.250    0.000    0.000    0.000    0.000 
#    0.000    0.000    0.000    0.000    0.000    0.000 
#
# Total GULP energy -198240.095603 kJ/mol
# GULP energy per Si atom -12390.005975 kJ/mol
# Density = 2.273706 g / cm^3
# Si number density = 22.788924 Si / 1000 Ang^3
#
#
#
# Elastic Constant Matrix: (Units=GPa)
#
#
# Indices 1 2 3 4 5 6 
#
# 1 33.0916 20.2630 30.9897 -0.2270 -3.1729 8.8011
# 2 20.2630 78.1322 34.0412 10.7666 -4.2510 9.8710
# 3 30.9897 34.0412 143.0433 0.1811 2.9932 17.6012
# 4 -0.2270 10.7666 0.1811 34.9321 3.2371 7.0446
# 5 -3.1729 -4.2510 2.9932 3.2371 44.5202 -6.7815
# 6 8.8011 9.8710 17.6012 7.0446 -6.7815 30.9734
#
#
#
# Elastic Compliance Matrix: (Units=1/GPa)
#
#
# Indices 1 2 3 4 5 6 
#
# 1 0.043275 -0.007932 -0.006722 0.003936 0.001500 -0.006515
# 2 -0.007932 0.016674 -0.002244 -0.005269 0.001522 -0.000253
# 3 -0.006722 -0.002244 0.009454 0.001491 -0.001973 -0.003518
# 4 0.003936 -0.005269 0.001491 0.032354 -0.003972 -0.008515
# 5 0.001500 0.001522 -0.001973 -0.003972 0.024109 0.006392
# 6 -0.006515 -0.000253 -0.003518 -0.008515 0.006392 0.039553
#
#
# Mechanical properties :
#
#
# Convention : Reuss Voigt Hill
#
# Bulk Modulus (GPa) = 28.08431 47.20611 37.64521
# Shear Modulus (GPa) = 23.68719 33.35001 28.51860
#
# Velocity S-wave (km/s) = 3.22750 3.82963 3.54138
# Velocity P-wave (km/s) = 5.12244 6.34935 5.76861
#
# Compressibility (1/GPa) = 0.03560707
#
# Stress axis : x y z
#
# Youngs Moduli (GPa) = 23.10797 59.97226 105.78038
#
# Poissons Ratio (x) = 0.47569 0.71110
# Poissons Ratio (y) = 0.18329 0.23735
# Poissons Ratio (z) = 0.15534 0.13456
#
# Static dielectric constant tensor:
#      x y z
#    x 3.798230 0.173820 0.239010 
#    y 0.173820 4.284750 0.000770 
#    z 0.239010 0.000770 4.440960 
# 
# 
# High freq. dielectric constant tensor:
#      x y z
#    x 1.879030 0.008680 0.021810 
#    y 0.008680 1.895700 -0.011120 
#    z 0.021810 -0.011120 1.911560 
# 
# From -- ./inp_files/297388.got.cif
#   From: 2010.06.25/outbox.cif.g09.slc.cpg/sg2_149_cif.got.tgz:297388.got - 2010.06.27 13:26:56.
