data_PCOD8008857
_publ_section_title
;
Structure prediction by ZEFSAII (Michael W. Deem and Ramdas Pophale) SiO2 
 PCOD8008857
Probable space group: P -1
;
_chemical_formula_sum "Si O2"
_cell_formula_units_Z 16
_cell_length_a 8.450113
_cell_length_b 20.506231
_cell_length_c 10.716579
_cell_angle_alpha 37.935743
_cell_angle_beta 41.738247
_cell_angle_gamma 54.146625
_cell_volume 759.992601
_symmetry_space_group_name_H-M "P -1"
_symmetry_group_IT_number 2
_symmetry_cell_setting 'triclinic'
loop_
_space_group_symop_operation_xyz
x,y,z
-x,-y,-z
loop_
_atom_site_type_symbol
_atom_site_label
_atom_site_fract_x
_atom_site_fract_y
_atom_site_fract_z
Si Si1 0.125292 0.181272 0.290747
Si Si2 0.105015 0.245210 0.476019
Si Si3 0.393098 0.829735 0.106417
Si Si4 0.521991 0.624626 0.806037
Si Si5 0.110927 0.767293 0.897560
Si Si6 0.786465 0.939575 0.145231
Si Si7 0.772156 0.027447 0.326795
Si Si8 0.625536 0.768656 0.305581
O O1 0.092596 0.255980 0.317819
O O2 0.924566 0.199746 0.276533
O O3 0.101786 0.059087 0.530060
O O4 0.386507 0.210019 0.043265
O O5 0.235972 0.346459 0.305522
O O6 0.239938 0.135957 0.602157
O O7 0.839197 0.235487 0.704292
O O8 0.425474 0.802583 0.273987
O O9 0.373262 0.956063 0.908396
O O10 0.295663 0.671224 0.941873
O O11 0.529769 0.672306 0.590681
O O12 0.500000 0.500000 0.000000
O O13 0.220838 0.863041 0.768108
O O14 0.862217 0.727523 0.159680
O O15 0.684450 0.873686 0.189450
O O16 0.068910 0.965613 0.907178
O O17 0.500000 0.000000 0.500000
#
# Coordination Sequence:
#
# PCOD8008857 Si02
#       8
#     2   2   2   2   2   2   2   2
#     4  11  23  35  59  89 129 169 189 236 299 364
#     4  11  23  39  57  89 125 156 204 250 293 357
#     4  11  21  36  59  89 127 160 196 234 297 365
#     4  11  25  44  68  86 109 157 210 263 309 346
#     4  10  23  41  58  89 124 158 205 245 302 362
#     4  10  21  35  55  88 127 167 197 232 289 355
#     4  11  21  34  58  89 128 167 199 239 289 355
#     4   9  22  41  60  87 121 158 197 250 298 358
#
# _framework density 21.052835999999999
#
# number of rings (size 3 to 8) (size 9 to 14) (size 15 to 20)
#    0.000    1.500    1.250    3.375    5.250    2.500 
#    0.000    2.500    0.000    3.000    0.000    0.000 
#    0.000    0.000    0.000    0.000    0.000    0.000 
#
# Total GULP energy -198435.581940 kJ/mol
# GULP energy per Si atom -12402.223871 kJ/mol
# Density = 2.100492 g / cm^3
# Si number density = 21.052836 Si / 1000 Ang^3
#
#
#
# Elastic Constant Matrix: (Units=GPa)
#
#
# Indices 1 2 3 4 5 6 
#
# 1 84.6869 25.3464 28.5818 -3.3127 -4.2723 2.0916
# 2 25.3464 68.9839 29.5025 -8.8219 -13.2971 2.5262
# 3 28.5818 29.5025 80.0024 -10.1339 -11.4493 6.9188
# 4 -3.3127 -8.8219 -10.1339 34.2242 8.6049 -0.1828
# 5 -4.2723 -13.2971 -11.4493 8.6049 34.3228 8.3434
# 6 2.0916 2.5262 6.9188 -0.1828 8.3434 26.6238
#
#
#
# Elastic Compliance Matrix: (Units=1/GPa)
#
#
# Indices 1 2 3 4 5 6 
#
# 1 0.014190 -0.003823 -0.003924 -0.000509 -0.001039 0.000590
# 2 -0.003823 0.019203 -0.004518 0.001850 0.005493 -0.002056
# 3 -0.003924 -0.004518 0.016863 0.002427 0.003962 -0.004870
# 4 -0.000509 0.001850 0.002427 0.032132 -0.006993 0.001646
# 5 -0.001039 0.005493 0.003962 -0.006993 0.037429 -0.013246
# 6 0.000590 -0.002056 -0.004870 0.001646 -0.013246 0.043137
#
#
# Mechanical properties :
#
#
# Convention : Reuss Voigt Hill
#
# Bulk Modulus (GPa) = 38.86865 44.50386 41.68626
# Shear Modulus (GPa) = 25.50255 29.05034 27.27645
#
# Velocity S-wave (km/s) = 3.48423 3.71870 3.60338
# Velocity P-wave (km/s) = 5.88974 6.29471 6.09559
#
# Compressibility (1/GPa) = 0.02572767
#
# Stress axis : x y z
#
# Youngs Moduli (GPa) = 70.47356 52.07398 59.30095
#
# Poissons Ratio (x) = 0.19905 0.23270
# Poissons Ratio (y) = 0.26939 0.26790
# Poissons Ratio (z) = 0.27654 0.23526
#
# Static dielectric constant tensor:
#      x y z
#    x 4.127250 0.070140 0.131640 
#    y 0.070140 3.607330 0.441410 
#    z 0.131640 0.441410 3.821740 
# 
# 
# High freq. dielectric constant tensor:
#      x y z
#    x 1.849600 0.000450 0.001870 
#    y 0.000450 1.799380 0.041460 
#    z 0.001870 0.041460 1.812300 
# 
# From -- ./inp_files/399073.got.cif
#   From: 2010.06.25/outbox.cif.g09.slc.cpg/sg2_200_cif.got.tgz:399073.got - 2010.06.27 13:26:56.
