data_PCOD8008988
_publ_section_title
;
Structure prediction by ZEFSAII (Michael W. Deem and Ramdas Pophale) SiO2 
 PCOD8008988
Probable space group: P -1
;
_chemical_formula_sum "Si O2"
_cell_formula_units_Z 16
_cell_length_a 13.375404
_cell_length_b 8.691208
_cell_length_c 6.808982
_cell_angle_alpha 105.507767
_cell_angle_beta 84.220401
_cell_angle_gamma 71.348487
_cell_volume 707.469719
_symmetry_space_group_name_H-M "P -1"
_symmetry_group_IT_number 2
_symmetry_cell_setting 'triclinic'
loop_
_space_group_symop_operation_xyz
x,y,z
-x,-y,-z
loop_
_atom_site_type_symbol
_atom_site_label
_atom_site_fract_x
_atom_site_fract_y
_atom_site_fract_z
Si Si1 0.269933 0.544083 0.169824
Si Si2 0.083153 0.172400 0.609139
Si Si3 0.466206 0.233616 0.883521
Si Si4 0.158664 0.111975 0.987235
Si Si5 0.585089 0.349574 0.553599
Si Si6 0.392891 0.933686 0.841069
Si Si7 0.878137 0.111377 0.802502
Si Si8 0.051769 0.477558 0.198031
O O1 0.321829 0.580436 0.374114
O O2 0.230602 0.722215 0.117727
O O3 0.165614 0.498414 0.212506
O O4 0.354099 0.392898 0.977728
O O5 0.165924 0.143103 0.763108
O O6 0.980344 0.151760 0.729578
O O7 0.039128 0.371724 0.605543
O O8 0.137073 0.035255 0.385258
O O9 0.533514 0.292250 0.731807
O O10 0.446524 0.059275 0.771160
O O11 0.526723 0.197823 0.067806
O O12 0.283092 0.051782 0.013584
O O13 0.079741 0.279291 0.178866
O O14 0.111667 0.964453 0.004528
O O15 0.500000 0.500000 0.500000
O O16 0.636882 0.180380 0.354847
O O17 0.000000 0.500000 0.000000
#
# Coordination Sequence:
#
# PCOD8008988 Si02
#       8
#     2   2   2   2   2   2   2   2
#     4  11  21  42  63  94 128 170 210 265 319 380
#     4   9  20  39  56  86 122 156 199 263 311 370
#     4  11  24  44  65  90 135 173 214 265 322 386
#     4  11  20  36  62  89 114 164 209 249 312 382
#     4  12  25  40  65  96 131 169 217 268 319 382
#     4  11  24  42  65  93 130 173 214 265 321 385
#     4  10  21  35  62  86 121 158 206 258 315 365
#     4   9  20  39  66  89 125 165 207 260 321 380
#
# _framework density 22.615811000000001
#
# number of rings (size 3 to 8) (size 9 to 14) (size 15 to 20)
#    0.000    1.500    2.500    2.625    1.750    0.500 
#    0.000    1.250    2.750    0.000    0.000    0.000 
#    0.000    0.000    0.000    0.000    0.000    0.000 
#
# Total GULP energy -198226.285623 kJ/mol
# GULP energy per Si atom -12389.142851 kJ/mol
# Density = 2.256434 g / cm^3
# Si number density = 22.615811 Si / 1000 Ang^3
#
#
#
# Elastic Constant Matrix: (Units=GPa)
#
#
# Indices 1 2 3 4 5 6 
#
# 1 87.1176 29.0063 16.3331 -3.6796 19.0821 -7.7666
# 2 29.0063 150.8863 26.4504 3.9891 1.0739 -19.8525
# 3 16.3331 26.4504 51.5396 14.6912 5.7829 1.0132
# 4 -3.6796 3.9891 14.6912 33.0203 3.6561 -2.7532
# 5 19.0821 1.0739 5.7829 3.6561 30.4578 10.6129
# 6 -7.7666 -19.8525 1.0132 -2.7532 10.6129 34.9505
#
#
#
# Elastic Compliance Matrix: (Units=1/GPa)
#
#
# Indices 1 2 3 4 5 6 
#
# 1 0.016609 -0.001410 -0.005051 0.006295 -0.012730 0.007398
# 2 -0.001410 0.008212 -0.004137 0.001124 -0.000385 0.004677
# 3 -0.005051 -0.004137 0.026629 -0.012589 0.001778 -0.005776
# 4 0.006295 0.001124 -0.012589 0.038127 -0.009006 0.008140
# 5 -0.012730 -0.000385 0.001778 -0.009006 0.047968 -0.018375
# 6 0.007398 0.004677 -0.005776 0.008140 -0.018375 0.039301
#
#
# Mechanical properties :
#
#
# Convention : Reuss Voigt Hill
#
# Bulk Modulus (GPa) = 33.05334 48.12478 40.58906
# Shear Modulus (GPa) = 24.02388 34.20261 29.11325
#
# Velocity S-wave (km/s) = 3.26277 3.89309 3.59178
# Velocity P-wave (km/s) = 5.37039 6.44466 5.93189
#
# Compressibility (1/GPa) = 0.03025413
#
# Stress axis : x y z
#
# Youngs Moduli (GPa) = 60.20799 121.77190 37.55321
#
# Poissons Ratio (x) = 0.17168 0.18969
# Poissons Ratio (y) = 0.08489 0.15535
# Poissons Ratio (z) = 0.30413 0.50374
#
# Static dielectric constant tensor:
#      x y z
#    x 4.011200 -0.156860 0.223110 
#    y -0.156860 4.758610 0.228850 
#    z 0.223110 0.228850 3.809520 
# 
# 
# High freq. dielectric constant tensor:
#      x y z
#    x 1.884990 -0.013630 0.014950 
#    y -0.013630 1.927900 0.010790 
#    z 0.014950 0.010790 1.864590 
# 
# From -- ./inp_files/90740.got.cif
#   From: 2010.06.25/outbox.cif.g09.slc.cpg/sg2_46_cif.got.tgz:90740.got - 2010.06.27 13:26:56.
