data_PCOD8008040
_publ_section_title
;
Structure prediction by ZEFSAII (Michael W. Deem and Ramdas Pophale) SiO2 
 PCOD8008040
Probable space group: P -1
;
_chemical_formula_sum "Si O2"
_cell_formula_units_Z 16
_cell_length_a 14.155655
_cell_length_b 8.759645
_cell_length_c 11.649720
_cell_angle_alpha 45.006170
_cell_angle_beta 52.699995
_cell_angle_gamma 74.025063
_cell_volume 781.894176
_symmetry_space_group_name_H-M "P -1"
_symmetry_group_IT_number 2
_symmetry_cell_setting 'triclinic'
loop_
_space_group_symop_operation_xyz
x,y,z
-x,-y,-z
loop_
_atom_site_type_symbol
_atom_site_label
_atom_site_fract_x
_atom_site_fract_y
_atom_site_fract_z
Si Si1 0.857526 0.380629 0.179924
Si Si2 0.749261 0.872661 0.502347
Si Si3 0.597138 0.738517 0.458954
Si Si4 0.598537 0.857717 0.846798
Si Si5 0.727623 0.366185 0.520080
Si Si6 0.652016 0.451357 0.139422
Si Si7 0.349798 0.821450 0.944852
Si Si8 0.142774 0.529919 0.393508
O O1 0.811247 0.427072 0.313987
O O2 0.784435 0.478319 0.085011
O O3 0.841525 0.118189 0.312122
O O4 0.000000 0.500000 0.000000
O O5 0.675597 0.852362 0.449502
O O6 0.650396 0.823665 0.702364
O O7 0.830391 0.699294 0.544803
O O8 0.631646 0.515725 0.512753
O O9 0.452028 0.681198 0.624370
O O10 0.625516 0.915668 0.240167
O O11 0.450225 0.788730 0.981296
O O12 0.648754 0.109593 0.720420
O O13 0.635614 0.696990 0.997748
O O14 0.821471 0.418476 0.528688
O O15 0.640041 0.314404 0.104274
O O16 0.216732 0.731095 0.149904
O O17 0.000000 0.500000 0.500000
#
# Coordination Sequence:
#
# PCOD8008040 Si02
#       8
#     2   2   2   2   2   2   2   2
#     4  11  26  43  66  94 131 177 221 261 320 388
#     4  10  20  42  64  92 128 174 212 268 314 390
#     4  11  22  40  69  98 133 163 215 274 331 380
#     4  11  22  40  69  98 133 163 215 274 331 380
#     4  10  26  44  62 100 136 168 214 276 330 378
#     4  12  23  40  70  99 129 172 222 264 324 394
#     4  12  23  40  70  99 129 172 222 264 324 394
#     4  11  26  43  66  94 131 177 221 261 320 388
#
# _framework density 20.463128000000001
#
# number of rings (size 3 to 8) (size 9 to 14) (size 15 to 20)
#    0.000    1.000    3.750    3.750    1.750    7.000 
#    0.000    5.000    0.000    0.000    0.000    0.000 
#    0.000    0.000    0.000    0.000    0.000    0.000 
#
# Total GULP energy -198525.285511 kJ/mol
# GULP energy per Si atom -12407.830344 kJ/mol
# Density = 2.041655 g / cm^3
# Si number density = 20.463128 Si / 1000 Ang^3
#
#
#
# Elastic Constant Matrix: (Units=GPa)
#
#
# Indices 1 2 3 4 5 6 
#
# 1 115.9730 33.7768 49.7599 -13.0948 -11.9054 -18.8469
# 2 33.7768 87.3774 21.0049 -7.7121 -3.7972 7.2780
# 3 49.7599 21.0049 119.5668 -6.8291 -6.4213 -8.3561
# 4 -13.0948 -7.7121 -6.8291 17.6234 -10.9898 0.2261
# 5 -11.9054 -3.7972 -6.4213 -10.9898 41.9187 2.1498
# 6 -18.8469 7.2780 -8.3561 0.2261 2.1498 25.6721
#
#
#
# Elastic Compliance Matrix: (Units=1/GPa)
#
#
# Indices 1 2 3 4 5 6 
#
# 1 0.015178 -0.004597 -0.003820 0.011205 0.005702 0.010627
# 2 -0.004597 0.014449 -0.000923 0.003367 0.001150 -0.007898
# 3 -0.003820 -0.000923 0.010268 0.001142 0.000666 0.000733
# 4 0.011205 0.003367 0.001142 0.082548 0.025057 0.004818
# 5 0.005702 0.001150 0.000666 0.025057 0.032191 0.001160
# 6 0.010627 -0.007898 0.000733 0.004818 0.001160 0.049092
#
#
# Mechanical properties :
#
#
# Convention : Reuss Voigt Hill
#
# Bulk Modulus (GPa) = 47.13917 59.11116 53.12516
# Shear Modulus (GPa) = 21.78859 31.60122 26.69490
#
# Velocity S-wave (km/s) = 3.26663 3.93402 3.61576
# Velocity P-wave (km/s) = 6.10851 7.04164 6.59161
#
# Compressibility (1/GPa) = 0.02121378
#
# Stress axis : x y z
#
# Youngs Moduli (GPa) = 65.88377 69.21086 97.39216
#
# Poissons Ratio (x) = 0.31819 0.37206
# Poissons Ratio (y) = 0.30289 0.08988
# Poissons Ratio (z) = 0.25169 0.06387
#
# Static dielectric constant tensor:
#      x y z
#    x 3.671240 0.012240 0.176550 
#    y 0.012240 3.998600 -0.086660 
#    z 0.176550 -0.086660 3.792830 
# 
# 
# High freq. dielectric constant tensor:
#      x y z
#    x 1.800020 0.003030 0.009190 
#    y 0.003030 1.810640 -0.005610 
#    z 0.009190 -0.005610 1.806860 
# 
# From -- ./inp_files/244042.got.cif
#   From: 2010.06.25/outbox.cif.g09.slc.cpg/sg2_123_cif.got.tgz:244042.got - 2010.06.27 13:26:56.
