data_PCOD8008487
_publ_section_title
;
Structure prediction by ZEFSAII (Michael W. Deem and Ramdas Pophale) SiO2 
 PCOD8008487
Probable space group: P -1
;
_chemical_formula_sum "Si O2"
_cell_formula_units_Z 14
_cell_length_a 7.788451
_cell_length_b 15.005215
_cell_length_c 9.426706
_cell_angle_alpha 127.154614
_cell_angle_beta 132.557763
_cell_angle_gamma 70.438661
_cell_volume 641.651408
_symmetry_space_group_name_H-M "P -1"
_symmetry_group_IT_number 2
_symmetry_cell_setting 'triclinic'
loop_
_space_group_symop_operation_xyz
x,y,z
-x,-y,-z
loop_
_atom_site_type_symbol
_atom_site_label
_atom_site_fract_x
_atom_site_fract_y
_atom_site_fract_z
Si Si1 0.489622 0.807795 0.600968
Si Si2 0.036547 0.794433 0.854669
Si Si3 0.314940 0.696948 0.678599
Si Si4 0.518377 0.038815 0.707823
Si Si5 0.027845 0.442391 0.813261
Si Si6 0.344071 0.267162 0.853963
Si Si7 0.286144 0.665843 0.096925
O O1 0.429651 0.785683 0.710797
O O2 0.322454 0.717399 0.325496
O O3 0.763765 0.806981 0.716728
O O4 0.434219 0.934027 0.660986
O O5 0.099454 0.737973 0.686698
O O6 0.209164 0.912356 0.067762
O O7 0.089119 0.722346 0.953659
O O8 0.213027 0.579247 0.432276
O O9 0.518197 0.672690 0.876851
O O10 0.341127 0.131987 0.732383
O O11 0.500000 0.000000 0.500000
O O12 0.096385 0.315658 0.756343
O O13 0.217664 0.530818 0.924373
O O14 0.000000 0.500000 0.000000
O O15 0.466220 0.307791 0.815150
#
# Coordination Sequence:
#
# PCOD8008487 Si02
#       7
#     2   2   2   2   2   2   2
#     4  12  21  41  71  94 131 177 212 264 332 384
#     4  10  24  41  67 100 132 167 219 267 325 390
#     4  10  25  41  63 101 132 163 227 266 316 393
#     4  10  20  43  70  96 130 169 218 263 325 397
#     4  12  24  41  67  93 132 173 218 269 327 377
#     4  10  24  43  64  96 132 166 218 277 315 391
#     4  10  22  42  64  96 126 174 221 260 326 390
#
# _framework density 21.8187
#
# number of rings (size 3 to 8) (size 9 to 14) (size 15 to 20)
#    0.000    1.714    4.286    1.714    2.000    6.286 
#    0.000    0.714    0.000    0.000    0.000    0.000 
#    0.000    0.000    0.000    0.000    0.000    0.000 
#
# Total GULP energy -173504.773861 kJ/mol
# GULP energy per Si atom -12393.198133 kJ/mol
# Density = 2.176904 g / cm^3
# Si number density = 21.818700 Si / 1000 Ang^3
#
#
#
# Elastic Constant Matrix: (Units=GPa)
#
#
# Indices 1 2 3 4 5 6 
#
# 1 54.8465 19.0962 5.2795 -5.1498 -9.1009 8.3770
# 2 19.0962 83.3842 16.3183 7.8270 3.7458 -6.3847
# 3 5.2795 16.3183 126.6447 7.2647 -10.2276 -2.8294
# 4 -5.1498 7.8270 7.2647 29.3090 12.2198 -1.9088
# 5 -9.1009 3.7458 -10.2276 12.2198 29.8629 1.4799
# 6 8.3770 -6.3847 -2.8294 -1.9088 1.4799 14.3418
#
#
#
# Elastic Compliance Matrix: (Units=1/GPa)
#
#
# Indices 1 2 3 4 5 6 
#
# 1 0.025559 -0.007908 0.000183 0.001478 0.009189 -0.019165
# 2 -0.007908 0.015420 -0.001617 -0.002528 -0.004423 0.011285
# 3 0.000183 -0.001617 0.008688 -0.003672 0.004741 -0.000091
# 4 0.001478 -0.002528 -0.003672 0.044136 -0.018803 0.005101
# 5 0.009189 -0.004423 0.004741 -0.018803 0.046840 -0.013737
# 6 -0.019165 0.011285 -0.000091 0.005101 -0.013737 0.088023
#
#
# Mechanical properties :
#
#
# Convention : Reuss Voigt Hill
#
# Bulk Modulus (GPa) = 32.27676 38.47372 35.37524
# Shear Modulus (GPa) = 19.40383 29.64815 24.52599
#
# Velocity S-wave (km/s) = 2.98538 3.69025 3.35637
# Velocity P-wave (km/s) = 5.16804 5.98572 5.59185
#
# Compressibility (1/GPa) = 0.03098204
#
# Stress axis : x y z
#
# Youngs Moduli (GPa) = 39.12472 64.84943 115.09553
#
# Poissons Ratio (x) = 0.51284 -0.02101
# Poissons Ratio (y) = 0.30941 0.18615
# Poissons Ratio (z) = -0.00714 0.10489
#
# Static dielectric constant tensor:
#      x y z
#    x 3.770420 0.268480 0.047080 
#    y 0.268480 4.762600 0.596270 
#    z 0.047080 0.596270 4.547000 
# 
# 
# High freq. dielectric constant tensor:
#      x y z
#    x 1.845300 0.014460 -0.006770 
#    y 0.014460 1.850730 -0.005350 
#    z -0.006770 -0.005350 1.875820 
# 
# From -- ./inp_files/204586.got.cif
#   From: 2010.06.25/outbox.cif.g09.slc.cpg/sg2_103_cif.got.tgz:204586.got - 2010.06.27 13:26:56.
