data_PCOD8008051
_publ_section_title
;
Structure prediction by ZEFSAII (Michael W. Deem and Ramdas Pophale) SiO2 
 PCOD8008051
Probable space group: P -1
;
_chemical_formula_sum "Si O2"
_cell_formula_units_Z 14
_cell_length_a 6.637304
_cell_length_b 6.090026
_cell_length_c 20.701426
_cell_angle_alpha 112.176799
_cell_angle_beta 50.810686
_cell_angle_gamma 102.935544
_cell_volume 600.453192
_symmetry_space_group_name_H-M "P -1"
_symmetry_group_IT_number 2
_symmetry_cell_setting 'triclinic'
loop_
_space_group_symop_operation_xyz
x,y,z
-x,-y,-z
loop_
_atom_site_type_symbol
_atom_site_label
_atom_site_fract_x
_atom_site_fract_y
_atom_site_fract_z
Si Si1 0.559926 0.822261 0.743341
Si Si2 0.872815 0.512075 0.165446
Si Si3 0.550684 0.705964 0.593054
Si Si4 0.055947 0.043706 0.710369
Si Si5 0.806452 0.790759 0.090373
Si Si6 0.263367 0.115942 0.022361
Si Si7 0.690166 0.778835 0.437981
O O1 0.409719 0.585494 0.768696
O O2 0.678748 0.781436 0.643006
O O3 0.353882 0.039756 0.809104
O O4 0.798422 0.884582 0.749338
O O5 0.943966 0.756638 0.212507
O O6 0.860902 0.549931 0.093584
O O7 0.103810 0.323895 0.115740
O O8 0.759200 0.726882 0.493975
O O9 0.461084 0.437808 0.586885
O O10 0.299660 0.870149 0.649541
O O11 0.061747 0.170740 0.652239
O O12 0.645985 0.773185 0.053159
O O13 0.079886 0.893812 0.024450
O O14 0.500000 0.000000 0.000000
O O15 0.500000 0.000000 0.500000
#
# Coordination Sequence:
#
# PCOD8008051 Si02
#       7
#     2   2   2   2   2   2   2
#     4  11  24  40  67 101 135 173 228 278 329 405
#     4  11  23  45  70  97 142 178 221 286 335 396
#     4  10  20  42  64  95 140 169 225 290 316 399
#     4  11  23  41  66 100 130 183 227 267 344 395
#     4  10  23  45  65 100 136 174 222 284 335 397
#     4  10  24  45  70  98 134 177 229 274 335 409
#     4   9  20  40  68  92 133 179 219 277 338 389
#
# _framework density 23.315722000000001
#
# number of rings (size 3 to 8) (size 9 to 14) (size 15 to 20)
#    0.000    1.714    2.857    0.429    2.000    2.286 
#    7.714    6.429    0.000    0.000    0.000    0.000 
#    0.000    0.000    0.000    0.000    0.000    0.000 
#
# Total GULP energy -173489.119796 kJ/mol
# GULP energy per Si atom -12392.079985 kJ/mol
# Density = 2.326265 g / cm^3
# Si number density = 23.315722 Si / 1000 Ang^3
#
#
#
# Elastic Constant Matrix: (Units=GPa)
#
#
# Indices 1 2 3 4 5 6 
#
# 1 115.7076 50.7366 41.9451 -2.6648 14.1918 -2.2815
# 2 50.7366 102.4262 33.0810 8.6470 9.4416 -0.8450
# 3 41.9451 33.0810 87.2400 -5.6405 20.4569 -2.7680
# 4 -2.6648 8.6470 -5.6405 40.5219 -6.1193 4.4815
# 5 14.1918 9.4416 20.4569 -6.1193 26.2800 2.3767
# 6 -2.2815 -0.8450 -2.7680 4.4815 2.3767 38.1014
#
#
#
# Elastic Compliance Matrix: (Units=1/GPa)
#
#
# Indices 1 2 3 4 5 6 
#
# 1 0.012333 -0.004866 -0.003551 0.001020 -0.001944 0.000374
# 2 -0.004866 0.013480 -0.002782 -0.003762 -0.000953 0.000307
# 3 -0.003551 -0.002782 0.016670 0.001019 -0.009952 0.001438
# 4 0.001020 -0.003762 0.001019 0.027084 0.006635 -0.003548
# 5 -0.001944 -0.000953 -0.009952 0.006635 0.049162 -0.004708
# 6 0.000374 0.000307 0.001438 -0.003548 -0.004708 0.027090
#
#
# Mechanical properties :
#
#
# Convention : Reuss Voigt Hill
#
# Bulk Modulus (GPa) = 49.78763 61.87767 55.83265
# Shear Modulus (GPa) = 28.58604 32.95474 30.77039
#
# Velocity S-wave (km/s) = 3.50529 3.76362 3.63675
# Velocity P-wave (km/s) = 6.14677 6.74411 6.45236
#
# Compressibility (1/GPa) = 0.02008531
#
# Stress axis : x y z
#
# Youngs Moduli (GPa) = 81.08572 74.18426 59.98871
#
# Poissons Ratio (x) = 0.36098 0.21300
# Poissons Ratio (y) = 0.39456 0.16688
# Poissons Ratio (z) = 0.28791 0.20637
#
# Static dielectric constant tensor:
#      x y z
#    x 3.937140 -0.160420 0.431710 
#    y -0.160420 4.470390 -0.256020 
#    z 0.431710 -0.256020 4.733200 
# 
# 
# High freq. dielectric constant tensor:
#      x y z
#    x 1.885550 -0.008940 0.018440 
#    y -0.008940 1.932330 0.002270 
#    z 0.018440 0.002270 1.938400 
# 
# From -- ./inp_files/7967.got.cif
#   From: 2010.06.25/outbox.cif.g09.slc.cpg/sg2_4_cif.got.tgz:7967.got - 2010.06.27 13:26:56.
