data_PCOD8008205
_publ_section_title
;
Structure prediction by ZEFSAII (Michael W. Deem and Ramdas Pophale) SiO2 
 PCOD8008205
Probable space group: P -1
;
_chemical_formula_sum "Si O2"
_cell_formula_units_Z 14
_cell_length_a 18.685220
_cell_length_b 10.021418
_cell_length_c 8.878256
_cell_angle_alpha 150.730341
_cell_angle_beta 68.061658
_cell_angle_gamma 124.605435
_cell_volume 637.633991
_symmetry_space_group_name_H-M "P -1"
_symmetry_group_IT_number 2
_symmetry_cell_setting 'triclinic'
loop_
_space_group_symop_operation_xyz
x,y,z
-x,-y,-z
loop_
_atom_site_type_symbol
_atom_site_label
_atom_site_fract_x
_atom_site_fract_y
_atom_site_fract_z
Si Si1 0.726258 0.623618 0.147014
Si Si2 0.175714 0.683128 0.363375
Si Si3 0.579979 0.777438 0.809905
Si Si4 0.855974 0.567521 0.526746
Si Si5 0.520580 0.285604 0.872999
Si Si6 0.696153 0.498406 0.381841
Si Si7 0.975381 0.321048 0.183952
O O1 0.735855 0.690086 0.383448
O O2 0.792653 0.946576 0.319381
O O3 0.756404 0.373040 0.842316
O O4 0.623432 0.479682 0.038291
O O5 0.184576 0.619878 0.469198
O O6 0.072047 0.459656 0.160318
O O7 0.500000 0.500000 0.500000
O O8 0.652392 0.670655 0.675799
O O9 0.545909 0.833626 0.049388
O O10 0.623866 0.120868 0.028543
O O11 0.774879 0.518660 0.440178
O O12 0.908083 0.414888 0.249582
O O13 0.927262 0.942000 0.871213
O O14 0.500000 0.000000 0.500000
O O15 0.500000 0.500000 0.000000
O O16 0.000000 0.500000 0.500000
#
# Coordination Sequence:
#
# PCOD8008205 Si02
#       7
#     2   2   2   2   2   2   2
#     4  12  26  44  64 100 142 173 219 282 345 393
#     4  11  23  41  70  97 133 177 219 279 343 393
#     4  12  26  48  72  94 138 192 227 269 346 412
#     4  11  23  42  70  99 131 174 233 278 325 413
#     4  12  28  45  69 102 138 174 231 287 336 398
#     4  12  27  45  70 101 138 181 233 276 336 412
#     4  10  20  42  67  99 132 174 223 277 339 403
#
# _framework density 21.956168000000002
#
# number of rings (size 3 to 8) (size 9 to 14) (size 15 to 20)
#    0.000    0.571    1.429    8.143    8.000    0.000 
#    0.000    4.286    0.000    0.000    0.000    0.000 
#    0.000    0.000    0.000    0.000    0.000    0.000 
#
# Total GULP energy -173637.284521 kJ/mol
# GULP energy per Si atom -12402.663180 kJ/mol
# Density = 2.190619 g / cm^3
# Si number density = 21.956168 Si / 1000 Ang^3
#
#
#
# Elastic Constant Matrix: (Units=GPa)
#
#
# Indices 1 2 3 4 5 6 
#
# 1 137.6037 65.3466 21.2027 -14.0742 -19.3319 6.0805
# 2 65.3466 111.8466 44.3274 4.2785 3.9071 -6.9582
# 3 21.2027 44.3274 96.6464 8.8342 -13.1815 -12.1922
# 4 -14.0742 4.2785 8.8342 43.7087 3.2867 -3.8611
# 5 -19.3319 3.9071 -13.1815 3.2867 40.7018 -3.6095
# 6 6.0805 -6.9582 -12.1922 -3.8611 -3.6095 26.1343
#
#
#
# Elastic Compliance Matrix: (Units=1/GPa)
#
#
# Indices 1 2 3 4 5 6 
#
# 1 0.012495 -0.008363 0.001252 0.003824 0.006561 -0.003079
# 2 -0.008363 0.016840 -0.006408 -0.002313 -0.007292 0.002091
# 3 0.001252 -0.006408 0.014797 -0.001972 0.006652 0.005533
# 4 0.003824 -0.002313 -0.001972 0.024877 -0.000505 0.001180
# 5 0.006561 -0.007292 0.006652 -0.000505 0.030920 0.003831
# 6 -0.003079 0.002091 0.005533 0.001180 0.003831 0.042822
#
#
# Mechanical properties :
#
#
# Convention : Reuss Voigt Hill
#
# Bulk Modulus (GPa) = 58.50654 67.53891 63.02272
# Shear Modulus (GPa) = 28.49198 36.45697 32.47447
#
# Velocity S-wave (km/s) = 3.60623 4.07927 3.85003
# Velocity P-wave (km/s) = 6.63662 7.28113 6.96633
#
# Compressibility (1/GPa) = 0.01709211
#
# Stress axis : x y z
#
# Youngs Moduli (GPa) = 80.03284 59.38213 67.58076
#
# Poissons Ratio (x) = 0.49662 -0.08458
# Poissons Ratio (y) = 0.66933 0.43308
# Poissons Ratio (z) = -0.10016 0.38054
#
# Static dielectric constant tensor:
#      x y z
#    x 4.601000 0.284070 -0.336060 
#    y 0.284070 4.040570 0.022120 
#    z -0.336060 0.022120 4.299260 
# 
# 
# High freq. dielectric constant tensor:
#      x y z
#    x 1.885070 0.011910 -0.018360 
#    y 0.011910 1.854880 0.013380 
#    z -0.018360 0.013380 1.874880 
# 
# From -- ./inp_files/329717.got.cif
#   From: 2010.06.25/outbox.cif.g09.slc.cpg/sg2_165_cif.got.tgz:329717.got - 2010.06.27 13:26:56.
