data_PCOD8008033
_publ_section_title
;
Structure prediction by ZEFSAII (Michael W. Deem and Ramdas Pophale) SiO2 
 PCOD8008033
Probable space group: P -1
;
_chemical_formula_sum "Si O2"
_cell_formula_units_Z 16
_cell_length_a 9.188141
_cell_length_b 15.798220
_cell_length_c 12.186612
_cell_angle_alpha 55.257716
_cell_angle_beta 63.754081
_cell_angle_gamma 110.638393
_cell_volume 745.856584
_symmetry_space_group_name_H-M "P -1"
_symmetry_group_IT_number 2
_symmetry_cell_setting 'triclinic'
loop_
_space_group_symop_operation_xyz
x,y,z
-x,-y,-z
loop_
_atom_site_type_symbol
_atom_site_label
_atom_site_fract_x
_atom_site_fract_y
_atom_site_fract_z
Si Si1 0.898819 0.334907 0.186545
Si Si2 0.284766 0.776222 0.904557
Si Si3 0.992704 0.828463 0.401496
Si Si4 0.367509 0.865550 0.361626
Si Si5 0.234989 0.378895 0.756633
Si Si6 0.903453 0.061847 0.958607
Si Si7 0.384018 0.436457 0.910881
Si Si8 0.266663 0.140747 0.227345
O O1 0.705369 0.198806 0.248740
O O2 0.749544 0.267568 0.403733
O O3 0.000000 0.500000 0.000000
O O4 0.145757 0.380342 0.090206
O O5 0.437910 0.748307 0.902563
O O6 0.479555 0.962238 0.756217
O O7 0.954389 0.612655 0.180794
O O8 0.677714 0.646734 0.689811
O O9 0.144455 0.799974 0.401070
O O10 0.158436 0.015897 0.252233
O O11 0.970350 0.829859 0.276778
O O12 0.562902 0.895749 0.196380
O O13 0.500000 0.500000 0.500000
O O14 0.358002 0.419814 0.802575
O O15 0.003798 0.176592 0.946412
O O16 0.000000 0.000000 0.000000
O O17 0.351010 0.301268 0.056116
O O18 0.000000 0.000000 0.500000
#
# Coordination Sequence:
#
# PCOD8008033 Si02
#       8
#     2   2   2   2   2   2   2   2
#     4  11  25  40  64  96 129 167 221 270 323 387
#     4   9  22  41  63  91 127 168 220 264 325 388
#     4  11  24  43  68  98 132 172 219 267 327 395
#     4  10  23  42  64  90 131 175 209 269 334 380
#     4  10  20  42  64  89 131 170 210 272 325 375
#     4  11  23  39  69  94 128 170 224 268 321 391
#     4  11  24  43  67  99 132 170 220 269 327 392
#     4  11  25  43  68  96 135 175 213 271 336 389
#
# _framework density 21.451844999999999
#
# number of rings (size 3 to 8) (size 9 to 14) (size 15 to 20)
#    0.000    1.500    1.250    3.000    5.250    3.000 
#    0.000    0.625    0.000    0.000    0.000    0.000 
#    0.000    0.000    0.000    0.000    0.000    0.000 
#
# Total GULP energy -198221.602257 kJ/mol
# GULP energy per Si atom -12388.850141 kJ/mol
# Density = 2.140302 g / cm^3
# Si number density = 21.451845 Si / 1000 Ang^3
#
#
#
# Elastic Constant Matrix: (Units=GPa)
#
#
# Indices 1 2 3 4 5 6 
#
# 1 164.4964 27.4921 59.8980 -3.6377 -15.0291 -16.3242
# 2 27.4921 43.5587 8.9016 2.2844 -4.0711 -2.8510
# 3 59.8980 8.9016 110.4094 7.1836 -4.5818 -9.9582
# 4 -3.6377 2.2844 7.1836 26.9905 -3.9183 -4.0521
# 5 -15.0291 -4.0711 -4.5818 -3.9183 32.9158 -0.9224
# 6 -16.3242 -2.8510 -9.9582 -4.0521 -0.9224 34.3887
#
#
#
# Elastic Compliance Matrix: (Units=1/GPa)
#
#
# Indices 1 2 3 4 5 6 
#
# 1 0.009179 -0.004545 -0.004421 0.003802 0.003557 0.003244
# 2 -0.004545 0.025928 0.000583 -0.002859 0.000868 -0.000152
# 3 -0.004421 0.000583 0.011700 -0.003734 -0.000738 0.000878
# 4 0.003802 -0.002859 -0.003734 0.040457 0.005830 0.005410
# 5 0.003557 0.000868 -0.000738 0.005830 0.032791 0.003113
# 6 0.003244 -0.000152 0.000878 0.005410 0.003113 0.031582
#
#
# Mechanical properties :
#
#
# Convention : Reuss Voigt Hill
#
# Bulk Modulus (GPa) = 33.28525 56.78308 45.03416
# Shear Modulus (GPa) = 28.02455 33.67052 30.84754
#
# Velocity S-wave (km/s) = 3.61833 3.96610 3.79620
# Velocity P-wave (km/s) = 5.74511 6.89208 6.34457
#
# Compressibility (1/GPa) = 0.03004334
#
# Stress axis : x y z
#
# Youngs Moduli (GPa) = 108.93945 38.56860 85.47033
#
# Poissons Ratio (x) = 0.17529 0.37783
# Poissons Ratio (y) = 0.49511 -0.04987
# Poissons Ratio (z) = 0.48158 -0.02250
#
# Static dielectric constant tensor:
#      x y z
#    x 5.087800 1.131960 0.474420 
#    y 1.131960 5.316210 1.337390 
#    z 0.474420 1.337390 5.255480 
# 
# 
# High freq. dielectric constant tensor:
#      x y z
#    x 1.854720 0.003940 -0.018530 
#    y 0.003940 1.848510 0.006130 
#    z -0.018530 0.006130 1.837450 
# 
# From -- ./inp_files/280133.got.cif
#   From: 2010.06.25/outbox.cif.g09.slc.cpg/sg2_141_cif.got.tgz:280133.got - 2010.06.27 13:26:56.
