data_PCOD8008216
_publ_section_title
;
Structure prediction by ZEFSAII (Michael W. Deem and Ramdas Pophale) SiO2 
 PCOD8008216
Probable space group: P -1
;
_chemical_formula_sum "Si O2"
_cell_formula_units_Z 16
_cell_length_a 9.194004
_cell_length_b 14.322682
_cell_length_c 8.489597
_cell_angle_alpha 70.043565
_cell_angle_beta 133.857552
_cell_angle_gamma 115.164741
_cell_volume 727.725575
_symmetry_space_group_name_H-M "P -1"
_symmetry_group_IT_number 2
_symmetry_cell_setting 'triclinic'
loop_
_space_group_symop_operation_xyz
x,y,z
-x,-y,-z
loop_
_atom_site_type_symbol
_atom_site_label
_atom_site_fract_x
_atom_site_fract_y
_atom_site_fract_z
Si Si1 0.335602 0.552943 0.416388
Si Si2 0.765335 0.883407 0.328195
Si Si3 0.525902 0.546937 0.159168
Si Si4 0.666571 0.239940 0.835895
Si Si5 0.104984 0.857552 0.174790
Si Si6 0.900510 0.397364 0.150109
Si Si7 0.930916 0.718438 0.403625
Si Si8 0.077314 0.031116 0.273479
O O1 0.500000 0.500000 0.500000
O O2 0.368391 0.535442 0.633931
O O3 0.408298 0.674119 0.367092
O O4 0.101448 0.494980 0.209666
O O5 0.520271 0.824022 0.153044
O O6 0.921827 0.811490 0.460561
O O7 0.779365 0.922594 0.496496
O O8 0.843745 0.974121 0.203645
O O9 0.689261 0.658400 0.228949
O O10 0.500000 0.500000 0.000000
O O11 0.304025 0.560198 0.046981
O O12 0.713669 0.160920 0.789496
O O13 0.867940 0.301783 0.056539
O O14 0.017439 0.754742 0.273394
O O15 0.179913 0.952849 0.299043
O O16 0.934756 0.880654 0.912014
O O17 0.932035 0.350343 0.372744
#
# Coordination Sequence:
#
# PCOD8008216 Si02
#       8
#     2   2   2   2   2   2   2   2
#     4  11  24  42  62  94 133 168 217 260 307 372
#     4  10  20  42  68  89 125 170 209 255 324 393
#     4  11  25  39  62  91 131 178 206 261 319 365
#     4  12  23  38  65  98 123 167 218 261 307 379
#     4  10  23  39  63  96 124 162 209 271 322 370
#     4  11  23  42  64  90 133 176 213 253 313 378
#     4  10  22  42  63  93 130 167 221 251 310 387
#     4   9  21  44  65  88 127 168 198 270 335 374
#
# _framework density 21.98631
#
# number of rings (size 3 to 8) (size 9 to 14) (size 15 to 20)
#    0.000    1.500    2.500    1.875    3.500    3.000 
#    0.000    0.000    0.000    0.000    0.000    0.000 
#    0.000    0.000    0.000    0.000    0.000    0.000 
#
# Total GULP energy -198229.493076 kJ/mol
# GULP energy per Si atom -12389.343317 kJ/mol
# Density = 2.193627 g / cm^3
# Si number density = 21.986310 Si / 1000 Ang^3
#
#
#
# Elastic Constant Matrix: (Units=GPa)
#
#
# Indices 1 2 3 4 5 6 
#
# 1 84.4086 30.9945 24.5098 6.7372 -0.2338 -5.9407
# 2 30.9945 71.5492 29.3973 2.8261 -0.0465 2.1386
# 3 24.5098 29.3973 97.4455 4.5066 -0.1421 1.2508
# 4 6.7372 2.8261 4.5066 33.9457 -1.8919 -4.6934
# 5 -0.2338 -0.0465 -0.1421 -1.8919 39.7563 5.1880
# 6 -5.9407 2.1386 1.2508 -4.6934 5.1880 45.1288
#
#
#
# Elastic Compliance Matrix: (Units=1/GPa)
#
#
# Indices 1 2 3 4 5 6 
#
# 1 0.014767 -0.005574 -0.001971 -0.001932 -0.000292 0.002095
# 2 -0.005574 0.018096 -0.004035 -0.000064 0.000167 -0.001505
# 3 -0.001971 -0.004035 0.012025 -0.000936 0.000048 -0.000504
# 4 -0.001932 -0.000064 -0.000936 0.030420 0.001065 0.002816
# 5 -0.000292 0.000167 0.000048 0.001065 0.025578 -0.002877
# 6 0.002095 -0.001505 -0.000504 0.002816 -0.002877 0.023144
#
#
# Mechanical properties :
#
#
# Convention : Reuss Voigt Hill
#
# Bulk Modulus (GPa) = 46.02039 47.02296 46.52167
# Shear Modulus (GPa) = 32.37674 34.99961 33.68817
#
# Velocity S-wave (km/s) = 3.84159 3.99417 3.91862
# Velocity P-wave (km/s) = 6.37604 6.53490 6.45596
#
# Compressibility (1/GPa) = 0.02172950
#
# Stress axis : x y z
#
# Youngs Moduli (GPa) = 67.71929 55.26003 83.16065
#
# Poissons Ratio (x) = 0.30800 0.16389
# Poissons Ratio (y) = 0.37744 0.33554
# Poissons Ratio (z) = 0.13346 0.22297
#
# Static dielectric constant tensor:
#      x y z
#    x 4.575460 -0.225830 -0.526690 
#    y -0.225830 4.030020 0.214220 
#    z -0.526690 0.214220 3.736610 
# 
# 
# High freq. dielectric constant tensor:
#      x y z
#    x 1.866040 -0.000610 -0.020320 
#    y -0.000610 1.867380 -0.007450 
#    z -0.020320 -0.007450 1.857520 
# 
# From -- ./inp_files/141629.got.cif
#   From: 2010.06.25/outbox.cif.g09.slc.cpg/sg2_71_cif.got.tgz:141629.got - 2010.06.27 13:26:56.
