data_PCOD8008985
_publ_section_title
;
Structure prediction by ZEFSAII (Michael W. Deem and Ramdas Pophale) SiO2 
 PCOD8008985
Probable space group: P -1
;
_chemical_formula_sum "Si O2"
_cell_formula_units_Z 16
_cell_length_a 9.046754
_cell_length_b 9.452549
_cell_length_c 14.965259
_cell_angle_alpha 59.631626
_cell_angle_beta 58.621747
_cell_angle_gamma 102.181651
_cell_volume 721.308240
_symmetry_space_group_name_H-M "P -1"
_symmetry_group_IT_number 2
_symmetry_cell_setting 'triclinic'
loop_
_space_group_symop_operation_xyz
x,y,z
-x,-y,-z
loop_
_atom_site_type_symbol
_atom_site_label
_atom_site_fract_x
_atom_site_fract_y
_atom_site_fract_z
Si Si1 0.750079 0.171904 0.114560
Si Si2 0.045119 0.379730 0.105278
Si Si3 0.110437 0.835839 0.385146
Si Si4 0.476258 0.892733 0.134747
Si Si5 0.367706 0.455137 0.308558
Si Si6 0.380434 0.695770 0.666556
Si Si7 0.280715 0.301744 0.184290
Si Si8 0.345695 0.880401 0.459887
O O1 0.979445 0.253958 0.070213
O O2 0.706755 0.074961 0.059886
O O3 0.542046 0.973664 0.297320
O O4 0.738696 0.366314 0.050270
O O5 0.836169 0.377883 0.185923
O O6 0.069827 0.268681 0.214498
O O7 0.237016 0.793558 0.289227
O O8 0.126040 0.784116 0.500264
O O9 0.838284 0.675326 0.512085
O O10 0.236719 0.084625 0.251368
O O11 0.472721 0.696944 0.183064
O O12 0.500000 0.000000 0.000000
O O13 0.566976 0.462893 0.283698
O O14 0.291676 0.339956 0.273365
O O15 0.321862 0.696533 0.580986
O O16 0.602179 0.936377 0.548180
O O17 0.500000 0.500000 0.000000
#
# Coordination Sequence:
#
# PCOD8008985 Si02
#       8
#     2   2   2   2   2   2   2   2
#     4   9  20  38  64  88 122 171 214 260 330 380
#     4  10  21  38  66  95 129 166 216 275 331 379
#     4  11  23  41  66  96 130 176 225 271 325 389
#     4  11  24  47  66  93 136 179 214 277 338 395
#     4  12  25  40  66 101 133 170 226 269 327 404
#     4  10  21  35  61  95 131 167 210 270 327 384
#     4  12  24  39  70 105 131 168 226 277 326 390
#     4   9  18  36  59  88 130 165 205 265 325 366
#
# _framework density 22.181919000000001
#
# number of rings (size 3 to 8) (size 9 to 14) (size 15 to 20)
#    0.000    1.500    1.250    4.500    8.750    0.000 
#    0.000    3.125    5.500    0.000    0.000    0.000 
#    0.000    0.000    0.000    0.000    0.000    0.000 
#
# Total GULP energy -198247.658258 kJ/mol
# GULP energy per Si atom -12390.478641 kJ/mol
# Density = 2.213143 g / cm^3
# Si number density = 22.181919 Si / 1000 Ang^3
#
#
#
# Elastic Constant Matrix: (Units=GPa)
#
#
# Indices 1 2 3 4 5 6 
#
# 1 133.2249 36.1809 37.9344 -1.9993 28.2911 -14.5395
# 2 36.1809 72.1671 18.2652 -11.5340 13.0832 -8.9029
# 3 37.9344 18.2652 88.2113 0.4417 13.6797 -4.4281
# 4 -1.9993 -11.5340 0.4417 27.7905 -1.2651 0.9511
# 5 28.2911 13.0832 13.6797 -1.2651 46.3906 -0.5798
# 6 -14.5395 -8.9029 -4.4281 0.9511 -0.5798 33.8166
#
#
#
# Elastic Compliance Matrix: (Units=1/GPa)
#
#
# Indices 1 2 3 4 5 6 
#
# 1 0.010610 -0.003495 -0.002960 -0.000959 -0.004598 0.003202
# 2 -0.003495 0.017910 -0.001766 0.007017 -0.002173 0.002747
# 3 -0.002960 -0.001766 0.013235 -0.001231 -0.001633 0.000002
# 4 -0.000959 0.007017 -0.001231 0.038842 0.000030 0.000182
# 5 -0.004598 -0.002173 -0.001633 0.000030 0.025426 -0.002328
# 6 0.003202 0.002747 0.000002 0.000182 -0.002328 0.031626
#
#
# Mechanical properties :
#
#
# Convention : Reuss Voigt Hill
#
# Bulk Modulus (GPa) = 39.50605 53.15158 46.32881
# Shear Modulus (GPa) = 30.76405 35.01439 32.88922
#
# Velocity S-wave (km/s) = 3.72815 3.97736 3.85477
# Velocity P-wave (km/s) = 6.03165 6.71611 6.38306
#
# Compressibility (1/GPa) = 0.02531258
#
# Stress axis : x y z
#
# Youngs Moduli (GPa) = 94.25504 55.83469 75.55952
#
# Poissons Ratio (x) = 0.19511 0.22368
# Poissons Ratio (y) = 0.32937 0.13343
# Poissons Ratio (z) = 0.27903 0.09860
#
# Static dielectric constant tensor:
#      x y z
#    x 4.511550 0.295950 0.145040 
#    y 0.295950 3.802020 -0.040550 
#    z 0.145040 -0.040550 3.973840 
# 
# 
# High freq. dielectric constant tensor:
#      x y z
#    x 1.881420 0.010480 0.014960 
#    y 0.010480 1.832380 -0.002470 
#    z 0.014960 -0.002470 1.885700 
# 
# From -- ./inp_files/494473.got.cif
#   From: 2010.06.25/outbox.cif.g09.slc.cpg/sg2_248_cif.got.tgz:494473.got - 2010.06.27 13:26:56.
