data_PCOD8008642
_publ_section_title
;
Structure prediction by ZEFSAII (Michael W. Deem and Ramdas Pophale) SiO2 
 PCOD8008642
Probable space group: P -1
;
_chemical_formula_sum "Si O2"
_cell_formula_units_Z 14
_cell_length_a 20.345240
_cell_length_b 16.778184
_cell_length_c 10.888540
_cell_angle_alpha 151.005101
_cell_angle_beta 38.577341
_cell_angle_gamma 159.726476
_cell_volume 607.481944
_symmetry_space_group_name_H-M "P -1"
_symmetry_group_IT_number 2
_symmetry_cell_setting 'triclinic'
loop_
_space_group_symop_operation_xyz
x,y,z
-x,-y,-z
loop_
_atom_site_type_symbol
_atom_site_label
_atom_site_fract_x
_atom_site_fract_y
_atom_site_fract_z
Si Si1 0.767572 0.643352 0.420073
Si Si2 0.158282 0.759738 0.408949
Si Si3 0.323859 0.489809 0.900027
Si Si4 0.916425 0.163336 0.840159
Si Si5 0.098752 0.294655 0.205175
Si Si6 0.348341 0.150604 0.420300
Si Si7 0.520610 0.059133 0.407233
O O1 0.791032 0.675672 0.281139
O O2 0.554245 0.323506 0.353102
O O3 0.916919 0.693339 0.304293
O O4 0.831994 0.914417 0.722502
O O5 0.060452 0.768979 0.650652
O O6 0.214482 0.909887 0.398927
O O7 0.347509 0.943571 0.450992
O O8 0.001573 0.413402 0.142299
O O9 0.399388 0.409080 0.718562
O O10 0.179302 0.374165 0.057925
O O11 0.504844 0.852925 0.098009
O O12 0.749964 0.011581 0.786849
O O13 0.273099 0.577946 0.426798
O O14 0.000000 0.000000 0.000000
O O15 0.500000 0.000000 0.500000
#
# Coordination Sequence:
#
# PCOD8008642 Si02
#       7
#     2   2   2   2   2   2   2
#     4  10  22  42  68  98 140 178 221 274 330 405
#     4  12  25  44  69 105 134 179 224 277 346 399
#     4  10  20  46  65  98 133 174 229 274 328 402
#     4  10  22  41  66 104 133 177 230 263 336 407
#     4  11  25  46  70  97 136 173 227 291 337 390
#     4  11  24  41  69  99 141 177 217 280 338 397
#     4  10  25  46  68  97 134 177 230 277 328 407
#
# _framework density 23.045952
#
# number of rings (size 3 to 8) (size 9 to 14) (size 15 to 20)
#    0.000    1.429    2.857    2.143    4.000    4.571 
#    2.571    0.000    0.000    0.000    0.000    0.000 
#    0.000    0.000    0.000    0.000    0.000    0.000 
#
# Total GULP energy -173497.869720 kJ/mol
# GULP energy per Si atom -12392.704980 kJ/mol
# Density = 2.299350 g / cm^3
# Si number density = 23.045952 Si / 1000 Ang^3
#
#
#
# Elastic Constant Matrix: (Units=GPa)
#
#
# Indices 1 2 3 4 5 6 
#
# 1 50.8921 0.9853 30.4442 7.5795 -6.4825 12.2827
# 2 0.9853 92.6608 31.0053 10.6212 1.7002 3.7747
# 3 30.4442 31.0053 123.1079 20.9743 -18.8929 -2.8294
# 4 7.5795 10.6212 20.9743 42.5563 -5.3700 5.5413
# 5 -6.4825 1.7002 -18.8929 -5.3700 22.2465 2.9242
# 6 12.2827 3.7747 -2.8294 5.5413 2.9242 32.8096
#
#
#
# Elastic Compliance Matrix: (Units=1/GPa)
#
#
# Indices 1 2 3 4 5 6 
#
# 1 0.026946 0.002484 -0.007053 -0.000084 0.003130 -0.011246
# 2 0.002484 0.012496 -0.004103 -0.001756 -0.003866 -0.002080
# 3 -0.007053 -0.004103 0.012790 -0.003589 0.007711 0.004134
# 4 -0.000084 -0.001756 -0.003589 0.026902 0.004212 -0.004995
# 5 0.003130 -0.003866 0.007711 0.004212 0.054464 -0.005628
# 6 -0.011246 -0.002080 0.004134 -0.004995 -0.005628 0.036630
#
#
# Mechanical properties :
#
#
# Convention : Reuss Voigt Hill
#
# Bulk Modulus (GPa) = 28.66414 43.50340 36.08377
# Shear Modulus (GPa) = 25.10013 33.13755 29.11884
#
# Velocity S-wave (km/s) = 3.30378 3.79607 3.55845
# Velocity P-wave (km/s) = 5.19790 6.17505 5.70743
#
# Compressibility (1/GPa) = 0.03488679
#
# Stress axis : x y z
#
# Youngs Moduli (GPa) = 37.11125 80.02825 78.18333
#
# Poissons Ratio (x) = -0.19877 0.55143
# Poissons Ratio (y) = -0.09218 0.32081
# Poissons Ratio (z) = 0.26175 0.32838
#
# Static dielectric constant tensor:
#      x y z
#    x 5.058210 -0.324190 -1.836410 
#    y -0.324190 4.516170 1.202480 
#    z -1.836410 1.202480 7.682620 
# 
# 
# High freq. dielectric constant tensor:
#      x y z
#    x 1.886870 0.014620 -0.008140 
#    y 0.014620 1.913980 0.010450 
#    z -0.008140 0.010450 1.927240 
# 
# From -- ./inp_files/472480.got.cif
#   From: 2010.06.25/outbox.cif.g09.slc.cpg/sg2_237_cif.got.tgz:472480.got - 2010.06.27 13:26:56.
