data_PCOD8008049
_publ_section_title
;
Structure prediction by ZEFSAII (Michael W. Deem and Ramdas Pophale) SiO2 
 PCOD8008049
Probable space group: P -1
;
_chemical_formula_sum "Si O2"
_cell_formula_units_Z 14
_cell_length_a 16.092673
_cell_length_b 8.101004
_cell_length_c 7.554875
_cell_angle_alpha 90.543618
_cell_angle_beta 89.326091
_cell_angle_gamma 138.800042
_cell_volume 648.700782
_symmetry_space_group_name_H-M "P -1"
_symmetry_group_IT_number 2
_symmetry_cell_setting 'triclinic'
loop_
_space_group_symop_operation_xyz
x,y,z
-x,-y,-z
loop_
_atom_site_type_symbol
_atom_site_label
_atom_site_fract_x
_atom_site_fract_y
_atom_site_fract_z
Si Si1 0.999010 0.727094 0.832917
Si Si2 0.752749 0.764309 0.323431
Si Si3 0.102099 0.522168 0.811197
Si Si4 0.516167 0.255220 0.163142
Si Si5 0.111150 0.295109 0.491321
Si Si6 0.396895 0.205803 0.492304
Si Si7 0.605557 0.017236 0.184745
O O1 0.022460 0.569625 0.795577
O O2 0.886056 0.622606 0.705109
O O3 0.124649 0.023487 0.798839
O O4 0.954259 0.681155 0.035787
O O5 0.633989 0.555076 0.194979
O O6 0.764660 0.621672 0.451479
O O7 0.733920 0.899497 0.448964
O O8 0.087729 0.410127 0.625133
O O9 0.246465 0.775759 0.857972
O O10 0.399880 0.128305 0.296699
O O11 0.560100 0.135586 0.193350
O O12 0.466281 0.198080 0.964531
O O13 0.000000 0.000000 0.500000
O O14 0.500000 0.500000 0.500000
O O15 0.429554 0.110478 0.627162
#
# Coordination Sequence:
#
# PCOD8008049 Si02
#       7
#     2   2   2   2   2   2   2
#     4  10  23  42  66  94 125 167 208 258 318 364
#     4  10  20  42  64  94 132 162 208 258 306 378
#     4  11  22  43  66  94 127 163 210 262 311 372
#     4  10  23  42  66  94 125 167 208 258 318 364
#     4  10  22  41  63  91 127 167 206 256 308 370
#     4  10  22  41  63  91 127 167 206 256 308 370
#     4  11  22  43  66  94 127 163 210 262 311 372
#
# _framework density 21.581600000000002
#
# number of rings (size 3 to 8) (size 9 to 14) (size 15 to 20)
#    0.000    1.714    2.857    0.857    0.000    5.714 
#   20.571    2.857    0.000    0.000    0.000    0.000 
#    0.000    0.000    0.000    0.000    0.000    0.000 
#
# Total GULP energy -173549.256987 kJ/mol
# GULP energy per Si atom -12396.375499 kJ/mol
# Density = 2.153248 g / cm^3
# Si number density = 21.581600 Si / 1000 Ang^3
#
#
#
# Elastic Constant Matrix: (Units=GPa)
#
#
# Indices 1 2 3 4 5 6 
#
# 1 52.6001 4.3901 14.0091 0.3028 8.5212 -6.0045
# 2 4.3901 64.4501 31.6060 -3.1743 15.0588 10.9018
# 3 14.0091 31.6060 99.5006 -1.4988 -0.2042 -4.6978
# 4 0.3028 -3.1743 -1.4988 38.1362 -1.9784 0.7359
# 5 8.5212 15.0588 -0.2042 -1.9784 18.6977 -4.9001
# 6 -6.0045 10.9018 -4.6978 0.7359 -4.9001 28.1763
#
#
#
# Elastic Compliance Matrix: (Units=1/GPa)
#
#
# Indices 1 2 3 4 5 6 
#
# 1 0.021971 0.003443 -0.004203 -0.000725 -0.012792 0.000444
# 2 0.003443 0.031696 -0.011505 0.000860 -0.032125 -0.019057
# 3 -0.004203 -0.011505 0.014722 0.000196 0.013555 0.008363
# 4 -0.000725 0.000860 0.000196 0.026438 0.002239 -0.000756
# 5 -0.012792 -0.032125 0.013555 0.002239 0.092925 0.028066
# 6 0.000444 -0.019057 0.008363 -0.000756 0.028066 0.049254
#
#
# Mechanical properties :
#
#
# Convention : Reuss Voigt Hill
#
# Bulk Modulus (GPa) = 22.80156 35.17345 28.98750
# Shear Modulus (GPa) = 18.10576 28.10509 23.10542
#
# Velocity S-wave (km/s) = 2.89960 3.61261 3.27556
# Velocity P-wave (km/s) = 4.66888 5.80815 5.26939
#
# Compressibility (1/GPa) = 0.04385666
#
# Stress axis : x y z
#
# Youngs Moduli (GPa) = 45.51554 31.55017 67.92446
#
# Poissons Ratio (x) = -0.10862 0.28549
# Poissons Ratio (y) = -0.15670 0.78150
# Poissons Ratio (z) = 0.19131 0.36300
#
# Static dielectric constant tensor:
#      x y z
#    x -8.209360 2.808760 -1.297340 
#    y 2.808760 3.155740 0.262210 
#    z -1.297340 0.262210 4.086310 
# 
# 
# High freq. dielectric constant tensor:
#      x y z
#    x 1.859230 -0.014390 0.002630 
#    y -0.014390 1.838590 -0.001510 
#    z 0.002630 -0.001510 1.844480 
# 
# From -- ./inp_files/106911.got.cif
#   From: 2010.06.25/outbox.cif.g09.slc.cpg/sg2_54_cif.got.tgz:106911.got - 2010.06.27 13:26:56.
