data_PCOD8008685
_publ_section_title
;
Structure prediction by ZEFSAII (Michael W. Deem and Ramdas Pophale) SiO2 
 PCOD8008685
Probable space group: P -1
;
_chemical_formula_sum "Si O2"
_cell_formula_units_Z 16
_cell_length_a 17.892949
_cell_length_b 20.821419
_cell_length_c 9.702783
_cell_angle_alpha 56.702039
_cell_angle_beta 44.774532
_cell_angle_gamma 20.302620
_cell_volume 776.002397
_symmetry_space_group_name_H-M "P -1"
_symmetry_group_IT_number 2
_symmetry_cell_setting 'triclinic'
loop_
_space_group_symop_operation_xyz
x,y,z
-x,-y,-z
loop_
_atom_site_type_symbol
_atom_site_label
_atom_site_fract_x
_atom_site_fract_y
_atom_site_fract_z
Si Si1 0.783841 0.101262 0.018511
Si Si2 0.428065 0.826997 0.264068
Si Si3 0.827233 0.283220 0.461194
Si Si4 0.667661 0.663971 0.853160
Si Si5 0.765676 0.284958 0.830204
Si Si6 0.610601 0.103618 0.471357
Si Si7 0.680710 0.272484 0.418357
Si Si8 0.331680 0.193432 0.508899
O O1 0.571563 0.236141 0.003823
O O2 0.622974 0.165364 0.275830
O O3 0.818729 0.163487 0.958160
O O4 0.107976 0.854721 0.840021
O O5 0.554174 0.762164 0.327826
O O6 0.288398 0.835672 0.443478
O O7 0.660514 0.677005 0.013778
O O8 0.173716 0.059943 0.287370
O O9 0.698914 0.322100 0.712116
O O10 0.779059 0.268175 0.405225
O O11 0.660715 0.478028 0.455804
O O12 0.595076 0.795215 0.721991
O O13 0.984827 0.416197 0.695508
O O14 0.500000 0.500000 0.000000
O O15 0.052097 0.144766 0.645165
O O16 0.433922 0.154454 0.571061
O O17 0.500000 0.000000 0.500000
#
# Coordination Sequence:
#
# PCOD8008685 Si02
#       8
#     2   2   2   2   2   2   2   2
#     4  11  20  38  62  88 129 167 197 244 300 363
#     4  11  21  39  59  90 127 152 199 250 305 356
#     4  10  21  33  51  87 125 167 202 231 286 367
#     4  10  23  42  67  89 113 161 204 250 301 356
#     4  11  22  33  56  90 131 160 200 242 304 363
#     4  10  23  38  60  89 121 162 200 247 303 357
#     4  11  20  35  58  87 132 166 197 239 296 367
#     4  10  24  47  66  86 115 155 211 256 299 359
#
# _framework density 20.618493000000001
#
# number of rings (size 3 to 8) (size 9 to 14) (size 15 to 20)
#    0.000    1.500    3.750    2.250    3.500    1.500 
#    2.250    0.625    0.000    0.000    0.000    0.000 
#    0.000    0.000    0.000    0.000    0.000    0.000 
#
# Total GULP energy -198270.177863 kJ/mol
# GULP energy per Si atom -12391.886116 kJ/mol
# Density = 2.057156 g / cm^3
# Si number density = 20.618493 Si / 1000 Ang^3
#
#
#
# Elastic Constant Matrix: (Units=GPa)
#
#
# Indices 1 2 3 4 5 6 
#
# 1 90.7356 28.4260 24.7059 4.6481 14.3581 3.2808
# 2 28.4260 107.7813 20.4879 10.8218 4.7759 12.2484
# 3 24.7059 20.4879 77.1144 1.3163 23.1421 2.2661
# 4 4.6481 10.8218 1.3163 25.7237 -4.3852 4.9604
# 5 14.3581 4.7759 23.1421 -4.3852 35.0058 0.4370
# 6 3.2808 12.2484 2.2661 4.9604 0.4370 24.8415
#
#
#
# Elastic Compliance Matrix: (Units=1/GPa)
#
#
# Indices 1 2 3 4 5 6 
#
# 1 0.013184 -0.002709 -0.002370 -0.001797 -0.003699 0.000235
# 2 -0.002709 0.011176 -0.002112 -0.003158 0.000641 -0.004341
# 3 -0.002370 -0.002112 0.017441 -0.001400 -0.010448 0.000227
# 4 -0.001797 -0.003158 -0.001400 0.043213 0.007592 -0.006840
# 5 -0.003699 0.000641 -0.010448 0.007592 0.037868 -0.001057
# 6 0.000235 -0.004341 0.000227 -0.006840 -0.001057 0.043728
#
#
# Mechanical properties :
#
#
# Convention : Reuss Voigt Hill
#
# Bulk Modulus (GPa) = 36.47262 46.98566 41.72914
# Shear Modulus (GPa) = 26.29748 30.58165 28.43956
#
# Velocity S-wave (km/s) = 3.57519 3.85543 3.71795
# Velocity P-wave (km/s) = 5.89664 6.53121 6.22202
#
# Compressibility (1/GPa) = 0.02741783
#
# Stress axis : x y z
#
# Youngs Moduli (GPa) = 75.84950 89.47801 57.33592
#
# Poissons Ratio (x) = 0.24238 0.13590
# Poissons Ratio (y) = 0.20547 0.12112
# Poissons Ratio (z) = 0.17979 0.18901
#
# Static dielectric constant tensor:
#      x y z
#    x 3.812010 -0.203280 0.329530 
#    y -0.203280 4.023720 -0.020870 
#    z 0.329530 -0.020870 3.716710 
# 
# 
# High freq. dielectric constant tensor:
#      x y z
#    x 1.797420 -0.011550 0.031800 
#    y -0.011550 1.806320 0.002100 
#    z 0.031800 0.002100 1.798310 
# 
# From -- ./inp_files/337654.got.cif
#   From: 2010.06.25/outbox.cif.g09.slc.cpg/sg2_169_cif.got.tgz:337654.got - 2010.06.27 13:26:56.
