data_PCOD8008035
_publ_section_title
;
Structure prediction by ZEFSAII (Michael W. Deem and Ramdas Pophale) SiO2 
 PCOD8008035
Probable space group: P -1
;
_chemical_formula_sum "Si O2"
_cell_formula_units_Z 16
_cell_length_a 9.133205
_cell_length_b 26.325276
_cell_length_c 19.778963
_cell_angle_alpha 161.769884
_cell_angle_beta 41.516090
_cell_angle_gamma 146.729887
_cell_volume 787.108204
_symmetry_space_group_name_H-M "P -1"
_symmetry_group_IT_number 2
_symmetry_cell_setting 'triclinic'
loop_
_space_group_symop_operation_xyz
x,y,z
-x,-y,-z
loop_
_atom_site_type_symbol
_atom_site_label
_atom_site_fract_x
_atom_site_fract_y
_atom_site_fract_z
Si Si1 0.657955 0.145386 0.410389
Si Si2 0.305213 0.692358 0.971287
Si Si3 0.260151 0.517313 0.903467
Si Si4 0.250533 0.482712 0.096562
Si Si5 0.163578 0.247858 0.962881
Si Si6 0.916212 0.504502 0.609696
Si Si7 0.660121 0.820967 0.549581
Si Si8 0.233144 0.482873 0.589974
O O1 0.692852 0.298064 0.649094
O O2 0.410583 0.104970 0.398107
O O3 0.960566 0.252205 0.407081
O O4 0.560576 0.927047 0.195152
O O5 0.292431 0.547391 0.849203
O O6 0.318840 0.625982 0.806955
O O7 0.021283 0.671138 0.048833
O O8 0.247793 0.321868 0.680421
O O9 0.540844 0.714636 0.089837
O O10 0.000000 0.500000 0.000000
O O11 0.500000 0.500000 0.000000
O O12 0.187678 0.402485 0.094060
O O13 0.117634 0.317846 0.139372
O O14 0.920298 0.014318 0.741291
O O15 0.614983 0.289285 0.449475
O O16 0.000000 0.500000 0.500000
O O17 0.155367 0.554517 0.642064
O O18 0.500000 0.500000 0.500000
#
# Coordination Sequence:
#
# PCOD8008035 Si02
#       8
#     2   2   2   2   2   2   2   2
#     4  10  20  42  64  90 121 162 207 250 301 366
#     4  11  23  40  63  91 128 157 203 260 303 359
#     4  11  25  41  60  93 131 160 200 257 311 356
#     4  11  21  37  65  91 116 159 207 249 297 363
#     4  11  21  42  62  89 121 163 207 247 300 370
#     4  10  21  40  64  92 120 160 207 253 302 367
#     4  10  21  41  67  84 126 164 202 253 302 366
#     4  10  22  39  63  92 124 159 202 253 312 364
#
# _framework density 20.327573999999998
#
# number of rings (size 3 to 8) (size 9 to 14) (size 15 to 20)
#    0.000    1.500    6.250    0.750    3.500    5.000 
#    0.000    0.000    0.000    0.000    0.000    0.000 
#    0.000    0.000    0.000    0.000    0.000    0.000 
#
# Total GULP energy -198257.318582 kJ/mol
# GULP energy per Si atom -12391.082411 kJ/mol
# Density = 2.028131 g / cm^3
# Si number density = 20.327574 Si / 1000 Ang^3
#
#
#
# Elastic Constant Matrix: (Units=GPa)
#
#
# Indices 1 2 3 4 5 6 
#
# 1 79.6457 36.7604 25.1746 2.3878 6.2385 12.5604
# 2 36.7604 110.0647 59.2680 -5.0583 4.2050 26.9240
# 3 25.1746 59.2680 102.3092 12.7941 12.8009 8.8518
# 4 2.3878 -5.0583 12.7941 27.8593 7.9456 4.9453
# 5 6.2385 4.2050 12.8009 7.9456 26.9945 0.8007
# 6 12.5604 26.9240 8.8518 4.9453 0.8007 45.0731
#
#
#
# Elastic Compliance Matrix: (Units=1/GPa)
#
#
# Indices 1 2 3 4 5 6 
#
# 1 0.015187 -0.004281 -0.000755 -0.000860 -0.002190 -0.001394
# 2 -0.004281 0.018736 -0.010304 0.010035 0.000273 -0.009081
# 3 -0.000755 -0.010304 0.017217 -0.009368 -0.003748 0.004078
# 4 -0.000860 0.010035 -0.009368 0.046624 -0.010383 -0.008846
# 5 -0.002190 0.000273 -0.003748 -0.010383 0.042295 0.001572
# 6 -0.001394 -0.009081 0.004078 -0.008846 0.001572 0.028141
#
#
# Mechanical properties :
#
#
# Convention : Reuss Voigt Hill
#
# Bulk Modulus (GPa) = 48.87397 59.38062 54.12730
# Shear Modulus (GPa) = 24.30739 31.37315 27.84027
#
# Velocity S-wave (km/s) = 3.46176 3.93285 3.70480
# Velocity P-wave (km/s) = 6.33039 7.06388 6.70716
#
# Compressibility (1/GPa) = 0.02046079
#
# Stress axis : x y z
#
# Youngs Moduli (GPa) = 65.84517 53.37366 58.08346
#
# Poissons Ratio (x) = 0.22848 0.04385
# Poissons Ratio (y) = 0.28187 0.59847
# Poissons Ratio (z) = 0.04971 0.54995
#
# Static dielectric constant tensor:
#      x y z
#    x 3.882330 0.230830 0.114790 
#    y 0.230830 3.727760 0.104960 
#    z 0.114790 0.104960 3.558680 
# 
# 
# High freq. dielectric constant tensor:
#      x y z
#    x 1.799660 0.020310 0.010110 
#    y 0.020310 1.793520 0.006430 
#    z 0.010110 0.006430 1.778050 
# 
# From -- ./inp_files/201085.got.cif
#   From: 2010.06.25/outbox.cif.g09.slc.cpg/sg2_101_cif.got.tgz:201085.got - 2010.06.27 13:26:56.
