data_PCOD8008420
_publ_section_title
;
Structure prediction by ZEFSAII (Michael W. Deem and Ramdas Pophale) SiO2 
 PCOD8008420
Probable space group: P -1
;
_chemical_formula_sum "Si O2"
_cell_formula_units_Z 14
_cell_length_a 9.062111
_cell_length_b 12.504834
_cell_length_c 10.607704
_cell_angle_alpha 36.639047
_cell_angle_beta 91.500806
_cell_angle_gamma 90.724631
_cell_volume 717.043142
_symmetry_space_group_name_H-M "P -1"
_symmetry_group_IT_number 2
_symmetry_cell_setting 'triclinic'
loop_
_space_group_symop_operation_xyz
x,y,z
-x,-y,-z
loop_
_atom_site_type_symbol
_atom_site_label
_atom_site_fract_x
_atom_site_fract_y
_atom_site_fract_z
Si Si1 0.408516 0.182372 0.052700
Si Si2 0.085960 0.546103 0.084436
Si Si3 0.689363 0.737462 0.542770
Si Si4 0.802903 0.511188 0.255340
Si Si5 0.361605 0.373452 0.631953
Si Si6 0.636144 0.181599 0.475809
Si Si7 0.293742 0.867075 0.760826
O O1 0.571862 0.216159 0.076826
O O2 0.350309 0.986817 0.270877
O O3 0.297586 0.335437 0.961980
O O4 0.412106 0.202872 0.880732
O O5 0.215501 0.401345 0.242552
O O6 0.974751 0.545786 0.200768
O O7 0.152518 0.743302 0.888272
O O8 0.000000 0.500000 0.000000
O O9 0.702434 0.692657 0.438068
O O10 0.521270 0.720148 0.601483
O O11 0.751116 0.936305 0.376203
O O12 0.768656 0.517509 0.398846
O O13 0.765486 0.317577 0.381277
O O14 0.500000 0.500000 0.500000
O O15 0.651808 0.111837 0.400689
#
# Coordination Sequence:
#
# PCOD8008420 Si02
#       7
#     2   2   2   2   2   2   2
#     4   9  22  39  64  94 121 157 207 256 310 351
#     4  12  26  41  62  91 130 171 198 253 314 376
#     4  11  24  41  63  95 123 161 214 253 305 368
#     4  10  23  41  62  91 125 163 208 248 313 361
#     4  10  20  43  67  91 124 161 206 261 301 366
#     4  11  21  39  66  94 124 158 205 268 302 358
#     4  11  24  39  65  96 124 163 205 259 312 362
#
# _framework density 19.524628
#
# number of rings (size 3 to 8) (size 9 to 14) (size 15 to 20)
#    0.857    0.571    2.857    3.429    4.000    5.714 
#    2.571    0.714    0.000    0.000    0.000    0.000 
#    0.000    0.000    0.000    0.000    0.000    0.000 
#
# Total GULP energy -173587.269919 kJ/mol
# GULP energy per Si atom -12399.090709 kJ/mol
# Density = 1.948019 g / cm^3
# Si number density = 19.524628 Si / 1000 Ang^3
#
#
#
# Elastic Constant Matrix: (Units=GPa)
#
#
# Indices 1 2 3 4 5 6 
#
# 1 76.1206 23.2648 39.1003 -5.7496 -24.2589 -4.5030
# 2 23.2648 121.1952 37.5939 5.6274 -2.5755 -0.8995
# 3 39.1003 37.5939 112.6724 1.0737 -3.2352 6.6843
# 4 -5.7496 5.6274 1.0737 36.3919 4.0819 -4.4617
# 5 -24.2589 -2.5755 -3.2352 4.0819 30.8498 1.2378
# 6 -4.5030 -0.8995 6.6843 -4.4617 1.2378 27.8123
#
#
#
# Elastic Compliance Matrix: (Units=1/GPa)
#
#
# Indices 1 2 3 4 5 6 
#
# 1 0.023407 -0.001963 -0.007321 0.002964 0.016873 0.005210
# 2 -0.001963 0.009464 -0.002508 -0.001561 -0.000825 0.000377
# 3 -0.007321 -0.002508 0.012390 -0.001167 -0.004342 -0.004238
# 4 0.002964 -0.001561 -0.001167 0.029117 -0.001994 0.005470
# 5 0.016873 -0.000825 -0.004342 -0.001994 0.045367 0.001410
# 6 0.005210 0.000377 -0.004238 0.005470 0.001410 0.038644
#
#
# Mechanical properties :
#
#
# Convention : Reuss Voigt Hill
#
# Bulk Modulus (GPa) = 46.12887 56.65623 51.39255
# Shear Modulus (GPa) = 26.42749 33.01274 29.72011
#
# Velocity S-wave (km/s) = 3.68305 4.11643 3.90575
# Velocity P-wave (km/s) = 6.46249 7.18847 6.83512
#
# Compressibility (1/GPa) = 0.02167840
#
# Stress axis : x y z
#
# Youngs Moduli (GPa) = 42.72268 105.66907 80.70801
#
# Poissons Ratio (x) = 0.20740 0.59084
# Poissons Ratio (y) = 0.08385 0.20239
# Poissons Ratio (z) = 0.31276 0.26498
#
# Static dielectric constant tensor:
#      x y z
#    x 3.517510 -0.095480 -0.091650 
#    y -0.095480 3.559870 0.020980 
#    z -0.091650 0.020980 3.554330 
# 
# 
# High freq. dielectric constant tensor:
#      x y z
#    x 1.750980 -0.003990 -0.010900 
#    y -0.003990 1.761380 -0.002630 
#    z -0.010900 -0.002630 1.765840 
# 
# From -- ./inp_files/388859.got.cif
#   From: 2010.06.25/outbox.cif.g09.slc.cpg/sg2_195_cif.got.tgz:388859.got - 2010.06.27 13:26:56.
