data_PCOD8008630
_publ_section_title
;
Structure prediction by ZEFSAII (Michael W. Deem and Ramdas Pophale) SiO2 
 PCOD8008630
Probable space group: P -1
;
_chemical_formula_sum "Si O2"
_cell_formula_units_Z 16
_cell_length_a 8.443873
_cell_length_b 8.301334
_cell_length_c 15.791889
_cell_angle_alpha 48.365142
_cell_angle_beta 108.411713
_cell_angle_gamma 125.020119
_cell_volume 673.652582
_symmetry_space_group_name_H-M "P -1"
_symmetry_group_IT_number 2
_symmetry_cell_setting 'triclinic'
loop_
_space_group_symop_operation_xyz
x,y,z
-x,-y,-z
loop_
_atom_site_type_symbol
_atom_site_label
_atom_site_fract_x
_atom_site_fract_y
_atom_site_fract_z
Si Si1 0.975062 0.465887 0.158302
Si Si2 0.329726 0.977441 0.039128
Si Si3 0.345802 0.465322 0.837679
Si Si4 0.861081 0.720850 0.604469
Si Si5 0.198678 0.624666 0.440435
Si Si6 0.564485 0.452155 0.358619
Si Si7 0.664885 0.002682 0.185207
Si Si8 0.636071 0.937826 0.798303
O O1 0.022192 0.347767 0.286819
O O2 0.836964 0.567608 0.130280
O O3 0.877871 0.254547 0.141136
O O4 0.171088 0.704880 0.070846
O O5 0.547913 0.006060 0.076751
O O6 0.258054 0.000138 0.114325
O O7 0.330602 0.200036 0.909249
O O8 0.368886 0.594977 0.704915
O O9 0.545515 0.645630 0.860832
O O10 0.796930 0.542887 0.575253
O O11 0.667988 0.680902 0.631497
O O12 0.000000 0.000000 0.500000
O O13 0.370455 0.676423 0.515553
O O14 0.226416 0.882147 0.315933
O O15 0.000000 0.500000 0.500000
O O16 0.674690 0.753766 0.284468
O O17 0.543295 0.010551 0.242281
#
# Coordination Sequence:
#
# PCOD8008630 Si02
#       8
#     2   2   2   2   2   2   2   2
#     4  11  21  43  68  98 124 176 227 263 331 392
#     4  10  20  45  69  94 133 171 228 270 329 381
#     4  11  25  39  70  97 132 174 222 278 325 391
#     4  12  25  42  68  95 133 178 217 272 334 401
#     4  12  25  43  66  95 137 171 218 280 324 398
#     4  12  25  43  64 101 135 174 215 276 338 389
#     4   9  21  41  66  93 128 173 213 266 324 394
#     4   9  21  42  66  91 129 174 216 266 327 386
#
# _framework density 23.751114999999999
#
# number of rings (size 3 to 8) (size 9 to 14) (size 15 to 20)
#    0.750    0.500    3.750    2.625    5.250    1.000 
#    0.000    0.625    0.000    0.000    0.000    0.000 
#    0.000    0.000    0.000    0.000    0.000    0.000 
#
# Total GULP energy -198398.531578 kJ/mol
# GULP energy per Si atom -12399.908224 kJ/mol
# Density = 2.369706 g / cm^3
# Si number density = 23.751115 Si / 1000 Ang^3
#
#
#
# Elastic Constant Matrix: (Units=GPa)
#
#
# Indices 1 2 3 4 5 6 
#
# 1 71.6255 12.4179 16.4347 -9.4558 -6.3546 13.9654
# 2 12.4179 112.8177 27.8603 -16.8844 -12.7362 28.6785
# 3 16.4347 27.8603 109.2141 -4.8026 -1.6456 16.2629
# 4 -9.4558 -16.8844 -4.8026 50.4539 5.2977 -3.5917
# 5 -6.3546 -12.7362 -1.6456 5.2977 30.0546 -2.4636
# 6 13.9654 28.6785 16.2629 -3.5917 -2.4636 28.9882
#
#
#
# Elastic Compliance Matrix: (Units=1/GPa)
#
#
# Indices 1 2 3 4 5 6 
#
# 1 0.016141 0.001197 -0.001452 0.002454 0.002784 -0.007605
# 2 0.001197 0.013087 -0.001543 0.003170 0.004179 -0.011910
# 3 -0.001452 -0.001543 0.010296 0.000008 -0.000694 -0.003608
# 4 0.002454 0.003170 0.000008 0.021427 -0.002065 -0.001843
# 5 0.002784 0.004179 -0.000694 -0.002065 0.035770 -0.002303
# 6 -0.007605 -0.011910 -0.003608 -0.001843 -0.002303 0.051544
#
#
# Mechanical properties :
#
#
# Convention : Reuss Voigt Hill
#
# Bulk Modulus (GPa) = 27.83387 45.23145 36.53266
# Shear Modulus (GPa) = 30.51837 37.69564 34.10700
#
# Velocity S-wave (km/s) = 3.58847 3.98818 3.79359
# Velocity P-wave (km/s) = 5.37717 6.34765 5.88246
#
# Compressibility (1/GPa) = 0.03592745
#
# Stress axis : x y z
#
# Youngs Moduli (GPa) = 61.95454 76.41191 97.12951
#
# Poissons Ratio (x) = -0.09143 0.14102
# Poissons Ratio (y) = -0.07413 0.14983
# Poissons Ratio (z) = 0.08995 0.11787
#
# Static dielectric constant tensor:
#      x y z
#    x 3.998750 -0.119900 -0.030120 
#    y -0.119900 4.430910 0.174300 
#    z -0.030120 0.174300 4.176250 
# 
# 
# High freq. dielectric constant tensor:
#      x y z
#    x 1.928440 -0.005690 -0.015510 
#    y -0.005690 1.953130 0.002880 
#    z -0.015510 0.002880 1.949580 
# 
# From -- ./inp_files/555960.got.cif
#   From: 2010.06.25/outbox.cif.g09.slc.cpg/sg2_278_cif.got.tgz:555960.got - 2010.06.27 13:26:56.
