data_PCOD8008407
_publ_section_title
;
Structure prediction by ZEFSAII (Michael W. Deem and Ramdas Pophale) SiO2 
 PCOD8008407
Probable space group: P -1
;
_chemical_formula_sum "Si O2"
_cell_formula_units_Z 16
_cell_length_a 10.635768
_cell_length_b 11.900382
_cell_length_c 12.658195
_cell_angle_alpha 65.618506
_cell_angle_beta 91.227344
_cell_angle_gamma 38.273939
_cell_volume 714.579943
_symmetry_space_group_name_H-M "P -1"
_symmetry_group_IT_number 2
_symmetry_cell_setting 'triclinic'
loop_
_space_group_symop_operation_xyz
x,y,z
-x,-y,-z
loop_
_atom_site_type_symbol
_atom_site_label
_atom_site_fract_x
_atom_site_fract_y
_atom_site_fract_z
Si Si1 0.106327 0.415865 0.418837
Si Si2 0.554023 0.175838 0.606351
Si Si3 0.889650 0.880593 0.918453
Si Si4 0.222499 0.083963 0.860514
Si Si5 0.322294 0.596755 0.561475
Si Si6 0.999955 0.275947 0.336455
Si Si7 0.122973 0.836853 0.262528
Si Si8 0.801425 0.566908 0.011194
O O1 0.394138 0.216149 0.518237
O O2 0.115472 0.272777 0.424279
O O3 0.000000 0.500000 0.500000
O O4 0.932760 0.656198 0.252740
O O5 0.394655 0.431537 0.537495
O O6 0.672437 0.018384 0.778350
O O7 0.790169 0.998003 0.599797
O O8 0.155926 0.580441 0.015648
O O9 0.765918 0.959651 0.999016
O O10 0.960611 0.963354 0.870231
O O11 0.073482 0.101434 0.793553
O O12 0.501807 0.862402 0.896486
O O13 0.583376 0.441416 0.664250
O O14 0.201650 0.642032 0.644625
O O15 0.134038 0.842558 0.390056
O O16 0.866767 0.469152 0.168272
O O17 0.000000 0.500000 0.000000
#
# Coordination Sequence:
#
# PCOD8008407 Si02
#       8
#     2   2   2   2   2   2   2   2
#     4  12  24  40  67  96 131 169 216 271 323 383
#     4  10  21  42  64  95 130 166 216 265 323 376
#     4  10  24  44  69  93 131 174 213 268 321 385
#     4  12  25  43  67  97 129 175 216 264 325 382
#     4  10  20  43  66  98 130 168 213 269 332 373
#     4  11  23  41  67  95 130 174 214 267 326 386
#     4  10  21  42  70  92 132 169 216 272 316 383
#     4  11  26  44  65  97 133 173 216 263 324 390
#
# _framework density 22.390778000000001
#
# number of rings (size 3 to 8) (size 9 to 14) (size 15 to 20)
#    0.000    1.250    2.500    3.000    3.500    1.500 
#    6.750   13.750    0.000    0.000    0.000    0.000 
#    0.000    0.000    0.000    0.000    0.000    0.000 
#
# Total GULP energy -198219.295753 kJ/mol
# GULP energy per Si atom -12388.705985 kJ/mol
# Density = 2.233982 g / cm^3
# Si number density = 22.390778 Si / 1000 Ang^3
#
#
#
# Elastic Constant Matrix: (Units=GPa)
#
#
# Indices 1 2 3 4 5 6 
#
# 1 72.0600 45.4272 23.2086 4.7163 3.8599 -32.8597
# 2 45.4272 129.4713 44.6097 10.0314 0.8974 -22.7393
# 3 23.2086 44.6097 74.5981 12.0475 -2.8027 -22.0219
# 4 4.7163 10.0314 12.0475 27.1497 -12.1739 -5.4064
# 5 3.8599 0.8974 -2.8027 -12.1739 44.3959 1.9368
# 6 -32.8597 -22.7393 -22.0219 -5.4064 1.9368 43.3648
#
#
#
# Elastic Compliance Matrix: (Units=1/GPa)
#
#
# Indices 1 2 3 4 5 6 
#
# 1 0.025106 -0.006115 0.000585 -0.000411 -0.002841 0.016190
# 2 -0.006115 0.011521 -0.005195 -0.001311 -0.000329 -0.001380
# 3 0.000585 -0.005195 0.019224 -0.005612 -0.000568 0.006808
# 4 -0.000411 -0.001311 -0.005612 0.045585 0.012152 0.001291
# 5 -0.002841 -0.000329 -0.000568 0.012152 0.026173 -0.002268
# 6 0.016190 -0.001380 0.006808 0.001291 -0.002268 0.038324
#
#
# Mechanical properties :
#
#
# Convention : Reuss Voigt Hill
#
# Bulk Modulus (GPa) = 29.06855 55.84670 42.45762
# Shear Modulus (GPa) = 25.14453 33.84101 29.49277
#
# Velocity S-wave (km/s) = 3.35473 3.89187 3.63324
# Velocity P-wave (km/s) = 5.29303 6.72246 6.05011
#
# Compressibility (1/GPa) = 0.03440144
#
# Stress axis : x y z
#
# Youngs Moduli (GPa) = 39.83122 86.79922 52.01767
#
# Poissons Ratio (x) = 0.53082 -0.03045
# Poissons Ratio (y) = 0.24359 0.27022
# Poissons Ratio (z) = -0.02331 0.45089
#
# Static dielectric constant tensor:
#      x y z
#    x 4.210410 0.126070 -0.227550 
#    y 0.126070 4.154590 0.011260 
#    z -0.227550 0.011260 4.075490 
# 
# 
# High freq. dielectric constant tensor:
#      x y z
#    x 1.886210 -0.006420 -0.011910 
#    y -0.006420 1.880790 0.005210 
#    z -0.011910 0.005210 1.883490 
# 
# From -- ./inp_files/433815.got.cif
#   From: 2010.06.25/outbox.cif.g09.slc.cpg/sg2_217_cif.got.tgz:433815.got - 2010.06.27 13:26:56.
