data_PCOD8008210
_publ_section_title
;
Structure prediction by ZEFSAII (Michael W. Deem and Ramdas Pophale) SiO2 
 PCOD8008210
Probable space group: P -1
;
_chemical_formula_sum "Si O2"
_cell_formula_units_Z 16
_cell_length_a 8.749021
_cell_length_b 20.513425
_cell_length_c 7.901171
_cell_angle_alpha 82.437786
_cell_angle_beta 51.884034
_cell_angle_gamma 121.344381
_cell_volume 704.151260
_symmetry_space_group_name_H-M "P -1"
_symmetry_group_IT_number 2
_symmetry_cell_setting 'triclinic'
loop_
_space_group_symop_operation_xyz
x,y,z
-x,-y,-z
loop_
_atom_site_type_symbol
_atom_site_label
_atom_site_fract_x
_atom_site_fract_y
_atom_site_fract_z
Si Si1 0.695572 0.605222 0.234292
Si Si2 0.822670 0.657853 0.658606
Si Si3 0.758065 0.493869 0.717727
Si Si4 0.773874 0.739720 0.373812
Si Si5 0.357043 0.101994 0.214756
Si Si6 0.616249 0.036848 0.098794
Si Si7 0.589292 0.154967 0.653293
Si Si8 0.608022 0.245953 0.296308
O O1 0.500000 0.500000 0.500000
O O2 0.533389 0.572492 0.179458
O O3 0.699590 0.680528 0.276125
O O4 0.030645 0.663517 0.975588
O O5 0.921750 0.606935 0.584977
O O6 0.917945 0.722356 0.404735
O O7 0.040410 0.742472 0.630008
O O8 0.453815 0.575914 0.949195
O O9 0.000000 0.500000 0.500000
O O10 0.465643 0.695872 0.655162
O O11 0.020422 0.863422 0.153800
O O12 0.484418 0.071667 0.238872
O O13 0.469842 0.190620 0.226517
O O14 0.456858 0.138381 0.936987
O O15 0.000000 0.000000 0.500000
O O16 0.496635 0.941615 0.312150
O O17 0.500000 0.000000 0.000000
O O18 0.466698 0.169452 0.580822
#
# Coordination Sequence:
#
# PCOD8008210 Si02
#       8
#     2   2   2   2   2   2   2   2
#     4  12  26  48  69 104 145 181 242 306 358 433
#     4  11  23  46  69 102 144 184 235 301 358 433
#     4  11  27  45  72 102 135 189 241 293 370 432
#     4  12  25  44  74 102 142 189 237 298 364 431
#     4  11  24  44  71 105 147 194 239 294 367 425
#     4  10  20  42  68 100 143 185 233 292 351 424
#     4  11  24  46  72 102 150 188 245 300 351 437
#     4  12  27  47  73 109 146 192 245 297 364 427
#
# _framework density 22.722390000000001
#
# number of rings (size 3 to 8) (size 9 to 14) (size 15 to 20)
#    0.000    0.750    6.250    1.500    3.500    3.000 
#    2.250    0.000    0.000    0.000    0.000    0.000 
#    0.000    0.000    0.000    0.000    0.000    0.000 
#
# Total GULP energy -198225.032500 kJ/mol
# GULP energy per Si atom -12389.064531 kJ/mol
# Density = 2.267067 g / cm^3
# Si number density = 22.722390 Si / 1000 Ang^3
#
#
#
# Elastic Constant Matrix: (Units=GPa)
#
#
# Indices 1 2 3 4 5 6 
#
# 1 65.3937 19.4827 34.5906 -2.4377 -1.3933 -11.2386
# 2 19.4827 113.0626 49.0194 -15.6209 -6.4894 -17.1364
# 3 34.5906 49.0194 109.6326 -9.6320 -20.4316 -13.7772
# 4 -2.4377 -15.6209 -9.6320 42.0011 -5.1646 -5.6968
# 5 -1.3933 -6.4894 -20.4316 -5.1646 44.4264 2.4607
# 6 -11.2386 -17.1364 -13.7772 -5.6968 2.4607 45.0303
#
#
#
# Elastic Compliance Matrix: (Units=1/GPa)
#
#
# Indices 1 2 3 4 5 6 
#
# 1 0.018974 -0.000466 -0.005893 -0.000330 -0.002379 0.002843
# 2 -0.000466 0.011902 -0.004396 0.003869 -0.000045 0.003560
# 3 -0.005893 -0.004396 0.014413 0.002231 0.005993 0.001221
# 4 -0.000330 0.003869 0.002231 0.026996 0.004428 0.005246
# 5 -0.002379 -0.000045 0.005993 0.004428 0.025678 0.000380
# 6 0.002843 0.003560 0.001221 0.005246 0.000380 0.025288
#
#
# Mechanical properties :
#
#
# Convention : Reuss Voigt Hill
#
# Bulk Modulus (GPa) = 42.05453 54.91938 48.48696
# Shear Modulus (GPa) = 32.74667 38.62464 35.68566
#
# Velocity S-wave (km/s) = 3.80038 4.12740 3.96726
# Velocity P-wave (km/s) = 6.14861 6.85099 6.50928
#
# Compressibility (1/GPa) = 0.02377865
#
# Stress axis : x y z
#
# Youngs Moduli (GPa) = 52.70445 84.01688 69.38343
#
# Poissons Ratio (x) = 0.03912 0.40890
# Poissons Ratio (y) = 0.02454 0.30501
# Poissons Ratio (z) = 0.31061 0.36934
#
# Static dielectric constant tensor:
#      x y z
#    x 4.104510 -0.025900 0.105170 
#    y -0.025900 4.360430 0.043920 
#    z 0.105170 0.043920 4.038240 
# 
# 
# High freq. dielectric constant tensor:
#      x y z
#    x 1.891210 0.001250 -0.003710 
#    y 0.001250 1.905490 -0.014550 
#    z -0.003710 -0.014550 1.900370 
# 
# From -- ./inp_files/223578.got.cif
#   From: 2010.06.25/outbox.cif.g09.slc.cpg/sg2_112_cif.got.tgz:223578.got - 2010.06.27 13:26:56.
