data_PCOD8008529
_publ_section_title
;
Structure prediction by ZEFSAII (Michael W. Deem and Ramdas Pophale) SiO2 
 PCOD8008529
Probable space group: P -1
;
_chemical_formula_sum "Si O2"
_cell_formula_units_Z 14
_cell_length_a 19.799731
_cell_length_b 8.572331
_cell_length_c 8.945570
_cell_angle_alpha 100.547358
_cell_angle_beta 99.168553
_cell_angle_gamma 29.949503
_cell_volume 745.197794
_symmetry_space_group_name_H-M "P -1"
_symmetry_group_IT_number 2
_symmetry_cell_setting 'triclinic'
loop_
_space_group_symop_operation_xyz
x,y,z
-x,-y,-z
loop_
_atom_site_type_symbol
_atom_site_label
_atom_site_fract_x
_atom_site_fract_y
_atom_site_fract_z
Si Si1 0.596615 0.921545 0.928433
Si Si2 0.099975 0.687827 0.068579
Si Si3 0.724467 0.877643 0.481625
Si Si4 0.511319 0.810333 0.391120
Si Si5 0.252255 0.157904 0.846738
Si Si6 0.230557 0.905252 0.619137
Si Si7 0.971552 0.223020 0.607845
O O1 0.748061 0.541138 0.896583
O O2 0.530570 0.091816 0.777561
O O3 0.615463 0.050704 0.048542
O O4 0.500000 0.000000 0.000000
O O5 0.028868 0.796142 0.218674
O O6 0.117511 0.490363 0.943137
O O7 0.000000 0.000000 0.000000
O O8 0.737263 0.778406 0.301870
O O9 0.829299 0.580406 0.573147
O O10 0.577842 0.141828 0.546641
O O11 0.745646 0.026447 0.503786
O O12 0.665250 0.446927 0.395505
O O13 0.500000 0.000000 0.500000
O O14 0.243636 0.984940 0.790585
O O15 0.083836 0.125343 0.584766
O O16 0.000000 0.000000 0.500000
#
# Coordination Sequence:
#
# PCOD8008529 Si02
#       7
#     2   2   2   2   2   2   2
#     4  10  22  41  63  92 126 164 210 261 315 371
#     4  10  22  41  63  92 126 164 210 261 315 371
#     4  10  20  44  59  93 130 155 217 256 316 372
#     4  12  23  40  67  96 125 168 214 258 315 379
#     4   8  21  40  61  86 128 162 204 257 311 366
#     4  10  25  38  66  91 128 169 203 269 319 364
#     4  12  23  40  67  96 125 168 214 258 315 379
#
# _framework density 18.786957999999998
#
# number of rings (size 3 to 8) (size 9 to 14) (size 15 to 20)
#    1.714    0.000    1.429    3.429    2.000    1.143 
#    0.000    0.000    0.000    0.000    0.000    0.000 
#    0.000    0.000    0.000    0.000    0.000    0.000 
#
# Total GULP energy -173481.430832 kJ/mol
# GULP energy per Si atom -12391.530774 kJ/mol
# Density = 1.874420 g / cm^3
# Si number density = 18.786958 Si / 1000 Ang^3
#
#
#
# Elastic Constant Matrix: (Units=GPa)
#
#
# Indices 1 2 3 4 5 6 
#
# 1 99.6203 3.3920 22.4506 9.3411 -0.1756 -1.4382
# 2 3.3920 80.8228 8.0270 -0.7401 -2.8873 11.8527
# 3 22.4506 8.0270 101.5676 -0.6597 -10.9225 14.4433
# 4 9.3411 -0.7401 -0.6597 35.0219 2.2676 0.1427
# 5 -0.1756 -2.8873 -10.9225 2.2676 38.2227 5.6823
# 6 -1.4382 11.8527 14.4433 0.1427 5.6823 32.1067
#
#
#
# Elastic Compliance Matrix: (Units=1/GPa)
#
#
# Indices 1 2 3 4 5 6 
#
# 1 0.010996 -0.000557 -0.002811 -0.002946 -0.000939 0.002142
# 2 -0.000557 0.013227 0.000012 0.000336 0.001757 -0.005226
# 3 -0.002811 0.000012 0.011808 0.000723 0.004240 -0.006196
# 4 -0.002946 0.000336 0.000723 0.029456 -0.001462 -0.000453
# 5 -0.000939 0.001757 0.004240 -0.001462 0.028731 -0.007677
# 6 0.002142 -0.005226 -0.006196 -0.000453 -0.007677 0.037319
#
#
# Mechanical properties :
#
#
# Convention : Reuss Voigt Hill
#
# Bulk Modulus (GPa) = 34.10781 38.86111 36.48446
# Shear Modulus (GPa) = 33.77865 37.61300 35.69582
#
# Velocity S-wave (km/s) = 4.24486 4.47932 4.36366
# Velocity P-wave (km/s) = 6.49766 6.89075 6.69709
#
# Compressibility (1/GPa) = 0.02931880
#
# Stress axis : x y z
#
# Youngs Moduli (GPa) = 90.94140 75.60209 84.68916
#
# Poissons Ratio (x) = 0.04210 0.23808
# Poissons Ratio (y) = 0.05065 -0.00102
# Poissons Ratio (z) = 0.25566 -0.00091
#
# Static dielectric constant tensor:
#      x y z
#    x 3.302690 -0.143510 -0.025510 
#    y -0.143510 3.241450 0.017180 
#    z -0.025510 0.017180 3.477380 
# 
# 
# High freq. dielectric constant tensor:
#      x y z
#    x 1.722450 -0.008760 -0.003900 
#    y -0.008760 1.726660 -0.001120 
#    z -0.003900 -0.001120 1.734880 
# 
# From -- ./inp_files/342822.got.cif
#   From: 2010.06.25/outbox.cif.g09.slc.cpg/sg2_172_cif.got.tgz:342822.got - 2010.06.27 13:26:56.
