data_PCOD8008729
_publ_section_title
;
Structure prediction by ZEFSAII (Michael W. Deem and Ramdas Pophale) SiO2 
 PCOD8008729
Probable space group: P -1
;
_chemical_formula_sum "Si O2"
_cell_formula_units_Z 14
_cell_length_a 22.062749
_cell_length_b 17.539738
_cell_length_c 7.816929
_cell_angle_alpha 53.662313
_cell_angle_beta 138.186270
_cell_angle_gamma 157.303709
_cell_volume 723.087624
_symmetry_space_group_name_H-M "P -1"
_symmetry_group_IT_number 2
_symmetry_cell_setting 'triclinic'
loop_
_space_group_symop_operation_xyz
x,y,z
-x,-y,-z
loop_
_atom_site_type_symbol
_atom_site_label
_atom_site_fract_x
_atom_site_fract_y
_atom_site_fract_z
Si Si1 0.659840 0.334658 0.643396
Si Si2 0.942528 0.466035 0.234656
Si Si3 0.260867 0.279271 0.301341
Si Si4 0.030765 0.153011 0.677630
Si Si5 0.866262 0.704738 0.679383
Si Si6 0.026849 0.695351 0.680346
Si Si7 0.783792 0.111784 0.845580
O O1 0.672221 0.452651 0.587790
O O2 0.822300 0.476092 0.643881
O O3 0.435080 0.103150 0.413369
O O4 0.728413 0.322636 0.948581
O O5 0.912135 0.334515 0.266944
O O6 0.000000 0.500000 0.500000
O O7 0.131691 0.703122 0.246586
O O8 0.500000 0.500000 0.500000
O O9 0.177278 0.262735 0.305795
O O10 0.193751 0.254012 0.008026
O O11 0.183334 0.100678 0.410406
O O12 0.099131 0.212267 0.542594
O O13 0.012243 0.243926 0.586194
O O14 0.063507 0.826225 0.989295
O O15 0.216638 0.898990 0.935052
#
# Coordination Sequence:
#
# PCOD8008729 Si02
#       7
#     2   2   2   2   2   2   2
#     4   9  19  36  58  87 107 154 195 228 282 337
#     4  10  21  34  53  84 122 149 183 235 283 336
#     4  11  23  39  60  90 115 148 196 244 293 353
#     4   9  22  39  59  85 116 156 192 236 299 342
#     4   9  21  40  61  84 122 153 189 245 290 343
#     4   9  20  37  58  80 113 151 189 240 281 336
#     4   9  19  37  59  81 111 152 195 229 282 341
#
# _framework density 19.361415000000001
#
# number of rings (size 3 to 8) (size 9 to 14) (size 15 to 20)
#    0.000    3.143    0.000    2.143    4.000   10.286 
#    0.000    0.000    0.000    0.000    0.000    0.000 
#    0.000    0.000    0.000    0.000    0.000    0.000 
#
# Total GULP energy -173448.111919 kJ/mol
# GULP energy per Si atom -12389.150851 kJ/mol
# Density = 1.931735 g / cm^3
# Si number density = 19.361415 Si / 1000 Ang^3
#
#
#
# Elastic Constant Matrix: (Units=GPa)
#
#
# Indices 1 2 3 4 5 6 
#
# 1 77.2065 38.6827 44.3535 -6.0855 -0.9244 -3.8614
# 2 38.6827 105.3909 72.3332 11.1618 9.0566 -15.3095
# 3 44.3535 72.3332 124.2098 16.5217 -2.0208 -1.3099
# 4 -6.0855 11.1618 16.5217 47.7871 -4.3147 -1.2771
# 5 -0.9244 9.0566 -2.0208 -4.3147 17.2869 -3.9960
# 6 -3.8614 -15.3095 -1.3099 -1.2771 -3.9960 17.7093
#
#
#
# Elastic Compliance Matrix: (Units=1/GPa)
#
#
# Indices 1 2 3 4 5 6 
#
# 1 0.018321 -0.004241 -0.004703 0.005374 0.004303 0.001339
# 2 -0.004241 0.021714 -0.010823 -0.002391 -0.010090 0.014597
# 3 -0.004703 -0.010823 0.016495 -0.003592 0.004508 -0.008403
# 4 0.005374 -0.002391 -0.003592 0.024167 0.007687 0.002316
# 5 0.004303 -0.010090 0.004508 0.007687 0.067749 0.008390
# 6 0.001339 0.014597 -0.008403 0.002316 0.008390 0.070817
#
#
# Mechanical properties :
#
#
# Convention : Reuss Voigt Hill
#
# Bulk Modulus (GPa) = 58.83589 68.61621 63.72605
# Shear Modulus (GPa) = 18.90625 26.65250 22.77938
#
# Velocity S-wave (km/s) = 3.12828 3.71425 3.43379
# Velocity P-wave (km/s) = 6.59563 7.34240 6.97901
#
# Compressibility (1/GPa) = 0.01699643
#
# Stress axis : x y z
#
# Youngs Moduli (GPa) = 54.58188 46.05328 60.62293
#
# Poissons Ratio (x) = 0.19532 0.28512
# Poissons Ratio (y) = 0.23149 0.65611
# Poissons Ratio (z) = 0.25670 0.49843
#
# Static dielectric constant tensor:
#      x y z
#    x 3.343620 -0.094220 -0.247460 
#    y -0.094220 3.523900 -0.089030 
#    z -0.247460 -0.089030 3.537370 
# 
# 
# High freq. dielectric constant tensor:
#      x y z
#    x 1.735550 -0.023270 -0.010030 
#    y -0.023270 1.754250 -0.013250 
#    z -0.010030 -0.013250 1.761690 
# 
# From -- ./inp_files/354802.got.cif
#   From: 2010.06.25/outbox.cif.g09.slc.cpg/sg2_178_cif.got.tgz:354802.got - 2010.06.27 13:26:56.
