data_PCOD8008566
_publ_section_title
;
Structure prediction by ZEFSAII (Michael W. Deem and Ramdas Pophale) SiO2 
 PCOD8008566
Probable space group: P -1
;
_chemical_formula_sum "Si O2"
_cell_formula_units_Z 16
_cell_length_a 8.929366
_cell_length_b 13.307912
_cell_length_c 20.010347
_cell_angle_alpha 20.867609
_cell_angle_beta 61.972909
_cell_angle_gamma 61.398488
_cell_volume 741.714022
_symmetry_space_group_name_H-M "P -1"
_symmetry_group_IT_number 2
_symmetry_cell_setting 'triclinic'
loop_
_space_group_symop_operation_xyz
x,y,z
-x,-y,-z
loop_
_atom_site_type_symbol
_atom_site_label
_atom_site_fract_x
_atom_site_fract_y
_atom_site_fract_z
Si Si1 0.674860 0.803469 0.095231
Si Si2 0.701400 0.974021 0.399383
Si Si3 0.989969 0.949960 0.171618
Si Si4 0.632115 0.414476 0.465284
Si Si5 0.529540 0.888119 0.744277
Si Si6 0.342563 0.607959 0.059997
Si Si7 0.038839 0.686367 0.465841
Si Si8 0.559797 0.402260 0.262140
O O1 0.675708 0.682496 0.245892
O O2 0.673429 0.574627 0.178615
O O3 0.500000 0.000000 0.000000
O O4 0.837401 0.975069 0.946399
O O5 0.663623 0.094308 0.257726
O O6 0.531274 0.819084 0.538325
O O7 0.874129 0.761137 0.500947
O O8 0.703111 0.229734 0.292169
O O9 0.024948 0.905166 0.270837
O O10 0.939540 0.647345 0.346811
O O11 0.838387 0.195338 0.030764
O O12 0.500000 0.500000 0.500000
O O13 0.571714 0.202683 0.554920
O O14 0.799513 0.248486 0.566690
O O15 0.666356 0.699435 0.783797
O O16 0.504494 0.735844 0.914284
O O17 0.403008 0.574600 0.145354
#
# Coordination Sequence:
#
# PCOD8008566 Si02
#       8
#     2   2   2   2   2   2   2   2
#     4  12  27  44  64  98 132 168 217 272 318 385
#     4  10  20  44  67  94 130 175 214 254 324 382
#     4  11  25  44  66  95 133 169 217 268 321 379
#     4  12  27  44  67  94 130 173 216 264 329 386
#     4  10  21  43  67  95 131 170 217 261 313 385
#     4  10  22  40  70  99 128 170 215 263 314 381
#     4  11  25  43  66  94 131 176 212 266 323 385
#     4  10  23  40  69  96 131 171 211 265 317 381
#
# _framework density 21.571655
#
# number of rings (size 3 to 8) (size 9 to 14) (size 15 to 20)
#    0.000    1.250    2.500    2.250    8.750    1.500 
#    0.000    2.500    0.000    0.000    0.000    0.000 
#    0.000    0.000    0.000    0.000    0.000    0.000 
#
# Total GULP energy -198287.251309 kJ/mol
# GULP energy per Si atom -12392.953207 kJ/mol
# Density = 2.152256 g / cm^3
# Si number density = 21.571655 Si / 1000 Ang^3
#
#
#
# Elastic Constant Matrix: (Units=GPa)
#
#
# Indices 1 2 3 4 5 6 
#
# 1 86.3016 42.3675 15.9746 -0.5047 19.9240 -13.0657
# 2 42.3675 89.6751 23.9799 -7.3151 12.0105 -7.5233
# 3 15.9746 23.9799 80.6395 5.8925 9.3939 -5.0770
# 4 -0.5047 -7.3151 5.8925 35.8671 -5.1284 6.9832
# 5 19.9240 12.0105 9.3939 -5.1284 38.4734 -5.6676
# 6 -13.0657 -7.5233 -5.0770 6.9832 -5.6676 38.9714
#
#
#
# Elastic Compliance Matrix: (Units=1/GPa)
#
#
# Indices 1 2 3 4 5 6 
#
# 1 0.017174 -0.007136 -0.000068 -0.002895 -0.006453 0.003952
# 2 -0.007136 0.015739 -0.003587 0.003808 0.000093 -0.000490
# 3 -0.000068 -0.003587 0.014141 -0.003700 -0.002583 0.001414
# 4 -0.002895 0.003808 -0.003700 0.030962 0.004515 -0.005609
# 5 -0.006453 0.000093 -0.002583 0.004515 0.030710 0.001175
# 6 0.003952 -0.000490 0.001414 -0.005609 0.001175 0.028250
#
#
# Mechanical properties :
#
#
# Convention : Reuss Voigt Hill
#
# Bulk Modulus (GPa) = 39.25747 46.80671 43.03209
# Shear Modulus (GPa) = 29.93114 34.28197 32.10656
#
# Velocity S-wave (km/s) = 3.72899 3.99082 3.86212
# Velocity P-wave (km/s) = 6.06454 6.55598 6.31504
#
# Compressibility (1/GPa) = 0.02547286
#
# Stress axis : x y z
#
# Youngs Moduli (GPa) = 58.22621 63.53649 70.71516
#
# Poissons Ratio (x) = 0.45341 0.00481
# Poissons Ratio (y) = 0.41552 0.25363
# Poissons Ratio (z) = 0.00396 0.22788
#
# Static dielectric constant tensor:
#      x y z
#    x 3.730570 0.158410 0.143720 
#    y 0.158410 4.027810 0.013810 
#    z 0.143720 0.013810 4.025120 
# 
# 
# High freq. dielectric constant tensor:
#      x y z
#    x 1.834450 0.009490 0.021040 
#    y 0.009490 1.854120 0.001280 
#    z 0.021040 0.001280 1.858050 
# 
# From -- ./inp_files/590173.got.cif
#   From: 2010.06.25/outbox.cif.g09.slc.cpg/sg2_296_cif.got.tgz:590173.got - 2010.06.27 13:26:56.
