data_PCOD8008522
_publ_section_title
;
Structure prediction by ZEFSAII (Michael W. Deem and Ramdas Pophale) SiO2 
 PCOD8008522
Probable space group: P -1
;
_chemical_formula_sum "Si O2"
_cell_formula_units_Z 16
_cell_length_a 21.811597
_cell_length_b 15.773382
_cell_length_c 9.320211
_cell_angle_alpha 47.067267
_cell_angle_beta 47.416951
_cell_angle_gamma 18.015669
_cell_volume 720.142503
_symmetry_space_group_name_H-M "P -1"
_symmetry_group_IT_number 2
_symmetry_cell_setting 'triclinic'
loop_
_space_group_symop_operation_xyz
x,y,z
-x,-y,-z
loop_
_atom_site_type_symbol
_atom_site_label
_atom_site_fract_x
_atom_site_fract_y
_atom_site_fract_z
Si Si1 0.360884 0.995583 0.192514
Si Si2 0.444290 0.659216 0.281532
Si Si3 0.993720 0.217796 0.972674
Si Si4 0.624403 0.628248 0.573301
Si Si5 0.251315 0.379598 0.851884
Si Si6 0.185532 0.180085 0.554266
Si Si7 0.788327 0.331981 0.953890
Si Si8 0.814028 0.178917 0.668312
O O1 0.388472 0.855958 0.200700
O O2 0.561646 0.791824 0.176570
O O3 0.219323 0.129272 0.389651
O O4 0.261855 0.227825 0.996559
O O5 0.500000 0.500000 0.500000
O O6 0.258279 0.840328 0.283923
O O7 0.625980 0.443047 0.131588
O O8 0.132155 0.122439 0.765764
O O9 0.804058 0.414632 0.953054
O O10 0.933297 0.357836 0.054601
O O11 0.122019 0.943130 0.132949
O O12 0.762356 0.553107 0.366283
O O13 0.719448 0.483367 0.743961
O O14 0.639836 0.493850 0.602764
O O15 0.390247 0.962281 0.562902
O O16 0.000000 0.500000 0.500000
O O17 0.000000 0.000000 0.000000
O O18 0.000000 0.000000 0.500000
#
# Coordination Sequence:
#
# PCOD8008522 Si02
#       8
#     2   2   2   2   2   2   2   2
#     4  10  22  42  70 101 141 188 241 291 366 431
#     4  12  26  43  71 108 144 189 246 306 367 439
#     4  12  23  43  71 100 144 190 235 299 368 430
#     4  11  25  44  72 107 143 192 245 300 367 437
#     4  10  20  43  73  97 138 196 234 289 363 445
#     4  11  24  43  71 104 142 191 240 298 362 434
#     4  12  27  44  69 111 149 185 244 309 371 429
#     4  12  25  43  72 104 146 188 246 297 373 439
#
# _framework density 22.217824
#
# number of rings (size 3 to 8) (size 9 to 14) (size 15 to 20)
#    0.000    0.750    5.000    3.000    3.500    1.000 
#    0.000    4.375    0.000    0.000    0.000    0.000 
#    0.000    0.000    0.000    0.000    0.000    0.000 
#
# Total GULP energy -198376.207408 kJ/mol
# GULP energy per Si atom -12398.512963 kJ/mol
# Density = 2.216726 g / cm^3
# Si number density = 22.217824 Si / 1000 Ang^3
#
#
#
# Elastic Constant Matrix: (Units=GPa)
#
#
# Indices 1 2 3 4 5 6 
#
# 1 105.5927 38.6500 55.3093 -3.1460 -2.7255 -6.7208
# 2 38.6500 124.7268 55.9615 -2.2130 1.0149 3.8352
# 3 55.3093 55.9615 218.6206 1.0380 -2.0331 -4.7725
# 4 -3.1460 -2.2130 1.0380 44.1071 -4.9307 -6.0878
# 5 -2.7255 1.0149 -2.0331 -4.9307 35.6244 -5.3549
# 6 -6.7208 3.8352 -4.7725 -6.0878 -5.3549 29.6345
#
#
#
# Elastic Compliance Matrix: (Units=1/GPa)
#
#
# Indices 1 2 3 4 5 6 
#
# 1 0.011950 -0.002792 -0.002229 0.001391 0.001552 0.003279
# 2 -0.002792 0.009798 -0.001863 -0.000104 -0.000974 -0.002398
# 3 -0.002229 -0.001863 0.005633 -0.000268 0.000262 0.000635
# 4 0.001391 -0.000104 -0.000268 0.024087 0.004332 0.006017
# 5 0.001552 -0.000974 0.000262 0.004332 0.029855 0.006805
# 6 0.003279 -0.002398 0.000635 0.006017 0.006805 0.037366
#
#
# Mechanical properties :
#
#
# Convention : Reuss Voigt Hill
#
# Bulk Modulus (GPa) = 73.45677 83.19795 78.32736
# Shear Modulus (GPa) = 36.49798 41.80781 39.15290
#
# Velocity S-wave (km/s) = 4.05746 4.34259 4.20245
# Velocity P-wave (km/s) = 7.42190 7.91656 7.67321
#
# Compressibility (1/GPa) = 0.01361345
#
# Stress axis : x y z
#
# Youngs Moduli (GPa) = 83.68191 102.05981 177.54038
#
# Poissons Ratio (x) = 0.28491 0.39579
# Poissons Ratio (y) = 0.23360 0.33072
# Poissons Ratio (z) = 0.18655 0.19011
#
# Static dielectric constant tensor:
#      x y z
#    x 3.551270 0.059220 0.003610 
#    y 0.059220 4.054120 -0.025530 
#    z 0.003610 -0.025530 4.539330 
# 
# 
# High freq. dielectric constant tensor:
#      x y z
#    x 1.851700 0.004240 -0.001180 
#    y 0.004240 1.877290 0.001360 
#    z -0.001180 0.001360 1.903110 
# 
# From -- ./inp_files/347505.got.cif
#   From: 2010.06.25/outbox.cif.g09.slc.cpg/sg2_174_cif.got.tgz:347505.got - 2010.06.27 13:26:56.
