data_PCOD8008869
_publ_section_title
;
Structure prediction by ZEFSAII (Michael W. Deem and Ramdas Pophale) SiO2 
 PCOD8008869
Probable space group: P -1
;
_chemical_formula_sum "Si O2"
_cell_formula_units_Z 12
_cell_length_a 12.640452
_cell_length_b 9.785126
_cell_length_c 8.724515
_cell_angle_alpha 135.231991
_cell_angle_beta 123.433130
_cell_angle_gamma 46.133494
_cell_volume 544.188374
_symmetry_space_group_name_H-M "P -1"
_symmetry_group_IT_number 2
_symmetry_cell_setting 'triclinic'
loop_
_space_group_symop_operation_xyz
x,y,z
-x,-y,-z
loop_
_atom_site_type_symbol
_atom_site_label
_atom_site_fract_x
_atom_site_fract_y
_atom_site_fract_z
Si Si1 0.529857 0.364238 0.186246
Si Si2 0.495189 0.803719 0.646059
Si Si3 0.144392 0.800331 0.759158
Si Si4 0.044625 0.735236 0.945290
Si Si5 0.781548 0.667376 0.605000
Si Si6 0.309758 0.292298 0.786099
O O1 0.478419 0.623403 0.387388
O O2 0.495803 0.250993 0.211800
O O3 0.701300 0.218397 0.167577
O O4 0.437311 0.353009 0.961024
O O5 0.644976 0.801975 0.719466
O O6 0.353664 0.050032 0.697704
O O7 0.133979 0.603207 0.505075
O O8 0.132366 0.773834 0.910321
O O9 0.011883 0.056161 0.812205
O O10 0.897485 0.748306 0.773804
O O11 0.160003 0.487413 0.908590
O O12 0.715611 0.710297 0.416388
#
# Coordination Sequence:
#
# PCOD8008869 Si02
#       6
#     2   2   2   2   2   2
#     4  10  22  39  57  81 111 148 184 222 276 326
#     4  10  22  39  58  80 113 146 181 229 274 324
#     4   9  19  36  56  77 112 147 178 222 271 326
#     4  10  21  35  56  85 113 143 180 228 277 319
#     4  10  21  37  58  83 111 145 182 226 275 321
#     4  11  21  34  59  87 108 141 187 230 270 320
#
# _framework density 22.051186000000001
#
# number of rings (size 3 to 8) (size 9 to 14) (size 15 to 20)
#    0.000    2.000    0.000    4.000    0.000   11.333 
#    0.000    3.333    0.000    9.000    0.000    0.000 
#    0.000    0.000    0.000    0.000    0.000    0.000 
#
# Total GULP energy -148746.070628 kJ/mol
# GULP energy per Si atom -12395.505886 kJ/mol
# Density = 2.200100 g / cm^3
# Si number density = 22.051186 Si / 1000 Ang^3
#
#
#
# Elastic Constant Matrix: (Units=GPa)
#
#
# Indices 1 2 3 4 5 6 
#
# 1 100.6005 42.9163 29.2685 3.1637 0.9328 -2.2016
# 2 42.9163 140.1509 30.7193 47.6004 -12.5703 -15.5859
# 3 29.2685 30.7193 43.7096 12.6093 -0.2366 -0.9172
# 4 3.1637 47.6004 12.6093 30.0014 -4.6311 -8.1770
# 5 0.9328 -12.5703 -0.2366 -4.6311 20.4711 11.8545
# 6 -2.2016 -15.5859 -0.9172 -8.1770 11.8545 20.5615
#
#
#
# Elastic Compliance Matrix: (Units=1/GPa)
#
#
# Indices 1 2 3 4 5 6 
#
# 1 0.015623 -0.007835 -0.009234 0.015032 -0.004476 0.003880
# 2 -0.007835 0.020601 -0.000249 -0.031123 0.006876 -0.001575
# 3 -0.009234 -0.000249 0.033161 -0.014006 0.000801 -0.005730
# 4 0.015032 -0.031123 -0.014006 0.090714 -0.010862 0.019732
# 5 -0.004476 0.006876 0.000801 -0.010862 0.075912 -0.043317
# 6 0.003880 -0.001575 -0.005730 0.019732 -0.043317 0.080422
#
#
# Mechanical properties :
#
#
# Convention : Reuss Voigt Hill
#
# Bulk Modulus (GPa) = 28.77851 54.47435 41.62643
# Shear Modulus (GPa) = 13.78730 26.31058 20.04894
#
# Velocity S-wave (km/s) = 2.50319 3.45796 3.01857
# Velocity P-wave (km/s) = 4.62966 6.37970 5.57379
#
# Compressibility (1/GPa) = 0.03474815
#
# Stress axis : x y z
#
# Youngs Moduli (GPa) = 64.00805 48.54129 30.15570
#
# Poissons Ratio (x) = 0.38034 0.27845
# Poissons Ratio (y) = 0.50152 0.00752
# Poissons Ratio (z) = 0.59104 0.01211
#
# Static dielectric constant tensor:
#      x y z
#    x 3.987480 -0.157230 -0.056450 
#    y -0.157230 4.333110 0.661880 
#    z -0.056450 0.661880 3.953780 
# 
# 
# High freq. dielectric constant tensor:
#      x y z
#    x 1.869430 -0.009630 0.005330 
#    y -0.009630 1.861480 0.045910 
#    z 0.005330 0.045910 1.855150 
# 
# From -- ./inp_files/163883.got.cif
#   From: 2010.06.25/outbox.cif.g09.slc.cpg/sg2_82_cif.got.tgz:163883.got - 2010.06.27 13:26:56.
