data_PCOD8008850
_publ_section_title
;
Structure prediction by ZEFSAII (Michael W. Deem and Ramdas Pophale) SiO2 
 PCOD8008850
Probable space group: P -1
;
_chemical_formula_sum "Si O2"
_cell_formula_units_Z 14
_cell_length_a 8.476780
_cell_length_b 12.357374
_cell_length_c 13.937247
_cell_angle_alpha 33.477449
_cell_angle_beta 73.649617
_cell_angle_gamma 87.387031
_cell_volume 721.680161
_symmetry_space_group_name_H-M "P -1"
_symmetry_group_IT_number 2
_symmetry_cell_setting 'triclinic'
loop_
_space_group_symop_operation_xyz
x,y,z
-x,-y,-z
loop_
_atom_site_type_symbol
_atom_site_label
_atom_site_fract_x
_atom_site_fract_y
_atom_site_fract_z
Si Si1 0.621674 0.132045 0.087637
Si Si2 0.520002 0.676649 0.442909
Si Si3 0.385181 0.447442 0.281183
Si Si4 0.099371 0.728463 0.911054
Si Si5 0.057111 0.091446 0.528779
Si Si6 0.707538 0.139822 0.559913
Si Si7 0.263694 0.595658 0.811271
O O1 0.809169 0.217450 0.042889
O O2 0.611220 0.908941 0.205983
O O3 0.458458 0.075866 0.233342
O O4 0.610114 0.313094 0.884611
O O5 0.500000 0.500000 0.500000
O O6 0.629146 0.648378 0.538439
O O7 0.328473 0.667115 0.521612
O O8 0.220400 0.312791 0.341931
O O9 0.559129 0.454640 0.188704
O O10 0.206142 0.608731 0.921062
O O11 0.113322 0.935121 0.698840
O O12 0.898740 0.589723 0.071559
O O13 0.886989 0.123733 0.580512
O O14 0.000000 0.000000 0.500000
O O15 0.715686 0.188395 0.408565
#
# Coordination Sequence:
#
# PCOD8008850 Si02
#       7
#     2   2   2   2   2   2   2
#     4  10  22  38  61  87 117 157 191 251 294 353
#     4   9  21  43  66  87 113 150 199 256 303 350
#     4  11  23  39  61  87 124 155 200 242 299 348
#     4  11  21  35  56  86 126 158 208 232 288 350
#     4  12  22  35  58  88 123 167 194 235 286 355
#     4   9  20  38  56  86 118 153 196 244 292 345
#     4  10  21  35  55  86 119 167 195 244 281 350
#
# _framework density 19.399176000000001
#
# number of rings (size 3 to 8) (size 9 to 14) (size 15 to 20)
#    0.857    0.857    2.857    1.714    4.000    2.286 
#    0.000    0.714    0.000    4.286    0.000    0.000 
#    0.000    0.000    0.000    0.000    0.000    0.000 
#
# Total GULP energy -173448.524450 kJ/mol
# GULP energy per Si atom -12389.180318 kJ/mol
# Density = 1.935502 g / cm^3
# Si number density = 19.399176 Si / 1000 Ang^3
#
#
#
# Elastic Constant Matrix: (Units=GPa)
#
#
# Indices 1 2 3 4 5 6 
#
# 1 114.3832 36.7855 27.8241 -16.9416 -9.3967 -2.2698
# 2 36.7855 70.9710 12.3873 -18.6181 -0.6001 4.6535
# 3 27.8241 12.3873 102.7044 -21.6298 7.0380 1.2551
# 4 -16.9416 -18.6181 -21.6298 26.1163 -1.8397 -1.5426
# 5 -9.3967 -0.6001 7.0380 -1.8397 42.3615 -4.6432
# 6 -2.2698 4.6535 1.2551 -1.5426 -4.6432 16.5487
#
#
#
# Elastic Compliance Matrix: (Units=1/GPa)
#
#
# Indices 1 2 3 4 5 6 
#
# 1 0.011756 -0.005317 -0.002330 0.002419 0.003517 0.004497
# 2 -0.005317 0.020007 0.001663 0.011760 -0.001292 -0.005748
# 3 -0.002330 0.001663 0.012381 0.009680 -0.002291 -0.001467
# 4 0.002419 0.011760 0.009680 0.056507 0.001774 0.002056
# 5 0.003517 -0.001292 -0.002291 0.001774 0.025748 0.008409
# 6 0.004497 -0.005748 -0.001467 0.002056 0.008409 0.065323
#
#
# Mechanical properties :
#
#
# Convention : Reuss Voigt Hill
#
# Bulk Modulus (GPa) = 31.07967 49.11695 40.09831
# Shear Modulus (GPa) = 23.31933 31.07608 27.19770
#
# Velocity S-wave (km/s) = 3.47086 4.00675 3.74840
# Velocity P-wave (km/s) = 5.66731 6.83955 6.28084
#
# Compressibility (1/GPa) = 0.03217538
#
# Stress axis : x y z
#
# Youngs Moduli (GPa) = 85.06459 49.98240 80.76969
#
# Poissons Ratio (x) = 0.26576 0.18820
# Poissons Ratio (y) = 0.45229 -0.13431
# Poissons Ratio (z) = 0.19820 -0.08312
#
# Static dielectric constant tensor:
#      x y z
#    x 3.653120 -0.126530 0.044340 
#    y -0.126530 3.070280 -0.117610 
#    z 0.044340 -0.117610 3.692810 
# 
# 
# High freq. dielectric constant tensor:
#      x y z
#    x 1.764210 -0.008960 0.005260 
#    y -0.008960 1.701880 -0.013520 
#    z 0.005260 -0.013520 1.764820 
# 
# From -- ./inp_files/179763.got.cif
#   From: 2010.06.25/outbox.cif.g09.slc.cpg/sg2_90_cif.got.tgz:179763.got - 2010.06.27 13:26:56.
