data_PCOD8008263
_publ_section_title
;
Structure prediction by ZEFSAII (Michael W. Deem and Ramdas Pophale) SiO2 
 PCOD8008263
Probable space group: P -1
;
_chemical_formula_sum "Si O2"
_cell_formula_units_Z 16
_cell_length_a 15.937455
_cell_length_b 10.722694
_cell_length_c 7.320228
_cell_angle_alpha 92.538684
_cell_angle_beta 37.056768
_cell_angle_gamma 100.669230
_cell_volume 729.418765
_symmetry_space_group_name_H-M "P -1"
_symmetry_group_IT_number 2
_symmetry_cell_setting 'triclinic'
loop_
_space_group_symop_operation_xyz
x,y,z
-x,-y,-z
loop_
_atom_site_type_symbol
_atom_site_label
_atom_site_fract_x
_atom_site_fract_y
_atom_site_fract_z
Si Si1 0.919744 0.174095 0.774439
Si Si2 0.102488 0.632367 0.888629
Si Si3 0.060768 0.808039 0.667886
Si Si4 0.347461 0.034833 0.775241
Si Si5 0.267558 0.286442 0.842248
Si Si6 0.185741 0.080871 0.403925
Si Si7 0.326345 0.350494 0.153078
Si Si8 0.352805 0.519362 0.449816
O O1 0.888173 0.212329 0.626631
O O2 0.047919 0.102571 0.534027
O O3 0.968393 0.301378 0.822901
O O4 0.775826 0.080871 0.107386
O O5 0.134754 0.724476 0.663788
O O6 0.248401 0.604055 0.709119
O O7 0.000000 0.500000 0.000000
O O8 0.122784 0.958000 0.635630
O O9 0.888448 0.763554 0.982425
O O10 0.500000 0.000000 0.500000
O O11 0.351311 0.172427 0.681761
O O12 0.300211 0.044312 0.066475
O O13 0.359557 0.406419 0.573736
O O14 0.248175 0.332931 0.088977
O O15 0.269842 0.216170 0.359160
O O16 0.297377 0.462541 0.341060
O O17 0.495016 0.379681 0.823110
#
# Coordination Sequence:
#
# PCOD8008263 Si02
#       8
#     2   2   2   2   2   2   2   2
#     4  11  22  42  68  91 132 173 207 272 325 375
#     4  12  27  39  62  97 133 164 225 265 305 383
#     4  11  22  42  66  99 122 171 216 265 323 389
#     4  10  21  39  68 103 126 159 220 274 317 384
#     4  11  21  41  74  90 127 172 216 257 335 378
#     4  10  20  42  69  93 126 171 214 261 335 379
#     4  10  23  43  68  85 132 174 216 264 320 385
#     4  11  25  45  59  97 130 176 219 261 313 392
#
# _framework density 21.935275000000001
#
# number of rings (size 3 to 8) (size 9 to 14) (size 15 to 20)
#    0.000    1.250    5.000    1.875    3.500    3.000 
#    9.000    0.625    0.000    0.000    0.000    0.000 
#    0.000    0.000    0.000    0.000    0.000    0.000 
#
# Total GULP energy -198298.256138 kJ/mol
# GULP energy per Si atom -12393.641009 kJ/mol
# Density = 2.188535 g / cm^3
# Si number density = 21.935275 Si / 1000 Ang^3
#
#
#
# Elastic Constant Matrix: (Units=GPa)
#
#
# Indices 1 2 3 4 5 6 
#
# 1 47.9176 41.9906 19.4476 -7.4671 2.7689 -11.9927
# 2 41.9906 130.8412 37.4566 -19.5033 -5.0979 -8.5295
# 3 19.4476 37.4566 91.8902 2.9411 -13.8381 -5.1021
# 4 -7.4671 -19.5033 2.9411 45.9233 3.9171 -7.6902
# 5 2.7689 -5.0979 -13.8381 3.9171 32.0522 -3.6053
# 6 -11.9927 -8.5295 -5.1021 -7.6902 -3.6053 38.2094
#
#
#
# Elastic Compliance Matrix: (Units=1/GPa)
#
#
# Indices 1 2 3 4 5 6 
#
# 1 0.032914 -0.008538 -0.003979 0.003811 -0.005469 0.008144
# 2 -0.008538 0.011877 -0.002996 0.003842 0.000912 0.000431
# 3 -0.003979 -0.002996 0.013996 -0.003376 0.006308 -0.000133
# 4 0.003811 0.003842 -0.003376 0.025624 -0.003585 0.006422
# 5 -0.005469 0.000912 0.006308 -0.003585 0.035195 0.001929
# 6 0.008144 0.000431 -0.000133 0.006422 0.001929 0.030281
#
#
# Mechanical properties :
#
#
# Convention : Reuss Voigt Hill
#
# Bulk Modulus (GPa) = 36.02109 52.04874 44.03491
# Shear Modulus (GPa) = 26.29259 34.68727 30.48993
#
# Velocity S-wave (km/s) = 3.46590 3.98093 3.73231
# Velocity P-wave (km/s) = 5.69858 6.70151 6.22029
#
# Compressibility (1/GPa) = 0.02776151
#
# Stress axis : x y z
#
# Youngs Moduli (GPa) = 30.38187 84.19647 71.44666
#
# Poissons Ratio (x) = 0.71888 0.28428
# Poissons Ratio (y) = 0.25941 0.21406
# Poissons Ratio (z) = 0.12089 0.25225
#
# Static dielectric constant tensor:
#      x y z
#    x 3.774680 0.146420 -0.140380 
#    y 0.146420 4.456880 -0.148080 
#    z -0.140380 -0.148080 4.073300 
# 
# 
# High freq. dielectric constant tensor:
#      x y z
#    x 1.839580 0.016850 -0.000630 
#    y 0.016850 1.876310 -0.016960 
#    z -0.000630 -0.016960 1.858160 
# 
# From -- ./inp_files/328990.got.cif
#   From: 2010.06.25/outbox.cif.g09.slc.cpg/sg2_165_cif.got.tgz:328990.got - 2010.06.27 13:26:56.
