data_PCOD8008558
_publ_section_title
;
Structure prediction by ZEFSAII (Michael W. Deem and Ramdas Pophale) SiO2 
 PCOD8008558
Probable space group: P -1
;
_chemical_formula_sum "Si O2"
_cell_formula_units_Z 14
_cell_length_a 11.428321
_cell_length_b 8.589973
_cell_length_c 7.878798
_cell_angle_alpha 71.833864
_cell_angle_beta 73.226655
_cell_angle_gamma 81.379299
_cell_volume 702.106708
_symmetry_space_group_name_H-M "P -1"
_symmetry_group_IT_number 2
_symmetry_cell_setting 'triclinic'
loop_
_space_group_symop_operation_xyz
x,y,z
-x,-y,-z
loop_
_atom_site_type_symbol
_atom_site_label
_atom_site_fract_x
_atom_site_fract_y
_atom_site_fract_z
Si Si1 0.069814 0.779062 0.466701
Si Si2 0.459513 0.822124 0.121286
Si Si3 0.394750 0.913714 0.478738
Si Si4 0.784577 0.319915 0.227599
Si Si5 0.774753 0.325725 0.861357
Si Si6 0.176831 0.115340 0.338993
Si Si7 0.696942 0.623721 0.989740
O O1 0.119441 0.716900 0.650560
O O2 0.121937 0.662995 0.331667
O O3 0.922602 0.781590 0.535842
O O4 0.112066 0.959776 0.343865
O O5 0.449581 0.810512 0.331768
O O6 0.326268 0.798747 0.107504
O O7 0.556496 0.684026 0.056522
O O8 0.500000 0.000000 0.000000
O O9 0.335974 0.781097 0.667425
O O10 0.500000 0.000000 0.500000
O O11 0.294560 0.058536 0.419902
O O12 0.837920 0.267779 0.035033
O O13 0.745087 0.515882 0.169934
O O14 0.707811 0.507763 0.855914
O O15 0.218657 0.223940 0.126630
#
# Coordination Sequence:
#
# PCOD8008558 Si02
#       7
#     2   2   2   2   2   2   2
#     4  10  20  44  67  83 126 169 211 255 304 365
#     4  12  20  38  64  87 126 166 201 256 313 363
#     4  11  22  39  62  93 128 160 210 256 306 376
#     4   9  22  39  58  94 123 157 211 252 300 373
#     4  10  21  39  62  87 129 164 201 256 313 362
#     4  10  21  40  65  89 121 171 207 257 310 361
#     4  10  23  37  60  95 123 164 208 250 321 366
#
# _framework density 19.939990000000002
#
# number of rings (size 3 to 8) (size 9 to 14) (size 15 to 20)
#    0.857    0.857    4.286    1.286    0.000    1.714 
#    2.571    7.857    0.000    0.000    0.000    0.000 
#    0.000    0.000    0.000    0.000    0.000    0.000 
#
# Total GULP energy -173499.774347 kJ/mol
# GULP energy per Si atom -12392.841025 kJ/mol
# Density = 1.989461 g / cm^3
# Si number density = 19.939990 Si / 1000 Ang^3
#
#
#
# Elastic Constant Matrix: (Units=GPa)
#
#
# Indices 1 2 3 4 5 6 
#
# 1 81.1788 34.6418 47.9764 6.2622 -12.4354 -17.0859
# 2 34.6418 90.0950 50.0472 6.0510 -1.6358 -23.1560
# 3 47.9764 50.0472 131.3203 8.9472 3.0972 -13.3226
# 4 6.2622 6.0510 8.9472 58.0864 0.9141 -9.2894
# 5 -12.4354 -1.6358 3.0972 0.9141 25.7673 11.5764
# 6 -17.0859 -23.1560 -13.3226 -9.2894 11.5764 26.2470
#
#
#
# Elastic Compliance Matrix: (Units=1/GPa)
#
#
# Indices 1 2 3 4 5 6 
#
# 1 0.018890 -0.003318 -0.005526 -0.000544 0.008389 0.002672
# 2 -0.003318 0.018514 -0.004194 0.001707 -0.007065 0.015766
# 3 -0.005526 -0.004194 0.011397 -0.000623 -0.004368 0.000194
# 4 -0.000544 0.001707 -0.000623 0.018835 -0.005136 0.009767
# 5 0.008389 -0.007065 -0.004368 -0.005136 0.056465 -0.029711
# 6 0.002672 0.015766 0.000194 0.009767 -0.029711 0.070407
#
#
# Mechanical properties :
#
#
# Convention : Reuss Voigt Hill
#
# Bulk Modulus (GPa) = 44.00458 63.10278 53.55368
# Shear Modulus (GPa) = 21.91449 33.34872 27.63160
#
# Velocity S-wave (km/s) = 3.31875 4.09400 3.72659
# Velocity P-wave (km/s) = 6.06645 7.35274 6.74035
#
# Compressibility (1/GPa) = 0.02272491
#
# Stress axis : x y z
#
# Youngs Moduli (GPa) = 52.93873 54.01368 87.73860
#
# Poissons Ratio (x) = 0.17920 0.48489
# Poissons Ratio (y) = 0.17563 0.36797
# Poissons Ratio (z) = 0.29257 0.22653
#
# Static dielectric constant tensor:
#      x y z
#    x 3.266990 -0.245470 -0.128610 
#    y -0.245470 3.732400 0.134520 
#    z -0.128610 0.134520 3.639570 
# 
# 
# High freq. dielectric constant tensor:
#      x y z
#    x 1.759840 -0.005730 -0.020930 
#    y -0.005730 1.773590 -0.002560 
#    z -0.020930 -0.002560 1.782950 
# 
# From -- ./inp_files/202760.got.cif
#   From: 2010.06.25/outbox.cif.g09.slc.cpg/sg2_102_cif.got.tgz:202760.got - 2010.06.27 13:26:56.
