data_PCOD8008104
_publ_section_title
;
Structure prediction by ZEFSAII (Michael W. Deem and Ramdas Pophale) SiO2 
 PCOD8008104
Probable space group: P -1
;
_chemical_formula_sum "Si O2"
_cell_formula_units_Z 16
_cell_length_a 9.814449
_cell_length_b 9.296566
_cell_length_c 17.476619
_cell_angle_alpha 50.576992
_cell_angle_beta 127.467521
_cell_angle_gamma 136.582480
_cell_volume 813.497448
_symmetry_space_group_name_H-M "P -1"
_symmetry_group_IT_number 2
_symmetry_cell_setting 'triclinic'
loop_
_space_group_symop_operation_xyz
x,y,z
-x,-y,-z
loop_
_atom_site_type_symbol
_atom_site_label
_atom_site_fract_x
_atom_site_fract_y
_atom_site_fract_z
Si Si1 0.460589 0.695879 0.665227
Si Si2 0.300230 0.598925 0.897513
Si Si3 0.902686 0.523831 0.724998
Si Si4 0.147940 0.102237 0.362637
Si Si5 0.539394 0.563034 0.116261
Si Si6 0.725300 0.787250 0.250725
Si Si7 0.808228 0.150527 0.408892
Si Si8 0.486470 0.080270 0.748504
O O1 0.649769 0.862771 0.618925
O O2 0.549319 0.661016 0.786797
O O3 0.316139 0.452733 0.657317
O O4 0.328183 0.798684 0.601539
O O5 0.313124 0.430369 0.901842
O O6 0.070482 0.544514 0.835240
O O7 0.468506 0.853520 0.842418
O O8 0.351971 0.564851 0.013020
O O9 0.811651 0.660237 0.681120
O O10 0.719160 0.265516 0.739256
O O11 0.009964 0.621213 0.646237
O O12 0.094089 0.952317 0.470893
O O13 0.961191 0.980433 0.280458
O O14 0.674001 0.778713 0.145184
O O15 0.573227 0.830236 0.230080
O O16 0.669020 0.968972 0.357646
#
# Coordination Sequence:
#
# PCOD8008104 Si02
#       8
#     2   2   2   2   2   2   2   2
#     4  10  22  43  56  91 124 156 199 254 300 354
#     4  10  20  42  66  88 120 159 201 246 304 362
#     4  11  21  39  61  93 120 155 208 249 294 357
#     4  12  23  39  64  88 124 165 201 249 303 354
#     4   9  20  43  62  88 127 154 192 261 298 354
#     4  10  21  39  59  88 126 155 196 253 298 352
#     4  11  24  40  63  88 123 163 206 248 299 354
#     4  11  21  39  63  90 123 158 202 251 296 362
#
# _framework density 19.668163
#
# number of rings (size 3 to 8) (size 9 to 14) (size 15 to 20)
#    0.750    0.750    6.250    0.750    0.000    4.500 
#    2.250    2.500    0.000    0.000    0.000    0.000 
#    0.000    0.000    0.000    0.000    0.000    0.000 
#
# Total GULP energy -198361.790689 kJ/mol
# GULP energy per Si atom -12397.611918 kJ/mol
# Density = 1.962340 g / cm^3
# Si number density = 19.668163 Si / 1000 Ang^3
#
#
#
# Elastic Constant Matrix: (Units=GPa)
#
#
# Indices 1 2 3 4 5 6 
#
# 1 95.7741 30.2069 4.8141 6.9863 4.5150 -5.1117
# 2 30.2069 78.5491 14.2745 3.6647 -3.1091 12.0263
# 3 4.8141 14.2745 83.5505 2.4231 -0.4741 -5.5853
# 4 6.9863 3.6647 2.4231 16.4057 -5.1845 0.1379
# 5 4.5150 -3.1091 -0.4741 -5.1845 22.6496 0.2398
# 6 -5.1117 12.0263 -5.5853 0.1379 0.2398 38.8189
#
#
#
# Elastic Compliance Matrix: (Units=1/GPa)
#
#
# Indices 1 2 3 4 5 6 
#
# 1 0.013014 -0.005570 0.000585 -0.005911 -0.004737 0.003574
# 2 -0.005570 0.016486 -0.002904 0.000257 0.003438 -0.006281
# 3 0.000585 -0.002904 0.012665 -0.001707 -0.000671 0.002809
# 4 -0.005911 0.000257 -0.001707 0.069051 0.016999 -0.001454
# 5 -0.004737 0.003438 -0.000671 0.016999 0.049467 -0.002151
# 6 0.003574 -0.006281 0.002809 -0.001454 -0.002151 0.028600
#
#
# Mechanical properties :
#
#
# Convention : Reuss Voigt Hill
#
# Bulk Modulus (GPa) = 37.89558 39.60718 38.75138
# Shear Modulus (GPa) = 23.38040 29.48006 26.43023
#
# Velocity S-wave (km/s) = 3.45156 3.87573 3.66978
# Velocity P-wave (km/s) = 5.93242 6.34112 6.14017
#
# Compressibility (1/GPa) = 0.02638830
#
# Stress axis : x y z
#
# Youngs Moduli (GPa) = 76.84154 60.65682 78.96001
#
# Poissons Ratio (x) = 0.33785 -0.04621
# Poissons Ratio (y) = 0.42799 0.22926
# Poissons Ratio (z) = -0.04497 0.17612
#
# Static dielectric constant tensor:
#      x y z
#    x 3.466890 -0.135940 -0.028310 
#    y -0.135940 3.488920 0.009950 
#    z -0.028310 0.009950 3.504440 
# 
# 
# High freq. dielectric constant tensor:
#      x y z
#    x 1.765290 -0.014430 0.003160 
#    y -0.014430 1.754930 0.000040 
#    z 0.003160 0.000040 1.758950 
# 
# From -- ./inp_files/557048.got.cif
#   From: 2010.06.25/outbox.cif.g09.slc.cpg/sg2_279_cif.got.tgz:557048.got - 2010.06.27 13:26:56.
