data_PCOD8008081
_publ_section_title
;
Structure prediction by ZEFSAII (Michael W. Deem and Ramdas Pophale) SiO2 
 PCOD8008081
Probable space group: P -1
;
_chemical_formula_sum "Si O2"
_cell_formula_units_Z 16
_cell_length_a 17.806316
_cell_length_b 12.216593
_cell_length_c 9.100418
_cell_angle_alpha 69.815420
_cell_angle_beta 126.515193
_cell_angle_gamma 148.693454
_cell_volume 760.857076
_symmetry_space_group_name_H-M "P -1"
_symmetry_group_IT_number 2
_symmetry_cell_setting 'triclinic'
loop_
_space_group_symop_operation_xyz
x,y,z
-x,-y,-z
loop_
_atom_site_type_symbol
_atom_site_label
_atom_site_fract_x
_atom_site_fract_y
_atom_site_fract_z
Si Si1 0.402570 0.614335 0.484565
Si Si2 0.650618 0.094775 0.539946
Si Si3 0.498524 0.479640 0.179830
Si Si4 0.932808 0.408064 0.154846
Si Si5 0.621649 0.788072 0.410108
Si Si6 0.051956 0.360683 0.100388
Si Si7 0.348242 0.912318 0.779605
Si Si8 0.135564 0.037032 0.128389
O O1 0.402650 0.537847 0.667070
O O2 0.437926 0.572341 0.398695
O O3 0.210271 0.471281 0.329087
O O4 0.587160 0.892157 0.566385
O O5 0.853225 0.326519 0.730457
O O6 0.662902 0.159230 0.359471
O O7 0.500000 0.000000 0.500000
O O8 0.614682 0.702827 0.295785
O O9 0.294970 0.257089 0.108872
O O10 0.500000 0.500000 0.000000
O O11 0.908680 0.263748 0.096869
O O12 0.847233 0.303443 0.264315
O O13 0.840108 0.421031 0.963929
O O14 0.798290 0.940142 0.645086
O O15 0.613301 0.910190 0.280261
O O16 0.958823 0.171661 0.968864
O O17 0.500000 0.000000 0.000000
O O18 0.000000 0.000000 0.000000
#
# Coordination Sequence:
#
# PCOD8008081 Si02
#       8
#     2   2   2   2   2   2   2   2
#     4  10  20  42  65  91 128 173 215 260 323 398
#     4  11  22  41  64  94 127 176 213 260 326 393
#     4  11  24  41  65  94 124 165 215 276 323 379
#     4  11  23  39  64  99 138 165 220 272 324 394
#     4  10  22  43  65  90 130 169 218 261 328 391
#     4  11  22  38  68  98 129 172 219 266 331 393
#     4  11  25  41  65  96 135 171 215 272 325 390
#     4  11  23  44  70  91 124 175 220 268 325 391
#
# _framework density 21.028915999999999
#
# number of rings (size 3 to 8) (size 9 to 14) (size 15 to 20)
#    0.000    1.250    1.250    7.125    3.500    1.000 
#    2.250    1.250    0.000    0.000    0.000    0.000 
#    0.000    0.000    0.000    0.000    0.000    0.000 
#
# Total GULP energy -198271.853188 kJ/mol
# GULP energy per Si atom -12391.990824 kJ/mol
# Density = 2.098105 g / cm^3
# Si number density = 21.028916 Si / 1000 Ang^3
#
#
#
# Elastic Constant Matrix: (Units=GPa)
#
#
# Indices 1 2 3 4 5 6 
#
# 1 144.4823 53.4076 77.9967 -8.4452 -8.5931 -3.0639
# 2 53.4076 80.6418 58.4561 -7.0833 -4.9399 0.8115
# 3 77.9967 58.4561 164.5808 -22.8610 6.2954 -5.9638
# 4 -8.4452 -7.0833 -22.8610 35.0953 2.1082 -6.7990
# 5 -8.5931 -4.9399 6.2954 2.1082 47.8917 -2.3138
# 6 -3.0639 0.8115 -5.9638 -6.7990 -2.3138 34.9817
#
#
#
# Elastic Compliance Matrix: (Units=1/GPa)
#
#
# Indices 1 2 3 4 5 6 
#
# 1 0.010560 -0.004302 -0.003641 -0.000742 0.001981 0.000391
# 2 -0.004302 0.018858 -0.004909 -0.000863 0.001774 -0.001701
# 3 -0.003641 -0.004909 0.010520 0.005632 -0.002669 0.002507
# 4 -0.000742 -0.000863 0.005632 0.033341 -0.002080 0.007258
# 5 0.001981 0.001774 -0.002669 -0.002080 0.021896 0.000721
# 6 0.000391 -0.001701 0.002507 0.007258 0.000721 0.030546
#
#
# Mechanical properties :
#
#
# Convention : Reuss Voigt Hill
#
# Bulk Modulus (GPa) = 70.25158 85.49174 77.87166
# Shear Modulus (GPa) = 32.01665 36.91670 34.46668
#
# Velocity S-wave (km/s) = 3.90616 4.19444 4.05287
# Velocity P-wave (km/s) = 7.33647 8.01251 7.68193
#
# Compressibility (1/GPa) = 0.01423456
#
# Stress axis : x y z
#
# Youngs Moduli (GPa) = 94.69842 53.02849 95.05396
#
# Poissons Ratio (x) = 0.22812 0.34611
# Poissons Ratio (y) = 0.40738 0.46658
# Poissons Ratio (z) = 0.34482 0.26029
#
# Static dielectric constant tensor:
#      x y z
#    x 4.235710 -0.301290 -0.031030 
#    y -0.301290 3.790360 -0.024300 
#    z -0.031030 -0.024300 4.020370 
# 
# 
# High freq. dielectric constant tensor:
#      x y z
#    x 1.836610 -0.012800 0.005410 
#    y -0.012800 1.806480 -0.003030 
#    z 0.005410 -0.003030 1.837130 
# 
# From -- ./inp_files/333052.got.cif
#   From: 2010.06.25/outbox.cif.g09.slc.cpg/sg2_167_cif.got.tgz:333052.got - 2010.06.27 13:26:56.
