data_PCOD8008031
_publ_section_title
;
Structure prediction by ZEFSAII (Michael W. Deem and Ramdas Pophale) SiO2 
 PCOD8008031
Probable space group: P -1
;
_chemical_formula_sum "Si O2"
_cell_formula_units_Z 14
_cell_length_a 17.002243
_cell_length_b 9.354282
_cell_length_c 15.557325
_cell_angle_alpha 40.692172
_cell_angle_beta 24.701003
_cell_angle_gamma 36.712549
_cell_volume 613.653757
_symmetry_space_group_name_H-M "P -1"
_symmetry_group_IT_number 2
_symmetry_cell_setting 'triclinic'
loop_
_space_group_symop_operation_xyz
x,y,z
-x,-y,-z
loop_
_atom_site_type_symbol
_atom_site_label
_atom_site_fract_x
_atom_site_fract_y
_atom_site_fract_z
Si Si1 0.999141 0.714384 0.461353
Si Si2 0.415024 0.921658 0.326248
Si Si3 0.502092 0.116598 0.548618
Si Si4 0.358898 0.836278 0.103979
Si Si5 0.957474 0.690853 0.709509
Si Si6 0.138351 0.147572 0.797930
Si Si7 0.589393 0.397077 0.671498
O O1 0.000000 0.500000 0.500000
O O2 0.221926 0.723672 0.240371
O O3 0.915260 0.699744 0.646186
O O4 0.833165 0.961528 0.471973
O O5 0.510081 0.804760 0.376563
O O6 0.493734 0.713267 0.272413
O O7 0.486350 0.133535 0.133012
O O8 0.302616 0.059171 0.754353
O O9 0.489188 0.323037 0.399198
O O10 0.721664 0.893716 0.409694
O O11 0.490733 0.654552 0.132799
O O12 0.228143 0.100935 0.152666
O O13 0.985964 0.427599 0.834055
O O14 0.161766 0.734855 0.507278
O O15 0.000000 0.000000 0.000000
#
# Coordination Sequence:
#
# PCOD8008031 Si02
#       7
#     2   2   2   2   2   2   2
#     4  11  23  40  63  93 130 165 211 272 316 365
#     4  12  23  38  64  98 128 163 209 268 321 363
#     4  10  24  41  61  97 130 161 214 263 315 382
#     4  11  23  41  68  95 124 169 223 251 313 391
#     4  10  20  42  65  90 124 172 218 256 310 387
#     4  10  23  43  66  88 127 177 212 253 321 379
#     4  10  20  42  64  89 129 170 205 262 315 374
#
# _framework density 22.814170000000001
#
# number of rings (size 3 to 8) (size 9 to 14) (size 15 to 20)
#    0.000    1.429    2.857    2.571    2.000    4.000 
#    0.000    1.429    0.000    0.000    0.000    0.000 
#    0.000    0.000    0.000    0.000    0.000    0.000 
#
# Total GULP energy -173576.501712 kJ/mol
# GULP energy per Si atom -12398.321551 kJ/mol
# Density = 2.276224 g / cm^3
# Si number density = 22.814170 Si / 1000 Ang^3
#
#
#
# Elastic Constant Matrix: (Units=GPa)
#
#
# Indices 1 2 3 4 5 6 
#
# 1 160.7519 32.1332 42.8774 -12.6443 -11.3530 6.1243
# 2 32.1332 72.8014 13.1448 -13.0882 -4.3158 1.4961
# 3 42.8774 13.1448 73.3349 -20.0541 -9.0077 -1.0317
# 4 -12.6443 -13.0882 -20.0541 24.2950 3.0345 -3.0637
# 5 -11.3530 -4.3158 -9.0077 3.0345 31.7544 -13.3242
# 6 6.1243 1.4961 -1.0317 -3.0637 -13.3242 34.8445
#
#
#
# Elastic Compliance Matrix: (Units=1/GPa)
#
#
# Indices 1 2 3 4 5 6 
#
# 1 0.007978 -0.002884 -0.004420 -0.001306 0.000824 -0.001209
# 2 -0.002884 0.016328 0.001170 0.008243 0.001155 0.001007
# 3 -0.004420 0.001170 0.020947 0.015582 0.004969 0.004617
# 4 -0.001306 0.008243 0.015582 0.058309 0.002137 0.006281
# 5 0.000824 0.001155 0.004969 0.002137 0.039554 0.015266
# 6 -0.001209 0.001007 0.004617 0.006281 0.015266 0.035395
#
#
# Mechanical properties :
#
#
# Convention : Reuss Voigt Hill
#
# Bulk Modulus (GPa) = 30.31853 53.68878 42.00365
# Shear Modulus (GPa) = 24.78017 32.76094 28.77056
#
# Velocity S-wave (km/s) = 3.29929 3.79356 3.55503
# Velocity P-wave (km/s) = 5.27560 6.54005 5.94156
#
# Compressibility (1/GPa) = 0.03298313
#
# Stress axis : x y z
#
# Youngs Moduli (GPa) = 125.34625 61.24620 47.73906
#
# Poissons Ratio (x) = 0.17665 0.21103
# Poissons Ratio (y) = 0.36153 -0.05585
# Poissons Ratio (z) = 0.55409 -0.07165
#
# Static dielectric constant tensor:
#      x y z
#    x 4.198570 -0.090440 -0.252750 
#    y -0.090440 3.985070 -0.062450 
#    z -0.252750 -0.062450 3.984470 
# 
# 
# High freq. dielectric constant tensor:
#      x y z
#    x 1.905770 0.001250 -0.023620 
#    y 0.001250 1.896510 -0.006510 
#    z -0.023620 -0.006510 1.885730 
# 
# From -- ./inp_files/257261.got.cif
#   From: 2010.06.25/outbox.cif.g09.slc.cpg/sg2_129_cif.got.tgz:257261.got - 2010.06.27 13:26:56.
