data_PCOD8008312
_publ_section_title
;
Structure prediction by ZEFSAII (Michael W. Deem and Ramdas Pophale) SiO2 
 PCOD8008312
Probable space group: P -1
;
_chemical_formula_sum "Si O2"
_cell_formula_units_Z 14
_cell_length_a 9.413850
_cell_length_b 14.344504
_cell_length_c 12.288289
_cell_angle_alpha 28.333834
_cell_angle_beta 58.590510
_cell_angle_gamma 51.145384
_cell_volume 611.132274
_symmetry_space_group_name_H-M "P -1"
_symmetry_group_IT_number 2
_symmetry_cell_setting 'triclinic'
loop_
_space_group_symop_operation_xyz
x,y,z
-x,-y,-z
loop_
_atom_site_type_symbol
_atom_site_label
_atom_site_fract_x
_atom_site_fract_y
_atom_site_fract_z
Si Si1 0.761360 0.338829 0.421517
Si Si2 0.626648 0.520347 0.832209
Si Si3 0.033656 0.381540 0.874324
Si Si4 0.580873 0.003231 0.583052
Si Si5 0.964815 0.748112 0.765499
Si Si6 0.692203 0.008598 0.942869
Si Si7 0.567340 0.259961 0.942515
O O1 0.897564 0.430629 0.327565
O O2 0.731837 0.166745 0.683952
O O3 0.565445 0.534187 0.283371
O O4 0.854578 0.232139 0.376984
O O5 0.514479 0.753750 0.582124
O O6 0.674962 0.333104 0.914832
O O7 0.817675 0.507002 0.813355
O O8 0.500000 0.500000 0.000000
O O9 0.065705 0.208138 0.138375
O O10 0.146642 0.232329 0.882405
O O11 0.500000 0.000000 0.500000
O O12 0.800069 0.912246 0.587809
O O13 0.550966 0.843220 0.843201
O O14 0.000000 0.500000 0.000000
O O15 0.701287 0.087159 0.981516
O O16 0.500000 0.000000 0.000000
#
# Coordination Sequence:
#
# PCOD8008312 Si02
#       7
#     2   2   2   2   2   2   2
#     4  11  24  44  78 104 146 186 247 314 359 428
#     4  12  28  45  72 111 154 188 237 304 378 435
#     4  11  25  48  71 111 146 188 251 301 358 449
#     4  12  23  44  73 105 152 186 236 305 373 431
#     4  10  20  42  72 109 136 182 245 302 360 426
#     4  12  27  47  76 107 144 196 257 300 358 434
#     4  12  26  46  71 108 147 196 243 300 370 436
#
# _framework density 22.908297999999998
#
# number of rings (size 3 to 8) (size 9 to 14) (size 15 to 20)
#    0.000    0.571    5.714    3.000    6.000    2.286 
#    0.000    1.429    0.000    0.000    0.000    0.000 
#    0.000    0.000    0.000    0.000    0.000    0.000 
#
# Total GULP energy -173574.623619 kJ/mol
# GULP energy per Si atom -12398.187401 kJ/mol
# Density = 2.285616 g / cm^3
# Si number density = 22.908298 Si / 1000 Ang^3
#
#
#
# Elastic Constant Matrix: (Units=GPa)
#
#
# Indices 1 2 3 4 5 6 
#
# 1 105.9777 44.9196 29.2111 -5.5159 -4.2611 -4.1809
# 2 44.9196 135.1820 19.3606 1.5344 1.3862 6.4113
# 3 29.2111 19.3606 93.0934 0.8890 -13.6402 -6.2155
# 4 -5.5159 1.5344 0.8890 35.3904 -12.0105 7.1731
# 5 -4.2611 1.3862 -13.6402 -12.0105 38.3589 -3.4815
# 6 -4.1809 6.4113 -6.2155 7.1731 -3.4815 44.1574
#
#
#
# Elastic Compliance Matrix: (Units=1/GPa)
#
#
# Indices 1 2 3 4 5 6 
#
# 1 0.011963 -0.003668 -0.002756 0.002332 0.001303 0.001001
# 2 -0.003668 0.008875 -0.001034 -0.001126 -0.001605 -0.001725
# 3 -0.002756 -0.001034 0.012612 0.000441 0.004531 0.001950
# 4 0.002332 -0.001126 0.000441 0.033026 0.010425 -0.004097
# 5 0.001303 -0.001605 0.004531 0.010425 0.031308 0.001769
# 6 0.001001 -0.001725 0.001950 -0.004097 0.001769 0.024071
#
#
# Mechanical properties :
#
#
# Convention : Reuss Voigt Hill
#
# Bulk Modulus (GPa) = 53.95413 57.91508 55.93461
# Shear Modulus (GPa) = 34.97729 39.63213 37.30471
#
# Velocity S-wave (km/s) = 3.91172 4.16388 4.03977
# Velocity P-wave (km/s) = 6.63366 6.96084 6.79922
#
# Compressibility (1/GPa) = 0.01853426
#
# Stress axis : x y z
#
# Youngs Moduli (GPa) = 83.58777 112.66977 79.29220
#
# Poissons Ratio (x) = 0.41327 0.21850
# Poissons Ratio (y) = 0.30660 0.08203
# Poissons Ratio (z) = 0.23034 0.11656
#
# Static dielectric constant tensor:
#      x y z
#    x 4.119830 0.299310 -0.121720 
#    y 0.299310 4.935720 0.125220 
#    z -0.121720 0.125220 4.349540 
# 
# 
# High freq. dielectric constant tensor:
#      x y z
#    x 1.896230 0.004360 -0.014280 
#    y 0.004360 1.917690 -0.010730 
#    z -0.014280 -0.010730 1.905860 
# 
# From -- ./inp_files/274458.got.cif
#   From: 2010.06.25/outbox.cif.g09.slc.cpg/sg2_138_cif.got.tgz:274458.got - 2010.06.27 13:26:56.
