data_PCOD8008023
_publ_section_title
;
Structure prediction by ZEFSAII (Michael W. Deem and Ramdas Pophale) SiO2 
 PCOD8008023
Probable space group: P -1
;
_chemical_formula_sum "Si O2"
_cell_formula_units_Z 16
_cell_length_a 14.282215
_cell_length_b 8.074156
_cell_length_c 18.141872
_cell_angle_alpha 60.065253
_cell_angle_beta 148.933154
_cell_angle_gamma 137.181819
_cell_volume 682.092595
_symmetry_space_group_name_H-M "P -1"
_symmetry_group_IT_number 2
_symmetry_cell_setting 'triclinic'
loop_
_space_group_symop_operation_xyz
x,y,z
-x,-y,-z
loop_
_atom_site_type_symbol
_atom_site_label
_atom_site_fract_x
_atom_site_fract_y
_atom_site_fract_z
Si Si1 0.586423 0.397133 0.634680
Si Si2 0.896795 0.374751 0.338763
Si Si3 0.580959 0.878947 0.153847
Si Si4 0.169442 0.062610 0.029932
Si Si5 0.127461 0.713486 0.959060
Si Si6 0.373538 0.833892 0.641663
Si Si7 0.675757 0.535049 0.819920
Si Si8 0.356339 0.521770 0.955691
O O1 0.500000 0.500000 0.500000
O O2 0.869641 0.534997 0.778724
O O3 0.557049 0.491880 0.670871
O O4 0.414923 0.082827 0.588366
O O5 0.711221 0.229159 0.316000
O O6 0.850693 0.522728 0.222656
O O7 0.176857 0.589256 0.509318
O O8 0.844832 0.154823 0.298522
O O9 0.537172 0.650953 0.221780
O O10 0.556413 0.809459 0.066303
O O11 0.360007 0.872719 0.023486
O O12 0.224554 0.313815 0.980288
O O13 0.383478 0.123496 0.212038
O O14 0.149628 0.921203 0.974603
O O15 0.879845 0.839790 0.919588
O O16 0.156285 0.537688 0.066008
O O17 0.500000 0.500000 0.000000
#
# Coordination Sequence:
#
# PCOD8008023 Si02
#       8
#     2   2   2   2   2   2   2   2
#     4  11  19  31  63 102 125 159 207 256 303 373
#     4  11  23  37  61  84 126 171 202 246 311 372
#     4  10  20  42  64  84 125 167 215 249 318 367
#     4  11  18  37  63  92 120 156 211 251 304 373
#     4   9  17  36  64  86 119 165 201 243 313 374
#     4  11  19  38  59  87 132 167 194 245 315 382
#     4   9  18  36  65  87 121 167 201 245 316 373
#     4  12  25  38  63  94 118 158 224 273 289 370
#
# _framework density 23.457225000000001
#
# number of rings (size 3 to 8) (size 9 to 14) (size 15 to 20)
#    0.750    0.750    6.250    1.125    3.500    0.500 
#    0.000    0.625    2.750    1.500    0.000    0.000 
#    0.000    0.000    0.000    0.000    0.000    0.000 
#
# Total GULP energy -198266.242334 kJ/mol
# GULP energy per Si atom -12391.640146 kJ/mol
# Density = 2.340384 g / cm^3
# Si number density = 23.457225 Si / 1000 Ang^3
#
#
#
# Elastic Constant Matrix: (Units=GPa)
#
#
# Indices 1 2 3 4 5 6 
#
# 1 77.0840 33.2628 45.3252 7.0702 -14.4752 -6.7346
# 2 33.2628 150.6034 72.4118 0.9999 -16.4907 13.0182
# 3 45.3252 72.4118 158.5083 7.9893 -25.2480 -0.0221
# 4 7.0702 0.9999 7.9893 53.0306 1.6155 -12.4288
# 5 -14.4752 -16.4907 -25.2480 1.6155 27.4011 1.8215
# 6 -6.7346 13.0182 -0.0221 -12.4288 1.8215 28.7059
#
#
#
# Elastic Compliance Matrix: (Units=1/GPa)
#
#
# Indices 1 2 3 4 5 6 
#
# 1 0.017049 -0.002121 -0.003124 -0.000901 0.004620 0.004276
# 2 -0.002121 0.009367 -0.003353 -0.000649 0.001808 -0.005144
# 3 -0.003124 -0.003353 0.009632 -0.001140 0.005276 -0.000033
# 4 -0.000901 -0.000649 -0.001140 0.021540 -0.003829 0.009651
# 5 0.004620 0.001808 0.005276 -0.003829 0.045395 -0.004270
# 6 0.004276 -0.005144 -0.000033 0.009651 -0.004270 0.042622
#
#
# Mechanical properties :
#
#
# Convention : Reuss Voigt Hill
#
# Bulk Modulus (GPa) = 53.04521 76.46614 64.75567
# Shear Modulus (GPa) = 29.57094 37.50723 33.53909
#
# Velocity S-wave (km/s) = 3.55439 4.00304 3.78537
# Velocity P-wave (km/s) = 6.28551 7.35083 6.83894
#
# Compressibility (1/GPa) = 0.01885184
#
# Stress axis : x y z
#
# Youngs Moduli (GPa) = 58.65444 106.75240 103.82370
#
# Poissons Ratio (x) = 0.22643 0.32437
# Poissons Ratio (y) = 0.12441 0.34810
# Poissons Ratio (z) = 0.18325 0.35792
#
# Static dielectric constant tensor:
#      x y z
#    x 4.292740 -0.071110 0.022290 
#    y -0.071110 5.052150 -0.113540 
#    z 0.022290 -0.113540 4.406950 
# 
# 
# High freq. dielectric constant tensor:
#      x y z
#    x 1.927140 -0.001330 -0.025890 
#    y -0.001330 1.949530 0.018230 
#    z -0.025890 0.018230 1.916390 
# 
# From -- ./inp_files/599215.got.cif
#   From: 2010.06.25/outbox.cif.g09.slc.cpg/sg2_300_cif.got.tgz:599215.got - 2010.06.27 13:26:56.
