data_PCOD8008635
_publ_section_title
;
Structure prediction by ZEFSAII (Michael W. Deem and Ramdas Pophale) SiO2 
 PCOD8008635
Probable space group: P -1
;
_chemical_formula_sum "Si O2"
_cell_formula_units_Z 16
_cell_length_a 11.968976
_cell_length_b 9.550314
_cell_length_c 9.604966
_cell_angle_alpha 136.713789
_cell_angle_beta 89.023194
_cell_angle_gamma 79.080717
_cell_volume 719.311014
_symmetry_space_group_name_H-M "P -1"
_symmetry_group_IT_number 2
_symmetry_cell_setting 'triclinic'
loop_
_space_group_symop_operation_xyz
x,y,z
-x,-y,-z
loop_
_atom_site_type_symbol
_atom_site_label
_atom_site_fract_x
_atom_site_fract_y
_atom_site_fract_z
Si Si1 0.103828 0.299977 0.695165
Si Si2 0.458982 0.109015 0.726217
Si Si3 0.308855 0.489450 0.863976
Si Si4 0.653504 0.924712 0.807948
Si Si5 0.951721 0.753295 0.025546
Si Si6 0.146381 0.938687 0.216029
Si Si7 0.702823 0.024659 0.165811
Si Si8 0.626356 0.478307 0.421051
O O1 0.232154 0.332185 0.709728
O O2 0.067779 0.255667 0.816969
O O3 0.101758 0.092064 0.458697
O O4 0.010061 0.514438 0.791937
O O5 0.404066 0.362895 0.883983
O O6 0.500000 0.000000 0.500000
O O7 0.565837 0.073046 0.805445
O O8 0.361523 0.006852 0.714254
O O9 0.371876 0.541188 0.761182
O O10 0.228976 0.704796 0.094379
O O11 0.667292 0.677095 0.610943
O O12 0.781987 0.952817 0.808854
O O13 0.618549 0.994234 0.018536
O O14 0.037409 0.900989 0.106804
O O15 0.829637 0.855405 0.025487
O O16 0.714115 0.264320 0.331127
O O17 0.500000 0.500000 0.500000
#
# Coordination Sequence:
#
# PCOD8008635 Si02
#       8
#     2   2   2   2   2   2   2   2
#     4  10  20  45  71 102 137 180 233 298 344 409
#     4  12  23  45  76 100 138 187 238 289 345 409
#     4  11  22  43  71 105 135 184 231 293 345 408
#     4  12  26  44  70 102 144 189 226 289 348 419
#     4  10  24  42  73 101 141 182 232 292 352 407
#     4  11  23  43  72 101 141 179 234 285 351 417
#     4  12  26  47  68 107 145 181 231 288 354 417
#     4  12  24  45  70  97 144 187 226 282 353 409
#
# _framework density 22.243507000000001
#
# number of rings (size 3 to 8) (size 9 to 14) (size 15 to 20)
#    0.000    0.750    6.250    0.750    0.000    2.000 
#    2.250    1.250    0.000    0.000    0.000    0.000 
#    0.000    0.000    0.000    0.000    0.000    0.000 
#
# Total GULP energy -198415.687799 kJ/mol
# GULP energy per Si atom -12400.980487 kJ/mol
# Density = 2.219288 g / cm^3
# Si number density = 22.243507 Si / 1000 Ang^3
#
#
#
# Elastic Constant Matrix: (Units=GPa)
#
#
# Indices 1 2 3 4 5 6 
#
# 1 118.9986 58.0480 34.8890 2.7447 -5.1062 -1.2017
# 2 58.0480 140.1500 54.2974 10.7657 -6.0020 -6.1191
# 3 34.8890 54.2974 134.8122 17.2212 -5.2106 -12.6299
# 4 2.7447 10.7657 17.2212 34.1964 3.3698 -4.0390
# 5 -5.1062 -6.0020 -5.2106 3.3698 28.2385 4.0516
# 6 -1.2017 -6.1191 -12.6299 -4.0390 4.0516 41.1785
#
#
#
# Elastic Compliance Matrix: (Units=1/GPa)
#
#
# Indices 1 2 3 4 5 6 
#
# 1 0.010752 -0.004007 -0.001315 0.000897 0.000840 -0.000679
# 2 -0.004007 0.010031 -0.002742 -0.001525 0.001043 0.000280
# 3 -0.001315 -0.002742 0.009569 -0.003720 0.001100 0.002016
# 4 0.000897 -0.001525 -0.003720 0.032295 -0.005035 0.002321
# 5 0.000840 0.001043 0.001100 -0.005035 0.037111 -0.003628
# 6 -0.000679 0.000280 0.002016 0.002321 -0.003628 0.025509
#
#
# Mechanical properties :
#
#
# Convention : Reuss Voigt Hill
#
# Bulk Modulus (GPa) = 70.29504 76.49219 73.39361
# Shear Modulus (GPa) = 34.21498 37.17109 35.69304
#
# Velocity S-wave (km/s) = 3.92625 4.09234 4.01015
# Velocity P-wave (km/s) = 7.22668 7.53611 7.38302
#
# Compressibility (1/GPa) = 0.01422576
#
# Stress axis : x y z
#
# Youngs Moduli (GPa) = 93.00767 99.69111 104.50538
#
# Poissons Ratio (x) = 0.39941 0.13739
# Poissons Ratio (y) = 0.37264 0.28653
# Poissons Ratio (z) = 0.12227 0.27333
#
# Static dielectric constant tensor:
#      x y z
#    x 4.139050 0.143370 -0.194870 
#    y 0.143370 4.328500 0.292420 
#    z -0.194870 0.292420 4.068180 
# 
# 
# High freq. dielectric constant tensor:
#      x y z
#    x 1.876270 0.015680 -0.019400 
#    y 0.015680 1.881920 0.014530 
#    z -0.019400 0.014530 1.871360 
# 
# From -- ./inp_files/245954.got.cif
#   From: 2010.06.25/outbox.cif.g09.slc.cpg/sg2_123_cif.got.tgz:245954.got - 2010.06.27 13:26:56.
