data_PCOD8008545
_publ_section_title
;
Structure prediction by ZEFSAII (Michael W. Deem and Ramdas Pophale) SiO2 
 PCOD8008545
Probable space group: P -1
;
_chemical_formula_sum "Si O2"
_cell_formula_units_Z 14
_cell_length_a 8.638138
_cell_length_b 14.211472
_cell_length_c 11.767619
_cell_angle_alpha 127.610107
_cell_angle_beta 39.100083
_cell_angle_gamma 111.453781
_cell_volume 704.718852
_symmetry_space_group_name_H-M "P -1"
_symmetry_group_IT_number 2
_symmetry_cell_setting 'triclinic'
loop_
_space_group_symop_operation_xyz
x,y,z
-x,-y,-z
loop_
_atom_site_type_symbol
_atom_site_label
_atom_site_fract_x
_atom_site_fract_y
_atom_site_fract_z
Si Si1 0.027653 0.735625 0.164946
Si Si2 0.820627 0.610743 0.807711
Si Si3 0.496370 0.748674 0.523608
Si Si4 0.180610 0.651505 0.447652
Si Si5 0.737485 0.390255 0.278419
Si Si6 0.645701 0.962709 0.504865
Si Si7 0.692920 0.220295 0.739452
O O1 0.217106 0.752590 0.167924
O O2 0.794744 0.684933 0.313976
O O3 0.909629 0.864229 0.263002
O O4 0.181608 0.639304 0.918395
O O5 0.722215 0.489568 0.745273
O O6 0.921947 0.666173 0.677174
O O7 0.037419 0.576340 0.753094
O O8 0.594450 0.709431 0.062412
O O9 0.394979 0.690837 0.428566
O O10 0.346950 0.726510 0.704734
O O11 0.467481 0.894885 0.633202
O O12 0.135538 0.736496 0.423872
O O13 0.500000 0.500000 0.500000
O O14 0.500000 0.000000 0.500000
O O15 0.707219 0.077243 0.618530
#
# Coordination Sequence:
#
# PCOD8008545 Si02
#       7
#     2   2   2   2   2   2   2
#     4  10  25  39  62  95 125 160 208 256 311 365
#     4  10  24  39  62  93 125 161 216 249 314 371
#     4   9  22  42  64  92 122 163 214 248 314 367
#     4  10  21  41  62  91 124 164 208 260 303 375
#     4  11  24  43  64  90 131 164 207 258 309 375
#     4  10  20  44  65  89 127 161 216 251 303 376
#     4  12  22  40  66  92 127 166 202 261 312 365
#
# _framework density 19.866077000000001
#
# number of rings (size 3 to 8) (size 9 to 14) (size 15 to 20)
#    0.857    0.857    1.429    2.571    8.000    0.571 
#    2.571    2.857    0.000    0.000    0.000    0.000 
#    0.000    0.000    0.000    0.000    0.000    0.000 
#
# Total GULP energy -173556.198921 kJ/mol
# GULP energy per Si atom -12396.871352 kJ/mol
# Density = 1.982086 g / cm^3
# Si number density = 19.866077 Si / 1000 Ang^3
#
#
#
# Elastic Constant Matrix: (Units=GPa)
#
#
# Indices 1 2 3 4 5 6 
#
# 1 106.3237 22.3969 28.1758 -0.9578 1.3818 1.3951
# 2 22.3969 103.2742 8.6211 1.1007 6.6574 16.7901
# 3 28.1758 8.6211 65.1448 5.2372 2.9558 9.5022
# 4 -0.9578 1.1007 5.2372 28.0079 -4.0423 3.1303
# 5 1.3818 6.6574 2.9558 -4.0423 33.6907 4.4267
# 6 1.3951 16.7901 9.5022 3.1303 4.4267 30.1381
#
#
#
# Elastic Compliance Matrix: (Units=1/GPa)
#
#
# Indices 1 2 3 4 5 6 
#
# 1 0.011205 -0.002409 -0.004962 0.001202 0.000304 0.002218
# 2 -0.002409 0.011244 0.000517 -0.000139 -0.001384 -0.006098
# 3 -0.004962 0.000517 0.018528 -0.003226 -0.001203 -0.005388
# 4 0.001202 -0.000139 -0.003226 0.037515 0.005239 -0.003627
# 5 0.000304 -0.001384 -0.001203 0.005239 0.031201 -0.003991
# 6 0.002218 -0.006098 -0.005388 -0.003627 -0.003991 0.039137
#
#
# Mechanical properties :
#
#
# Convention : Reuss Voigt Hill
#
# Bulk Modulus (GPa) = 36.66899 43.68113 40.17506
# Shear Modulus (GPa) = 29.13282 32.73728 30.93505
#
# Velocity S-wave (km/s) = 3.83359 4.06384 3.95039
# Velocity P-wave (km/s) = 6.17199 6.63741 6.40892
#
# Compressibility (1/GPa) = 0.02727100
#
# Stress axis : x y z
#
# Youngs Moduli (GPa) = 89.24388 88.93388 53.97298
#
# Poissons Ratio (x) = 0.21424 0.26779
# Poissons Ratio (y) = 0.21498 -0.02792
# Poissons Ratio (z) = 0.44279 -0.04601
#
# Static dielectric constant tensor:
#      x y z
#    x 3.557290 0.067250 0.062390 
#    y 0.067250 3.883010 -0.050210 
#    z 0.062390 -0.050210 3.455910 
# 
# 
# High freq. dielectric constant tensor:
#      x y z
#    x 1.782060 0.007050 0.004150 
#    y 0.007050 1.780690 -0.004300 
#    z 0.004150 -0.004300 1.755950 
# 
# From -- ./inp_files/331399.got.cif
#   From: 2010.06.25/outbox.cif.g09.slc.cpg/sg2_166_cif.got.tgz:331399.got - 2010.06.27 13:26:56.
