data_PCOD8008476
_publ_section_title
;
Structure prediction by ZEFSAII (Michael W. Deem and Ramdas Pophale) SiO2 
 PCOD8008476
Probable space group: P -1
;
_chemical_formula_sum "Si O2"
_cell_formula_units_Z 16
_cell_length_a 11.531027
_cell_length_b 11.718976
_cell_length_c 12.026975
_cell_angle_alpha 76.599919
_cell_angle_beta 53.048547
_cell_angle_gamma 119.602503
_cell_volume 732.747107
_symmetry_space_group_name_H-M "P -1"
_symmetry_group_IT_number 2
_symmetry_cell_setting 'triclinic'
loop_
_space_group_symop_operation_xyz
x,y,z
-x,-y,-z
loop_
_atom_site_type_symbol
_atom_site_label
_atom_site_fract_x
_atom_site_fract_y
_atom_site_fract_z
Si Si1 0.280434 0.313919 0.019737
Si Si2 0.924188 0.319495 0.050959
Si Si3 0.609131 0.399736 0.973579
Si Si4 0.253309 0.977585 0.609439
Si Si5 0.651079 0.527849 0.567059
Si Si6 0.567485 0.388370 0.408583
Si Si7 0.991337 0.359207 0.503217
Si Si8 0.536466 0.938299 0.764689
O O1 0.368307 0.302590 0.080503
O O2 0.423297 0.358220 0.821080
O O3 0.319993 0.480495 0.982513
O O4 0.988100 0.098433 0.219092
O O5 0.783279 0.167776 0.270394
O O6 0.730607 0.185102 0.089985
O O7 0.000000 0.500000 0.000000
O O8 0.170857 0.410462 0.850534
O O9 0.846369 0.555155 0.719994
O O10 0.523551 0.214478 0.094258
O O11 0.488961 0.203906 0.469834
O O12 0.293546 0.980086 0.456974
O O13 0.607362 0.417178 0.511078
O O14 0.644269 0.659001 0.500280
O O15 0.906715 0.657903 0.452126
O O16 0.000000 0.500000 0.500000
O O17 0.700413 0.135253 0.700440
#
# Coordination Sequence:
#
# PCOD8008476 Si02
#       8
#     2   2   2   2   2   2   2   2
#     4  10  20  43  69  99 138 170 224 281 333 405
#     4  12  26  44  69 102 141 175 230 284 333 406
#     4  10  23  43  68  99 137 175 219 281 337 404
#     4  12  24  41  72 102 131 179 230 278 344 392
#     4  10  24  48  66  99 140 178 225 283 340 391
#     4  11  25  45  71  97 139 182 224 288 329 404
#     4  11  27  46  70  98 143 177 224 285 340 408
#     4  12  26  41  71 103 134 181 228 272 348 402
#
# _framework density 21.835636999999998
#
# number of rings (size 3 to 8) (size 9 to 14) (size 15 to 20)
#    0.000    1.000    3.750    1.875    5.250    1.500 
#    0.000    0.000    0.000    0.000    0.000    0.000 
#    0.000    0.000    0.000    0.000    0.000    0.000 
#
# Total GULP energy -198425.429045 kJ/mol
# GULP energy per Si atom -12401.589315 kJ/mol
# Density = 2.178594 g / cm^3
# Si number density = 21.835637 Si / 1000 Ang^3
#
#
#
# Elastic Constant Matrix: (Units=GPa)
#
#
# Indices 1 2 3 4 5 6 
#
# 1 110.6663 42.7642 29.4113 -20.7624 -2.2345 8.3621
# 2 42.7642 88.8649 36.7635 -15.3914 -4.8193 21.1891
# 3 29.4113 36.7635 72.8064 -12.5189 2.4412 7.4612
# 4 -20.7624 -15.3914 -12.5189 40.1157 2.8111 1.6768
# 5 -2.2345 -4.8193 2.4412 2.8111 41.1761 0.6855
# 6 8.3621 21.1891 7.4612 1.6768 0.6855 26.7019
#
#
#
# Elastic Compliance Matrix: (Units=1/GPa)
#
#
# Indices 1 2 3 4 5 6 
#
# 1 0.011945 -0.004213 -0.002012 0.003941 0.000007 -0.000083
# 2 -0.004213 0.019790 -0.006400 0.003784 0.002423 -0.012896
# 3 -0.002012 -0.006400 0.018192 0.002305 -0.002103 0.000535
# 4 0.003941 0.003784 0.002305 0.029516 -0.001383 -0.006699
# 5 0.000007 0.002423 -0.002103 -0.001383 0.024820 -0.001888
# 6 -0.000083 -0.012896 0.000535 -0.006699 -0.001888 0.048030
#
#
# Mechanical properties :
#
#
# Convention : Reuss Voigt Hill
#
# Bulk Modulus (GPa) = 40.52468 54.46837 47.49653
# Shear Modulus (GPa) = 26.91527 32.49198 29.70362
#
# Velocity S-wave (km/s) = 3.51469 3.86168 3.69226
# Velocity P-wave (km/s) = 5.92199 6.69942 6.32267
#
# Compressibility (1/GPa) = 0.02467632
#
# Stress axis : x y z
#
# Youngs Moduli (GPa) = 83.71941 50.53042 54.97061
#
# Poissons Ratio (x) = 0.21289 0.11060
# Poissons Ratio (y) = 0.35272 0.35181
# Poissons Ratio (z) = 0.16844 0.32339
#
# Static dielectric constant tensor:
#      x y z
#    x 4.167580 0.150690 -0.160820 
#    y 0.150690 3.788520 0.012500 
#    z -0.160820 0.012500 3.981180 
# 
# 
# High freq. dielectric constant tensor:
#      x y z
#    x 1.874660 0.009280 -0.004070 
#    y 0.009280 1.846480 0.002810 
#    z -0.004070 0.002810 1.858940 
# 
# From -- ./inp_files/428101.got.cif
#   From: 2010.06.25/outbox.cif.g09.slc.cpg/sg2_215_cif.got.tgz:428101.got - 2010.06.27 13:26:56.
