data_PCOD8008653
_publ_section_title
;
Structure prediction by ZEFSAII (Michael W. Deem and Ramdas Pophale) SiO2 
 PCOD8008653
Probable space group: P -1
;
_chemical_formula_sum "Si O2"
_cell_formula_units_Z 14
_cell_length_a 5.247653
_cell_length_b 10.934845
_cell_length_c 10.747232
_cell_angle_alpha 118.900574
_cell_angle_beta 91.759447
_cell_angle_gamma 82.018220
_cell_volume 534.194548
_symmetry_space_group_name_H-M "P -1"
_symmetry_group_IT_number 2
_symmetry_cell_setting 'triclinic'
loop_
_space_group_symop_operation_xyz
x,y,z
-x,-y,-z
loop_
_atom_site_type_symbol
_atom_site_label
_atom_site_fract_x
_atom_site_fract_y
_atom_site_fract_z
Si Si1 0.690088 0.916098 0.061693
Si Si2 0.444843 0.296220 0.853889
Si Si3 0.559647 0.350557 0.366005
Si Si4 0.083976 0.601789 0.166732
Si Si5 0.063561 0.335052 0.202556
Si Si6 0.148568 0.902680 0.635441
Si Si7 0.794013 0.850796 0.413110
O O1 0.519296 0.831069 0.108718
O O2 0.851621 0.019642 0.192648
O O3 0.913674 0.804467 0.950107
O O4 0.500000 0.000000 0.000000
O O5 0.665996 0.394066 0.914047
O O6 0.434422 0.234790 0.679950
O O7 0.169215 0.398765 0.927501
O O8 0.500000 0.500000 0.500000
O O9 0.297340 0.304060 0.288319
O O10 0.660094 0.242422 0.423411
O O11 0.780865 0.354040 0.267065
O O12 0.114376 0.475924 0.203200
O O13 0.047765 0.754531 0.311345
O O14 0.861045 0.870315 0.570835
O O15 0.257778 0.993919 0.573416
#
# Coordination Sequence:
#
# PCOD8008653 Si02
#       7
#     2   2   2   2   2   2   2
#     4  11  24  47  72 111 153 203 242 296 372 454
#     4   9  22  42  73 104 143 192 242 303 363 426
#     4  12  27  48  75 108 143 197 245 308 374 435
#     4  10  21  44  71 107 141 188 250 307 363 422
#     4  12  27  46  75 106 151 192 246 306 364 447
#     4  10  20  47  70 107 147 192 239 305 364 439
#     4   8  20  41  72 105 139 188 244 310 356 426
#
# _framework density 26.207682999999999
#
# number of rings (size 3 to 8) (size 9 to 14) (size 15 to 20)
#    0.857    0.857    1.429    2.143    0.000    4.000 
#    2.571    3.571    0.000    0.000    0.000    0.000 
#    0.000    0.000    0.000    0.000    0.000    0.000 
#
# Total GULP energy -173447.519811 kJ/mol
# GULP energy per Si atom -12389.108558 kJ/mol
# Density = 2.614803 g / cm^3
# Si number density = 26.207683 Si / 1000 Ang^3
#
#
#
# Elastic Constant Matrix: (Units=GPa)
#
#
# Indices 1 2 3 4 5 6 
#
# 1 111.0749 33.9657 48.3859 1.2161 8.1926 0.3374
# 2 33.9657 164.0516 30.1016 1.0817 3.1730 -34.7300
# 3 48.3859 30.1016 135.5191 9.8231 22.5900 -11.3324
# 4 1.2161 1.0817 9.8231 45.5894 -11.5575 0.4900
# 5 8.1926 3.1730 22.5900 -11.5575 44.7534 -4.8757
# 6 0.3374 -34.7300 -11.3324 0.4900 -4.8757 29.7907
#
#
#
# Elastic Compliance Matrix: (Units=1/GPa)
#
#
# Indices 1 2 3 4 5 6 
#
# 1 0.011568 -0.002695 -0.003922 0.000570 -0.000325 -0.004827
# 2 -0.002695 0.008914 -0.000353 0.000132 0.001216 0.010484
# 3 -0.003922 -0.000353 0.010156 -0.003360 -0.004953 0.002741
# 4 0.000570 0.000132 -0.003360 0.024652 0.007923 -0.000240
# 5 -0.000325 0.001216 -0.004953 0.007923 0.027286 0.003873
# 6 -0.004827 0.010484 0.002741 -0.000240 0.003873 0.047525
#
#
# Mechanical properties :
#
#
# Convention : Reuss Voigt Hill
#
# Bulk Modulus (GPa) = 59.89123 70.61691 65.25407
# Shear Modulus (GPa) = 33.42075 43.90618 38.66347
#
# Velocity S-wave (km/s) = 3.57491 4.09750 3.84509
# Velocity P-wave (km/s) = 6.31998 7.02778 6.68325
#
# Compressibility (1/GPa) = 0.01669693
#
# Stress axis : x y z
#
# Youngs Moduli (GPa) = 86.44477 112.18839 98.46076
#
# Poissons Ratio (x) = 0.30232 0.38621
# Poissons Ratio (y) = 0.23295 0.03479
# Poissons Ratio (z) = 0.33908 0.03963
#
# Static dielectric constant tensor:
#      x y z
#    x 4.614890 -0.322220 0.502710 
#    y -0.322220 4.915020 0.173740 
#    z 0.502710 0.173740 5.239560 
# 
# 
# High freq. dielectric constant tensor:
#      x y z
#    x 2.037070 -0.017320 0.021410 
#    y -0.017320 2.066470 0.022120 
#    z 0.021410 0.022120 2.063420 
# 
# From -- ./inp_files/363417.got.cif
#   From: 2010.06.25/outbox.cif.g09.slc.cpg/sg2_182_cif.got.tgz:363417.got - 2010.06.27 13:26:56.
