data_PCOD8008088
_publ_section_title
;
Structure prediction by ZEFSAII (Michael W. Deem and Ramdas Pophale) SiO2 
 PCOD8008088
Probable space group: P -1
;
_chemical_formula_sum "Si O2"
_cell_formula_units_Z 16
_cell_length_a 20.297437
_cell_length_b 7.874454
_cell_length_c 8.752856
_cell_angle_alpha 129.382073
_cell_angle_beta 40.721835
_cell_angle_gamma 112.743772
_cell_volume 693.002612
_symmetry_space_group_name_H-M "P -1"
_symmetry_group_IT_number 2
_symmetry_cell_setting 'triclinic'
loop_
_space_group_symop_operation_xyz
x,y,z
-x,-y,-z
loop_
_atom_site_type_symbol
_atom_site_label
_atom_site_fract_x
_atom_site_fract_y
_atom_site_fract_z
Si Si1 0.224828 0.726437 0.279867
Si Si2 0.378891 0.734120 0.776129
Si Si3 0.879723 0.686469 0.721820
Si Si4 0.257578 0.095239 0.658936
Si Si5 0.425385 0.178594 0.631576
Si Si6 0.719099 0.771455 0.826892
Si Si7 0.074794 0.795864 0.326885
Si Si8 0.246722 0.497483 0.682541
O O1 0.161405 0.543958 0.340558
O O2 0.155318 0.869324 0.348820
O O3 0.244819 0.867514 0.470613
O O4 0.333697 0.623479 0.942541
O O5 0.503500 0.679946 0.510929
O O6 0.332783 0.645897 0.652791
O O7 0.343551 0.003190 0.009643
O O8 0.823860 0.823088 0.750219
O O9 0.002601 0.651381 0.464797
O O10 0.845243 0.823461 0.014986
O O11 0.359580 0.054024 0.560574
O O12 0.270159 0.274677 0.612917
O O13 0.500000 0.000000 0.500000
O O14 0.346453 0.322036 0.973552
O O15 0.745863 0.568949 0.545036
O O16 0.134138 0.639309 0.000479
O O17 0.000000 0.000000 0.500000
#
# Coordination Sequence:
#
# PCOD8008088 Si02
#       8
#     2   2   2   2   2   2   2   2
#     4  11  23  41  66  97 133 172 219 275 329 385
#     4  10  20  42  65  93 136 171 219 271 323 387
#     4  11  23  43  64  97 133 168 222 274 325 389
#     4  11  23  42  66  96 133 178 214 272 334 378
#     4   9  22  42  67  97 134 174 220 272 323 392
#     4  10  22  42  65  95 136 174 213 277 329 387
#     4  11  25  45  69  98 134 174 217 276 330 390
#     4  11  23  41  68  95 131 175 222 270 330 397
#
# _framework density 23.087935000000002
#
# number of rings (size 3 to 8) (size 9 to 14) (size 15 to 20)
#    0.000    1.500    3.750    1.875    0.000    6.500 
#    0.000    0.000    0.000    0.000    0.000    0.000 
#    0.000    0.000    0.000    0.000    0.000    0.000 
#
# Total GULP energy -198357.300712 kJ/mol
# GULP energy per Si atom -12397.331294 kJ/mol
# Density = 2.303539 g / cm^3
# Si number density = 23.087935 Si / 1000 Ang^3
#
#
#
# Elastic Constant Matrix: (Units=GPa)
#
#
# Indices 1 2 3 4 5 6 
#
# 1 102.3825 15.8540 72.7884 -4.2020 15.8850 24.8591
# 2 15.8540 61.8331 40.1320 -16.1971 9.3592 22.7284
# 3 72.7884 40.1320 161.2396 -15.2340 17.6261 45.1651
# 4 -4.2020 -16.1971 -15.2340 37.4190 8.6814 -3.2909
# 5 15.8850 9.3592 17.6261 8.6814 45.5566 1.2851
# 6 24.8591 22.7284 45.1651 -3.2909 1.2851 39.6122
#
#
#
# Elastic Compliance Matrix: (Units=1/GPa)
#
#
# Indices 1 2 3 4 5 6 
#
# 1 0.015063 0.001997 -0.005782 0.000663 -0.003443 -0.003839
# 2 0.001997 0.025424 -0.001941 0.010941 -0.006901 -0.012494
# 3 -0.005782 -0.001941 0.012480 0.003442 -0.002812 -0.009109
# 4 0.000663 0.010941 0.003442 0.034652 -0.010205 -0.007409
# 5 -0.003443 -0.006901 -0.002812 -0.010205 0.027388 0.007591
# 6 -0.003839 -0.012494 -0.009109 -0.007409 0.007591 0.044347
#
#
# Mechanical properties :
#
#
# Convention : Reuss Voigt Hill
#
# Bulk Modulus (GPa) = 24.08959 64.77819 44.43389
# Shear Modulus (GPa) = 27.07909 37.62962 32.35436
#
# Velocity S-wave (km/s) = 3.42843 4.04151 3.74753
# Velocity P-wave (km/s) = 5.11162 7.06374 6.16543
#
# Compressibility (1/GPa) = 0.04151170
#
# Stress axis : x y z
#
# Youngs Moduli (GPa) = 66.38998 39.33351 80.12926
#
# Poissons Ratio (x) = -0.07854 0.46334
# Poissons Ratio (y) = -0.13256 0.15557
# Poissons Ratio (z) = 0.38389 0.07636
#
# Static dielectric constant tensor:
#      x y z
#    x 4.440120 0.038940 -0.164150 
#    y 0.038940 4.334210 -0.465410 
#    z -0.164150 -0.465410 4.563550 
# 
# 
# High freq. dielectric constant tensor:
#      x y z
#    x 1.915260 -0.011600 -0.008930 
#    y -0.011600 1.917270 -0.020100 
#    z -0.008930 -0.020100 1.913900 
# 
# From -- ./inp_files/342983.got.cif
#   From: 2010.06.25/outbox.cif.g09.slc.cpg/sg2_172_cif.got.tgz:342983.got - 2010.06.27 13:26:56.
