data_PCOD8008355
_publ_section_title
;
Structure prediction by ZEFSAII (Michael W. Deem and Ramdas Pophale) SiO2 
 PCOD8008355
Probable space group: P -1
;
_chemical_formula_sum "Si O2"
_cell_formula_units_Z 16
_cell_length_a 19.156757
_cell_length_b 13.370371
_cell_length_c 8.487373
_cell_angle_alpha 103.307480
_cell_angle_beta 129.662259
_cell_angle_gamma 35.578725
_cell_volume 744.002217
_symmetry_space_group_name_H-M "P -1"
_symmetry_group_IT_number 2
_symmetry_cell_setting 'triclinic'
loop_
_space_group_symop_operation_xyz
x,y,z
-x,-y,-z
loop_
_atom_site_type_symbol
_atom_site_label
_atom_site_fract_x
_atom_site_fract_y
_atom_site_fract_z
Si Si1 0.653603 0.904390 0.795988
Si Si2 0.160330 0.767802 0.950686
Si Si3 0.992854 0.555974 0.684480
Si Si4 0.376448 0.190367 0.770940
Si Si5 0.450497 0.609954 0.127543
Si Si6 0.919810 0.359090 0.360675
Si Si7 0.858828 0.251723 0.728873
Si Si8 0.150243 0.093938 0.904858
O O1 0.500000 0.000000 0.500000
O O2 0.526291 0.081318 0.818083
O O3 0.746728 0.914241 0.856612
O O4 0.823412 0.655371 0.012946
O O5 0.362310 0.621253 0.136295
O O6 0.185691 0.690838 0.129642
O O7 0.114311 0.726959 0.741931
O O8 0.971912 0.032324 0.775099
O O9 0.788944 0.716251 0.520892
O O10 0.000000 0.500000 0.500000
O O11 0.989759 0.681418 0.684862
O O12 0.288845 0.375979 0.805051
O O13 0.500000 0.000000 0.000000
O O14 0.649593 0.462011 0.418686
O O15 0.500000 0.500000 0.000000
O O16 0.293055 0.859365 0.966410
O O17 0.058816 0.236529 0.667776
O O18 0.983823 0.221442 0.832185
#
# Coordination Sequence:
#
# PCOD8008355 Si02
#       8
#     2   2   2   2   2   2   2   2
#     4  12  26  42  64 100 133 171 223 281 337 391
#     4  10  23  42  66  95 129 171 216 266 337 396
#     4  10  20  43  64  90 132 169 220 271 320 399
#     4  11  21  42  67  88 130 176 222 273 325 392
#     4  11  23  40  67  99 132 168 217 270 331 397
#     4  11  21  41  68  93 126 172 227 265 328 394
#     4  10  23  45  64  92 138 168 210 278 330 395
#     4  11  24  42  64  96 130 172 220 274 327 398
#
# _framework density 21.505312
#
# number of rings (size 3 to 8) (size 9 to 14) (size 15 to 20)
#    0.000    1.250    5.000    1.875    3.500    4.500 
#    2.250    0.000    0.000    0.000    0.000    0.000 
#    0.000    0.000    0.000    0.000    0.000    0.000 
#
# Total GULP energy -198360.181171 kJ/mol
# GULP energy per Si atom -12397.511323 kJ/mol
# Density = 2.145637 g / cm^3
# Si number density = 21.505312 Si / 1000 Ang^3
#
#
#
# Elastic Constant Matrix: (Units=GPa)
#
#
# Indices 1 2 3 4 5 6 
#
# 1 143.3124 35.2499 48.9960 -3.3713 15.2204 6.4064
# 2 35.2499 67.8454 30.6602 3.0028 5.3929 5.1405
# 3 48.9960 30.6602 135.7812 -4.0508 7.1779 5.8835
# 4 -3.3713 3.0028 -4.0508 30.9463 3.8427 8.9425
# 5 15.2204 5.3929 7.1779 3.8427 36.5301 0.7803
# 6 6.4064 5.1405 5.8835 8.9425 0.7803 33.5428
#
#
#
# Elastic Compliance Matrix: (Units=1/GPa)
#
#
# Indices 1 2 3 4 5 6 
#
# 1 0.008983 -0.003420 -0.002209 0.001735 -0.002961 -0.001198
# 2 -0.003420 0.018001 -0.002827 -0.002138 -0.000430 -0.001030
# 3 -0.002209 -0.002827 0.008926 0.001596 -0.000560 -0.001123
# 4 0.001735 -0.002138 0.001596 0.036307 -0.004329 -0.009862
# 5 -0.002961 -0.000430 -0.000560 -0.004329 0.029212 0.001204
# 6 -0.001198 -0.001030 -0.001123 -0.009862 0.001204 0.032997
#
#
# Mechanical properties :
#
#
# Convention : Reuss Voigt Hill
#
# Bulk Modulus (GPa) = 52.63695 64.08348 58.36022
# Shear Modulus (GPa) = 31.71182 35.67270 33.69226
#
# Velocity S-wave (km/s) = 3.84422 4.07724 3.96244
# Velocity P-wave (km/s) = 6.65082 7.21310 6.93766
#
# Compressibility (1/GPa) = 0.01899806
#
# Stress axis : x y z
#
# Youngs Moduli (GPa) = 111.32236 55.55398 112.02975
#
# Poissons Ratio (x) = 0.18997 0.24749
# Poissons Ratio (y) = 0.38067 0.31672
# Poissons Ratio (z) = 0.24592 0.15706
#
# Static dielectric constant tensor:
#      x y z
#    x 4.569500 0.058510 0.330560 
#    y 0.058510 3.484260 -0.139030 
#    z 0.330560 -0.139030 3.953820 
# 
# 
# High freq. dielectric constant tensor:
#      x y z
#    x 1.861710 0.005340 0.010270 
#    y 0.005340 1.831130 -0.009930 
#    z 0.010270 -0.009930 1.844150 
# 
# From -- ./inp_files/333421.got.cif
#   From: 2010.06.25/outbox.cif.g09.slc.cpg/sg2_167_cif.got.tgz:333421.got - 2010.06.27 13:26:56.
