data_PCOD8008337
_publ_section_title
;
Structure prediction by ZEFSAII (Michael W. Deem and Ramdas Pophale) SiO2 
 PCOD8008337
Probable space group: P -1
;
_chemical_formula_sum "Si O2"
_cell_formula_units_Z 14
_cell_length_a 11.859865
_cell_length_b 8.802059
_cell_length_c 14.274605
_cell_angle_alpha 93.974080
_cell_angle_beta 150.682648
_cell_angle_gamma 92.848375
_cell_volume 709.150797
_symmetry_space_group_name_H-M "P -1"
_symmetry_group_IT_number 2
_symmetry_cell_setting 'triclinic'
loop_
_space_group_symop_operation_xyz
x,y,z
-x,-y,-z
loop_
_atom_site_type_symbol
_atom_site_label
_atom_site_fract_x
_atom_site_fract_y
_atom_site_fract_z
Si Si1 0.967417 0.670237 0.010413
Si Si2 0.548325 0.672270 0.576138
Si Si3 0.052894 0.764343 0.568360
Si Si4 0.764337 0.504006 0.221615
Si Si5 0.037291 0.692887 0.269280
Si Si6 0.529295 0.116631 0.612975
Si Si7 0.833982 0.020824 0.510533
O O1 0.897865 0.665771 0.069280
O O2 0.199985 0.803559 0.164591
O O3 0.760781 0.719048 0.804687
O O4 0.000000 0.500000 0.000000
O O5 0.500000 0.500000 0.500000
O O6 0.316281 0.708691 0.457507
O O7 0.609421 0.758987 0.524261
O O8 0.839607 0.635570 0.362099
O O9 0.221298 0.668704 0.739448
O O10 0.203101 0.882944 0.605764
O O11 0.948600 0.873157 0.569027
O O12 0.935400 0.547822 0.257722
O O13 0.500000 0.500000 0.000000
O O14 0.000039 0.855394 0.294147
O O15 0.500000 0.000000 0.500000
O O16 0.419246 0.042520 0.626984
#
# Coordination Sequence:
#
# PCOD8008337 Si02
#       7
#     2   2   2   2   2   2   2
#     4  11  22  38  61  93 124 169 213 250 319 374
#     4  11  22  40  62  91 129 171 210 258 318 377
#     4   9  22  41  67  87 125 170 205 263 322 374
#     4  10  22  42  64  97 119 158 222 263 317 380
#     4  10  22  40  61  88 133 161 210 271 309 377
#     4  11  22  41  61  94 133 162 208 268 313 383
#     4  10  20  43  62  89 130 170 207 260 324 376
#
# _framework density 19.741923
#
# number of rings (size 3 to 8) (size 9 to 14) (size 15 to 20)
#    0.000    1.714    5.714    0.000    2.000    5.143 
#    0.000    9.286    0.000    0.000    0.000    0.000 
#    0.000    0.000    0.000    0.000    0.000    0.000 
#
# Total GULP energy -173501.913265 kJ/mol
# GULP energy per Si atom -12392.993805 kJ/mol
# Density = 1.969699 g / cm^3
# Si number density = 19.741923 Si / 1000 Ang^3
#
#
#
# Elastic Constant Matrix: (Units=GPa)
#
#
# Indices 1 2 3 4 5 6 
#
# 1 125.1337 56.6105 41.4504 4.5364 -2.6651 8.3535
# 2 56.6105 142.3043 48.7515 0.6139 -1.6001 1.8963
# 3 41.4504 48.7515 141.2382 -14.1389 -7.9548 6.3671
# 4 4.5364 0.6139 -14.1389 33.6187 1.2325 -6.1626
# 5 -2.6651 -1.6001 -7.9548 1.2325 26.8858 6.0369
# 6 8.3535 1.8963 6.3671 -6.1626 6.0369 36.9853
#
#
#
# Elastic Compliance Matrix: (Units=1/GPa)
#
#
# Indices 1 2 3 4 5 6 
#
# 1 0.010486 -0.003432 -0.001999 -0.002674 0.000915 -0.002443
# 2 -0.003432 0.009156 -0.002270 -0.000506 -0.000603 0.000711
# 3 -0.001999 -0.002270 0.009001 0.003881 0.002312 -0.000712
# 4 -0.002674 -0.000506 0.003881 0.032875 -0.001946 0.005757
# 5 0.000915 -0.000603 0.002312 -0.001946 0.039678 -0.007375
# 6 -0.002443 0.000711 -0.000712 0.005757 -0.007375 0.029839
#
#
# Mechanical properties :
#
#
# Convention : Reuss Voigt Hill
#
# Bulk Modulus (GPa) = 75.51987 78.03344 76.77665
# Shear Modulus (GPa) = 33.14545 36.95553 35.05049
#
# Velocity S-wave (km/s) = 4.10193 4.33128 4.21816
# Velocity P-wave (km/s) = 7.79558 8.03902 7.91823
#
# Compressibility (1/GPa) = 0.01324155
#
# Stress axis : x y z
#
# Youngs Moduli (GPa) = 95.36700 109.21611 111.09661
#
# Poissons Ratio (x) = 0.37486 0.22204
# Poissons Ratio (y) = 0.32733 0.25217
# Poissons Ratio (z) = 0.19061 0.24790
#
# Static dielectric constant tensor:
#      x y z
#    x 3.834520 0.461840 -0.107240 
#    y 0.461840 4.271310 0.378970 
#    z -0.107240 0.378970 3.474950 
# 
# 
# High freq. dielectric constant tensor:
#      x y z
#    x 1.774030 0.007050 -0.012690 
#    y 0.007050 1.788850 0.013710 
#    z -0.012690 0.013710 1.749920 
# 
# From -- ./inp_files/354436.got.cif
#   From: 2010.06.25/outbox.cif.g09.slc.cpg/sg2_178_cif.got.tgz:354436.got - 2010.06.27 13:26:56.
