data_PCOD8008061
_publ_section_title
;
Structure prediction by ZEFSAII (Michael W. Deem and Ramdas Pophale) SiO2 
 PCOD8008061
Probable space group: P -1
;
_chemical_formula_sum "Si O2"
_cell_formula_units_Z 16
_cell_length_a 9.685679
_cell_length_b 7.278307
_cell_length_c 11.767828
_cell_angle_alpha 98.127387
_cell_angle_beta 85.961041
_cell_angle_gamma 128.400924
_cell_volume 643.434551
_symmetry_space_group_name_H-M "P -1"
_symmetry_group_IT_number 2
_symmetry_cell_setting 'triclinic'
loop_
_space_group_symop_operation_xyz
x,y,z
-x,-y,-z
loop_
_atom_site_type_symbol
_atom_site_label
_atom_site_fract_x
_atom_site_fract_y
_atom_site_fract_z
Si Si1 0.463484 0.517264 0.348398
Si Si2 0.425288 0.089166 0.257552
Si Si3 0.686422 0.033209 0.342098
Si Si4 0.197150 0.519540 0.486567
Si Si5 0.304073 0.458712 0.108076
Si Si6 0.615268 0.869537 0.995657
Si Si7 0.082251 0.721430 0.847448
Si Si8 0.063598 0.670339 0.330630
O O1 0.518813 0.346130 0.334258
O O2 0.337760 0.471399 0.457294
O O3 0.359512 0.459219 0.232434
O O4 0.632236 0.790428 0.375875
O O5 0.519340 0.978697 0.279046
O O6 0.440390 0.110457 0.123487
O O7 0.223910 0.926677 0.299051
O O8 0.730844 0.220455 0.451868
O O9 0.843842 0.111058 0.253986
O O10 0.121601 0.517786 0.367614
O O11 0.050973 0.318175 0.565316
O O12 0.307141 0.273746 0.017481
O O13 0.104253 0.362609 0.103788
O O14 0.437772 0.722512 0.070276
O O15 0.767318 0.137008 0.053025
O O16 0.057493 0.486158 0.785619
#
# Coordination Sequence:
#
# PCOD8008061 Si02
#       8
#     2   2   2   2   2   2   2   2
#     4  11  21  42  70  93 134 181 209 276 338 381
#     4  11  25  43  63  99 140 169 224 277 319 400
#     4  11  23  42  64  99 132 170 228 268 327 404
#     4  10  21  41  68  93 129 178 215 275 339 379
#     4  10  20  42  65 101 138 166 230 268 322 405
#     4  10  23  40  66  98 137 178 214 276 328 386
#     4  11  21  41  70  94 130 182 217 267 336 387
#     4  10  22  41  64  96 133 166 225 278 319 403
#
# _framework density 24.866551999999999
#
# number of rings (size 3 to 8) (size 9 to 14) (size 15 to 20)
#    0.000    1.500    3.750    0.750    0.000    2.000 
#    4.500    2.500    0.000    0.000    0.000    0.000 
#    0.000    0.000    0.000    0.000    0.000    0.000 
#
# Total GULP energy -198297.946072 kJ/mol
# GULP energy per Si atom -12393.621629 kJ/mol
# Density = 2.480995 g / cm^3
# Si number density = 24.866552 Si / 1000 Ang^3
#
#
#
# Elastic Constant Matrix: (Units=GPa)
#
#
# Indices 1 2 3 4 5 6 
#
# 1 53.1187 28.8871 7.7511 -8.6255 -27.7850 12.1893
# 2 28.8871 134.6585 36.5597 -7.0082 -12.5195 17.5168
# 3 7.7511 36.5597 92.2694 0.0387 -11.4583 10.3874
# 4 -8.6255 -7.0082 0.0387 47.2716 11.0009 -11.7603
# 5 -27.7850 -12.5195 -11.4583 11.0009 30.8660 -6.8888
# 6 12.1893 17.5168 10.3874 -11.7603 -6.8888 40.9171
#
#
#
# Elastic Compliance Matrix: (Units=1/GPa)
#
#
# Indices 1 2 3 4 5 6 
#
# 1 0.041024 -0.005997 0.004008 -0.003130 0.035865 -0.005532
# 2 -0.005997 0.009623 -0.003534 0.000687 -0.003459 -0.001821
# 3 0.004008 -0.003534 0.013069 -0.002079 0.007236 -0.002378
# 4 -0.003130 0.000687 -0.002079 0.024791 -0.010697 0.006490
# 5 0.035865 -0.003459 0.007236 -0.010697 0.069230 -0.002460
# 6 -0.005532 -0.001821 -0.002378 0.006490 -0.002460 0.028922
#
#
# Mechanical properties :
#
#
# Convention : Reuss Voigt Hill
#
# Bulk Modulus (GPa) = 18.98660 47.38248 33.18454
# Shear Modulus (GPa) = 23.22756 37.60085 30.41420
#
# Velocity S-wave (km/s) = 3.05960 3.89280 3.50107
# Velocity P-wave (km/s) = 4.48704 6.26907 5.45137
#
# Compressibility (1/GPa) = 0.05266872
#
# Stress axis : x y z
#
# Youngs Moduli (GPa) = 24.37621 103.91450 76.51933
#
# Poissons Ratio (x) = 0.62322 -0.30669
# Poissons Ratio (y) = 0.14619 0.27042
# Poissons Ratio (z) = -0.09770 0.36724
#
# Static dielectric constant tensor:
#      x y z
#    x 4.231900 0.181640 -0.281080 
#    y 0.181640 4.605090 0.157670 
#    z -0.281080 0.157670 4.705320 
# 
# 
# High freq. dielectric constant tensor:
#      x y z
#    x 1.958500 0.018090 -0.019460 
#    y 0.018090 1.992100 0.009220 
#    z -0.019460 0.009220 2.012030 
# 
# From -- ./inp_files/417580.got.cif
#   From: 2010.06.25/outbox.cif.g09.slc.cpg/sg2_209_cif.got.tgz:417580.got - 2010.06.27 13:26:56.
