data_PCOD8008765
_publ_section_title
;
Structure prediction by ZEFSAII (Michael W. Deem and Ramdas Pophale) SiO2 
 PCOD8008765
Probable space group: P -1
;
_chemical_formula_sum "Si O2"
_cell_formula_units_Z 14
_cell_length_a 12.160231
_cell_length_b 9.414720
_cell_length_c 20.339322
_cell_angle_alpha 142.356324
_cell_angle_beta 31.576666
_cell_angle_gamma 126.210309
_cell_volume 718.655756
_symmetry_space_group_name_H-M "P -1"
_symmetry_group_IT_number 2
_symmetry_cell_setting 'triclinic'
loop_
_space_group_symop_operation_xyz
x,y,z
-x,-y,-z
loop_
_atom_site_type_symbol
_atom_site_label
_atom_site_fract_x
_atom_site_fract_y
_atom_site_fract_z
Si Si1 0.688169 0.486910 0.988444
Si Si2 0.298503 0.289302 0.074199
Si Si3 0.398554 0.681672 0.391532
Si Si4 0.549214 0.851127 0.852833
Si Si5 0.959667 0.978776 0.692097
Si Si6 0.814472 0.706060 0.135800
Si Si7 0.925712 0.156520 0.277759
O O1 0.714178 0.649192 0.973120
O O2 0.882215 0.241393 0.794904
O O3 0.449652 0.432731 0.088734
O O4 0.718284 0.628676 0.089842
O O5 0.052474 0.337653 0.246377
O O6 0.398773 0.002279 0.927299
O O7 0.486770 0.411874 0.219070
O O8 0.611979 0.782806 0.318781
O O9 0.300733 0.682580 0.515611
O O10 0.210440 0.841984 0.497528
O O11 0.800549 0.817952 0.690752
O O12 0.500000 0.000000 0.000000
O O13 0.930916 0.002173 0.794835
O O14 0.886367 0.950658 0.173098
O O15 0.000000 0.500000 0.000000
#
# Coordination Sequence:
#
# PCOD8008765 Si02
#       7
#     2   2   2   2   2   2   2
#     4  10  22  38  61  86 122 153 194 239 288 344
#     4  10  21  39  59  89 118 154 193 242 289 338
#     4  10  21  34  57  88 117 146 197 243 288 340
#     4  11  17  32  60  87 112 146 198 239 280 337
#     4   9  19  33  56  88 110 151 185 242 286 332
#     4  12  21  36  60  87 115 156 197 241 284 347
#     4  10  21  35  57  86 116 150 193 237 290 337
#
# _framework density 19.480816000000001
#
# number of rings (size 3 to 8) (size 9 to 14) (size 15 to 20)
#    0.857    0.857    2.857    3.429    0.000    0.571 
#    0.000    1.429    0.000   10.286    0.000    0.000 
#    0.000    0.000    0.000    0.000    0.000    0.000 
#
# Total GULP energy -173439.194599 kJ/mol
# GULP energy per Si atom -12388.513900 kJ/mol
# Density = 1.943648 g / cm^3
# Si number density = 19.480816 Si / 1000 Ang^3
#
#
#
# Elastic Constant Matrix: (Units=GPa)
#
#
# Indices 1 2 3 4 5 6 
#
# 1 89.1674 44.7264 27.1302 -5.4300 4.5892 -2.8833
# 2 44.7264 110.2294 46.5628 -10.5893 0.1053 -3.8575
# 3 27.1302 46.5628 85.6188 -17.2089 -6.3163 0.0343
# 4 -5.4300 -10.5893 -17.2089 35.7933 8.4430 -2.0455
# 5 4.5892 0.1053 -6.3163 8.4430 22.9406 3.9093
# 6 -2.8833 -3.8575 0.0343 -2.0455 3.9093 30.4852
#
#
#
# Elastic Compliance Matrix: (Units=1/GPa)
#
#
# Indices 1 2 3 4 5 6 
#
# 1 0.014616 -0.004921 -0.002095 0.000770 -0.003987 0.001325
# 2 -0.004921 0.013648 -0.005776 0.000894 -0.001251 0.001488
# 3 -0.002095 -0.005776 0.016775 0.005195 0.003327 -0.001026
# 4 0.000770 0.000894 0.005195 0.033842 -0.011860 0.003972
# 5 -0.003987 -0.001251 0.003327 -0.011860 0.051017 -0.007877
# 6 0.001325 0.001488 -0.001026 0.003972 -0.007877 0.034394
#
#
# Mechanical properties :
#
#
# Convention : Reuss Voigt Hill
#
# Bulk Modulus (GPa) = 51.40288 57.98383 54.69336
# Shear Modulus (GPa) = 25.46333 28.95025 27.20679
#
# Velocity S-wave (km/s) = 3.61930 3.85917 3.74116
# Velocity P-wave (km/s) = 6.62642 7.04888 6.84092
#
# Compressibility (1/GPa) = 0.01945416
#
# Stress axis : x y z
#
# Youngs Moduli (GPa) = 68.41930 73.27095 59.61375
#
# Poissons Ratio (x) = 0.36060 0.12487
# Poissons Ratio (y) = 0.33672 0.34433
# Poissons Ratio (z) = 0.14332 0.42321
#
# Static dielectric constant tensor:
#      x y z
#    x 3.397870 0.120700 -0.255480 
#    y 0.120700 3.640990 -0.187440 
#    z -0.255480 -0.187440 3.449290 
# 
# 
# High freq. dielectric constant tensor:
#      x y z
#    x 1.731550 0.020480 -0.017540 
#    y 0.020480 1.757920 -0.008860 
#    z -0.017540 -0.008860 1.749370 
# 
# From -- ./inp_files/593790.got.cif
#   From: 2010.06.25/outbox.cif.g09.slc.cpg/sg2_297_cif.got.tgz:593790.got - 2010.06.27 13:26:56.
