data_PCOD8008231
_publ_section_title
;
Structure prediction by ZEFSAII (Michael W. Deem and Ramdas Pophale) SiO2 
 PCOD8008231
Probable space group: P -1
;
_chemical_formula_sum "Si O2"
_cell_formula_units_Z 16
_cell_length_a 12.775975
_cell_length_b 15.953014
_cell_length_c 9.207314
_cell_angle_alpha 86.829887
_cell_angle_beta 98.777439
_cell_angle_gamma 26.391079
_cell_volume 741.465190
_symmetry_space_group_name_H-M "P -1"
_symmetry_group_IT_number 2
_symmetry_cell_setting 'triclinic'
loop_
_space_group_symop_operation_xyz
x,y,z
-x,-y,-z
loop_
_atom_site_type_symbol
_atom_site_label
_atom_site_fract_x
_atom_site_fract_y
_atom_site_fract_z
Si Si1 0.336880 0.747835 0.235659
Si Si2 0.038264 0.839588 0.963444
Si Si3 0.922449 0.136748 0.560656
Si Si4 0.263527 0.002066 0.847886
Si Si5 0.657544 0.871280 0.188847
Si Si6 0.853629 0.319688 0.288805
Si Si7 0.862382 0.572465 0.110255
Si Si8 0.275840 0.134011 0.333416
O O1 0.304249 0.725345 0.386120
O O2 0.640493 0.544061 0.274027
O O3 0.194100 0.941147 0.189831
O O4 0.234387 0.763554 0.082661
O O5 0.194867 0.674097 0.888970
O O6 0.919864 0.864667 0.059915
O O7 0.807292 0.281263 0.400722
O O8 0.000000 0.000000 0.500000
O O9 0.168448 0.999627 0.714471
O O10 0.226394 0.120348 0.748141
O O11 0.563037 0.763683 0.984870
O O12 0.871224 0.642762 0.223604
O O13 0.434396 0.997499 0.235585
O O14 0.500000 0.000000 0.000000
O O15 0.148689 0.142946 0.373986
O O16 0.032817 0.374426 0.235706
O O17 0.000000 0.500000 0.000000
O O18 0.500000 0.000000 0.500000
#
# Coordination Sequence:
#
# PCOD8008231 Si02
#       8
#     2   2   2   2   2   2   2   2
#     4  10  22  42  63  91 125 167 219 264 319 390
#     4  10  21  39  65  93 127 164 214 273 315 377
#     4  11  23  44  65  92 135 174 210 275 326 388
#     4  10  21  41  68  97 132 175 220 261 328 389
#     4  10  20  42  68  94 136 172 217 268 321 394
#     4  12  23  39  67  91 129 170 213 264 334 378
#     4  11  22  41  70  95 131 175 224 263 320 396
#     4  12  26  43  65 100 138 167 217 278 327 385
#
# _framework density 21.578896
#
# number of rings (size 3 to 8) (size 9 to 14) (size 15 to 20)
#    0.000    1.250    3.750    3.750    0.000    0.500 
#    2.250    3.750    0.000    0.000    0.000    0.000 
#    0.000    0.000    0.000    0.000    0.000    0.000 
#
# Total GULP energy -198270.950143 kJ/mol
# GULP energy per Si atom -12391.934384 kJ/mol
# Density = 2.152978 g / cm^3
# Si number density = 21.578896 Si / 1000 Ang^3
#
#
#
# Elastic Constant Matrix: (Units=GPa)
#
#
# Indices 1 2 3 4 5 6 
#
# 1 86.1802 36.0901 14.9331 21.8639 0.7266 -11.0867
# 2 36.0901 126.4517 33.7420 27.2996 -4.3322 -6.6764
# 3 14.9331 33.7420 81.2157 23.8475 1.9594 -6.5979
# 4 21.8639 27.2996 23.8475 28.9997 -1.6054 -2.4905
# 5 0.7266 -4.3322 1.9594 -1.6054 39.6380 5.9725
# 6 -11.0867 -6.6764 -6.5979 -2.4905 5.9725 37.2772
#
#
#
# Elastic Compliance Matrix: (Units=1/GPa)
#
#
# Indices 1 2 3 4 5 6 
#
# 1 0.015541 -0.002445 0.001603 -0.010480 -0.001664 0.004034
# 2 -0.002445 0.010574 -0.002098 -0.006312 0.001017 0.000211
# 3 0.001603 -0.002098 0.016992 -0.013099 -0.002014 0.002556
# 4 -0.010480 -0.006312 -0.013099 0.058997 0.003007 -0.003106
# 5 -0.001664 0.001017 -0.002014 0.003007 0.026297 -0.004682
# 6 0.004034 0.000211 0.002556 -0.003106 -0.004682 0.029059
#
#
# Mechanical properties :
#
#
# Convention : Reuss Voigt Hill
#
# Bulk Modulus (GPa) = 26.86084 51.48644 39.17364
# Shear Modulus (GPa) = 28.44961 35.12182 31.78572
#
# Velocity S-wave (km/s) = 3.63492 4.03873 3.84213
# Velocity P-wave (km/s) = 5.48558 6.75721 6.15433
#
# Compressibility (1/GPa) = 0.03722891
#
# Stress axis : x y z
#
# Youngs Moduli (GPa) = 64.34432 94.56897 58.85027
#
# Poissons Ratio (x) = 0.23122 -0.09435
# Poissons Ratio (y) = 0.15732 0.12346
# Poissons Ratio (z) = -0.10316 0.19839
#
# Static dielectric constant tensor:
#      x y z
#    x 0.887820 -2.681750 -0.180370 
#    y -2.681750 1.943490 -0.069320 
#    z -0.180370 -0.069320 4.022610 
# 
# 
# High freq. dielectric constant tensor:
#      x y z
#    x 1.855290 -0.007640 -0.011600 
#    y -0.007640 1.847780 0.019910 
#    z -0.011600 0.019910 1.841270 
# 
# From -- ./inp_files/38208.got.cif
#   From: 2010.06.25/outbox.cif.g09.slc.cpg/sg2_20_cif.got.tgz:38208.got - 2010.06.27 13:26:56.
