data_PCOD8008753
_publ_section_title
;
Structure prediction by ZEFSAII (Michael W. Deem and Ramdas Pophale) SiO2 
 PCOD8008753
Probable space group: P -1
;
_chemical_formula_sum "Si O2"
_cell_formula_units_Z 14
_cell_length_a 13.841491
_cell_length_b 10.867710
_cell_length_c 14.633432
_cell_angle_alpha 102.273591
_cell_angle_beta 51.158253
_cell_angle_gamma 146.707770
_cell_volume 644.228811
_symmetry_space_group_name_H-M "P -1"
_symmetry_group_IT_number 2
_symmetry_cell_setting 'triclinic'
loop_
_space_group_symop_operation_xyz
x,y,z
-x,-y,-z
loop_
_atom_site_type_symbol
_atom_site_label
_atom_site_fract_x
_atom_site_fract_y
_atom_site_fract_z
Si Si1 0.638789 0.638693 0.267526
Si Si2 0.460859 0.193526 0.580698
Si Si3 0.831316 0.159701 0.484514
Si Si4 0.226438 0.037057 0.965657
Si Si5 0.152413 0.222013 0.348058
Si Si6 0.914347 0.783200 0.291183
Si Si7 0.550838 0.134324 0.696294
O O1 0.715096 0.859888 0.265413
O O2 0.276109 0.282712 0.383204
O O3 0.620538 0.568537 0.371043
O O4 0.916620 0.824712 0.076267
O O5 0.583542 0.205899 0.582037
O O6 0.776948 0.543233 0.396781
O O7 0.219478 0.908404 0.604493
O O8 0.540573 0.971102 0.672701
O O9 0.862845 0.053856 0.500348
O O10 0.150538 0.542272 0.367115
O O11 0.540469 0.412324 0.814520
O O12 0.239785 0.909711 0.891842
O O13 0.183963 0.982502 0.092028
O O14 0.084460 0.047067 0.292384
#
# Coordination Sequence:
#
# PCOD8008753 Si02
#       7
#     2   2   2   2   2   2   2
#     4  10  21  34  56  86 117 139 183 228 285 330
#     4  12  21  38  57  87 114 146 185 232 280 331
#     4  10  21  37  61  83 109 147 194 231 264 327
#     4   9  20  38  53  84 118 141 186 229 274 335
#     4  11  19  36  60  84 112 149 183 231 276 330
#     4  10  24  34  57  87 119 143 179 231 291 331
#     4  10  22  40  60  82 108 151 193 228 268 328
#
# _framework density 21.73141
#
# number of rings (size 3 to 8) (size 9 to 14) (size 15 to 20)
#    0.857    0.857    4.286    1.714    0.000    1.714 
#    0.000    0.714    0.000    7.714    0.000    0.000 
#    0.000    0.000    0.000    0.000    0.000    0.000 
#
# Total GULP energy -173436.945543 kJ/mol
# GULP energy per Si atom -12388.353253 kJ/mol
# Density = 2.168195 g / cm^3
# Si number density = 21.731410 Si / 1000 Ang^3
#
#
#
# Elastic Constant Matrix: (Units=GPa)
#
#
# Indices 1 2 3 4 5 6 
#
# 1 78.4987 47.5017 38.6707 22.2727 -9.5177 16.4799
# 2 47.5017 124.6709 31.0697 27.9855 -17.9495 30.4512
# 3 38.6707 31.0697 59.6772 29.9229 -21.6375 6.6848
# 4 22.2727 27.9855 29.9229 34.3493 -7.2065 -1.3943
# 5 -9.5177 -17.9495 -21.6375 -7.2065 31.1721 4.7597
# 6 16.4799 30.4512 6.6848 -1.3943 4.7597 28.4485
#
#
#
# Elastic Compliance Matrix: (Units=1/GPa)
#
#
# Indices 1 2 3 4 5 6 
#
# 1 0.022540 -0.004943 -0.013064 -0.000312 -0.004500 -0.003958
# 2 -0.004943 0.020983 0.013656 -0.022923 0.018889 -0.027090
# 3 -0.013064 0.013656 0.059099 -0.047266 0.038504 -0.029695
# 4 -0.000312 -0.022923 -0.047266 0.083956 -0.033652 0.045570
# 5 -0.004500 0.018889 0.038504 -0.033652 0.066552 -0.039444
# 6 -0.003958 -0.027090 -0.029695 0.045570 -0.039444 0.082251
#
#
# Mechanical properties :
#
#
# Convention : Reuss Voigt Hill
#
# Bulk Modulus (GPa) = 10.64738 55.25900 32.95319
# Shear Modulus (GPa) = 13.31941 28.50097 20.91019
#
# Velocity S-wave (km/s) = 2.47839 3.62541 3.10532
# Velocity P-wave (km/s) = 3.61940 6.55806 5.29661
#
# Compressibility (1/GPa) = 0.09391981
#
# Stress axis : x y z
#
# Youngs Moduli (GPa) = 44.36537 47.65665 16.92070
#
# Poissons Ratio (x) = 0.23559 0.22105
# Poissons Ratio (y) = 0.21932 -0.23107
# Poissons Ratio (z) = 0.57959 -0.65080
#
# Static dielectric constant tensor:
#      x y z
#    x 4.255750 0.043810 -0.354960 
#    y 0.043810 4.019230 0.329780 
#    z -0.354960 0.329780 4.015540 
# 
# 
# High freq. dielectric constant tensor:
#      x y z
#    x 1.852250 0.012020 -0.009860 
#    y 0.012020 1.855880 0.023270 
#    z -0.009860 0.023270 1.839480 
# 
# From -- ./inp_files/531879.got.cif
#   From: 2010.06.25/outbox.cif.g09.slc.cpg/sg2_266_cif.got.tgz:531879.got - 2010.06.27 13:26:56.
