data_PCOD8008530
_publ_section_title
;
Structure prediction by ZEFSAII (Michael W. Deem and Ramdas Pophale) SiO2 
 PCOD8008530
Probable space group: P -1
;
_chemical_formula_sum "Si O2"
_cell_formula_units_Z 16
_cell_length_a 13.893473
_cell_length_b 10.532052
_cell_length_c 8.879068
_cell_angle_alpha 55.547634
_cell_angle_beta 102.984487
_cell_angle_gamma 133.609780
_cell_volume 745.314925
_symmetry_space_group_name_H-M "P -1"
_symmetry_group_IT_number 2
_symmetry_cell_setting 'triclinic'
loop_
_space_group_symop_operation_xyz
x,y,z
-x,-y,-z
loop_
_atom_site_type_symbol
_atom_site_label
_atom_site_fract_x
_atom_site_fract_y
_atom_site_fract_z
Si Si1 0.414259 0.159584 0.701559
Si Si2 0.794735 0.259287 0.884031
Si Si3 0.786490 0.705349 0.212227
Si Si4 0.023770 0.812665 0.050834
Si Si5 0.397652 0.876204 0.364655
Si Si6 0.319704 0.380542 0.437381
Si Si7 0.377157 0.673149 0.775960
Si Si8 0.831817 0.588542 0.865853
O O1 0.477303 0.105209 0.644503
O O2 0.338767 0.216725 0.547069
O O3 0.534774 0.370908 0.703526
O O4 0.304675 0.955234 0.906245
O O5 0.925358 0.306407 0.836727
O O6 0.709809 0.234754 0.732358
O O7 0.864134 0.477918 0.847076
O O8 0.741244 0.628704 0.418411
O O9 0.654104 0.529897 0.172076
O O10 0.909882 0.721651 0.199645
O O11 0.839768 0.934932 0.047872
O O12 0.964287 0.781055 0.882896
O O13 0.325765 0.736235 0.585009
O O14 0.464235 0.117264 0.263191
O O15 0.214554 0.313817 0.313024
O O16 0.289343 0.602989 0.940838
#
# Coordination Sequence:
#
# PCOD8008530 Si02
#       8
#     2   2   2   2   2   2   2   2
#     4  11  21  37  66  95 124 157 200 254 312 373
#     4  12  21  41  64  95 123 164 205 250 310 368
#     4  10  20  44  60  81 128 165 200 256 302 354
#     4  10  24  40  64  86 124 169 209 253 298 356
#     4  11  21  38  64  93 128 163 194 255 318 367
#     4  11  22  39  67  94 122 164 201 251 319 365
#     4  10  21  38  61  89 125 161 198 254 309 365
#     4  11  22  40  64  92 123 163 209 257 298 357
#
# _framework density 21.467434999999998
#
# number of rings (size 3 to 8) (size 9 to 14) (size 15 to 20)
#    0.000    1.250    5.000    1.500    0.000    0.500 
#    0.000   15.625    0.000    0.000    0.000    0.000 
#    0.000    0.000    0.000    0.000    0.000    0.000 
#
# Total GULP energy -198329.661882 kJ/mol
# GULP energy per Si atom -12395.603868 kJ/mol
# Density = 2.141857 g / cm^3
# Si number density = 21.467435 Si / 1000 Ang^3
#
#
#
# Elastic Constant Matrix: (Units=GPa)
#
#
# Indices 1 2 3 4 5 6 
#
# 1 105.2910 15.3537 35.2749 19.5800 18.6631 -17.1944
# 2 15.3537 108.9643 10.2495 7.9305 12.7860 -4.3894
# 3 35.2749 10.2495 60.7949 10.0787 6.6434 -13.7351
# 4 19.5800 7.9305 10.0787 23.2586 -2.8536 -9.6537
# 5 18.6631 12.7860 6.6434 -2.8536 25.9459 -4.2816
# 6 -17.1944 -4.3894 -13.7351 -9.6537 -4.2816 14.5786
#
#
#
# Elastic Compliance Matrix: (Units=1/GPa)
#
#
# Indices 1 2 3 4 5 6 
#
# 1 0.015768 0.000511 -0.005525 -0.011175 -0.010924 0.002937
# 2 0.000511 0.010205 -0.001064 -0.005298 -0.006143 -0.002639
# 3 -0.005525 -0.001064 0.023102 0.002196 0.001606 0.016855
# 4 -0.011175 -0.005298 0.002196 0.074818 0.025637 0.044366
# 5 -0.010924 -0.006143 0.001606 0.025637 0.055127 0.019947
# 6 0.002937 -0.002639 0.016855 0.044366 0.019947 0.122380
#
#
# Mechanical properties :
#
#
# Convention : Reuss Voigt Hill
#
# Bulk Modulus (GPa) = 27.08529 44.08959 35.58744
# Shear Modulus (GPa) = 15.34388 27.03474 21.18931
#
# Velocity S-wave (km/s) = 2.67638 3.55256 3.14513
# Velocity P-wave (km/s) = 4.71116 6.11638 5.45917
#
# Compressibility (1/GPa) = 0.03692041
#
# Stress axis : x y z
#
# Youngs Moduli (GPa) = 63.41887 97.98685 43.28558
#
# Poissons Ratio (x) = -0.05011 0.23917
# Poissons Ratio (y) = -0.03243 0.04605
# Poissons Ratio (z) = 0.35041 0.10425
#
# Static dielectric constant tensor:
#      x y z
#    x 3.812230 -0.099000 -0.136130 
#    y -0.099000 4.161200 -0.061630 
#    z -0.136130 -0.061630 3.758870 
# 
# 
# High freq. dielectric constant tensor:
#      x y z
#    x 1.819740 -0.011420 -0.014000 
#    y -0.011420 1.857380 -0.007140 
#    z -0.014000 -0.007140 1.834380 
# 
# From -- ./inp_files/242586.got.cif
#   From: 2010.06.25/outbox.cif.g09.slc.cpg/sg2_122_cif.got.tgz:242586.got - 2010.06.27 13:26:56.
