data_PCOD8008914
_publ_section_title
;
Structure prediction by ZEFSAII (Michael W. Deem and Ramdas Pophale) SiO2 
 PCOD8008914
Probable space group: P -1
;
_chemical_formula_sum "Si O2"
_cell_formula_units_Z 16
_cell_length_a 15.415810
_cell_length_b 11.586345
_cell_length_c 12.223851
_cell_angle_alpha 111.602092
_cell_angle_beta 152.485452
_cell_angle_gamma 84.633125
_cell_volume 787.851730
_symmetry_space_group_name_H-M "P -1"
_symmetry_group_IT_number 2
_symmetry_cell_setting 'triclinic'
loop_
_space_group_symop_operation_xyz
x,y,z
-x,-y,-z
loop_
_atom_site_type_symbol
_atom_site_label
_atom_site_fract_x
_atom_site_fract_y
_atom_site_fract_z
Si Si1 0.075266 0.018211 0.713247
Si Si2 0.805834 0.677653 0.973929
Si Si3 0.518058 0.045050 0.161214
Si Si4 0.328737 0.468550 0.448421
Si Si5 0.309837 0.735352 0.886209
Si Si6 0.487042 0.422290 0.817228
Si Si7 0.145685 0.300380 0.574872
Si Si8 0.841305 0.355914 0.560902
O O1 0.057967 0.145492 0.795831
O O2 0.323588 0.056856 0.000427
O O3 0.000000 0.000000 0.500000
O O4 0.908038 0.864812 0.535073
O O5 0.901895 0.600318 0.132320
O O6 0.548149 0.610243 0.691434
O O7 0.825759 0.645902 0.857932
O O8 0.733987 0.209765 0.468561
O O9 0.500000 0.000000 0.000000
O O10 0.505044 0.910365 0.166166
O O11 0.406084 0.386207 0.588831
O O12 0.186069 0.520339 0.371612
O O13 0.259982 0.673735 0.684538
O O14 0.078209 0.699594 0.665651
O O15 0.396669 0.659156 0.035184
O O16 0.262928 0.374194 0.617251
O O17 0.670513 0.599134 0.091591
#
# Coordination Sequence:
#
# PCOD8008914 Si02
#       8
#     2   2   2   2   2   2   2   2
#     4  11  20  35  61  89 121 147 195 251 301 343
#     4  11  24  40  63  87 118 158 199 250 296 348
#     4   9  19  32  55  91 120 145 187 248 297 346
#     4  11  24  42  58  88 119 161 203 238 295 358
#     4  10  21  35  58  92 120 151 194 245 302 347
#     4  11  22  37  60  83 125 161 192 237 294 367
#     4  10  22  35  56  91 118 153 194 244 298 348
#     4  11  20  37  61  88 121 151 200 251 298 344
#
# _framework density 20.308391
#
# number of rings (size 3 to 8) (size 9 to 14) (size 15 to 20)
#    0.000    1.500    1.250    6.000    5.250    1.000 
#    0.000    0.625    0.000    1.500    0.000    0.000 
#    0.000    0.000    0.000    0.000    0.000    0.000 
#
# Total GULP energy -198283.760017 kJ/mol
# GULP energy per Si atom -12392.735001 kJ/mol
# Density = 2.026217 g / cm^3
# Si number density = 20.308391 Si / 1000 Ang^3
#
#
#
# Elastic Constant Matrix: (Units=GPa)
#
#
# Indices 1 2 3 4 5 6 
#
# 1 63.8577 50.6395 24.4939 2.1006 -4.4295 -8.7779
# 2 50.6395 131.7062 49.9139 1.0979 -16.6039 -13.1001
# 3 24.4939 49.9139 63.2322 7.3763 -11.9745 1.2027
# 4 2.1006 1.0979 7.3763 27.9769 2.6877 0.2332
# 5 -4.4295 -16.6039 -11.9745 2.6877 40.0878 -1.5891
# 6 -8.7779 -13.1001 1.2027 0.2332 -1.5891 28.8246
#
#
#
# Elastic Compliance Matrix: (Units=1/GPa)
#
#
# Indices 1 2 3 4 5 6 
#
# 1 0.023333 -0.007466 -0.003420 -0.000459 -0.001355 0.003784
# 2 -0.007466 0.014396 -0.008263 0.001872 0.002732 0.004749
# 3 -0.003420 -0.008263 0.025266 -0.006414 0.003955 -0.005581
# 4 -0.000459 0.001872 -0.006414 0.037748 -0.003703 0.000469
# 5 -0.001355 0.002732 0.003955 -0.003703 0.027444 0.002207
# 6 0.003784 0.004749 -0.005581 0.000469 0.002207 0.038354
#
#
# Mechanical properties :
#
#
# Convention : Reuss Voigt Hill
#
# Bulk Modulus (GPa) = 40.49129 56.54341 48.51735
# Shear Modulus (GPa) = 23.46623 28.29445 25.88034
#
# Velocity S-wave (km/s) = 3.40294 3.73666 3.57370
# Velocity P-wave (km/s) = 5.95160 6.82053 6.40083
#
# Compressibility (1/GPa) = 0.02469667
#
# Stress axis : x y z
#
# Youngs Moduli (GPa) = 42.85690 69.46400 39.57930
#
# Poissons Ratio (x) = 0.51860 0.13537
# Poissons Ratio (y) = 0.31996 0.32705
# Poissons Ratio (z) = 0.14658 0.57399
#
# Static dielectric constant tensor:
#      x y z
#    x 3.693770 -0.002290 0.257710 
#    y -0.002290 3.515280 0.098230 
#    z 0.257710 0.098230 3.700480 
# 
# 
# High freq. dielectric constant tensor:
#      x y z
#    x 1.787580 -0.011110 0.027650 
#    y -0.011110 1.800370 -0.001210 
#    z 0.027650 -0.001210 1.774460 
# 
# From -- ./inp_files/452601.got.cif
#   From: 2010.06.25/outbox.cif.g09.slc.cpg/sg2_227_cif.got.tgz:452601.got - 2010.06.27 13:26:56.
