data_PCOD8008329
_publ_section_title
;
Structure prediction by ZEFSAII (Michael W. Deem and Ramdas Pophale) SiO2 
 PCOD8008329
Probable space group: P -1
;
_chemical_formula_sum "Si O2"
_cell_formula_units_Z 16
_cell_length_a 19.073803
_cell_length_b 21.595715
_cell_length_c 9.158949
_cell_angle_alpha 142.857114
_cell_angle_beta 138.341434
_cell_angle_gamma 18.785259
_cell_volume 733.001763
_symmetry_space_group_name_H-M "P -1"
_symmetry_group_IT_number 2
_symmetry_cell_setting 'triclinic'
loop_
_space_group_symop_operation_xyz
x,y,z
-x,-y,-z
loop_
_atom_site_type_symbol
_atom_site_label
_atom_site_fract_x
_atom_site_fract_y
_atom_site_fract_z
Si Si1 0.498999 0.908249 0.938885
Si Si2 0.226546 0.516587 0.426714
Si Si3 0.601504 0.035263 0.796741
Si Si4 0.799528 0.292187 0.689166
Si Si5 0.545454 0.317196 0.311326
Si Si6 0.089364 0.659434 0.796278
Si Si7 0.949743 0.777758 0.231176
Si Si8 0.823388 0.574636 0.298607
O O1 0.713064 0.655528 0.787557
O O2 0.446763 0.988805 0.175344
O O3 0.306114 0.997830 0.759022
O O4 0.500000 0.000000 0.000000
O O5 0.395047 0.442861 0.458551
O O6 0.183536 0.604055 0.680270
O O7 0.999721 0.712826 0.355392
O O8 0.607961 0.149128 0.058211
O O9 0.398498 0.179799 0.643391
O O10 0.846667 0.812112 0.697243
O O11 0.760263 0.202832 0.466412
O O12 0.572185 0.538166 0.744851
O O13 0.973310 0.176014 0.617354
O O14 0.889184 0.254655 0.914962
O O15 0.245096 0.443153 0.710377
O O16 0.066923 0.587718 0.962624
O O17 0.000000 0.500000 0.500000
#
# Coordination Sequence:
#
# PCOD8008329 Si02
#       8
#     2   2   2   2   2   2   2   2
#     4  11  23  39  64  87 118 165 210 249 304 369
#     4  10  23  40  59  89 131 161 197 261 306 358
#     4  11  21  43  62  92 122 161 213 248 301 381
#     4   9  17  37  68  89 119 163 208 251 308 360
#     4   9  18  38  68  87 118 170 205 249 309 366
#     4  11  23  38  61  92 128 159 203 259 304 362
#     4  10  20  43  60  90 124 157 208 256 297 375
#     4  11  23  40  65  86 124 162 207 259 302 357
#
# _framework density 21.828050999999999
#
# number of rings (size 3 to 8) (size 9 to 14) (size 15 to 20)
#    0.000    1.750    7.500    0.000    1.750    4.000 
#    0.000    0.000    0.000    2.250    0.000    0.000 
#    0.000    0.000    0.000    0.000    0.000    0.000 
#
# Total GULP energy -198241.092527 kJ/mol
# GULP energy per Si atom -12390.068283 kJ/mol
# Density = 2.177837 g / cm^3
# Si number density = 21.828051 Si / 1000 Ang^3
#
#
#
# Elastic Constant Matrix: (Units=GPa)
#
#
# Indices 1 2 3 4 5 6 
#
# 1 109.4701 28.6198 47.9949 -13.2833 -13.8266 10.6096
# 2 28.6198 79.9728 16.8667 -27.2740 -11.0444 1.9109
# 3 47.9949 16.8667 70.4752 -28.3683 -15.8589 1.9467
# 4 -13.2833 -27.2740 -28.3683 37.6916 -4.1227 0.6706
# 5 -13.8266 -11.0444 -15.8589 -4.1227 37.4734 -6.3791
# 6 10.6096 1.9109 1.9467 0.6706 -6.3791 28.6425
#
#
#
# Elastic Compliance Matrix: (Units=1/GPa)
#
#
# Indices 1 2 3 4 5 6 
#
# 1 0.015729 -0.006538 -0.013941 -0.010027 -0.003994 -0.005097
# 2 -0.006538 0.021972 0.011096 0.023185 0.011695 0.002264
# 3 -0.013941 0.011096 0.039203 0.034653 0.019427 0.005275
# 4 -0.010027 0.023185 0.034653 0.068632 0.026031 0.004003
# 5 -0.003994 0.011695 0.019427 0.026031 0.041093 0.007921
# 6 -0.005097 0.002264 0.005275 0.004003 0.007921 0.037962
#
#
# Mechanical properties :
#
#
# Convention : Reuss Voigt Hill
#
# Bulk Modulus (GPa) = 17.20052 49.65345 33.42699
# Shear Modulus (GPa) = 19.03042 31.85727 25.44384
#
# Velocity S-wave (km/s) = 2.95589 3.82444 3.41786
# Velocity P-wave (km/s) = 4.42118 6.50375 5.56082
#
# Compressibility (1/GPa) = 0.05813777
#
# Stress axis : x y z
#
# Youngs Moduli (GPa) = 63.57522 45.51244 25.50833
#
# Poissons Ratio (x) = 0.29756 0.35562
# Poissons Ratio (y) = 0.41566 -0.28304
# Poissons Ratio (z) = 0.88632 -0.50501
#
# Static dielectric constant tensor:
#      x y z
#    x 4.125530 0.136080 0.055660 
#    y 0.136080 4.230160 -0.351260 
#    z 0.055660 -0.351260 3.827580 
# 
# 
# High freq. dielectric constant tensor:
#      x y z
#    x 1.854700 0.018100 0.005950 
#    y 0.018100 1.864990 -0.024450 
#    z 0.005950 -0.024450 1.836890 
# 
# From -- ./inp_files/338154.got.cif
#   From: 2010.06.25/outbox.cif.g09.slc.cpg/sg2_170_cif.got.tgz:338154.got - 2010.06.27 13:26:56.
