data_PCOD8008007
_publ_section_title
;
Structure prediction by ZEFSAII (Michael W. Deem and Ramdas Pophale) SiO2 
 PCOD8008007
Probable space group: P -1
;
_chemical_formula_sum "Si O2"
_cell_formula_units_Z 16
_cell_length_a 11.806533
_cell_length_b 8.390669
_cell_length_c 23.260130
_cell_angle_alpha 120.157537
_cell_angle_beta 153.154044
_cell_angle_gamma 50.486431
_cell_volume 788.555312
_symmetry_space_group_name_H-M "P -1"
_symmetry_group_IT_number 2
_symmetry_cell_setting 'triclinic'
loop_
_space_group_symop_operation_xyz
x,y,z
-x,-y,-z
loop_
_atom_site_type_symbol
_atom_site_label
_atom_site_fract_x
_atom_site_fract_y
_atom_site_fract_z
Si Si1 0.406995 0.233222 0.479608
Si Si2 0.502261 0.850562 0.615358
Si Si3 0.091325 0.629205 0.797407
Si Si4 0.753784 0.757807 0.001695
Si Si5 0.374368 0.525428 0.191439
Si Si6 0.787224 0.686193 0.396811
Si Si7 0.668905 0.393825 0.418760
Si Si8 0.567009 0.759153 0.042483
O O1 0.576004 0.217467 0.493692
O O2 0.484829 0.365038 0.584066
O O3 0.064774 0.355851 0.331884
O O4 0.500000 0.000000 0.500000
O O5 0.402771 0.758890 0.605087
O O6 0.845532 0.764444 0.757920
O O7 0.347724 0.099984 0.590311
O O8 0.259611 0.390673 0.853339
O O9 0.295662 0.729978 0.898590
O O10 0.633955 0.629090 0.888037
O O11 0.540798 0.004823 0.941519
O O12 0.765317 0.705169 0.065428
O O13 0.066309 0.695480 0.107273
O O14 0.528729 0.644839 0.251861
O O15 0.563848 0.389022 0.306078
O O16 0.000000 0.500000 0.500000
O O17 0.986545 0.697034 0.438219
#
# Coordination Sequence:
#
# PCOD8008007 Si02
#       8
#     2   2   2   2   2   2   2   2
#     4  10  22  39  63  92 117 167 204 246 315 367
#     4  10  21  40  58  89 122 163 199 249 305 359
#     4   9  22  38  64  89 125 154 203 259 307 359
#     4  10  22  39  65  91 117 165 207 255 303 355
#     4  10  22  40  60  90 127 160 203 245 312 371
#     4  10  21  38  59  85 121 164 198 246 303 370
#     4  11  22  39  60  92 127 158 202 255 301 369
#     4  10  20  42  63  91 119 159 213 256 298 356
#
# _framework density 20.290268999999999
#
# number of rings (size 3 to 8) (size 9 to 14) (size 15 to 20)
#    0.750    1.250    0.000    3.750    3.500    0.000 
#    6.750    0.000    0.000    6.000    0.000    0.000 
#    0.000    0.000    0.000    0.000    0.000    0.000 
#
# Total GULP energy -198273.352327 kJ/mol
# GULP energy per Si atom -12392.084520 kJ/mol
# Density = 2.024409 g / cm^3
# Si number density = 20.290269 Si / 1000 Ang^3
#
#
#
# Elastic Constant Matrix: (Units=GPa)
#
#
# Indices 1 2 3 4 5 6 
#
# 1 55.0546 13.0922 14.6519 -6.8089 14.7863 -7.0586
# 2 13.0922 105.5307 27.7832 -4.9291 3.6051 -12.8148
# 3 14.6519 27.7832 75.6910 -3.5980 5.9738 -4.1271
# 4 -6.8089 -4.9291 -3.5980 23.6739 0.1226 -4.9447
# 5 14.7863 3.6051 5.9738 0.1226 38.9207 -1.5711
# 6 -7.0586 -12.8148 -4.1271 -4.9447 -1.5711 31.3726
#
#
#
# Elastic Compliance Matrix: (Units=1/GPa)
#
#
# Indices 1 2 3 4 5 6 
#
# 1 0.022792 -0.000853 -0.002857 0.007054 -0.007957 0.005117
# 2 -0.000853 0.011157 -0.003582 0.002427 0.000005 0.004277
# 3 -0.002857 -0.003582 0.015185 0.000737 -0.000917 -0.000038
# 4 0.007054 0.002427 0.000737 0.046977 -0.002764 0.009941
# 5 -0.007957 0.000005 -0.000917 -0.002764 0.028829 -0.000901
# 6 0.005117 0.004277 -0.000038 0.009941 -0.000901 0.036290
#
#
# Mechanical properties :
#
#
# Convention : Reuss Voigt Hill
#
# Bulk Modulus (GPa) = 28.94261 38.59234 33.76748
# Shear Modulus (GPa) = 26.69064 30.84335 28.76700
#
# Velocity S-wave (km/s) = 3.63083 3.90308 3.76942
# Velocity P-wave (km/s) = 5.64558 6.27483 5.96850
#
# Compressibility (1/GPa) = 0.03455114
#
# Stress axis : x y z
#
# Youngs Moduli (GPa) = 43.87423 89.62704 65.85510
#
# Poissons Ratio (x) = 0.07644 0.18813
# Poissons Ratio (y) = 0.03742 0.23591
# Poissons Ratio (z) = 0.12533 0.32106
#
# Static dielectric constant tensor:
#      x y z
#    x 3.910680 -0.033970 0.370700 
#    y -0.033970 3.604980 0.003990 
#    z 0.370700 0.003990 3.704660 
# 
# 
# High freq. dielectric constant tensor:
#      x y z
#    x 1.797690 -0.000380 0.016760 
#    y -0.000380 1.796290 -0.000280 
#    z 0.016760 -0.000280 1.779050 
# 
# From -- ./inp_files/609629.got.cif
#   From: 2010.06.25/outbox.cif.g09.slc.cpg/sg2_305_cif.got.tgz:609629.got - 2010.06.27 13:26:56.
