data_PCOD8008678
_publ_section_title
;
Structure prediction by ZEFSAII (Michael W. Deem and Ramdas Pophale) SiO2 
 PCOD8008678
Probable space group: P -1
;
_chemical_formula_sum "Si O2"
_cell_formula_units_Z 14
_cell_length_a 15.193998
_cell_length_b 12.747727
_cell_length_c 13.006579
_cell_angle_alpha 130.915620
_cell_angle_beta 143.684947
_cell_angle_gamma 27.677359
_cell_volume 677.077865
_symmetry_space_group_name_H-M "P -1"
_symmetry_group_IT_number 2
_symmetry_cell_setting 'triclinic'
loop_
_space_group_symop_operation_xyz
x,y,z
-x,-y,-z
loop_
_atom_site_type_symbol
_atom_site_label
_atom_site_fract_x
_atom_site_fract_y
_atom_site_fract_z
Si Si1 0.142013 0.316508 0.427172
Si Si2 0.478373 0.198809 0.503719
Si Si3 0.957536 0.463595 0.829145
Si Si4 0.641943 0.035718 0.140096
Si Si5 0.769693 0.180234 0.475908
Si Si6 0.679653 0.316913 0.700269
Si Si7 0.212774 0.499400 0.955536
O O1 0.286930 0.321065 0.496290
O O2 0.000000 0.500000 0.500000
O O3 0.936020 0.378066 0.212551
O O4 0.341962 0.066469 0.506265
O O5 0.329923 0.327350 0.338802
O O6 0.640012 0.218564 0.679408
O O7 0.093489 0.458529 0.873152
O O8 0.075742 0.218513 0.787464
O O9 0.000000 0.500000 0.000000
O O10 0.636827 0.129101 0.301107
O O11 0.504515 0.235778 0.052090
O O12 0.500000 0.000000 0.000000
O O13 0.838446 0.149994 0.641802
O O14 0.589298 0.436873 0.434431
O O15 0.000000 0.000000 0.500000
O O16 0.821448 0.331909 0.905485
#
# Coordination Sequence:
#
# PCOD8008678 Si02
#       7
#     2   2   2   2   2   2   2
#     4  10  23  44  65  82 116 156 211 255 289 346
#     4  10  23  40  61  90 112 160 203 243 302 354
#     4  10  21  32  60  87 120 151 194 245 297 349
#     4   9  19  33  53  83 118 147 197 234 288 350
#     4  10  21  35  54  86 126 164 185 229 299 368
#     4  10  22  37  58  84 129 152 195 245 297 356
#     4   9  21  39  55  89 118 158 199 245 294 357
#
# _framework density 20.67709
#
# number of rings (size 3 to 8) (size 9 to 14) (size 15 to 20)
#    0.000    2.286    0.000    0.857   12.000    4.000 
#    0.000    0.714    0.000    0.000    0.000    0.000 
#    0.000    0.000    0.000    0.000    0.000    0.000 
#
# Total GULP energy -173453.751908 kJ/mol
# GULP energy per Si atom -12389.553708 kJ/mol
# Density = 2.063003 g / cm^3
# Si number density = 20.677090 Si / 1000 Ang^3
#
#
#
# Elastic Constant Matrix: (Units=GPa)
#
#
# Indices 1 2 3 4 5 6 
#
# 1 72.6380 44.6650 34.1277 13.5075 -3.2760 -6.3964
# 2 44.6650 126.0376 60.7176 5.9990 -15.2482 -11.1179
# 3 34.1277 60.7176 125.4238 10.0581 -16.2145 -6.3721
# 4 13.5075 5.9990 10.0581 39.5209 1.6587 1.4233
# 5 -3.2760 -15.2482 -16.2145 1.6587 27.7024 8.6015
# 6 -6.3964 -11.1179 -6.3721 1.4233 8.6015 28.7038
#
#
#
# Elastic Compliance Matrix: (Units=1/GPa)
#
#
# Indices 1 2 3 4 5 6 
#
# 1 0.019381 -0.005565 -0.002377 -0.005159 -0.002691 0.002698
# 2 -0.005565 0.012340 -0.004030 0.000861 0.003215 0.001639
# 3 -0.002377 -0.004030 0.011228 -0.001589 0.004431 -0.000847
# 4 -0.005159 0.000861 -0.001589 0.027497 -0.002124 -0.001896
# 5 -0.002691 0.003215 0.004431 -0.002124 0.043807 -0.011393
# 6 0.002698 0.001639 -0.000847 -0.001896 -0.011393 0.039395
#
#
# Mechanical properties :
#
#
# Convention : Reuss Voigt Hill
#
# Bulk Modulus (GPa) = 52.61574 67.01334 59.81454
# Shear Modulus (GPa) = 27.18473 31.49136 29.33804
#
# Velocity S-wave (km/s) = 3.62985 3.90681 3.77087
# Velocity P-wave (km/s) = 6.56273 7.26847 6.92460
#
# Compressibility (1/GPa) = 0.01900572
#
# Stress axis : x y z
#
# Youngs Moduli (GPa) = 51.59654 81.03556 89.06674
#
# Poissons Ratio (x) = 0.45100 0.21167
# Poissons Ratio (y) = 0.28716 0.35891
# Poissons Ratio (z) = 0.12262 0.32654
#
# Static dielectric constant tensor:
#      x y z
#    x 3.248340 -0.526080 0.548340 
#    y -0.526080 4.448620 -0.157700 
#    z 0.548340 -0.157700 4.079190 
# 
# 
# High freq. dielectric constant tensor:
#      x y z
#    x 1.779210 0.000810 0.016790 
#    y 0.000810 1.817780 0.006620 
#    z 0.016790 0.006620 1.813220 
# 
# From -- ./inp_files/273702.got.cif
#   From: 2010.06.25/outbox.cif.g09.slc.cpg/sg2_137_cif.got.tgz:273702.got - 2010.06.27 13:26:56.
