data_PCOD8008133
_publ_section_title
;
Structure prediction by ZEFSAII (Michael W. Deem and Ramdas Pophale) SiO2 
 PCOD8008133
Probable space group: P -1
;
_chemical_formula_sum "Si O2"
_cell_formula_units_Z 16
_cell_length_a 12.714289
_cell_length_b 8.663511
_cell_length_c 15.416945
_cell_angle_alpha 148.276335
_cell_angle_beta 118.361915
_cell_angle_gamma 74.264820
_cell_volume 752.662586
_symmetry_space_group_name_H-M "P -1"
_symmetry_group_IT_number 2
_symmetry_cell_setting 'triclinic'
loop_
_space_group_symop_operation_xyz
x,y,z
-x,-y,-z
loop_
_atom_site_type_symbol
_atom_site_label
_atom_site_fract_x
_atom_site_fract_y
_atom_site_fract_z
Si Si1 0.618928 0.785770 0.158181
Si Si2 0.867931 0.325442 0.269779
Si Si3 0.291544 0.311465 0.036762
Si Si4 0.401221 0.575993 0.560704
Si Si5 0.770894 0.827417 0.405788
Si Si6 0.458531 0.305214 0.625927
Si Si7 0.874744 0.258020 0.802123
Si Si8 0.861311 0.659461 0.606771
O O1 0.726882 0.899121 0.327889
O O2 0.558331 0.057172 0.239470
O O3 0.500000 0.500000 0.000000
O O4 0.700101 0.729542 0.082445
O O5 0.826725 0.536969 0.283526
O O6 0.852655 0.448667 0.418109
O O7 0.005323 0.324194 0.291709
O O8 0.784966 0.975185 0.073475
O O9 0.428837 0.395023 0.169303
O O10 0.238001 0.596353 0.167461
O O11 0.500000 0.500000 0.500000
O O12 0.400382 0.368774 0.544435
O O13 0.251292 0.476899 0.432991
O O14 0.642826 0.712298 0.350732
O O15 0.869083 0.114793 0.632669
O O16 0.500000 0.000000 0.500000
O O17 0.853338 0.990587 0.735213
O O18 0.000000 0.500000 0.000000
#
# Coordination Sequence:
#
# PCOD8008133 Si02
#       8
#     2   2   2   2   2   2   2   2
#     4  12  27  42  63 105 144 175 222 286 347 398
#     4  10  21  40  69  94 128 178 229 277 328 413
#     4  12  23  39  70 100 133 174 232 280 337 406
#     4  12  26  43  69  99 139 180 220 284 350 405
#     4  11  23  43  67  98 138 180 226 279 344 402
#     4  12  22  41  68  99 135 180 228 279 338 409
#     4  11  22  41  72  98 126 177 231 278 334 410
#     4  10  20  42  66  95 130 173 229 273 340 403
#
# _framework density 21.257866
#
# number of rings (size 3 to 8) (size 9 to 14) (size 15 to 20)
#    0.000    0.750    7.500    0.750    3.500    1.000 
#    0.000    2.500    0.000    2.250    0.000    0.000 
#    0.000    0.000    0.000    0.000    0.000    0.000 
#
# Total GULP energy -198227.954984 kJ/mol
# GULP energy per Si atom -12389.247187 kJ/mol
# Density = 2.120948 g / cm^3
# Si number density = 21.257866 Si / 1000 Ang^3
#
#
#
# Elastic Constant Matrix: (Units=GPa)
#
#
# Indices 1 2 3 4 5 6 
#
# 1 119.5577 29.2516 48.4041 1.1220 15.4913 -0.8740
# 2 29.2516 97.1403 36.0414 19.3254 -7.7553 -22.6201
# 3 48.4041 36.0414 98.6894 16.5462 16.4040 -14.5897
# 4 1.1220 19.3254 16.5462 40.3754 -7.0500 0.2498
# 5 15.4913 -7.7553 16.4040 -7.0500 43.0583 1.6992
# 6 -0.8740 -22.6201 -14.5897 0.2498 1.6992 26.5692
#
#
#
# Elastic Compliance Matrix: (Units=1/GPa)
#
#
# Indices 1 2 3 4 5 6 
#
# 1 0.011635 -0.003603 -0.005438 0.003315 -0.002000 -0.005574
# 2 -0.003603 0.016658 -0.001878 -0.006585 0.003426 0.012875
# 3 -0.005438 -0.001878 0.016881 -0.007013 -0.006276 0.007959
# 4 0.003315 -0.006585 -0.007013 0.031792 0.005894 -0.010024
# 5 -0.002000 0.003426 -0.006276 0.005894 0.028013 -0.002442
# 6 -0.005574 0.012875 0.007959 -0.010024 -0.002442 0.053036
#
#
# Mechanical properties :
#
#
# Convention : Reuss Voigt Hill
#
# Bulk Modulus (GPa) = 42.85389 60.30908 51.58148
# Shear Modulus (GPa) = 26.64779 35.44662 31.04721
#
# Velocity S-wave (km/s) = 3.54439 4.08788 3.82580
# Velocity P-wave (km/s) = 6.07891 7.12130 6.62065
#
# Compressibility (1/GPa) = 0.02333511
#
# Stress axis : x y z
#
# Youngs Moduli (GPa) = 85.95022 60.03204 59.23654
#
# Poissons Ratio (x) = 0.21630 0.32212
# Poissons Ratio (y) = 0.30969 0.11127
# Poissons Ratio (z) = 0.46739 0.11276
#
# Static dielectric constant tensor:
#      x y z
#    x -1.086140 -2.481700 -1.482700 
#    y -2.481700 2.928900 -0.495400 
#    z -1.482700 -0.495400 3.526430 
# 
# 
# High freq. dielectric constant tensor:
#      x y z
#    x 1.840220 -0.022530 0.012430 
#    y -0.022530 1.831020 0.023480 
#    z 0.012430 0.023480 1.831790 
# 
# From -- ./inp_files/299615.got.cif
#   From: 2010.06.25/outbox.cif.g09.slc.cpg/sg2_150_cif.got.tgz:299615.got - 2010.06.27 13:26:56.
