data_PCOD8008358
_publ_section_title
;
Structure prediction by ZEFSAII (Michael W. Deem and Ramdas Pophale) SiO2 
 PCOD8008358
Probable space group: P -1
;
_chemical_formula_sum "Si O2"
_cell_formula_units_Z 16
_cell_length_a 7.174584
_cell_length_b 11.495974
_cell_length_c 11.258533
_cell_angle_alpha 85.025371
_cell_angle_beta 68.555412
_cell_angle_gamma 62.068461
_cell_volume 759.575187
_symmetry_space_group_name_H-M "P -1"
_symmetry_group_IT_number 2
_symmetry_cell_setting 'triclinic'
loop_
_space_group_symop_operation_xyz
x,y,z
-x,-y,-z
loop_
_atom_site_type_symbol
_atom_site_label
_atom_site_fract_x
_atom_site_fract_y
_atom_site_fract_z
Si Si1 0.822317 0.852010 0.923360
Si Si2 0.583220 0.113341 0.832025
Si Si3 0.015847 0.561790 0.367911
Si Si4 0.699975 0.695109 0.781742
Si Si5 0.634928 0.373455 0.816925
Si Si6 0.706414 0.348817 0.062921
Si Si7 0.368253 0.204771 0.470278
Si Si8 0.754060 0.012677 0.547218
O O1 0.766666 0.794984 0.822338
O O2 0.083243 0.762518 0.904603
O O3 0.767225 0.002117 0.888862
O O4 0.668425 0.852264 0.069124
O O5 0.609393 0.244509 0.808605
O O6 0.616290 0.054466 0.698122
O O7 0.079490 0.451679 0.259017
O O8 0.210521 0.608973 0.321954
O O9 0.000000 0.500000 0.500000
O O10 0.768510 0.689073 0.402646
O O11 0.492453 0.692938 0.899478
O O12 0.614652 0.732805 0.663458
O O13 0.389401 0.506694 0.865377
O O14 0.769951 0.358192 0.910947
O O15 0.621577 0.119059 0.466165
O O16 0.228477 0.124724 0.487159
O O17 0.000000 0.000000 0.500000
#
# Coordination Sequence:
#
# PCOD8008358 Si02
#       8
#     2   2   2   2   2   2   2   2
#     4  11  24  42  64  96 133 174 204 266 324 382
#     4  11  24  42  62  97 134 162 222 261 314 393
#     4   9  20  39  67  92 122 167 213 263 316 377
#     4  10  20  43  64  92 129 162 215 259 316 388
#     4  10  21  42  63  98 128 165 218 264 313 389
#     4  10  23  40  66  92 130 173 208 262 326 371
#     4  10  22  40  63  87 122 169 210 258 318 364
#     4  11  24  40  60  90 126 165 210 264 308 375
#
# _framework density 21.064406000000002
#
# number of rings (size 3 to 8) (size 9 to 14) (size 15 to 20)
#    0.000    1.750    2.500    0.750    3.500    2.000 
#    0.000    0.000    0.000    8.250    0.000    0.000 
#    0.000    0.000    0.000    0.000    0.000    0.000 
#
# Total GULP energy -198328.384032 kJ/mol
# GULP energy per Si atom -12395.524002 kJ/mol
# Density = 2.101646 g / cm^3
# Si number density = 21.064406 Si / 1000 Ang^3
#
#
#
# Elastic Constant Matrix: (Units=GPa)
#
#
# Indices 1 2 3 4 5 6 
#
# 1 80.2127 35.3483 20.7860 1.9588 -5.5519 -6.1340
# 2 35.3483 116.9555 16.8557 3.6572 -10.5134 -0.6907
# 3 20.7860 16.8557 93.6695 3.2152 -9.2657 -3.2417
# 4 1.9588 3.6572 3.2152 32.7150 1.4159 -4.6316
# 5 -5.5519 -10.5134 -9.2657 1.4159 21.7236 -6.1803
# 6 -6.1340 -0.6907 -3.2417 -4.6316 -6.1803 26.5463
#
#
#
# Elastic Compliance Matrix: (Units=1/GPa)
#
#
# Indices 1 2 3 4 5 6 
#
# 1 0.015285 -0.004092 -0.002345 0.000202 0.001945 0.003627
# 2 -0.004092 0.010230 -0.000531 -0.001015 0.003730 -0.000053
# 3 -0.002345 -0.000531 0.011861 -0.000911 0.004788 0.001848
# 4 0.000202 -0.001015 -0.000911 0.031539 -0.001440 0.005076
# 5 0.001945 0.003730 0.004788 -0.001440 0.054319 0.013526
# 6 0.003627 -0.000053 0.001848 0.005076 0.013526 0.042767
#
#
# Mechanical properties :
#
#
# Convention : Reuss Voigt Hill
#
# Bulk Modulus (GPa) = 42.66043 48.53529 45.59786
# Shear Modulus (GPa) = 26.63135 30.72017 28.67576
#
# Velocity S-wave (km/s) = 3.55953 3.82303 3.69363
# Velocity P-wave (km/s) = 6.09836 6.52525 6.31541
#
# Compressibility (1/GPa) = 0.02344093
#
# Stress axis : x y z
#
# Youngs Moduli (GPa) = 65.42528 97.74992 84.31333
#
# Poissons Ratio (x) = 0.39997 0.19767
# Poissons Ratio (y) = 0.26770 0.04476
# Poissons Ratio (z) = 0.15339 0.05190
#
# Static dielectric constant tensor:
#      x y z
#    x 3.273310 -0.074040 -0.119670 
#    y -0.074040 4.335750 0.177170 
#    z -0.119670 0.177170 4.023460 
# 
# 
# High freq. dielectric constant tensor:
#      x y z
#    x 1.782030 0.000750 -0.011000 
#    y 0.000750 1.852870 0.002330 
#    z -0.011000 0.002330 1.837720 
# 
# From -- ./inp_files/77916.got.cif
#   From: 2010.06.25/outbox.cif.g09.slc.cpg/sg2_39_cif.got.tgz:77916.got - 2010.06.27 13:26:56.
