data_PCOD8008612
_publ_section_title
;
Structure prediction by ZEFSAII (Michael W. Deem and Ramdas Pophale) SiO2 
 PCOD8008612
Probable space group: P -1
;
_chemical_formula_sum "Si O2"
_cell_formula_units_Z 14
_cell_length_a 8.092284
_cell_length_b 9.145320
_cell_length_c 19.513677
_cell_angle_alpha 31.375067
_cell_angle_beta 97.890912
_cell_angle_gamma 112.290756
_cell_volume 641.402573
_symmetry_space_group_name_H-M "P -1"
_symmetry_group_IT_number 2
_symmetry_cell_setting 'triclinic'
loop_
_space_group_symop_operation_xyz
x,y,z
-x,-y,-z
loop_
_atom_site_type_symbol
_atom_site_label
_atom_site_fract_x
_atom_site_fract_y
_atom_site_fract_z
Si Si1 0.394712 0.684191 0.074746
Si Si2 0.167832 0.493868 0.352361
Si Si3 0.428235 0.714445 0.732147
Si Si4 0.532939 0.809953 0.338394
Si Si5 0.205617 0.123553 0.381401
Si Si6 0.827893 0.156465 0.104676
Si Si7 0.051892 0.208790 0.850474
O O1 0.552594 0.574646 0.114248
O O2 0.206529 0.384456 0.222430
O O3 0.330916 0.776241 0.965068
O O4 0.500000 0.000000 0.000000
O O5 0.340961 0.732271 0.316700
O O6 0.234426 0.287019 0.392482
O O7 0.114589 0.721717 0.212820
O O8 0.986336 0.230110 0.493010
O O9 0.237421 0.563622 0.734533
O O10 0.414490 0.917658 0.711261
O O11 0.388480 0.079057 0.391091
O O12 0.500000 0.500000 0.500000
O O13 0.719886 0.924893 0.255263
O O14 0.903186 0.978731 0.130408
O O15 0.000000 0.500000 0.000000
O O16 0.000000 0.000000 0.000000
#
# Coordination Sequence:
#
# PCOD8008612 Si02
#       7
#     2   2   2   2   2   2   2
#     4  10  20  44  72  96 137 177 232 280 348 406
#     4  11  25  43  71 103 138 182 233 288 359 406
#     4  10  25  45  71  96 140 183 228 290 343 413
#     4  12  30  47  69 101 148 185 237 290 353 414
#     4   9  23  43  73  96 135 183 235 286 345 422
#     4  12  27  45  72 103 143 185 232 289 350 418
#     4  12  26  44  75 106 137 179 241 286 352 421
#
# _framework density 21.827162999999999
#
# number of rings (size 3 to 8) (size 9 to 14) (size 15 to 20)
#    0.857    0.286    1.429    3.429   12.000    1.714 
#    0.000    0.000    0.000    0.000    0.000    0.000 
#    0.000    0.000    0.000    0.000    0.000    0.000 
#
# Total GULP energy -173560.222139 kJ/mol
# GULP energy per Si atom -12397.158724 kJ/mol
# Density = 2.177748 g / cm^3
# Si number density = 21.827163 Si / 1000 Ang^3
#
#
#
# Elastic Constant Matrix: (Units=GPa)
#
#
# Indices 1 2 3 4 5 6 
#
# 1 99.2609 64.6715 37.3786 5.7645 -8.0770 -8.6936
# 2 64.6715 164.9427 41.0250 -15.4755 0.9398 -5.4790
# 3 37.3786 41.0250 130.2603 2.6082 -13.5035 -3.9159
# 4 5.7645 -15.4755 2.6082 33.4876 0.6277 2.2953
# 5 -8.0770 0.9398 -13.5035 0.6277 50.7054 4.3741
# 6 -8.6936 -5.4790 -3.9159 2.2953 4.3741 47.3628
#
#
#
# Elastic Compliance Matrix: (Units=1/GPa)
#
#
# Indices 1 2 3 4 5 6 
#
# 1 0.015423 -0.005954 -0.002186 -0.005412 0.001875 0.002051
# 2 -0.005954 0.009283 -0.001495 0.005479 -0.001564 -0.000264
# 3 -0.002186 -0.001495 0.009014 -0.001058 0.002091 0.000029
# 4 -0.005412 0.005479 -0.001058 0.033568 -0.001494 -0.001936
# 5 0.001875 -0.001564 0.002091 -0.001494 0.020755 -0.001508
# 6 0.002051 -0.000264 0.000029 -0.001936 -0.001508 0.021695
#
#
# Mechanical properties :
#
#
# Convention : Reuss Voigt Hill
#
# Bulk Modulus (GPa) = 69.20271 75.62379 72.41325
# Shear Modulus (GPa) = 37.36223 43.07042 40.21632
#
# Velocity S-wave (km/s) = 4.14180 4.44695 4.29708
# Velocity P-wave (km/s) = 7.39231 7.81594 7.60708
#
# Compressibility (1/GPa) = 0.01445030
#
# Stress axis : x y z
#
# Youngs Moduli (GPa) = 64.83719 107.72263 110.93985
#
# Poissons Ratio (x) = 0.64136 0.24254
# Poissons Ratio (y) = 0.38603 0.16585
# Poissons Ratio (z) = 0.14175 0.16104
#
# Static dielectric constant tensor:
#      x y z
#    x 3.943570 0.028570 -0.142240 
#    y 0.028570 3.830840 -0.012410 
#    z -0.142240 -0.012410 4.011470 
# 
# 
# High freq. dielectric constant tensor:
#      x y z
#    x 1.859240 -0.000980 -0.008600 
#    y -0.000980 1.856250 -0.006730 
#    z -0.008600 -0.006730 1.867570 
# 
# From -- ./inp_files/184046.got.cif
#   From: 2010.06.25/outbox.cif.g09.slc.cpg/sg2_93_cif.got.tgz:184046.got - 2010.06.27 13:26:56.
