data_PCOD8008393
_publ_section_title
;
Structure prediction by ZEFSAII (Michael W. Deem and Ramdas Pophale) SiO2 
 PCOD8008393
Probable space group: P -1
;
_chemical_formula_sum "Si O2"
_cell_formula_units_Z 16
_cell_length_a 14.888692
_cell_length_b 9.320103
_cell_length_c 10.051409
_cell_angle_alpha 59.711171
_cell_angle_beta 37.695279
_cell_angle_gamma 69.501193
_cell_volume 733.267344
_symmetry_space_group_name_H-M "P -1"
_symmetry_group_IT_number 2
_symmetry_cell_setting 'triclinic'
loop_
_space_group_symop_operation_xyz
x,y,z
-x,-y,-z
loop_
_atom_site_type_symbol
_atom_site_label
_atom_site_fract_x
_atom_site_fract_y
_atom_site_fract_z
Si Si1 0.886984 0.782038 0.318604
Si Si2 0.134568 0.035435 0.004722
Si Si3 0.512030 0.812881 0.115582
Si Si4 0.568728 0.683151 0.828861
Si Si5 0.915280 0.485561 0.742085
Si Si6 0.799439 0.704487 0.969771
Si Si7 0.628947 0.380722 0.402635
Si Si8 0.648591 0.239027 0.165556
O O1 0.746507 0.707084 0.603863
O O2 0.998068 0.644576 0.213035
O O3 0.828815 0.849357 0.218725
O O4 0.975509 0.929950 0.230603
O O5 0.125539 0.156048 0.085465
O O6 0.266228 0.916330 0.909409
O O7 0.374205 0.730625 0.406244
O O8 0.507181 0.732472 0.017186
O O9 0.657277 0.783127 0.042543
O O10 0.500000 0.000000 0.000000
O O11 0.500975 0.774960 0.738885
O O12 0.500000 0.500000 0.000000
O O13 0.911641 0.664685 0.736807
O O14 0.000000 0.500000 0.500000
O O15 0.747677 0.412743 0.940540
O O16 0.770520 0.518226 0.158789
O O17 0.500000 0.500000 0.500000
O O18 0.612358 0.246526 0.362760
#
# Coordination Sequence:
#
# PCOD8008393 Si02
#       8
#     2   2   2   2   2   2   2   2
#     4  10  24  41  64  93 135 166 222 274 325 393
#     4  10  23  43  66  95 127 175 222 271 329 391
#     4  11  24  39  59 103 143 164 211 283 340 383
#     4  12  24  40  66 101 130 169 219 275 329 395
#     4  10  20  43  66  92 130 176 215 270 332 395
#     4  10  21  41  70  92 127 180 231 263 328 406
#     4   9  20  39  62  94 132 177 214 273 321 399
#     4  10  22  40  68  94 130 178 218 264 345 396
#
# _framework density 21.820146999999999
#
# number of rings (size 3 to 8) (size 9 to 14) (size 15 to 20)
#    0.000    1.750    0.000    4.500    7.000    1.000 
#    0.000    8.125    0.000    0.000    0.000    0.000 
#    0.000    0.000    0.000    0.000    0.000    0.000 
#
# Total GULP energy -198240.252919 kJ/mol
# GULP energy per Si atom -12390.015807 kJ/mol
# Density = 2.177048 g / cm^3
# Si number density = 21.820147 Si / 1000 Ang^3
#
#
#
# Elastic Constant Matrix: (Units=GPa)
#
#
# Indices 1 2 3 4 5 6 
#
# 1 89.4819 58.3901 32.6449 3.6450 1.0819 15.0705
# 2 58.3901 119.2685 61.1281 5.0415 19.9059 29.2675
# 3 32.6449 61.1281 121.1393 9.8709 8.1748 8.9732
# 4 3.6450 5.0415 9.8709 35.6303 0.3689 14.9437
# 5 1.0819 19.9059 8.1748 0.3689 25.5211 1.4122
# 6 15.0705 29.2675 8.9732 14.9437 1.4122 37.8344
#
#
#
# Elastic Compliance Matrix: (Units=1/GPa)
#
#
# Indices 1 2 3 4 5 6 
#
# 1 0.017414 -0.009644 -0.000279 -0.000660 0.006850 0.000595
# 2 -0.009644 0.022044 -0.007060 0.005499 -0.013873 -0.013191
# 3 -0.000279 -0.007060 0.011799 -0.004071 0.001558 0.004324
# 4 -0.000660 0.005499 -0.004071 0.035643 -0.002531 -0.017010
# 5 0.006850 -0.013873 0.001558 -0.002531 0.048874 0.006809
# 6 0.000595 -0.013191 0.004324 -0.017010 0.006809 0.041837
#
#
# Mechanical properties :
#
#
# Convention : Reuss Voigt Hill
#
# Bulk Modulus (GPa) = 57.82944 70.46844 64.14894
# Shear Modulus (GPa) = 23.00549 31.64559 27.32554
#
# Velocity S-wave (km/s) = 3.25056 3.81240 3.54264
# Velocity P-wave (km/s) = 6.37562 7.19336 6.79680
#
# Compressibility (1/GPa) = 0.01729223
#
# Stress axis : x y z
#
# Youngs Moduli (GPa) = 57.42547 45.36427 84.75478
#
# Poissons Ratio (x) = 0.43747 0.02365
# Poissons Ratio (y) = 0.55378 0.59833
# Poissons Ratio (z) = 0.01602 0.32025
#
# Static dielectric constant tensor:
#      x y z
#    x 3.678700 0.228970 0.436090 
#    y 0.228970 3.911960 -0.240010 
#    z 0.436090 -0.240010 4.066690 
# 
# 
# High freq. dielectric constant tensor:
#      x y z
#    x 1.845150 -0.003700 0.010750 
#    y -0.003700 1.869410 0.005440 
#    z 0.010750 0.005440 1.857870 
# 
# From -- ./inp_files/297766.got.cif
#   From: 2010.06.25/outbox.cif.g09.slc.cpg/sg2_149_cif.got.tgz:297766.got - 2010.06.27 13:26:56.
