data_PCOD8008505
_publ_section_title
;
Structure prediction by ZEFSAII (Michael W. Deem and Ramdas Pophale) SiO2 
 PCOD8008505
Probable space group: P -1
;
_chemical_formula_sum "Si O2"
_cell_formula_units_Z 14
_cell_length_a 5.362022
_cell_length_b 33.117184
_cell_length_c 9.135177
_cell_angle_alpha 148.348401
_cell_angle_beta 129.173766
_cell_angle_gamma 59.566292
_cell_volume 657.971966
_symmetry_space_group_name_H-M "P -1"
_symmetry_group_IT_number 2
_symmetry_cell_setting 'triclinic'
loop_
_space_group_symop_operation_xyz
x,y,z
-x,-y,-z
loop_
_atom_site_type_symbol
_atom_site_label
_atom_site_fract_x
_atom_site_fract_y
_atom_site_fract_z
Si Si1 0.718897 0.348753 0.817874
Si Si2 0.714946 0.276374 0.886600
Si Si3 0.282119 0.226112 0.138236
Si Si4 0.286687 0.151278 0.206363
Si Si5 0.628074 0.584810 0.852925
Si Si6 0.379237 0.993258 0.099885
Si Si7 0.610204 0.080029 0.713391
O O1 0.854183 0.293349 0.824806
O O2 0.563287 0.295368 0.464802
O O3 0.453772 0.400035 0.958036
O O4 0.993439 0.404240 0.011951
O O5 0.437335 0.205380 0.558971
O O6 0.553410 0.353035 0.119498
O O7 0.986135 0.256928 0.038619
O O8 0.182556 0.205735 0.204495
O O9 0.382183 0.149082 0.861190
O O10 0.544912 0.090826 0.067812
O O11 0.959797 0.102802 0.982714
O O12 0.500000 0.500000 0.500000
O O13 0.592389 0.060940 0.474259
O O14 0.500000 0.000000 0.000000
O O15 0.000000 0.000000 0.000000
O O16 0.500000 0.000000 0.500000
#
# Coordination Sequence:
#
# PCOD8008505 Si02
#       7
#     2   2   2   2   2   2   2
#     4   9  22  42  67  98 134 171 217 262 328 389
#     4   9  23  40  67  96 128 172 217 267 330 396
#     4  11  23  44  66  96 128 176 220 278 330 397
#     4  11  24  43  66  91 131 174 221 279 334 400
#     4  10  20  43  71  97 137 174 210 265 325 390
#     4  12  27  44  66  96 129 172 228 280 337 395
#     4  12  25  42  66  91 134 176 229 284 343 388
#
# _framework density 21.277504
#
# number of rings (size 3 to 8) (size 9 to 14) (size 15 to 20)
#    0.857    0.571    1.429    3.429    4.000    1.143 
#    0.000    1.429    0.000    0.000    0.000    0.000 
#    0.000    0.000    0.000    0.000    0.000    0.000 
#
# Total GULP energy -173494.502979 kJ/mol
# GULP energy per Si atom -12392.464499 kJ/mol
# Density = 2.122908 g / cm^3
# Si number density = 21.277504 Si / 1000 Ang^3
#
#
#
# Elastic Constant Matrix: (Units=GPa)
#
#
# Indices 1 2 3 4 5 6 
#
# 1 123.2169 32.4293 57.2764 2.1064 14.8973 -1.2460
# 2 32.4293 87.4834 63.5304 -16.9978 6.6848 -17.9704
# 3 57.2764 63.5304 187.1799 11.1866 12.2922 -4.1065
# 4 2.1064 -16.9978 11.1866 32.7749 -3.7006 -6.9605
# 5 14.8973 6.6848 12.2922 -3.7006 44.7481 1.1169
# 6 -1.2460 -17.9704 -4.1065 -6.9605 1.1169 27.4278
#
#
#
# Elastic Compliance Matrix: (Units=1/GPa)
#
#
# Indices 1 2 3 4 5 6 
#
# 1 0.010115 -0.003390 -0.001673 -0.002675 -0.002558 -0.002587
# 2 -0.003390 0.029252 -0.009856 0.023851 0.000851 0.023554
# 3 -0.001673 -0.009856 0.009720 -0.010077 -0.001285 -0.007583
# 4 -0.002675 0.023851 -0.010077 0.052698 0.003774 0.027217
# 5 -0.002558 0.000851 -0.001285 0.003774 0.023731 0.000240
# 6 -0.002587 0.023554 -0.007583 0.027217 0.000240 0.057536
#
#
# Mechanical properties :
#
#
# Convention : Reuss Voigt Hill
#
# Bulk Modulus (GPa) = 51.95143 78.26140 65.10641
# Shear Modulus (GPa) = 22.79915 37.29975 30.04945
#
# Velocity S-wave (km/s) = 3.27695 4.19144 3.76209
# Velocity P-wave (km/s) = 6.22792 7.76437 7.03820
#
# Compressibility (1/GPa) = 0.01924875
#
# Stress axis : x y z
#
# Youngs Moduli (GPa) = 98.86657 34.18554 102.88245
#
# Poissons Ratio (x) = 0.11589 0.17216
# Poissons Ratio (y) = 0.33515 1.01397
# Poissons Ratio (z) = 0.16544 0.33692
#
# Static dielectric constant tensor:
#      x y z
#    x 3.726430 -0.027760 -0.055440 
#    y -0.027760 3.727380 -0.004390 
#    z -0.055440 -0.004390 3.953910 
# 
# 
# High freq. dielectric constant tensor:
#      x y z
#    x 1.825940 -0.004020 -0.000530 
#    y -0.004020 1.813110 0.000660 
#    z -0.000530 0.000660 1.848670 
# 
# From -- ./inp_files/143465.got.cif
#   From: 2010.06.25/outbox.cif.g09.slc.cpg/sg2_72_cif.got.tgz:143465.got - 2010.06.27 13:26:56.
