data_PCOD8008510
_publ_section_title
;
Structure prediction by ZEFSAII (Michael W. Deem and Ramdas Pophale) SiO2 
 PCOD8008510
Probable space group: P -1
;
_chemical_formula_sum "Si O2"
_cell_formula_units_Z 16
_cell_length_a 5.455784
_cell_length_b 8.455915
_cell_length_c 17.291058
_cell_angle_alpha 61.368618
_cell_angle_beta 104.023794
_cell_angle_gamma 82.018986
_cell_volume 648.127923
_symmetry_space_group_name_H-M "P -1"
_symmetry_group_IT_number 2
_symmetry_cell_setting 'triclinic'
loop_
_space_group_symop_operation_xyz
x,y,z
-x,-y,-z
loop_
_atom_site_type_symbol
_atom_site_label
_atom_site_fract_x
_atom_site_fract_y
_atom_site_fract_z
Si Si1 0.261711 0.741582 0.291138
Si Si2 0.582470 0.149088 0.022254
Si Si3 0.324869 0.705525 0.701066
Si Si4 0.303040 0.381764 0.535787
Si Si5 0.900500 0.492889 0.079966
Si Si6 0.275990 0.662888 0.143675
Si Si7 0.765773 0.672457 0.617648
Si Si8 0.831047 0.098301 0.208623
O O1 0.560865 0.719981 0.350709
O O2 0.238351 0.795460 0.185608
O O3 0.167266 0.554235 0.335275
O O4 0.075269 0.913200 0.286048
O O5 0.791292 0.204686 0.968617
O O6 0.382176 0.354054 0.973788
O O7 0.673385 0.050852 0.134308
O O8 0.500000 0.000000 0.000000
O O9 0.432759 0.490700 0.791798
O O10 0.509214 0.743363 0.637338
O O11 0.334297 0.853093 0.735745
O O12 0.018665 0.735861 0.647958
O O13 0.500000 0.500000 0.500000
O O14 0.308147 0.243114 0.495045
O O15 0.000000 0.500000 0.500000
O O16 0.075641 0.538190 0.152316
O O17 0.912336 0.279996 0.146933
O O18 0.000000 0.500000 0.000000
#
# Coordination Sequence:
#
# PCOD8008510 Si02
#       8
#     2   2   2   2   2   2   2   2
#     4  10  24  40  69 103 132 172 231 287 344 406
#     4  12  27  41  65  93 132 181 236 287 344 401
#     4  11  23  42  70  99 135 184 231 280 344 418
#     4  10  20  43  72 104 138 176 223 283 349 417
#     4  12  24  43  65  87 132 189 236 282 346 411
#     4  11  23  44  63  92 132 181 235 282 340 409
#     4  10  22  45  72  98 135 181 227 281 350 423
#     4  12  24  44  64 101 137 179 234 288 349 405
#
# _framework density 24.686482999999999
#
# number of rings (size 3 to 8) (size 9 to 14) (size 15 to 20)
#    0.000    1.000    2.500    5.625    3.500    1.000 
#    0.000    1.250    0.000    0.000    0.000    0.875 
#    0.000    0.000    0.000    0.000    0.000    0.000 
#
# Total GULP energy -198211.790182 kJ/mol
# GULP energy per Si atom -12388.236886 kJ/mol
# Density = 2.463030 g / cm^3
# Si number density = 24.686483 Si / 1000 Ang^3
#
#
#
# Elastic Constant Matrix: (Units=GPa)
#
#
# Indices 1 2 3 4 5 6 
#
# 1 114.2058 33.8890 31.6342 20.2351 12.7447 -19.0978
# 2 33.8890 138.8076 40.9804 21.2158 -1.8579 -28.0141
# 3 31.6342 40.9804 103.7302 46.8578 13.9641 -13.3152
# 4 20.2351 21.2158 46.8578 50.7803 -3.3182 -3.8274
# 5 12.7447 -1.8579 13.9641 -3.3182 29.6192 10.7384
# 6 -19.0978 -28.0141 -13.3152 -3.8274 10.7384 38.1024
#
#
#
# Elastic Compliance Matrix: (Units=1/GPa)
#
#
# Indices 1 2 3 4 5 6 
#
# 1 0.012071 -0.001066 0.001823 -0.006076 -0.009712 0.008031
# 2 -0.001066 0.009384 -0.002193 -0.001060 -0.000032 0.005501
# 3 0.001823 -0.002193 0.023840 -0.022217 -0.018498 0.010614
# 4 -0.006076 -0.001060 -0.022217 0.043521 0.022849 -0.013657
# 5 -0.009712 -0.000032 -0.018498 0.022849 0.058480 -0.025542
# 6 0.008031 0.005501 0.010614 -0.013657 -0.025542 0.043851
#
#
# Mechanical properties :
#
#
# Convention : Reuss Voigt Hill
#
# Bulk Modulus (GPa) = 23.57242 63.30564 43.43903
# Shear Modulus (GPa) = 24.02011 40.38303 32.20157
#
# Velocity S-wave (km/s) = 3.12269 4.04893 3.61560
# Velocity P-wave (km/s) = 4.75090 6.89623 5.92153
#
# Compressibility (1/GPa) = 0.04242246
#
# Stress axis : x y z
#
# Youngs Moduli (GPa) = 82.84487 106.56847 41.94699
#
# Poissons Ratio (x) = 0.11358 -0.07647
# Poissons Ratio (y) = 0.08829 0.09199
# Poissons Ratio (z) = -0.15103 0.23371
#
# Static dielectric constant tensor:
#      x y z
#    x 4.397990 -0.067860 0.204120 
#    y -0.067860 4.964660 0.970460 
#    z 0.204120 0.970460 5.806690 
# 
# 
# High freq. dielectric constant tensor:
#      x y z
#    x 1.970130 -0.010220 0.003350 
#    y -0.010220 1.987320 0.033180 
#    z 0.003350 0.033180 1.988340 
# 
# From -- ./inp_files/547983.got.cif
#   From: 2010.06.25/outbox.cif.g09.slc.cpg/sg2_274_cif.got.tgz:547983.got - 2010.06.27 13:26:56.
