data_PCOD8008069
_publ_section_title
;
Structure prediction by ZEFSAII (Michael W. Deem and Ramdas Pophale) SiO2 
 PCOD8008069
Probable space group: P -1
;
_chemical_formula_sum "Si O2"
_cell_formula_units_Z 16
_cell_length_a 15.973385
_cell_length_b 11.075896
_cell_length_c 15.429657
_cell_angle_alpha 145.648362
_cell_angle_beta 142.964160
_cell_angle_gamma 26.915948
_cell_volume 676.367142
_symmetry_space_group_name_H-M "P -1"
_symmetry_group_IT_number 2
_symmetry_cell_setting 'triclinic'
loop_
_space_group_symop_operation_xyz
x,y,z
-x,-y,-z
loop_
_atom_site_type_symbol
_atom_site_label
_atom_site_fract_x
_atom_site_fract_y
_atom_site_fract_z
Si Si1 0.820663 0.899161 0.143223
Si Si2 0.684890 0.882937 0.848196
Si Si3 0.598164 0.108010 0.460250
Si Si4 0.496906 0.565367 0.249162
Si Si5 0.773803 0.491804 0.305202
Si Si6 0.051880 0.078788 0.430863
Si Si7 0.033728 0.447665 0.771631
Si Si8 0.290959 0.519121 0.931395
O O1 0.846142 0.729518 0.148054
O O2 0.620560 0.231940 0.182995
O O3 0.811492 0.752581 0.964118
O O4 0.989484 0.897501 0.275627
O O5 0.586996 0.756427 0.670542
O O6 0.833238 0.770414 0.824683
O O7 0.514717 0.232430 0.923961
O O8 0.543817 0.257157 0.595503
O O9 0.727838 0.764056 0.382627
O O10 0.720316 0.148170 0.528486
O O11 0.601863 0.607141 0.293169
O O12 0.300641 0.692670 0.115819
O O13 0.796839 0.308831 0.131455
O O14 0.965406 0.286608 0.397284
O O15 0.987623 0.275679 0.580193
O O16 0.165266 0.456510 0.826128
#
# Coordination Sequence:
#
# PCOD8008069 Si02
#       8
#     2   2   2   2   2   2   2   2
#     4  10  24  43  65  93 129 167 213 264 314 376
#     4  10  22  42  65  94 125 169 210 258 318 375
#     4  11  22  41  65  99 127 165 216 257 323 383
#     4  10  22  40  66  94 129 167 210 264 318 372
#     4  10  20  42  65  88 131 169 205 268 317 374
#     4  11  23  42  65  96 130 165 217 264 311 381
#     4  12  23  43  68  91 131 174 208 261 322 369
#     4  10  23  42  64  99 129 164 215 261 313 385
#
# _framework density 23.655792000000002
#
# number of rings (size 3 to 8) (size 9 to 14) (size 15 to 20)
#    0.000    1.500    2.500    3.375    1.750    4.000 
#    2.250    1.875    0.000    0.000    0.000    0.000 
#    0.000    0.000    0.000    0.000    0.000    0.000 
#
# Total GULP energy -198286.514796 kJ/mol
# GULP energy per Si atom -12392.907175 kJ/mol
# Density = 2.360195 g / cm^3
# Si number density = 23.655792 Si / 1000 Ang^3
#
#
#
# Elastic Constant Matrix: (Units=GPa)
#
#
# Indices 1 2 3 4 5 6 
#
# 1 90.7309 35.2793 40.1076 -4.9931 -21.1998 -19.8326
# 2 35.2793 43.9815 20.0700 -13.5484 -4.7307 -15.7245
# 3 40.1076 20.0700 186.3421 -24.4271 -28.8569 -13.5418
# 4 -4.9931 -13.5484 -24.4271 18.6891 8.3672 2.7024
# 5 -21.1998 -4.7307 -28.8569 8.3672 34.8590 -12.1919
# 6 -19.8326 -15.7245 -13.5418 2.7024 -12.1919 22.7026
#
#
#
# Elastic Compliance Matrix: (Units=1/GPa)
#
#
# Indices 1 2 3 4 5 6 
#
# 1 0.035776 -0.016038 0.000472 -0.027411 0.042892 0.046723
# 2 -0.016038 0.051410 0.003680 0.035970 -0.001896 0.018493
# 3 0.000472 0.003680 0.008343 0.007218 0.010387 0.012656
# 4 -0.027411 0.035970 0.007218 0.104296 -0.041057 -0.029190
# 5 0.042892 -0.001896 0.010387 -0.041057 0.110186 0.106412
# 6 0.046723 0.018493 0.012656 -0.029190 0.106412 0.165843
#
#
# Mechanical properties :
#
#
# Convention : Reuss Voigt Hill
#
# Bulk Modulus (GPa) = 13.93602 56.88536 35.41069
# Shear Modulus (GPa) = 9.55026 30.28995 19.92010
#
# Velocity S-wave (km/s) = 2.01145 3.58221 2.90501
# Velocity P-wave (km/s) = 3.36133 6.41942 5.12384
#
# Compressibility (1/GPa) = 0.07175651
#
# Stress axis : x y z
#
# Youngs Moduli (GPa) = 27.95173 19.45132 119.85997
#
# Poissons Ratio (x) = 0.31197 -0.05652
# Poissons Ratio (y) = 0.44830 -0.44112
# Poissons Ratio (z) = -0.01318 -0.07159
#
# Static dielectric constant tensor:
#      x y z
#    x 4.004260 -0.128520 -0.303280 
#    y -0.128520 4.058500 -0.301240 
#    z -0.303280 -0.301240 5.040550 
# 
# 
# High freq. dielectric constant tensor:
#      x y z
#    x 1.929460 -0.015790 -0.016350 
#    y -0.015790 1.911560 -0.019510 
#    z -0.016350 -0.019510 1.967220 
# 
# From -- ./inp_files/532065.got.cif
#   From: 2010.06.25/outbox.cif.g09.slc.cpg/sg2_267_cif.got.tgz:532065.got - 2010.06.27 13:26:56.
