data_PCOD8008972
_publ_section_title
;
Structure prediction by ZEFSAII (Michael W. Deem and Ramdas Pophale) SiO2 
 PCOD8008972
Probable space group: P -1
;
_chemical_formula_sum "Si O2"
_cell_formula_units_Z 16
_cell_length_a 22.670720
_cell_length_b 9.301547
_cell_length_c 14.694719
_cell_angle_alpha 56.841255
_cell_angle_beta 160.965777
_cell_angle_gamma 124.100792
_cell_volume 835.171529
_symmetry_space_group_name_H-M "P -1"
_symmetry_group_IT_number 2
_symmetry_cell_setting 'triclinic'
loop_
_space_group_symop_operation_xyz
x,y,z
-x,-y,-z
loop_
_atom_site_type_symbol
_atom_site_label
_atom_site_fract_x
_atom_site_fract_y
_atom_site_fract_z
Si Si1 0.998236 0.285097 0.918714
Si Si2 0.042164 0.963058 0.889359
Si Si3 0.279164 0.884536 0.564698
Si Si4 0.530006 0.630178 0.082611
Si Si5 0.111011 0.363292 0.308480
Si Si6 0.573464 0.833471 0.627513
Si Si7 0.549410 0.528987 0.341575
Si Si8 0.603415 0.779882 0.488942
O O1 0.856042 0.261969 0.636123
O O2 0.993532 0.475739 0.884844
O O3 0.201201 0.275936 0.183625
O O4 0.930764 0.124137 0.943378
O O5 0.038380 0.810314 0.861716
O O6 0.845866 0.030342 0.574751
O O7 0.205711 0.121895 0.057842
O O8 0.436720 0.799800 0.872882
O O9 0.383641 0.030472 0.600569
O O10 0.500000 0.500000 0.000000
O O11 0.751379 0.674761 0.397159
O O12 0.450992 0.552226 0.092489
O O13 0.231153 0.403888 0.375684
O O14 0.495895 0.674364 0.634029
O O15 0.504358 0.784312 0.440650
O O16 0.500000 0.000000 0.500000
O O17 0.488773 0.641234 0.299162
#
# Coordination Sequence:
#
# PCOD8008972 Si02
#       8
#     2   2   2   2   2   2   2   2
#     4  11  17  33  60  89 117 147 199 248 297 342
#     4  11  21  36  59  91 115 153 198 248 301 348
#     4  11  18  36  64  88 116 152 205 248 286 349
#     4  10  21  37  63  91 117 156 204 247 289 342
#     4  10  21  35  61  90 116 154 200 248 284 347
#     4  12  25  38  58  88 129 160 188 244 314 362
#     4  10  23  40  56  93 122 155 198 240 299 359
#     4  11  22  37  61  90 121 155 198 248 303 353
#
# _framework density 19.157741999999999
#
# number of rings (size 3 to 8) (size 9 to 14) (size 15 to 20)
#    0.750    0.500    6.250    2.250    3.500    2.000 
#    0.000    0.625    0.000    0.750    0.000    0.000 
#    0.000    0.000    0.000    0.000    0.000    0.000 
#
# Total GULP energy -198295.459433 kJ/mol
# GULP energy per Si atom -12393.466215 kJ/mol
# Density = 1.911414 g / cm^3
# Si number density = 19.157742 Si / 1000 Ang^3
#
#
#
# Elastic Constant Matrix: (Units=GPa)
#
#
# Indices 1 2 3 4 5 6 
#
# 1 83.0206 43.2261 28.3503 -6.2594 -18.7294 -15.6813
# 2 43.2261 114.4402 28.1592 -8.4338 -11.8796 -11.8732
# 3 28.3503 28.1592 72.3321 -19.7972 -12.3942 3.1630
# 4 -6.2594 -8.4338 -19.7972 40.1138 -5.3216 -1.2480
# 5 -18.7294 -11.8796 -12.3942 -5.3216 21.4064 1.1493
# 6 -15.6813 -11.8732 3.1630 -1.2480 1.1493 31.9630
#
#
#
# Elastic Compliance Matrix: (Units=1/GPa)
#
#
# Indices 1 2 3 4 5 6 
#
# 1 0.020358 -0.004340 -0.003665 0.002500 0.013454 0.008352
# 2 -0.004340 0.011395 -0.002430 0.000748 0.001180 0.002331
# 3 -0.003665 -0.002430 0.021127 0.010598 0.010567 -0.004758
# 4 0.002500 0.000748 0.010598 0.032981 0.016877 0.001137
# 5 0.013454 0.001180 0.010567 0.016877 0.069232 0.004163
# 6 0.008352 0.002331 -0.004758 0.001137 0.004163 0.036615
#
#
# Mechanical properties :
#
#
# Convention : Reuss Voigt Hill
#
# Bulk Modulus (GPa) = 31.24067 52.14046 41.69056
# Shear Modulus (GPa) = 22.39655 30.03378 26.21516
#
# Velocity S-wave (km/s) = 3.42286 3.96373 3.70318
# Velocity P-wave (km/s) = 5.65365 6.94432 6.33196
#
# Compressibility (1/GPa) = 0.03200956
#
# Stress axis : x y z
#
# Youngs Moduli (GPa) = 49.12064 87.75810 47.33294
#
# Poissons Ratio (x) = 0.38090 0.17348
# Poissons Ratio (y) = 0.21320 0.11501
# Poissons Ratio (z) = 0.18003 0.21323
#
# Static dielectric constant tensor:
#      x y z
#    x 3.410190 -0.213240 -0.068410 
#    y -0.213240 3.546100 0.016390 
#    z -0.068410 0.016390 3.378820 
# 
# 
# High freq. dielectric constant tensor:
#      x y z
#    x 1.722850 -0.029270 -0.009290 
#    y -0.029270 1.756100 0.000690 
#    z -0.009290 0.000690 1.726010 
# 
# From -- ./inp_files/348256.got.cif
#   From: 2010.06.25/outbox.cif.g09.slc.cpg/sg2_175_cif.got.tgz:348256.got - 2010.06.27 13:26:56.
