data_PCOD8008401
_publ_section_title
;
Structure prediction by ZEFSAII (Michael W. Deem and Ramdas Pophale) SiO2 
 PCOD8008401
Probable space group: P -1
;
_chemical_formula_sum "Si O2"
_cell_formula_units_Z 16
_cell_length_a 9.547891
_cell_length_b 9.121770
_cell_length_c 27.487696
_cell_angle_alpha 48.192375
_cell_angle_beta 26.687921
_cell_angle_gamma 47.600730
_cell_volume 779.006854
_symmetry_space_group_name_H-M "P -1"
_symmetry_group_IT_number 2
_symmetry_cell_setting 'triclinic'
loop_
_space_group_symop_operation_xyz
x,y,z
-x,-y,-z
loop_
_atom_site_type_symbol
_atom_site_label
_atom_site_fract_x
_atom_site_fract_y
_atom_site_fract_z
Si Si1 0.613193 0.409238 0.073759
Si Si2 0.631502 0.120188 0.974102
Si Si3 0.886967 0.477021 0.595057
Si Si4 0.289307 0.086485 0.407814
Si Si5 0.236596 0.815545 0.828685
Si Si6 0.828690 0.478003 0.170438
Si Si7 0.719689 0.925496 0.402739
Si Si8 0.232268 0.182384 0.177353
O O1 0.419222 0.640894 0.074102
O O2 0.646216 0.370816 0.129491
O O3 0.428134 0.245671 0.147340
O O4 0.970749 0.367358 0.947604
O O5 0.479623 0.083555 0.080582
O O6 0.003180 0.004459 0.886030
O O7 0.500000 0.000000 0.000000
O O8 0.872711 0.688726 0.576513
O O9 0.539702 0.421593 0.723594
O O10 0.000000 0.500000 0.500000
O O11 0.148778 0.314486 0.579413
O O12 0.482956 0.085133 0.298428
O O13 0.519259 0.970071 0.405117
O O14 0.000000 0.000000 0.500000
O O15 0.108410 0.714929 0.843523
O O16 0.992963 0.390326 0.188984
O O17 0.500000 0.000000 0.500000
O O18 0.022954 0.025089 0.291170
#
# Coordination Sequence:
#
# PCOD8008401 Si02
#       8
#     2   2   2   2   2   2   2   2
#     4  11  25  40  63 101 136 171 220 277 327 387
#     4  11  21  40  69  93 133 177 216 260 339 395
#     4  11  23  44  74  98 128 182 223 270 344 399
#     4  11  26  49  67 102 137 164 231 286 324 403
#     4  11  23  41  65  96 132 175 215 268 331 400
#     4  10  20  43  66  93 138 170 220 271 326 398
#     4  12  24  46  74  93 131 181 219 275 344 395
#     4  11  23  44  64  98 137 170 222 279 323 395
#
# _framework density 20.538972000000001
#
# number of rings (size 3 to 8) (size 9 to 14) (size 15 to 20)
#    0.000    1.000    6.250    1.875    3.500    4.000 
#    9.000    0.000    0.000    0.000    0.000    0.000 
#    0.000    0.000    0.000    0.000    0.000    0.000 
#
# Total GULP energy -198297.748711 kJ/mol
# GULP energy per Si atom -12393.609294 kJ/mol
# Density = 2.049222 g / cm^3
# Si number density = 20.538972 Si / 1000 Ang^3
#
#
#
# Elastic Constant Matrix: (Units=GPa)
#
#
# Indices 1 2 3 4 5 6 
#
# 1 85.4162 47.1830 58.9366 -10.7608 -10.5000 0.0814
# 2 47.1830 115.9883 63.9994 11.5599 -0.7518 -17.0903
# 3 58.9366 63.9994 155.1068 1.8848 0.4605 -7.2005
# 4 -10.7608 11.5599 1.8848 38.5032 3.6722 2.7631
# 5 -10.5000 -0.7518 0.4605 3.6722 38.8211 -7.8276
# 6 0.0814 -17.0903 -7.2005 2.7631 -7.8276 29.3822
#
#
#
# Elastic Compliance Matrix: (Units=1/GPa)
#
#
# Indices 1 2 3 4 5 6 
#
# 1 0.020804 -0.007093 -0.005334 0.008230 0.003710 -0.005276
# 2 -0.007093 0.015272 -0.003101 -0.007153 0.000917 0.009060
# 3 -0.005334 -0.003101 0.009783 -0.000920 -0.001471 0.000303
# 4 0.008230 -0.007153 -0.000920 0.031275 -0.002475 -0.008010
# 5 0.003710 0.000917 -0.001471 -0.002475 0.028651 0.008029
# 6 -0.005276 0.009060 0.000303 -0.008010 0.008029 0.042285
#
#
# Mechanical properties :
#
#
# Convention : Reuss Voigt Hill
#
# Bulk Modulus (GPa) = 67.55936 77.41659 72.48798
# Shear Modulus (GPa) = 27.16466 33.76746 30.46606
#
# Velocity S-wave (km/s) = 3.64069 4.05911 3.85558
# Velocity P-wave (km/s) = 7.11600 7.72935 7.42901
#
# Compressibility (1/GPa) = 0.01480180
#
# Stress axis : x y z
#
# Youngs Moduli (GPa) = 48.06743 65.47870 102.21431
#
# Poissons Ratio (x) = 0.46445 0.54523
# Poissons Ratio (y) = 0.34095 0.31702
# Poissons Ratio (z) = 0.25640 0.20308
#
# Static dielectric constant tensor:
#      x y z
#    x 3.710930 -0.068330 -0.203510 
#    y -0.068330 3.873420 0.049940 
#    z -0.203510 0.049940 4.718640 
# 
# 
# High freq. dielectric constant tensor:
#      x y z
#    x 1.798080 -0.008730 0.003310 
#    y -0.008730 1.797830 0.004340 
#    z 0.003310 0.004340 1.820410 
# 
# From -- ./inp_files/606650.got.cif
#   From: 2010.06.25/outbox.cif.g09.slc.cpg/sg2_304_cif.got.tgz:606650.got - 2010.06.27 13:26:56.
