data_PCOD8008519
_publ_section_title
;
Structure prediction by ZEFSAII (Michael W. Deem and Ramdas Pophale) SiO2 
 PCOD8008519
Probable space group: P -1
;
_chemical_formula_sum "Si O2"
_cell_formula_units_Z 16
_cell_length_a 11.657357
_cell_length_b 16.301015
_cell_length_c 9.348874
_cell_angle_alpha 33.304585
_cell_angle_beta 89.846754
_cell_angle_gamma 70.501932
_cell_volume 777.584755
_symmetry_space_group_name_H-M "P -1"
_symmetry_group_IT_number 2
_symmetry_cell_setting 'triclinic'
loop_
_space_group_symop_operation_xyz
x,y,z
-x,-y,-z
loop_
_atom_site_type_symbol
_atom_site_label
_atom_site_fract_x
_atom_site_fract_y
_atom_site_fract_z
Si Si1 0.548990 0.500223 0.156631
Si Si2 0.002558 0.128584 0.197974
Si Si3 0.147943 0.785244 0.516314
Si Si4 0.079567 0.262144 0.480699
Si Si5 0.101196 0.331614 0.055720
Si Si6 0.723257 0.445240 0.851939
Si Si7 0.368750 0.156365 0.679188
Si Si8 0.410647 0.190625 0.305707
O O1 0.713030 0.308888 0.452417
O O2 0.430292 0.514283 0.237905
O O3 0.500000 0.500000 0.000000
O O4 0.536111 0.686409 0.913673
O O5 0.098198 0.196380 0.142579
O O6 0.834875 0.310870 0.920602
O O7 0.000000 0.000000 0.500000
O O8 0.079334 0.000948 0.242266
O O9 0.021443 0.802595 0.400851
O O10 0.204791 0.649513 0.854737
O O11 0.070663 0.290611 0.270390
O O12 0.247921 0.118686 0.733456
O O13 0.019740 0.450310 0.296007
O O14 0.248671 0.304833 0.086465
O O15 0.701553 0.638583 0.557109
O O16 0.428540 0.145679 0.538190
O O17 0.500000 0.000000 0.000000
O O18 0.500000 0.000000 0.500000
#
# Coordination Sequence:
#
# PCOD8008519 Si02
#       8
#     2   2   2   2   2   2   2   2
#     4  10  19  32  52  82 119 146 173 235 298 338
#     4  10  18  26  48  83 113 138 173 240 290 324
#     4  10  17  30  52  85 110 138 182 236 293 318
#     4  10  16  31  51  74 106 138 191 231 264 325
#     4  10  17  29  50  79 109 137 178 242 279 312
#     4  10  18  32  52  84 112 144 184 229 284 337
#     4  11  22  37  57  81 115 158 188 222 285 350
#     4  11  23  34  56  91 115 140 190 241 287 329
#
# _framework density 20.576535
#
# number of rings (size 3 to 8) (size 9 to 14) (size 15 to 20)
#    0.000    1.750    7.500    0.750    5.250    0.000 
#    0.000    0.000    0.000    4.500    0.000    0.000 
#    0.000    0.000    0.000    0.000    0.000    0.000 
#
# Total GULP energy -198231.493553 kJ/mol
# GULP energy per Si atom -12389.468347 kJ/mol
# Density = 2.052970 g / cm^3
# Si number density = 20.576535 Si / 1000 Ang^3
#
#
#
# Elastic Constant Matrix: (Units=GPa)
#
#
# Indices 1 2 3 4 5 6 
#
# 1 147.1475 40.5886 36.1032 -11.0678 16.5332 23.4670
# 2 40.5886 59.2760 52.8486 -35.3001 4.3994 13.7083
# 3 36.1032 52.8486 83.8991 -32.4137 16.5270 6.0411
# 4 -11.0678 -35.3001 -32.4137 33.7061 4.1526 -2.5205
# 5 16.5332 4.3994 16.5270 4.1526 30.0909 -13.1639
# 6 23.4670 13.7083 6.0411 -2.5205 -13.1639 29.7867
#
#
#
# Elastic Compliance Matrix: (Units=1/GPa)
#
#
# Indices 1 2 3 4 5 6 
#
# 1 0.010990 -0.006022 0.001930 -0.000315 -0.011073 -0.011199
# 2 -0.006022 0.106331 -0.017411 0.093533 -0.037075 -0.049130
# 3 0.001930 -0.017411 0.034234 0.017554 -0.023910 -0.009532
# 4 -0.000315 0.093533 0.017554 0.148402 -0.072408 -0.065799
# 5 -0.011073 -0.037075 -0.023910 -0.072408 0.097418 0.067562
# 6 -0.011199 -0.049130 -0.009532 -0.065799 0.067562 0.091229
#
#
# Mechanical properties :
#
#
# Convention : Reuss Voigt Hill
#
# Bulk Modulus (GPa) = 9.21241 61.04483 35.12862
# Shear Modulus (GPa) = 8.80606 29.43556 19.12081
#
# Velocity S-wave (km/s) = 2.07098 3.78635 3.05167
# Velocity P-wave (km/s) = 3.19460 6.98905 5.43380
#
# Compressibility (1/GPa) = 0.10854925
#
# Stress axis : x y z
#
# Youngs Moduli (GPa) = 90.99273 9.40461 29.21111
#
# Poissons Ratio (x) = 0.05664 -0.05638
# Poissons Ratio (y) = 0.54797 0.50858
# Poissons Ratio (z) = -0.17562 0.16374
#
# Static dielectric constant tensor:
#      x y z
#    x 3.887470 0.253980 0.245470 
#    y 0.253980 3.523490 -0.596080 
#    z 0.245470 -0.596080 3.572680 
# 
# 
# High freq. dielectric constant tensor:
#      x y z
#    x 1.828480 0.013910 0.019220 
#    y 0.013910 1.761020 -0.053450 
#    z 0.019220 -0.053450 1.774910 
# 
# From -- ./inp_files/420876.got.cif
#   From: 2010.06.25/outbox.cif.g09.slc.cpg/sg2_211_cif.got.tgz:420876.got - 2010.06.27 13:26:56.
