data_PCOD8008548
_publ_section_title
;
Structure prediction by ZEFSAII (Michael W. Deem and Ramdas Pophale) SiO2 
 PCOD8008548
Probable space group: P -1
;
_chemical_formula_sum "Si O2"
_cell_formula_units_Z 14
_cell_length_a 14.336214
_cell_length_b 8.812180
_cell_length_c 20.325648
_cell_angle_alpha 146.589659
_cell_angle_beta 26.238085
_cell_angle_gamma 133.062525
_cell_volume 601.722898
_symmetry_space_group_name_H-M "P -1"
_symmetry_group_IT_number 2
_symmetry_cell_setting 'triclinic'
loop_
_space_group_symop_operation_xyz
x,y,z
-x,-y,-z
loop_
_atom_site_type_symbol
_atom_site_label
_atom_site_fract_x
_atom_site_fract_y
_atom_site_fract_z
Si Si1 0.689877 0.874825 0.419375
Si Si2 0.041017 0.227478 0.179473
Si Si3 0.478474 0.305798 0.883061
Si Si4 0.242544 0.687791 0.068642
Si Si5 0.204703 0.235501 0.828068
Si Si6 0.962224 0.770858 0.668147
Si Si7 0.821533 0.743706 0.426385
O O1 0.783397 0.675752 0.224406
O O2 0.714600 0.693024 0.405511
O O3 0.436104 0.025834 0.625796
O O4 0.821273 0.115850 0.430870
O O5 0.081964 0.309276 0.258338
O O6 0.838959 0.476514 0.367319
O O7 0.261004 0.195161 0.986433
O O8 0.981539 0.928319 0.103656
O O9 0.686335 0.034578 0.651640
O O10 0.500000 0.500000 0.000000
O O11 0.464635 0.494154 0.892031
O O12 0.066248 0.772260 0.269857
O O13 0.148030 0.516313 0.010314
O O14 0.252399 0.983664 0.134496
O O15 0.000000 0.500000 0.500000
#
# Coordination Sequence:
#
# PCOD8008548 Si02
#       7
#     2   2   2   2   2   2   2
#     4   9  20  40  68  93 126 175 204 265 319 381
#     4  10  25  42  63  99 129 171 207 276 309 378
#     4  11  25  43  65  95 133 172 217 254 328 387
#     4  10  23  43  70  91 127 178 204 271 320 376
#     4  10  20  44  65  95 132 162 226 253 322 385
#     4  10  23  42  66  95 129 163 221 267 317 376
#     4  10  22  42  63  97 127 169 213 254 332 365
#
# _framework density 23.266524
#
# number of rings (size 3 to 8) (size 9 to 14) (size 15 to 20)
#    0.000    2.000    1.429    0.000    6.000    9.143 
#   12.857    1.429    0.000    0.000    0.000    0.000 
#    0.000    0.000    0.000    0.000    0.000    0.000 
#
# Total GULP energy -173570.825696 kJ/mol
# GULP energy per Si atom -12397.916121 kJ/mol
# Density = 2.321357 g / cm^3
# Si number density = 23.266524 Si / 1000 Ang^3
#
#
#
# Elastic Constant Matrix: (Units=GPa)
#
#
# Indices 1 2 3 4 5 6 
#
# 1 121.2944 31.9399 32.3244 24.1877 12.9852 -29.3156
# 2 31.9399 56.7392 36.3311 15.6458 1.9641 -21.8463
# 3 32.3244 36.3311 123.0561 20.1519 23.9575 -9.2177
# 4 24.1877 15.6458 20.1519 36.8055 2.5904 -8.5415
# 5 12.9852 1.9641 23.9575 2.5904 39.7227 5.9031
# 6 -29.3156 -21.8463 -9.2177 -8.5415 5.9031 45.2613
#
#
#
# Elastic Compliance Matrix: (Units=1/GPa)
#
#
# Indices 1 2 3 4 5 6 
#
# 1 0.011884 -0.002760 -0.000262 -0.004821 -0.004159 0.005945
# 2 -0.002760 0.028162 -0.006620 -0.004549 0.002420 0.009283
# 3 -0.000262 -0.006620 0.011878 -0.003230 -0.006433 -0.000717
# 4 -0.004821 -0.004549 -0.003230 0.033992 0.001496 0.000244
# 5 -0.004159 0.002420 -0.006433 0.001496 0.031181 -0.006621
# 6 0.005945 0.009283 -0.000717 0.000244 -0.006621 0.031188
#
#
# Mechanical properties :
#
#
# Convention : Reuss Voigt Hill
#
# Bulk Modulus (GPa) = 30.63814 55.80894 43.22354
# Shear Modulus (GPa) = 28.01902 37.72419 32.87161
#
# Velocity S-wave (km/s) = 3.47401 4.03102 3.76284
# Velocity P-wave (km/s) = 5.41190 6.76050 6.12344
#
# Compressibility (1/GPa) = 0.03263905
#
# Stress axis : x y z
#
# Youngs Moduli (GPa) = 84.14339 35.50865 84.19151
#
# Poissons Ratio (x) = 0.09799 0.02210
# Poissons Ratio (y) = 0.23221 0.55738
# Poissons Ratio (z) = 0.02209 0.23508
#
# Static dielectric constant tensor:
#      x y z
#    x 4.585890 -0.371950 -0.146910 
#    y -0.371950 3.983950 -0.020240 
#    z -0.146910 -0.020240 4.206800 
# 
# 
# High freq. dielectric constant tensor:
#      x y z
#    x 1.939400 -0.018800 -0.007690 
#    y -0.018800 1.891330 0.000650 
#    z -0.007690 0.000650 1.926400 
# 
# From -- ./inp_files/597466.got.cif
#   From: 2010.06.25/outbox.cif.g09.slc.cpg/sg2_299_cif.got.tgz:597466.got - 2010.06.27 13:26:56.
