data_PCOD8008888
_publ_section_title
;
Structure prediction by ZEFSAII (Michael W. Deem and Ramdas Pophale) SiO2 
 PCOD8008888
Probable space group: P -1
;
_chemical_formula_sum "Si O2"
_cell_formula_units_Z 16
_cell_length_a 20.221945
_cell_length_b 11.562157
_cell_length_c 14.703384
_cell_angle_alpha 127.885823
_cell_angle_beta 149.616201
_cell_angle_gamma 31.103842
_cell_volume 789.638041
_symmetry_space_group_name_H-M "P -1"
_symmetry_group_IT_number 2
_symmetry_cell_setting 'triclinic'
loop_
_space_group_symop_operation_xyz
x,y,z
-x,-y,-z
loop_
_atom_site_type_symbol
_atom_site_label
_atom_site_fract_x
_atom_site_fract_y
_atom_site_fract_z
Si Si1 0.872080 0.100645 0.230506
Si Si2 0.461951 0.512146 0.821082
Si Si3 0.381876 0.334366 0.976762
Si Si4 0.250809 0.400144 0.520052
Si Si5 0.364845 0.162258 0.242686
Si Si6 0.500308 0.060207 0.154270
Si Si7 0.006815 0.699290 0.559046
Si Si8 0.055705 0.623253 0.217605
O O1 0.703029 0.263274 0.193022
O O2 0.034492 0.093107 0.413494
O O3 0.710009 0.238414 0.017955
O O4 0.044036 0.808747 0.301827
O O5 0.353206 0.460832 0.632248
O O6 0.501447 0.612288 0.847355
O O7 0.143231 0.561525 0.749337
O O8 0.544333 0.070824 0.986084
O O9 0.351188 0.298710 0.025019
O O10 0.154198 0.495655 0.553275
O O11 0.064885 0.537267 0.287194
O O12 0.433403 0.103199 0.593064
O O13 0.439397 0.157505 0.231447
O O14 0.279772 0.375348 0.306021
O O15 0.166785 0.225723 0.025587
O O16 0.769883 0.834772 0.350401
#
# Coordination Sequence:
#
# PCOD8008888 Si02
#       8
#     2   2   2   2   2   2   2   2
#     4   9  18  35  58  87 116 149 186 239 295 331
#     4   9  18  35  60  86 120 140 183 253 291 329
#     4  10  21  35  57  87 119 151 181 237 293 339
#     4  11  22  36  64  89 116 146 193 245 292 335
#     4  11  24  43  55  85 120 154 196 239 274 344
#     4  11  23  36  59  83 121 154 193 223 292 352
#     4  10  22  35  59  92 118 146 184 244 293 344
#     4  11  24  38  63  83 114 158 196 234 287 338
#
# _framework density 20.262449
#
# number of rings (size 3 to 8) (size 9 to 14) (size 15 to 20)
#    0.000    1.750    2.500    2.250    7.000    1.000 
#    0.000    0.625    0.000    1.500    0.000    0.000 
#    0.000    0.000    0.000    0.000    0.000    0.000 
#
# Total GULP energy -198308.535057 kJ/mol
# GULP energy per Si atom -12394.283441 kJ/mol
# Density = 2.021633 g / cm^3
# Si number density = 20.262449 Si / 1000 Ang^3
#
#
#
# Elastic Constant Matrix: (Units=GPa)
#
#
# Indices 1 2 3 4 5 6 
#
# 1 89.0815 51.4223 15.0827 -7.5457 -10.0418 13.3610
# 2 51.4223 122.7232 18.4626 -19.5128 -6.1306 9.7946
# 3 15.0827 18.4626 33.5189 -12.3346 -10.4896 4.1750
# 4 -7.5457 -19.5128 -12.3346 18.4817 6.0858 -3.2401
# 5 -10.0418 -6.1306 -10.4896 6.0858 29.7668 -4.4244
# 6 13.3610 9.7946 4.1750 -3.2401 -4.4244 27.5262
#
#
#
# Elastic Compliance Matrix: (Units=1/GPa)
#
#
# Indices 1 2 3 4 5 6 
#
# 1 0.016307 -0.006420 -0.003935 -0.004621 0.002979 -0.005099
# 2 -0.006420 0.012585 -0.000658 0.010853 -0.002072 -0.000318
# 3 -0.003935 -0.000658 0.043555 0.023767 0.008994 -0.000219
# 4 -0.004621 0.010853 0.023767 0.082536 -0.007330 0.003313
# 5 0.002979 -0.002072 0.008994 -0.007330 0.039344 0.003388
# 6 -0.005099 -0.000318 -0.000219 0.003313 0.003388 0.039885
#
#
# Mechanical properties :
#
#
# Convention : Reuss Voigt Hill
#
# Bulk Modulus (GPa) = 19.83282 46.13984 32.98633
# Shear Modulus (GPa) = 18.31205 25.84534 22.07870
#
# Velocity S-wave (km/s) = 3.00949 3.57533 3.30454
# Velocity P-wave (km/s) = 4.67817 6.31384 5.55652
#
# Compressibility (1/GPa) = 0.05042148
#
# Stress axis : x y z
#
# Youngs Moduli (GPa) = 61.32381 79.46043 22.95961
#
# Poissons Ratio (x) = 0.51012 0.09034
# Poissons Ratio (y) = 0.39368 0.01511
# Poissons Ratio (z) = 0.24129 0.05229
#
# Static dielectric constant tensor:
#      x y z
#    x 3.619380 0.252470 -0.073300 
#    y 0.252470 3.643440 -0.005820 
#    z -0.073300 -0.005820 3.680950 
# 
# 
# High freq. dielectric constant tensor:
#      x y z
#    x 1.776420 0.029270 -0.010290 
#    y 0.029270 1.777050 -0.009410 
#    z -0.010290 -0.009410 1.794550 
# 
# From -- ./inp_files/423430.got.cif
#   From: 2010.06.25/outbox.cif.g09.slc.cpg/sg2_212_cif.got.tgz:423430.got - 2010.06.27 13:26:56.
