data_PCOD8008892
_publ_section_title
;
Structure prediction by ZEFSAII (Michael W. Deem and Ramdas Pophale) SiO2 
 PCOD8008892
Probable space group: P -1
;
_chemical_formula_sum "Si O2"
_cell_formula_units_Z 14
_cell_length_a 12.631780
_cell_length_b 5.240662
_cell_length_c 12.372228
_cell_angle_alpha 121.678294
_cell_angle_beta 65.790680
_cell_angle_gamma 101.871310
_cell_volume 635.653086
_symmetry_space_group_name_H-M "P -1"
_symmetry_group_IT_number 2
_symmetry_cell_setting 'triclinic'
loop_
_space_group_symop_operation_xyz
x,y,z
-x,-y,-z
loop_
_atom_site_type_symbol
_atom_site_label
_atom_site_fract_x
_atom_site_fract_y
_atom_site_fract_z
Si Si1 0.538101 0.182432 0.708967
Si Si2 0.271706 0.248889 0.518372
Si Si3 0.768628 0.403619 0.595290
Si Si4 0.425595 0.080867 0.945166
Si Si5 0.674053 0.531145 0.228526
Si Si6 0.176837 0.268428 0.149027
Si Si7 0.884332 0.420000 0.969314
O O1 0.631318 0.432389 0.689644
O O2 0.421685 0.204624 0.690135
O O3 0.597402 0.852809 0.595657
O O4 0.505485 0.256389 0.864334
O O5 0.208786 0.439949 0.493956
O O6 0.275564 0.452747 0.668398
O O7 0.196098 0.949328 0.505475
O O8 0.844745 0.564159 0.690865
O O9 0.385722 0.784962 0.833325
O O10 0.313440 0.276521 0.066998
O O11 0.500000 0.000000 0.000000
O O12 0.776832 0.578555 0.110492
O O13 0.107870 0.450027 0.125955
O O14 0.129027 0.936081 0.106479
O O15 0.000000 0.500000 0.000000
#
# Coordination Sequence:
#
# PCOD8008892 Si02
#       7
#     2   2   2   2   2   2   2
#     4  10  21  35  57  88 127 161 202 231 293 363
#     4  10  23  37  58  86 130 160 203 229 298 364
#     4  10  23  38  60  91 124 164 194 243 290 373
#     4  11  23  34  58  93 132 163 202 240 302 371
#     4  11  23  38  59  87 123 164 197 254 299 354
#     4  11  22  42  65  88 125 157 201 252 314 348
#     4  11  25  43  67  91 116 156 208 261 306 352
#
# _framework density 22.024594
#
# number of rings (size 3 to 8) (size 9 to 14) (size 15 to 20)
#    0.857    0.571    1.429    4.286    6.000    2.286 
#    0.000    0.000    0.000    5.143    0.000    0.000 
#    0.000    0.000    0.000    0.000    0.000    0.000 
#
# Total GULP energy -173599.193263 kJ/mol
# GULP energy per Si atom -12399.942376 kJ/mol
# Density = 2.197447 g / cm^3
# Si number density = 22.024594 Si / 1000 Ang^3
#
#
#
# Elastic Constant Matrix: (Units=GPa)
#
#
# Indices 1 2 3 4 5 6 
#
# 1 73.6561 32.7341 19.3848 -0.8629 34.7310 -7.2619
# 2 32.7341 131.3683 38.2975 -9.2191 30.0199 -23.2276
# 3 19.3848 38.2975 108.7620 -4.3495 53.1517 -8.0808
# 4 -0.8629 -9.2191 -4.3495 32.0306 -7.8605 16.9498
# 5 34.7310 30.0199 53.1517 -7.8605 39.8074 -9.5966
# 6 -7.2619 -23.2276 -8.0808 16.9498 -9.5966 27.4503
#
#
#
# Elastic Compliance Matrix: (Units=1/GPa)
#
#
# Indices 1 2 3 4 5 6 
#
# 1 0.049881 -0.003035 0.038429 -0.017428 -0.096209 -0.000933
# 2 -0.003035 0.010524 -0.002411 -0.001957 -0.000418 0.008455
# 3 0.038429 -0.002411 0.057087 -0.017646 -0.112241 -0.003412
# 4 -0.017428 -0.001957 -0.017646 0.054218 0.043807 -0.029624
# 5 -0.096209 -0.000418 -0.112241 0.043807 0.269936 0.008473
# 6 -0.000933 0.008455 -0.003412 -0.029624 0.008473 0.063587
#
#
# Mechanical properties :
#
#
# Convention : Reuss Voigt Hill
#
# Bulk Modulus (GPa) = 5.45080 54.95768 30.20424
# Shear Modulus (GPa) = 9.99162 34.74899 22.37031
#
# Velocity S-wave (km/s) = 2.13223 3.97638 3.19046
# Velocity P-wave (km/s) = 2.92269 6.78890 5.22644
#
# Compressibility (1/GPa) = 0.18345921
#
# Stress axis : x y z
#
# Youngs Moduli (GPa) = 20.04775 95.01755 17.51724
#
# Poissons Ratio (x) = 0.28837 -0.67317
# Poissons Ratio (y) = 0.06084 0.04223
# Poissons Ratio (z) = -0.77042 0.22905
#
# Static dielectric constant tensor:
#      x y z
#    x 3.650170 -0.007130 0.138810 
#    y -0.007130 3.905900 -0.042080 
#    z 0.138810 -0.042080 3.852220 
# 
# 
# High freq. dielectric constant tensor:
#      x y z
#    x 1.836950 -0.007150 0.022150 
#    y -0.007150 1.868440 -0.003110 
#    z 0.022150 -0.003110 1.866170 
# 
# From -- ./inp_files/85280.got.cif
#   From: 2010.06.25/outbox.cif.g09.slc.cpg/sg2_43_cif.got.tgz:85280.got - 2010.06.27 13:26:56.
