data_PCOD8008183
_publ_section_title
;
Structure prediction by ZEFSAII (Michael W. Deem and Ramdas Pophale) SiO2 
 PCOD8008183
Probable space group: P -1
;
_chemical_formula_sum "Si O2"
_cell_formula_units_Z 16
_cell_length_a 6.849710
_cell_length_b 14.367789
_cell_length_c 16.039837
_cell_angle_alpha 41.387978
_cell_angle_beta 100.904304
_cell_angle_gamma 125.025046
_cell_volume 764.992493
_symmetry_space_group_name_H-M "P -1"
_symmetry_group_IT_number 2
_symmetry_cell_setting 'triclinic'
loop_
_space_group_symop_operation_xyz
x,y,z
-x,-y,-z
loop_
_atom_site_type_symbol
_atom_site_label
_atom_site_fract_x
_atom_site_fract_y
_atom_site_fract_z
Si Si1 0.172080 0.170815 0.500898
Si Si2 0.424838 0.408476 0.753009
Si Si3 0.162959 0.113490 0.185490
Si Si4 0.269810 0.944122 0.578169
Si Si5 0.958246 0.074428 0.863360
Si Si6 0.575919 0.161560 0.958606
Si Si7 0.738333 0.331566 0.141184
Si Si8 0.832226 0.607979 0.086613
O O1 0.369154 0.382805 0.409556
O O2 0.003100 0.168315 0.418171
O O3 0.348630 0.129497 0.502559
O O4 0.975696 0.013059 0.659153
O O5 0.166108 0.299580 0.744032
O O6 0.544399 0.306657 0.823508
O O7 0.347432 0.412575 0.839433
O O8 0.473785 0.217018 0.140590
O O9 0.153007 0.277483 0.067129
O O10 0.986717 0.977933 0.183520
O O11 0.218123 0.809368 0.737427
O O12 0.500000 0.000000 0.500000
O O13 0.000000 0.000000 0.000000
O O14 0.647521 0.969742 0.900044
O O15 0.872306 0.286431 0.930319
O O16 0.500000 0.000000 0.000000
O O17 0.701252 0.405648 0.173530
O O18 0.000000 0.500000 0.000000
#
# Coordination Sequence:
#
# PCOD8008183 Si02
#       8
#     2   2   2   2   2   2   2   2
#     4  11  26  41  69  96 137 182 214 270 336 404
#     4  11  23  42  68 101 125 175 233 264 329 406
#     4  12  24  44  64 100 140 173 220 279 337 392
#     4  11  23  48  66  93 139 184 217 260 342 405
#     4  10  20  42  67  93 130 170 219 279 326 388
#     4  11  20  40  70  99 125 171 224 275 333 385
#     4  12  26  41  69 103 132 173 228 282 331 395
#     4  12  23  40  69  97 134 170 224 282 326 394
#
# _framework density 20.915239
#
# number of rings (size 3 to 8) (size 9 to 14) (size 15 to 20)
#    0.000    0.750    5.000    4.125    3.500    0.500 
#    0.000    0.000    0.000    2.250    0.000    0.000 
#    0.000    0.000    0.000    0.000    0.000    0.000 
#
# Total GULP energy -198286.864657 kJ/mol
# GULP energy per Si atom -12392.929041 kJ/mol
# Density = 2.086763 g / cm^3
# Si number density = 20.915239 Si / 1000 Ang^3
#
#
#
# Elastic Constant Matrix: (Units=GPa)
#
#
# Indices 1 2 3 4 5 6 
#
# 1 109.3477 31.2415 46.5434 -6.6056 6.5348 -3.7213
# 2 31.2415 114.6127 24.9605 -14.5250 10.0918 -0.7490
# 3 46.5434 24.9605 95.9380 -18.6734 3.4407 12.1250
# 4 -6.6056 -14.5250 -18.6734 36.3356 -0.9030 3.4084
# 5 6.5348 10.0918 3.4407 -0.9030 32.5011 -4.2663
# 6 -3.7213 -0.7490 12.1250 3.4084 -4.2663 34.7296
#
#
#
# Elastic Compliance Matrix: (Units=1/GPa)
#
#
# Indices 1 2 3 4 5 6 
#
# 1 0.012524 -0.002222 -0.006369 -0.002245 -0.000737 0.003647
# 2 -0.002222 0.010135 -0.000794 0.003210 -0.002576 -0.000374
# 3 -0.006369 -0.000794 0.016109 0.007453 -0.000912 -0.007167
# 4 -0.002245 0.003210 0.007453 0.032772 -0.001230 -0.006141
# 5 -0.000737 -0.002576 -0.000912 -0.001230 0.032340 0.004277
# 6 0.003647 -0.000374 -0.007167 -0.006141 0.004277 0.032807
#
#
# Mechanical properties :
#
#
# Convention : Reuss Voigt Hill
#
# Bulk Modulus (GPa) = 50.00913 58.37658 54.19285
# Shear Modulus (GPa) = 30.84064 35.19012 33.01538
#
# Velocity S-wave (km/s) = 3.84416 4.10629 3.97739
# Velocity P-wave (km/s) = 6.60800 7.10308 6.86001
#
# Compressibility (1/GPa) = 0.01999635
#
# Stress axis : x y z
#
# Youngs Moduli (GPa) = 79.84899 98.66784 62.07676
#
# Poissons Ratio (x) = 0.21929 0.39537
# Poissons Ratio (y) = 0.17746 0.04930
# Poissons Ratio (z) = 0.50856 0.07836
#
# Static dielectric constant tensor:
#      x y z
#    x 3.928720 0.097360 -0.190750 
#    y 0.097360 4.102440 -0.140150 
#    z -0.190750 -0.140150 3.392950 
# 
# 
# High freq. dielectric constant tensor:
#      x y z
#    x 1.829070 -0.001870 -0.000930 
#    y -0.001870 1.826420 -0.017430 
#    z -0.000930 -0.017430 1.805100 
# 
# From -- ./inp_files/549939.got.cif
#   From: 2010.06.25/outbox.cif.g09.slc.cpg/sg2_275_cif.got.tgz:549939.got - 2010.06.27 13:26:56.
