data_PCOD8008182
_publ_section_title
;
Structure prediction by ZEFSAII (Michael W. Deem and Ramdas Pophale) SiO2 
 PCOD8008182
Probable space group: P -1
;
_chemical_formula_sum "Si O2"
_cell_formula_units_Z 16
_cell_length_a 18.955830
_cell_length_b 5.554586
_cell_length_c 9.067586
_cell_angle_alpha 80.631216
_cell_angle_beta 70.419119
_cell_angle_gamma 44.699023
_cell_volume 628.601050
_symmetry_space_group_name_H-M "P -1"
_symmetry_group_IT_number 2
_symmetry_cell_setting 'triclinic'
loop_
_space_group_symop_operation_xyz
x,y,z
-x,-y,-z
loop_
_atom_site_type_symbol
_atom_site_label
_atom_site_fract_x
_atom_site_fract_y
_atom_site_fract_z
Si Si1 0.634391 0.481844 0.861655
Si Si2 0.946514 0.514708 0.818855
Si Si3 0.862276 0.706089 0.162522
Si Si4 0.998012 0.084950 0.328381
Si Si5 0.696804 0.368926 0.377110
Si Si6 0.557199 0.776552 0.188708
Si Si7 0.618876 0.188903 0.657885
Si Si8 0.788641 0.425666 0.564894
O O1 0.637426 0.202199 0.819006
O O2 0.735340 0.398910 0.738531
O O3 0.519145 0.838231 0.852562
O O4 0.635311 0.492912 0.035278
O O5 0.057430 0.255553 0.856862
O O6 0.936589 0.804317 0.711422
O O7 0.937475 0.301174 0.738115
O O8 0.855029 0.696613 0.990093
O O9 0.905077 0.360326 0.246757
O O10 0.748287 0.039992 0.272690
O O11 0.917080 0.187166 0.520575
O O12 0.631693 0.696034 0.279154
O O13 0.610849 0.457138 0.544038
O O14 0.783160 0.306704 0.422211
O O15 0.485916 0.720790 0.305704
O O16 0.726194 0.821034 0.559291
#
# Coordination Sequence:
#
# PCOD8008182 Si02
#       8
#     2   2   2   2   2   2   2   2
#     4   9  21  37  51  71  98 139 183 215 260 321
#     4   9  18  27  49  72 114 144 171 207 271 323
#     4   9  18  28  46  74 112 136 170 213 270 319
#     4  10  16  31  48  77 107 143 175 213 263 322
#     4  11  20  32  49  80 106 132 171 224 275 313
#     4  10  21  36  53  70 101 139 176 220 266 320
#     4  10  19  34  52  73 100 133 174 219 268 314
#     4  10  19  31  52  75 107 132 170 224 261 317
#
# _framework density 25.453347999999998
#
# number of rings (size 3 to 8) (size 9 to 14) (size 15 to 20)
#    0.750    1.500    2.500    1.125    1.750    5.500 
#    0.000    0.000    0.000    0.000    0.000    1.750 
#    0.000    0.000    0.000    0.000    0.000    0.000 
#
# Total GULP energy -198230.748044 kJ/mol
# GULP energy per Si atom -12389.421753 kJ/mol
# Density = 2.539541 g / cm^3
# Si number density = 25.453348 Si / 1000 Ang^3
#
#
#
# Elastic Constant Matrix: (Units=GPa)
#
#
# Indices 1 2 3 4 5 6 
#
# 1 85.5644 40.7006 43.6630 6.9279 7.6590 -4.8982
# 2 40.7006 85.3613 56.0865 12.5593 0.8670 16.4409
# 3 43.6630 56.0865 142.2597 24.8526 12.7005 -3.2045
# 4 6.9279 12.5593 24.8526 37.6849 1.0698 1.3995
# 5 7.6590 0.8670 12.7005 1.0698 29.2170 6.3357
# 6 -4.8982 16.4409 -3.2045 1.3995 6.3357 45.8856
#
#
#
# Elastic Compliance Matrix: (Units=1/GPa)
#
#
# Indices 1 2 3 4 5 6 
#
# 1 0.017038 -0.008129 -0.001585 0.000560 -0.004696 0.005252
# 2 -0.008129 0.022169 -0.006868 -0.001177 0.006709 -0.010181
# 3 -0.001585 -0.006868 0.011664 -0.005114 -0.005125 0.003970
# 4 0.000560 -0.001177 -0.005114 0.030199 0.001214 -0.000964
# 5 -0.004696 0.006709 -0.005125 0.001214 0.039335 -0.008731
# 6 0.005252 -0.010181 0.003970 -0.000964 -0.008731 0.027514
#
#
# Mechanical properties :
#
#
# Convention : Reuss Voigt Hill
#
# Bulk Modulus (GPa) = 56.47271 66.00950 61.24111
# Shear Modulus (GPa) = 26.73997 34.07318 30.40657
#
# Velocity S-wave (km/s) = 3.24473 3.66273 3.46005
# Velocity P-wave (km/s) = 6.02268 6.62399 6.33048
#
# Compressibility (1/GPa) = 0.01770767
#
# Stress axis : x y z
#
# Youngs Moduli (GPa) = 58.69192 45.10722 85.73378
#
# Poissons Ratio (x) = 0.36666 0.13589
# Poissons Ratio (y) = 0.47709 0.58884
# Poissons Ratio (z) = 0.09303 0.30981
#
# Static dielectric constant tensor:
#      x y z
#    x 4.291160 0.007350 0.088730 
#    y 0.007350 4.319460 0.039860 
#    z 0.088730 0.039860 4.926070 
# 
# 
# High freq. dielectric constant tensor:
#      x y z
#    x 2.000970 -0.005230 -0.001060 
#    y -0.005230 2.002910 0.007050 
#    z -0.001060 0.007050 2.040700 
# 
# From -- ./inp_files/350718.got.cif
#   From: 2010.06.25/outbox.cif.g09.slc.cpg/sg2_176_cif.got.tgz:350718.got - 2010.06.27 13:26:56.
