data_PCOD8008256
_publ_section_title
;
Structure prediction by ZEFSAII (Michael W. Deem and Ramdas Pophale) SiO2 
 PCOD8008256
Probable space group: P -1
;
_chemical_formula_sum "Si O2"
_cell_formula_units_Z 14
_cell_length_a 8.966264
_cell_length_b 12.824292
_cell_length_c 9.579691
_cell_angle_alpha 55.639658
_cell_angle_beta 113.834913
_cell_angle_gamma 131.408374
_cell_volume 681.157241
_symmetry_space_group_name_H-M "P -1"
_symmetry_group_IT_number 2
_symmetry_cell_setting 'triclinic'
loop_
_space_group_symop_operation_xyz
x,y,z
-x,-y,-z
loop_
_atom_site_type_symbol
_atom_site_label
_atom_site_fract_x
_atom_site_fract_y
_atom_site_fract_z
Si Si1 0.527304 0.136371 0.996100
Si Si2 0.393789 0.976778 0.623054
Si Si3 0.442866 0.275981 0.494179
Si Si4 0.558734 0.531568 0.157553
Si Si5 0.056103 0.222212 0.479846
Si Si6 0.687980 0.439327 0.728924
Si Si7 0.156261 0.151352 0.861266
O O1 0.554626 0.115818 0.184558
O O2 0.717586 0.303982 0.884989
O O3 0.336770 0.140286 0.894534
O O4 0.500000 0.000000 0.000000
O O5 0.158970 0.885729 0.586987
O O6 0.500000 0.000000 0.500000
O O7 0.476015 0.141277 0.599977
O O8 0.565491 0.391133 0.324114
O O9 0.209327 0.209920 0.451722
O O10 0.525951 0.374276 0.593134
O O11 0.392055 0.528264 0.187468
O O12 0.767589 0.698597 0.127193
O O13 0.500000 0.500000 0.000000
O O14 0.115067 0.398451 0.369495
O O15 0.049774 0.163124 0.677514
O O16 0.000000 0.000000 0.000000
#
# Coordination Sequence:
#
# PCOD8008256 Si02
#       7
#     2   2   2   2   2   2   2
#     4  11  22  42  63  89 126 169 202 248 320 376
#     4  12  27  40  61  95 137 163 200 262 323 368
#     4  11  20  43  70  88 122 173 212 253 307 376
#     4  10  21  36  63  99 121 154 208 271 308 346
#     4  11  21  43  67  94 117 168 222 254 300 377
#     4  10  20  42  69  87 123 167 214 257 306 373
#     4  11  22  39  66  92 126 158 210 263 307 365
#
# _framework density 20.553256000000001
#
# number of rings (size 3 to 8) (size 9 to 14) (size 15 to 20)
#    0.000    1.143    5.714    2.143    6.000    0.571 
#    2.571    2.143    0.000    0.000    0.000    0.000 
#    0.000    0.000    0.000    0.000    0.000    0.000 
#
# Total GULP energy -173545.419233 kJ/mol
# GULP energy per Si atom -12396.101374 kJ/mol
# Density = 2.050648 g / cm^3
# Si number density = 20.553256 Si / 1000 Ang^3
#
#
#
# Elastic Constant Matrix: (Units=GPa)
#
#
# Indices 1 2 3 4 5 6 
#
# 1 40.0512 22.6042 17.1721 -0.4201 -5.3390 -4.8188
# 2 22.6042 105.6199 56.5119 -17.5441 -4.9784 -3.9636
# 3 17.1721 56.5119 175.6504 -17.5640 -10.0046 -2.1130
# 4 -0.4201 -17.5441 -17.5640 52.7533 -2.0395 -1.8131
# 5 -5.3390 -4.9784 -10.0046 -2.0395 29.7623 -3.5945
# 6 -4.8188 -3.9636 -2.1130 -1.8131 -3.5945 28.2912
#
#
#
# Elastic Compliance Matrix: (Units=1/GPa)
#
#
# Indices 1 2 3 4 5 6 
#
# 1 0.029759 -0.005771 -0.000904 -0.001648 0.004519 0.004661
# 2 -0.005771 0.013045 -0.003277 0.003245 0.000371 0.000855
# 3 -0.000904 -0.003277 0.007074 0.001335 0.001787 0.000228
# 4 -0.001648 0.003245 0.001335 0.020622 0.002338 0.001892
# 5 0.004519 0.000371 0.001787 0.002338 0.035918 0.005668
# 6 0.004661 0.000855 0.000228 0.001892 0.005668 0.037119
#
#
# Mechanical properties :
#
#
# Convention : Reuss Voigt Hill
#
# Bulk Modulus (GPa) = 33.36258 57.09975 45.23116
# Shear Modulus (GPa) = 28.82997 37.16357 32.99677
#
# Velocity S-wave (km/s) = 3.74932 4.25686 4.01113
# Velocity P-wave (km/s) = 5.91698 7.21130 6.59597
#
# Compressibility (1/GPa) = 0.02997370
#
# Stress axis : x y z
#
# Youngs Moduli (GPa) = 33.60373 76.65865 141.36771
#
# Poissons Ratio (x) = 0.44240 0.12779
# Poissons Ratio (y) = 0.19393 0.46324
# Poissons Ratio (z) = 0.03038 0.25120
#
# Static dielectric constant tensor:
#      x y z
#    x 3.300140 0.000920 0.001680 
#    y 0.000920 4.146510 -0.603250 
#    z 0.001680 -0.603250 4.381380 
# 
# 
# High freq. dielectric constant tensor:
#      x y z
#    x 1.756170 -0.009130 -0.005550 
#    y -0.009130 1.817540 -0.019830 
#    z -0.005550 -0.019830 1.831560 
# 
# From -- ./inp_files/158808.got.cif
#   From: 2010.06.25/outbox.cif.g09.slc.cpg/sg2_80_cif.got.tgz:158808.got - 2010.06.27 13:26:56.
