data_PCOD8008388
_publ_section_title
;
Structure prediction by ZEFSAII (Michael W. Deem and Ramdas Pophale) SiO2 
 PCOD8008388
Probable space group: P -1
;
_chemical_formula_sum "Si O2"
_cell_formula_units_Z 16
_cell_length_a 12.347647
_cell_length_b 11.918808
_cell_length_c 12.012919
_cell_angle_alpha 75.911809
_cell_angle_beta 73.565897
_cell_angle_gamma 139.881474
_cell_volume 730.220972
_symmetry_space_group_name_H-M "P -1"
_symmetry_group_IT_number 2
_symmetry_cell_setting 'triclinic'
loop_
_space_group_symop_operation_xyz
x,y,z
-x,-y,-z
loop_
_atom_site_type_symbol
_atom_site_label
_atom_site_fract_x
_atom_site_fract_y
_atom_site_fract_z
Si Si1 0.302281 0.255558 0.482126
Si Si2 0.172045 0.301146 0.173469
Si Si3 0.834307 0.063179 0.948434
Si Si4 0.261248 0.671509 0.376846
Si Si5 0.213480 0.759814 0.948157
Si Si6 0.330869 0.679745 0.103447
Si Si7 0.713117 0.532680 0.443388
Si Si8 0.370816 0.363691 0.900059
O O1 0.435666 0.311485 0.532085
O O2 0.222719 0.314720 0.517246
O O3 0.481972 0.417881 0.281860
O O4 0.039475 0.944905 0.621726
O O5 0.156538 0.426425 0.149957
O O6 0.441399 0.517828 0.094042
O O7 0.163479 0.247196 0.060646
O O8 0.098391 0.284571 0.758493
O O9 0.871265 0.187071 0.010033
O O10 0.632013 0.926615 0.949115
O O11 0.757485 0.865692 0.067954
O O12 0.271809 0.623029 0.265016
O O13 0.273125 0.583356 0.486612
O O14 0.000000 0.500000 0.500000
O O15 0.508194 0.980094 0.254826
O O16 0.260768 0.737999 0.056496
O O17 0.000000 0.500000 0.000000
#
# Coordination Sequence:
#
# PCOD8008388 Si02
#       8
#     2   2   2   2   2   2   2   2
#     4  11  23  39  60 101 139 167 217 272 337 392
#     4  10  21  40  63  95 135 167 224 270 323 403
#     4  10  20  43  66  88 129 177 223 257 331 411
#     4  11  23  46  71  92 128 180 229 272 332 405
#     4  11  24  41  67  97 127 167 226 288 333 388
#     4  10  22  42  66  93 126 176 220 269 333 402
#     4  11  23  39  64  96 129 172 218 274 328 398
#     4  10  21  40  66  93 125 184 215 265 330 402
#
# _framework density 21.911175
#
# number of rings (size 3 to 8) (size 9 to 14) (size 15 to 20)
#    0.000    1.500    1.250    5.625    1.750    1.500 
#    6.750    1.250    0.000    0.000    0.000    0.000 
#    0.000    0.000    0.000    0.000    0.000    0.000 
#
# Total GULP energy -198336.387043 kJ/mol
# GULP energy per Si atom -12396.024190 kJ/mol
# Density = 2.186130 g / cm^3
# Si number density = 21.911175 Si / 1000 Ang^3
#
#
#
# Elastic Constant Matrix: (Units=GPa)
#
#
# Indices 1 2 3 4 5 6 
#
# 1 90.5368 25.9274 27.7134 -8.9358 0.7985 -13.0867
# 2 25.9274 106.8955 33.1123 -18.9740 -7.7849 -26.3990
# 3 27.7134 33.1123 130.1047 -14.2457 -5.0469 -17.1975
# 4 -8.9358 -18.9740 -14.2457 29.1847 -4.5783 5.1562
# 5 0.7985 -7.7849 -5.0469 -4.5783 23.8199 -4.0405
# 6 -13.0867 -26.3990 -17.1975 5.1562 -4.0405 26.8157
#
#
#
# Elastic Compliance Matrix: (Units=1/GPa)
#
#
# Indices 1 2 3 4 5 6 
#
# 1 0.012618 -0.001517 -0.001745 0.001384 -0.000479 0.003207
# 2 -0.001517 0.015424 -0.000519 0.008260 0.008922 0.013867
# 3 -0.001745 -0.000519 0.009271 0.003383 0.003254 0.004423
# 4 0.001384 0.008260 0.003383 0.042839 0.012385 0.004605
# 5 -0.000479 0.008922 0.003254 0.012385 0.050679 0.015891
# 6 0.003207 0.013867 0.004423 0.004605 0.015891 0.056855
#
#
# Mechanical properties :
#
#
# Convention : Reuss Voigt Hill
#
# Bulk Modulus (GPa) = 33.61149 55.67148 44.64149
# Shear Modulus (GPa) = 24.37066 32.01631 28.19349
#
# Velocity S-wave (km/s) = 3.33866 3.82669 3.59098
# Velocity P-wave (km/s) = 5.49867 6.70729 6.13283
#
# Compressibility (1/GPa) = 0.02975173
#
# Stress axis : x y z
#
# Youngs Moduli (GPa) = 79.25075 64.83305 107.86182
#
# Poissons Ratio (x) = 0.09837 0.18819
# Poissons Ratio (y) = 0.12025 0.05596
# Poissons Ratio (z) = 0.13827 0.03364
#
# Static dielectric constant tensor:
#      x y z
#    x 4.117220 -0.222330 -0.183720 
#    y -0.222330 3.974100 -0.177310 
#    z -0.183720 -0.177310 3.980010 
# 
# 
# High freq. dielectric constant tensor:
#      x y z
#    x 1.865270 -0.006380 0.000450 
#    y -0.006380 1.848480 -0.011490 
#    z 0.000450 -0.011490 1.862680 
# 
# From -- ./inp_files/427994.got.cif
#   From: 2010.06.25/outbox.cif.g09.slc.cpg/sg2_214_cif.got.tgz:427994.got - 2010.06.27 13:26:56.
