data_PCOD8008802
_publ_section_title
;
Structure prediction by ZEFSAII (Michael W. Deem and Ramdas Pophale) SiO2 
 PCOD8008802
Probable space group: P -1
;
_chemical_formula_sum "Si O2"
_cell_formula_units_Z 14
_cell_length_a 16.265075
_cell_length_b 11.088604
_cell_length_c 10.953085
_cell_angle_alpha 27.062965
_cell_angle_beta 109.261985
_cell_angle_gamma 92.566207
_cell_volume 691.335157
_symmetry_space_group_name_H-M "P -1"
_symmetry_group_IT_number 2
_symmetry_cell_setting 'triclinic'
loop_
_space_group_symop_operation_xyz
x,y,z
-x,-y,-z
loop_
_atom_site_type_symbol
_atom_site_label
_atom_site_fract_x
_atom_site_fract_y
_atom_site_fract_z
Si Si1 0.046318 0.313480 0.565314
Si Si2 0.622187 0.111306 0.569846
Si Si3 0.830481 0.485268 0.284959
Si Si4 0.593712 0.454892 0.802948
Si Si5 0.336731 0.508164 0.936236
Si Si6 0.170273 0.599196 0.359932
Si Si7 0.612909 0.845820 0.256876
O O1 0.110062 0.443758 0.416704
O O2 0.000000 0.500000 0.500000
O O3 0.941540 0.401783 0.358375
O O4 0.126476 0.929236 0.969446
O O5 0.534239 0.303646 0.458634
O O6 0.610380 0.374787 0.234302
O O7 0.741073 0.879301 0.896673
O O8 0.596684 0.883971 0.688826
O O9 0.786061 0.334600 0.307968
O O10 0.850195 0.330564 0.568755
O O11 0.631546 0.606418 0.589783
O O12 0.659659 0.386868 0.020665
O O13 0.624291 0.116322 0.073049
O O14 0.296590 0.354980 0.619814
O O15 0.500000 0.000000 0.000000
#
# Coordination Sequence:
#
# PCOD8008802 Si02
#       7
#     2   2   2   2   2   2   2
#     4  10  21  36  61  89 120 154 190 252 304 348
#     4  10  21  34  61  92 122 148 195 246 308 344
#     4   9  22  34  64  91 120 144 197 249 311 342
#     4  12  23  42  61  87 126 159 204 234 298 355
#     4  10  22  36  62  91 123 152 192 255 304 345
#     4  11  23  39  59  87 125 154 199 239 299 354
#     4  12  27  42  62  86 121 170 198 237 279 363
#
# _framework density 20.250668999999998
#
# number of rings (size 3 to 8) (size 9 to 14) (size 15 to 20)
#    0.857    0.571    0.000    6.429    8.000    0.000 
#    0.000    0.000    0.000    5.143    0.000    0.000 
#    0.000    0.000    0.000    0.000    0.000    0.000 
#
# Total GULP energy -173541.440537 kJ/mol
# GULP energy per Si atom -12395.817181 kJ/mol
# Density = 2.020458 g / cm^3
# Si number density = 20.250669 Si / 1000 Ang^3
#
#
#
# Elastic Constant Matrix: (Units=GPa)
#
#
# Indices 1 2 3 4 5 6 
#
# 1 112.9460 32.3754 49.3070 -0.8035 -2.8650 14.1774
# 2 32.3754 47.6957 11.3642 -6.0069 2.4336 8.8312
# 3 49.3070 11.3642 82.3447 -21.9294 -8.8494 12.5083
# 4 -0.8035 -6.0069 -21.9294 28.9343 6.3331 -0.6500
# 5 -2.8650 2.4336 -8.8494 6.3331 49.3959 4.0679
# 6 14.1774 8.8312 12.5083 -0.6500 4.0679 26.2489
#
#
#
# Elastic Compliance Matrix: (Units=1/GPa)
#
#
# Indices 1 2 3 4 5 6 
#
# 1 0.016511 -0.009756 -0.011034 -0.010126 0.000822 -0.000756
# 2 -0.009756 0.028867 0.005305 0.009989 -0.001787 -0.006447
# 3 -0.011034 0.005305 0.024254 0.018656 0.001643 -0.007176
# 4 -0.010126 0.009989 0.018656 0.051237 -0.003902 -0.004908
# 5 0.000822 -0.001787 0.001643 -0.003902 0.021509 -0.004055
# 6 -0.000756 -0.006447 -0.007176 -0.004908 -0.004055 0.044600
#
#
# Mechanical properties :
#
#
# Convention : Reuss Voigt Hill
#
# Bulk Modulus (GPa) = 25.86448 47.67551 36.76999
# Shear Modulus (GPa) = 21.66062 30.91180 26.28621
#
# Velocity S-wave (km/s) = 3.27406 3.91123 3.60674
# Velocity P-wave (km/s) = 5.20505 6.63255 5.96168
#
# Compressibility (1/GPa) = 0.03866306
#
# Stress axis : x y z
#
# Youngs Moduli (GPa) = 60.56709 34.64141 41.23105
#
# Poissons Ratio (x) = 0.33795 0.45493
# Poissons Ratio (y) = 0.59087 -0.21873
# Poissons Ratio (z) = 0.66827 -0.18377
#
# Static dielectric constant tensor:
#      x y z
#    x 4.267330 0.345970 -0.066900 
#    y 0.345970 3.463660 0.003510 
#    z -0.066900 0.003510 3.717460 
# 
# 
# High freq. dielectric constant tensor:
#      x y z
#    x 1.801340 0.024980 -0.008430 
#    y 0.024980 1.756410 -0.001740 
#    z -0.008430 -0.001740 1.799170 
# 
# From -- ./inp_files/80096.got.cif
#   From: 2010.06.25/outbox.cif.g09.slc.cpg/sg2_41_cif.got.tgz:80096.got - 2010.06.27 13:26:56.
