data_PCOD8008356
_publ_section_title
;
Structure prediction by ZEFSAII (Michael W. Deem and Ramdas Pophale) SiO2 
 PCOD8008356
Probable space group: P -1
;
_chemical_formula_sum "Si O2"
_cell_formula_units_Z 16
_cell_length_a 8.954189
_cell_length_b 9.451555
_cell_length_c 16.546099
_cell_angle_alpha 63.577898
_cell_angle_beta 93.987991
_cell_angle_gamma 47.884950
_cell_volume 774.506571
_symmetry_space_group_name_H-M "P -1"
_symmetry_group_IT_number 2
_symmetry_cell_setting 'triclinic'
loop_
_space_group_symop_operation_xyz
x,y,z
-x,-y,-z
loop_
_atom_site_type_symbol
_atom_site_label
_atom_site_fract_x
_atom_site_fract_y
_atom_site_fract_z
Si Si1 0.573563 0.513051 0.183830
Si Si2 0.255375 0.265418 0.114422
Si Si3 0.810460 0.018630 0.857170
Si Si4 0.723756 0.410877 0.666118
Si Si5 0.674400 0.497965 0.021851
Si Si6 0.776290 0.298451 0.420579
Si Si7 0.446859 0.275713 0.266130
Si Si8 0.019126 0.299324 0.557362
O O1 0.323657 0.818669 0.106862
O O2 0.726418 0.463437 0.129317
O O3 0.715705 0.409477 0.299978
O O4 0.509802 0.384538 0.192315
O O5 0.275373 0.302841 0.199586
O O6 0.330638 0.019051 0.175175
O O7 0.429601 0.245642 0.077510
O O8 0.000000 0.500000 0.000000
O O9 0.816633 0.160426 0.759573
O O10 0.082429 0.742053 0.957622
O O11 0.450542 0.608710 0.572795
O O12 0.703544 0.553366 0.702698
O O13 0.910067 0.324303 0.630560
O O14 0.500000 0.500000 0.000000
O O15 0.848069 0.384281 0.457039
O O16 0.000000 0.000000 0.500000
O O17 0.702443 0.981849 0.371940
O O18 0.000000 0.500000 0.500000
#
# Coordination Sequence:
#
# PCOD8008356 Si02
#       8
#     2   2   2   2   2   2   2   2
#     4  10  21  40  64  89 124 168 209 253 311 371
#     4  10  22  42  61  93 130 163 207 268 311 369
#     4   9  22  40  61  90 121 161 211 254 311 373
#     4  10  23  43  66  90 123 176 206 255 327 372
#     4  11  21  38  65  92 123 168 207 255 323 366
#     4  10  20  43  64  91 130 163 211 260 306 385
#     4  10  21  43  63  90 133 159 214 264 310 377
#     4  12  25  41  65  98 129 163 213 264 319 383
#
# _framework density 20.658313
#
# number of rings (size 3 to 8) (size 9 to 14) (size 15 to 20)
#    0.000    2.000    3.750    1.125    3.500    1.500 
#    6.750    0.000    0.000    0.000    0.000    0.000 
#    0.000    0.000    0.000    0.000    0.000    0.000 
#
# Total GULP energy -198220.446487 kJ/mol
# GULP energy per Si atom -12388.777905 kJ/mol
# Density = 2.061129 g / cm^3
# Si number density = 20.658313 Si / 1000 Ang^3
#
#
#
# Elastic Constant Matrix: (Units=GPa)
#
#
# Indices 1 2 3 4 5 6 
#
# 1 104.4490 41.6554 36.9645 -1.2887 -6.9695 31.0445
# 2 41.6554 97.7089 41.5599 -7.4447 -8.0903 18.7468
# 3 36.9645 41.5599 68.1603 0.6675 -4.4533 5.3998
# 4 -1.2887 -7.4447 0.6675 35.4768 6.3051 1.1325
# 5 -6.9695 -8.0903 -4.4533 6.3051 44.2986 -1.2156
# 6 31.0445 18.7468 5.3998 1.1325 -1.2156 40.4502
#
#
#
# Elastic Compliance Matrix: (Units=1/GPa)
#
#
# Indices 1 2 3 4 5 6 
#
# 1 0.015787 -0.001822 -0.006558 0.000442 0.001144 -0.010374
# 2 -0.001822 0.015792 -0.008211 0.003352 0.001161 -0.004884
# 3 -0.006558 -0.008211 0.022814 -0.002631 0.000298 0.005876
# 4 0.000442 0.003352 -0.002631 0.029726 -0.003882 -0.002491
# 5 0.001144 0.001161 0.000298 -0.003882 0.023531 -0.000640
# 6 -0.010374 -0.004884 0.005876 -0.002491 -0.000640 0.034213
#
#
# Mechanical properties :
#
#
# Convention : Reuss Voigt Hill
#
# Bulk Modulus (GPa) = 47.14602 56.74199 51.94400
# Shear Modulus (GPa) = 27.45495 34.05434 30.75464
#
# Velocity S-wave (km/s) = 3.64950 4.06452 3.86259
# Velocity P-wave (km/s) = 6.37416 7.03944 6.71504
#
# Compressibility (1/GPa) = 0.02121070
#
# Stress axis : x y z
#
# Youngs Moduli (GPa) = 63.34390 63.32209 43.83196
#
# Poissons Ratio (x) = 0.11536 0.28747
# Poissons Ratio (y) = 0.11540 0.35991
# Poissons Ratio (z) = 0.41543 0.51995
#
# Static dielectric constant tensor:
#      x y z
#    x 3.574310 0.262080 -1.028080 
#    y 0.262080 3.971200 0.216910 
#    z -1.028080 0.216910 3.251600 
# 
# 
# High freq. dielectric constant tensor:
#      x y z
#    x 1.805680 0.016000 0.001330 
#    y 0.016000 1.811880 -0.003280 
#    z 0.001330 -0.003280 1.802990 
# 
# From -- ./inp_files/556069.got.cif
#   From: 2010.06.25/outbox.cif.g09.slc.cpg/sg2_279_cif.got.tgz:556069.got - 2010.06.27 13:26:56.
