data_PCOD8008351
_publ_section_title
;
Structure prediction by ZEFSAII (Michael W. Deem and Ramdas Pophale) SiO2 
 PCOD8008351
Probable space group: P -1
;
_chemical_formula_sum "Si O2"
_cell_formula_units_Z 16
_cell_length_a 11.464206
_cell_length_b 14.526298
_cell_length_c 15.078275
_cell_angle_alpha 151.614648
_cell_angle_beta 137.712425
_cell_angle_gamma 41.476702
_cell_volume 764.267725
_symmetry_space_group_name_H-M "P -1"
_symmetry_group_IT_number 2
_symmetry_cell_setting 'triclinic'
loop_
_space_group_symop_operation_xyz
x,y,z
-x,-y,-z
loop_
_atom_site_type_symbol
_atom_site_label
_atom_site_fract_x
_atom_site_fract_y
_atom_site_fract_z
Si Si1 0.267212 0.114257 0.151768
Si Si2 0.993053 0.508398 0.397494
Si Si3 0.800214 0.115432 0.515378
Si Si4 0.586996 0.465187 0.802210
Si Si5 0.430755 0.129595 0.759891
Si Si6 0.423433 0.347985 0.772889
Si Si7 0.454425 0.738847 0.668614
Si Si8 0.726082 0.265985 0.262394
O O1 0.085715 0.283644 0.222233
O O2 0.365818 0.197104 0.197298
O O3 0.398123 0.043101 0.249826
O O4 0.204427 0.922275 0.924763
O O5 0.102664 0.658983 0.550998
O O6 0.000000 0.500000 0.500000
O O7 0.791986 0.572099 0.298464
O O8 0.767275 0.322337 0.731606
O O9 0.689376 0.169898 0.409879
O O10 0.742809 0.948487 0.398066
O O11 0.000000 0.000000 0.500000
O O12 0.526768 0.314800 0.708766
O O13 0.425770 0.543305 0.705871
O O14 0.620155 0.656375 0.033002
O O15 0.469213 0.150025 0.694148
O O16 0.500000 0.500000 0.000000
O O17 0.500000 0.500000 0.500000
O O18 0.361855 0.824181 0.782298
#
# Coordination Sequence:
#
# PCOD8008351 Si02
#       8
#     2   2   2   2   2   2   2   2
#     4  10  23  42  66  97 129 166 219 264 318 385
#     4  12  24  41  67  99 130 166 220 272 312 378
#     4  11  24  39  59  93 124 159 213 260 312 382
#     4  10  20  43  64  85 126 167 204 261 322 369
#     4   9  22  42  64  88 125 170 204 254 322 381
#     4  10  23  45  66  91 130 173 209 259 332 380
#     4  11  20  40  68  88 128 170 208 264 327 378
#     4  11  21  41  67  96 125 169 214 268 319 373
#
# _framework density 20.935072000000002
#
# number of rings (size 3 to 8) (size 9 to 14) (size 15 to 20)
#    0.000    1.500    3.750    1.125    1.750    1.500 
#    4.500    0.000    0.000    0.000    0.000    0.000 
#    0.000    0.000    0.000    0.000    0.000    0.000 
#
# Total GULP energy -198318.199131 kJ/mol
# GULP energy per Si atom -12394.887446 kJ/mol
# Density = 2.088742 g / cm^3
# Si number density = 20.935072 Si / 1000 Ang^3
#
#
#
# Elastic Constant Matrix: (Units=GPa)
#
#
# Indices 1 2 3 4 5 6 
#
# 1 99.2185 39.9913 19.3653 1.6555 -10.3508 12.1460
# 2 39.9913 73.3624 31.1921 4.1530 2.4822 4.8819
# 3 19.3653 31.1921 67.6882 3.6000 2.5556 -11.4244
# 4 1.6555 4.1530 3.6000 29.5982 0.6928 -3.0802
# 5 -10.3508 2.4822 2.5556 0.6928 32.3896 3.7563
# 6 12.1460 4.8819 -11.4244 -3.0802 3.7563 49.0756
#
#
#
# Elastic Compliance Matrix: (Units=1/GPa)
#
#
# Indices 1 2 3 4 5 6 
#
# 1 0.014272 -0.007006 -0.001681 -0.000125 0.005658 -0.003668
# 2 -0.007006 0.021141 -0.007885 -0.001764 -0.002957 -0.002089
# 3 -0.001681 -0.007885 0.020012 -0.000559 -0.002195 0.005992
# 4 -0.000125 -0.001764 -0.000559 0.034368 -0.000862 0.002299
# 5 0.005658 -0.002957 -0.002195 -0.000862 0.033593 -0.004243
# 6 -0.003668 -0.002089 0.005992 0.002299 -0.004243 0.023356
#
#
# Mechanical properties :
#
#
# Convention : Reuss Voigt Hill
#
# Bulk Modulus (GPa) = 44.87927 46.81852 45.84889
# Shear Modulus (GPa) = 26.69336 32.19405 29.44371
#
# Velocity S-wave (km/s) = 3.57466 3.92574 3.75431
# Velocity P-wave (km/s) = 6.20657 6.55445 6.38288
#
# Compressibility (1/GPa) = 0.02228200
#
# Stress axis : x y z
#
# Youngs Moduli (GPa) = 70.06804 47.30053 49.96972
#
# Poissons Ratio (x) = 0.33137 0.08399
# Poissons Ratio (y) = 0.49086 0.39403
# Poissons Ratio (z) = 0.11777 0.37298
#
# Static dielectric constant tensor:
#      x y z
#    x 1.637700 1.339370 -0.623200 
#    y 1.339370 3.379470 0.253930 
#    z -0.623200 0.253930 3.644190 
# 
# 
# High freq. dielectric constant tensor:
#      x y z
#    x 1.829360 0.018610 -0.004380 
#    y 0.018610 1.810360 0.010180 
#    z -0.004380 0.010180 1.822470 
# 
# From -- ./inp_files/521410.got.cif
#   From: 2010.06.25/outbox.cif.g09.slc.cpg/sg2_261_cif.got.tgz:521410.got - 2010.06.27 13:26:56.
