data_PCOD8008444
_publ_section_title
;
Structure prediction by ZEFSAII (Michael W. Deem and Ramdas Pophale) SiO2 
 PCOD8008444
Probable space group: P -1
;
_chemical_formula_sum "Si O2"
_cell_formula_units_Z 16
_cell_length_a 18.331641
_cell_length_b 6.562609
_cell_length_c 9.036371
_cell_angle_alpha 50.756902
_cell_angle_beta 121.797502
_cell_angle_gamma 115.264553
_cell_volume 708.319127
_symmetry_space_group_name_H-M "P -1"
_symmetry_group_IT_number 2
_symmetry_cell_setting 'triclinic'
loop_
_space_group_symop_operation_xyz
x,y,z
-x,-y,-z
loop_
_atom_site_type_symbol
_atom_site_label
_atom_site_fract_x
_atom_site_fract_y
_atom_site_fract_z
Si Si1 0.737103 0.835006 0.413032
Si Si2 0.069680 0.918338 0.221511
Si Si3 0.469310 0.248033 0.272707
Si Si4 0.071326 0.847889 0.572298
Si Si5 0.700033 0.768404 0.743961
Si Si6 0.795544 0.284045 0.730041
Si Si7 0.435853 0.179599 0.927681
Si Si8 0.150439 0.494943 0.018505
O O1 0.829119 0.007961 0.389246
O O2 0.706115 0.867474 0.534269
O O3 0.745035 0.528717 0.531635
O O4 0.662137 0.916782 0.189155
O O5 0.034218 0.781804 0.398657
O O6 0.125926 0.714464 0.301776
O O7 0.125778 0.200215 0.197827
O O8 0.000000 0.000000 0.000000
O O9 0.395211 0.345206 0.251734
O O10 0.541804 0.506249 0.229126
O O11 0.500000 0.000000 0.500000
O O12 0.438876 0.148733 0.122156
O O13 0.077003 0.571835 0.792525
O O14 0.000000 0.000000 0.500000
O O15 0.729606 0.016092 0.769547
O O16 0.757063 0.529831 0.947578
O O17 0.838228 0.293076 0.934576
O O18 0.500000 0.000000 0.000000
#
# Coordination Sequence:
#
# PCOD8008444 Si02
#       8
#     2   2   2   2   2   2   2   2
#     4  11  24  45  68 101 140 178 227 284 340 403
#     4  11  24  45  66  94 134 176 225 286 341 399
#     4  11  25  46  71 107 141 180 234 280 346 421
#     4  12  26  44  67 101 135 178 230 281 338 402
#     4  10  22  43  70  99 135 181 222 274 341 407
#     4  10  20  43  68  93 134 181 218 278 340 400
#     4  11  27  45  72 106 143 181 228 290 343 415
#     4  10  24  43  66  97 132 175 225 277 338 406
#
# _framework density 22.588688999999999
#
# number of rings (size 3 to 8) (size 9 to 14) (size 15 to 20)
#    0.000    1.250    3.750    2.250    5.250    6.500 
#    2.250    0.000    0.000    0.000    0.000    0.000 
#    0.000    0.000    0.000    0.000    0.000    0.000 
#
# Total GULP energy -198337.120957 kJ/mol
# GULP energy per Si atom -12396.070060 kJ/mol
# Density = 2.253728 g / cm^3
# Si number density = 22.588689 Si / 1000 Ang^3
#
#
#
# Elastic Constant Matrix: (Units=GPa)
#
#
# Indices 1 2 3 4 5 6 
#
# 1 121.8746 17.9861 32.6751 6.9304 4.2070 -23.9003
# 2 17.9861 88.1708 31.0937 10.0416 -6.6912 -24.2755
# 3 32.6751 31.0937 145.7508 4.4987 6.5221 -19.4765
# 4 6.9304 10.0416 4.4987 35.3701 -0.4757 4.2632
# 5 4.2070 -6.6912 6.5221 -0.4757 36.1585 0.8780
# 6 -23.9003 -24.2755 -19.4765 4.2632 0.8780 33.6106
#
#
#
# Elastic Compliance Matrix: (Units=1/GPa)
#
#
# Indices 1 2 3 4 5 6 
#
# 1 0.010084 0.000656 -0.001291 -0.002891 -0.001034 0.007290
# 2 0.000656 0.015937 -0.001962 -0.005750 0.002872 0.011495
# 3 -0.001291 -0.001962 0.007983 -0.000518 -0.001718 0.002401
# 4 -0.002891 -0.005750 -0.000518 0.031809 0.000040 -0.010545
# 5 -0.001034 0.002872 -0.001718 0.000040 0.028628 -0.000409
# 6 0.007290 0.011495 0.002401 -0.010545 -0.000409 0.045978
#
#
# Mechanical properties :
#
#
# Convention : Reuss Voigt Hill
#
# Bulk Modulus (GPa) = 34.70977 57.70066 46.20521
# Shear Modulus (GPa) = 32.21296 39.29726 35.75511
#
# Velocity S-wave (km/s) = 3.78043 4.17548 3.98285
# Velocity P-wave (km/s) = 5.86982 6.98897 6.45370
#
# Compressibility (1/GPa) = 0.02881033
#
# Stress axis : x y z
#
# Youngs Moduli (GPa) = 99.16530 62.74563 125.26997
#
# Poissons Ratio (x) = -0.04117 0.16172
# Poissons Ratio (y) = -0.06506 0.24579
# Poissons Ratio (z) = 0.12802 0.12311
#
# Static dielectric constant tensor:
#      x y z
#    x 4.338460 0.018200 0.110690 
#    y 0.018200 4.186140 0.097150 
#    z 0.110690 0.097150 4.182380 
# 
# 
# High freq. dielectric constant tensor:
#      x y z
#    x 1.897210 -0.008630 0.007070 
#    y -0.008630 1.893130 0.005420 
#    z 0.007070 0.005420 1.896800 
# 
# From -- ./inp_files/47349.got.cif
#   From: 2010.06.25/outbox.cif.g09.slc.cpg/sg2_24_cif.got.tgz:47349.got - 2010.06.27 13:26:56.
