data_PCOD8008498
_publ_section_title
;
Structure prediction by ZEFSAII (Michael W. Deem and Ramdas Pophale) SiO2 
 PCOD8008498
Probable space group: P -1
;
_chemical_formula_sum "Si O2"
_cell_formula_units_Z 16
_cell_length_a 16.003141
_cell_length_b 14.591642
_cell_length_c 15.731165
_cell_angle_alpha 151.108978
_cell_angle_beta 26.551982
_cell_angle_gamma 134.773028
_cell_volume 738.518243
_symmetry_space_group_name_H-M "P -1"
_symmetry_group_IT_number 2
_symmetry_cell_setting 'triclinic'
loop_
_space_group_symop_operation_xyz
x,y,z
-x,-y,-z
loop_
_atom_site_type_symbol
_atom_site_label
_atom_site_fract_x
_atom_site_fract_y
_atom_site_fract_z
Si Si1 0.334731 0.996803 0.259277
Si Si2 0.947259 0.886493 0.740107
Si Si3 0.760262 0.547447 0.917031
Si Si4 0.971823 0.325689 0.937810
Si Si5 0.548615 0.552585 0.784473
Si Si6 0.712239 0.087261 0.955611
Si Si7 0.939575 0.309719 0.140676
Si Si8 0.772919 0.650203 0.812845
O O1 0.242990 0.996053 0.248614
O O2 0.444290 0.770579 0.011960
O O3 0.154337 0.112493 0.580975
O O4 0.484133 0.122295 0.218062
O O5 0.783008 0.855596 0.928719
O O6 0.146051 0.686634 0.389271
O O7 0.856999 0.927103 0.760314
O O8 0.006258 0.066971 0.872096
O O9 0.661353 0.683240 0.033265
O O10 0.929455 0.631220 0.861339
O O11 0.605677 0.559836 0.143473
O O12 0.761184 0.294390 0.085329
O O13 0.971938 0.399145 0.093658
O O14 0.000000 0.500000 0.000000
O O15 0.706050 0.407772 0.457318
O O16 0.655014 0.560667 0.782720
O O17 0.000000 0.500000 0.500000
#
# Coordination Sequence:
#
# PCOD8008498 Si02
#       8
#     2   2   2   2   2   2   2   2
#     4  11  24  41  72  94 129 181 219 264 336 389
#     4  10  21  45  69  92 143 171 217 280 325 392
#     4  11  24  43  70  96 133 176 224 271 335 394
#     4  11  27  41  64  98 139 172 220 272 328 393
#     4  12  23  43  71  96 133 173 225 276 325 401
#     4  10  22  42  66  96 128 174 224 257 330 392
#     4  11  25  43  64 100 132 175 221 273 336 385
#     4  10  20  43  71  95 131 180 215 274 342 386
#
# _framework density 21.665002999999999
#
# number of rings (size 3 to 8) (size 9 to 14) (size 15 to 20)
#    0.000    1.250    3.750    2.250    7.000    3.000 
#    2.250    0.625    0.000    0.000    0.000    0.000 
#    0.000    0.000    0.000    0.000    0.000    0.000 
#
# Total GULP energy -198354.798791 kJ/mol
# GULP energy per Si atom -12397.174924 kJ/mol
# Density = 2.161569 g / cm^3
# Si number density = 21.665003 Si / 1000 Ang^3
#
#
#
# Elastic Constant Matrix: (Units=GPa)
#
#
# Indices 1 2 3 4 5 6 
#
# 1 108.1418 57.0998 44.6219 4.7421 6.7177 -20.8707
# 2 57.0998 137.7302 30.3822 -10.9683 5.6741 -16.9357
# 3 44.6219 30.3822 86.5042 -8.9885 16.9181 -5.3598
# 4 4.7421 -10.9683 -8.9885 31.1282 -3.8024 6.7071
# 5 6.7177 5.6741 16.9181 -3.8024 26.4895 -7.4418
# 6 -20.8707 -16.9357 -5.3598 6.7071 -7.4418 39.6011
#
#
#
# Elastic Compliance Matrix: (Units=1/GPa)
#
#
# Indices 1 2 3 4 5 6 
#
# 1 0.016713 -0.005042 -0.007740 -0.007826 0.002754 0.007447
# 2 -0.005042 0.009862 -0.000450 0.003957 0.000269 0.000880
# 3 -0.007740 -0.000450 0.017977 0.006021 -0.009883 -0.004716
# 4 -0.007826 0.003957 0.006021 0.038238 0.000535 -0.007993
# 5 0.002754 0.000269 -0.009883 0.000535 0.045842 0.008753
# 6 0.007447 0.000880 -0.004716 -0.007993 0.008753 0.031913
#
#
# Mechanical properties :
#
#
# Convention : Reuss Voigt Hill
#
# Bulk Modulus (GPa) = 55.28760 66.28711 60.78735
# Shear Modulus (GPa) = 25.90143 32.79525 29.34834
#
# Velocity S-wave (km/s) = 3.46141 3.89491 3.68454
# Velocity P-wave (km/s) = 6.44592 7.13371 6.79852
#
# Compressibility (1/GPa) = 0.01808724
#
# Stress axis : x y z
#
# Youngs Moduli (GPa) = 59.83494 101.39531 55.62612
#
# Poissons Ratio (x) = 0.51125 0.43057
# Poissons Ratio (y) = 0.30170 0.02502
# Poissons Ratio (z) = 0.46315 0.04561
#
# Static dielectric constant tensor:
#      x y z
#    x 4.207470 -0.240770 0.187240 
#    y -0.240770 4.416090 -0.217360 
#    z 0.187240 -0.217360 3.781180 
# 
# 
# High freq. dielectric constant tensor:
#      x y z
#    x 1.860930 -0.011790 0.005620 
#    y -0.011790 1.874660 -0.016290 
#    z 0.005620 -0.016290 1.818650 
# 
# From -- ./inp_files/534498.got.cif
#   From: 2010.06.25/outbox.cif.g09.slc.cpg/sg2_268_cif.got.tgz:534498.got - 2010.06.27 13:26:56.
