data_PCOD8008596
_publ_section_title
;
Structure prediction by ZEFSAII (Michael W. Deem and Ramdas Pophale) SiO2 
 PCOD8008596
Probable space group: P -1
;
_chemical_formula_sum "Si O2"
_cell_formula_units_Z 14
_cell_length_a 11.500316
_cell_length_b 7.522394
_cell_length_c 10.910045
_cell_angle_alpha 134.392520
_cell_angle_beta 75.612853
_cell_angle_gamma 109.720416
_cell_volume 634.761874
_symmetry_space_group_name_H-M "P -1"
_symmetry_group_IT_number 2
_symmetry_cell_setting 'triclinic'
loop_
_space_group_symop_operation_xyz
x,y,z
-x,-y,-z
loop_
_atom_site_type_symbol
_atom_site_label
_atom_site_fract_x
_atom_site_fract_y
_atom_site_fract_z
Si Si1 0.643121 0.519270 0.472422
Si Si2 0.917280 0.212204 0.616679
Si Si3 0.929454 0.208475 0.159493
Si Si4 0.459878 0.201919 0.849289
Si Si5 0.299501 0.914790 0.227407
Si Si6 0.752704 0.113791 0.379769
Si Si7 0.684551 0.175463 0.095549
O O1 0.500000 0.500000 0.500000
O O2 0.685778 0.342524 0.478245
O O3 0.673784 0.441354 0.289345
O O4 0.718406 0.799082 0.623262
O O5 0.837489 0.243987 0.774605
O O6 0.806274 0.117224 0.502807
O O7 0.996009 0.495918 0.704690
O O8 0.000000 0.000000 0.500000
O O9 0.869682 0.129066 0.268585
O O10 0.827672 0.174674 0.064526
O O11 0.000000 0.000000 0.000000
O O12 0.584063 0.113210 0.732399
O O13 0.355149 0.142367 0.741484
O O14 0.402363 0.060343 0.921732
O O15 0.500000 0.500000 0.000000
O O16 0.344756 0.836027 0.045523
#
# Coordination Sequence:
#
# PCOD8008596 Si02
#       7
#     2   2   2   2   2   2   2
#     4  10  20  44  70 100 133 180 229 276 356 418
#     4  12  28  46  68 105 141 184 244 291 344 421
#     4  10  24  45  70  98 134 190 238 288 357 407
#     4  10  23  42  68 109 139 174 235 289 356 419
#     4  12  25  42  72 103 140 186 225 290 361 416
#     4  10  24  46  72  97 140 181 234 292 346 428
#     4  10  24  44  68 103 139 182 231 289 349 431
#
# _framework density 22.055515
#
# number of rings (size 3 to 8) (size 9 to 14) (size 15 to 20)
#    0.000    1.714    2.857    2.571    8.000    3.429 
#    0.000    0.000    0.000    0.000    0.000    0.000 
#    0.000    0.000    0.000    0.000    0.000    0.000 
#
# Total GULP energy -173463.521510 kJ/mol
# GULP energy per Si atom -12390.251536 kJ/mol
# Density = 2.200532 g / cm^3
# Si number density = 22.055515 Si / 1000 Ang^3
#
#
#
# Elastic Constant Matrix: (Units=GPa)
#
#
# Indices 1 2 3 4 5 6 
#
# 1 157.3947 35.5843 52.2963 1.1453 -18.2242 12.5010
# 2 35.5843 46.6025 29.6417 9.1764 -0.2062 12.0631
# 3 52.2963 29.6417 107.7594 15.1217 -8.0754 -7.6183
# 4 1.1453 9.1764 15.1217 44.1298 2.2595 0.9430
# 5 -18.2242 -0.2062 -8.0754 2.2595 41.8364 1.0493
# 6 12.5010 12.0631 -7.6183 0.9430 1.0493 34.6548
#
#
#
# Elastic Compliance Matrix: (Units=1/GPa)
#
#
# Indices 1 2 3 4 5 6 
#
# 1 0.009036 -0.004418 -0.003353 0.001723 0.003239 -0.002604
# 2 -0.004418 0.033311 -0.007490 -0.003862 -0.002710 -0.011461
# 3 -0.003353 -0.007490 0.014024 -0.003372 0.001217 0.006955
# 4 0.001723 -0.003862 -0.003372 0.024651 -0.001234 -0.000652
# 5 0.003239 -0.002710 0.001217 -0.001234 0.025619 -0.000700
# 6 -0.002604 -0.011461 0.006955 -0.000652 -0.000700 0.035353
#
#
# Mechanical properties :
#
#
# Convention : Reuss Voigt Hill
#
# Bulk Modulus (GPa) = 38.68788 60.75569 49.72179
# Shear Modulus (GPa) = 27.60432 37.07314 32.33873
#
# Velocity S-wave (km/s) = 3.54161 4.10433 3.83331
# Velocity P-wave (km/s) = 5.85690 7.07582 6.49501
#
# Compressibility (1/GPa) = 0.02584789
#
# Stress axis : x y z
#
# Youngs Moduli (GPa) = 110.67359 30.02042 71.30842
#
# Poissons Ratio (x) = 0.13262 0.23909
# Poissons Ratio (y) = 0.48891 0.53413
# Poissons Ratio (z) = 0.37108 0.22487
#
# Static dielectric constant tensor:
#      x y z
#    x 4.235310 0.167990 0.043640 
#    y 0.167990 3.867840 0.109020 
#    z 0.043640 0.109020 3.839300 
# 
# 
# High freq. dielectric constant tensor:
#      x y z
#    x 1.888840 0.016950 -0.006200 
#    y 0.016950 1.857460 0.009580 
#    z -0.006200 0.009580 1.865810 
# 
# From -- ./inp_files/418560.got.cif
#   From: 2010.06.25/outbox.cif.g09.slc.cpg/sg2_210_cif.got.tgz:418560.got - 2010.06.27 13:26:56.
