data_PCOD8008009
_publ_section_title
;
Structure prediction by ZEFSAII (Michael W. Deem and Ramdas Pophale) SiO2 
 PCOD8008009
Probable space group: P -1
;
_chemical_formula_sum "Si O2"
_cell_formula_units_Z 14
_cell_length_a 22.092574
_cell_length_b 9.890868
_cell_length_c 9.105886
_cell_angle_alpha 127.718454
_cell_angle_beta 151.851355
_cell_angle_gamma 45.357936
_cell_volume 667.711739
_symmetry_space_group_name_H-M "P -1"
_symmetry_group_IT_number 2
_symmetry_cell_setting 'triclinic'
loop_
_space_group_symop_operation_xyz
x,y,z
-x,-y,-z
loop_
_atom_site_type_symbol
_atom_site_label
_atom_site_fract_x
_atom_site_fract_y
_atom_site_fract_z
Si Si1 0.844183 0.527040 0.645085
Si Si2 0.320025 0.317461 0.328685
Si Si3 0.555182 0.278779 0.997380
Si Si4 0.595029 0.788282 0.109917
Si Si5 0.133568 0.783549 0.751819
Si Si6 0.643979 0.513717 0.782516
Si Si7 0.810002 0.978537 0.193946
O O1 0.775253 0.521340 0.650821
O O2 0.739362 0.732040 0.480446
O O3 0.849082 0.360203 0.440372
O O4 0.000000 0.500000 0.000000
O O5 0.474121 0.198392 0.655550
O O6 0.338175 0.436646 0.312174
O O7 0.248989 0.179339 0.043426
O O8 0.515602 0.265640 0.072624
O O9 0.500000 0.500000 0.000000
O O10 0.721277 0.145416 0.231342
O O11 0.649558 0.677965 0.002569
O O12 0.500000 0.000000 0.000000
O O13 0.187622 0.934779 0.904958
O O14 0.226312 0.685220 0.027087
O O15 0.972768 0.881408 0.533110
O O16 0.500000 0.500000 0.500000
#
# Coordination Sequence:
#
# PCOD8008009 Si02
#       7
#     2   2   2   2   2   2   2
#     4  10  20  42  63  91 126 170 206 254 316 385
#     4  11  22  37  67  93 119 165 213 252 309 376
#     4  11  22  40  64  86 123 168 209 250 312 380
#     4  10  22  39  60  91 121 159 208 260 309 357
#     4  10  23  40  63  89 128 169 200 262 317 366
#     4  11  23  41  62  91 127 162 206 259 317 368
#     4  11  21  38  61  93 123 155 219 254 304 369
#
# _framework density 20.967131999999999
#
# number of rings (size 3 to 8) (size 9 to 14) (size 15 to 20)
#    0.000    1.429    1.429    5.571    0.000    4.000 
#    2.571    0.000    0.000    5.143    0.000    0.000 
#    0.000    0.000    0.000    0.000    0.000    0.000 
#
# Total GULP energy -173488.239058 kJ/mol
# GULP energy per Si atom -12392.017076 kJ/mol
# Density = 2.091941 g / cm^3
# Si number density = 20.967132 Si / 1000 Ang^3
#
#
#
# Elastic Constant Matrix: (Units=GPa)
#
#
# Indices 1 2 3 4 5 6 
#
# 1 132.2856 37.8111 43.1503 -20.1766 5.9597 2.7990
# 2 37.8111 100.4179 39.5430 -25.4617 13.1900 9.3545
# 3 43.1503 39.5430 94.2763 -24.8061 14.9801 2.6553
# 4 -20.1766 -25.4617 -24.8061 41.5242 -1.7431 6.6158
# 5 5.9597 13.1900 14.9801 -1.7431 33.2107 -5.1490
# 6 2.7990 9.3545 2.6553 6.6158 -5.1490 43.0245
#
#
#
# Elastic Compliance Matrix: (Units=1/GPa)
#
#
# Indices 1 2 3 4 5 6 
#
# 1 0.009355 -0.001961 -0.003149 0.001510 0.000576 -0.000151
# 2 -0.001961 0.014458 -0.002480 0.006952 -0.004602 -0.004483
# 3 -0.003149 -0.002480 0.015694 0.006391 -0.005482 -0.001863
# 4 0.001510 0.006952 0.006391 0.033925 -0.005353 -0.007861
# 5 0.000576 -0.004602 -0.005482 -0.005353 0.035006 0.006314
# 6 -0.000151 -0.004483 -0.001863 -0.007861 0.006314 0.026307
#
#
# Mechanical properties :
#
#
# Convention : Reuss Voigt Hill
#
# Bulk Modulus (GPa) = 41.10770 63.10985 52.10878
# Shear Modulus (GPa) = 31.63892 37.31689 34.47791
#
# Velocity S-wave (km/s) = 3.88877 4.22332 4.05949
# Velocity P-wave (km/s) = 6.30965 7.34484 6.84684
#
# Compressibility (1/GPa) = 0.02432634
#
# Stress axis : x y z
#
# Youngs Moduli (GPa) = 106.89827 69.16499 63.71873
#
# Poissons Ratio (x) = 0.13564 0.20066
# Poissons Ratio (y) = 0.20964 0.15802
# Poissons Ratio (z) = 0.33664 0.17153
#
# Static dielectric constant tensor:
#      x y z
#    x 4.961760 -0.808700 0.617580 
#    y -0.808700 4.327260 -0.564350 
#    z 0.617580 -0.564350 4.401020 
# 
# 
# High freq. dielectric constant tensor:
#      x y z
#    x 1.827280 -0.005820 0.011950 
#    y -0.005820 1.819810 -0.010970 
#    z 0.011950 -0.010970 1.819210 
# 
# From -- ./inp_files/168121.got.cif
#   From: 2010.06.25/outbox.cif.g09.slc.cpg/sg2_85_cif.got.tgz:168121.got - 2010.06.27 13:26:56.
