data_PCOD8008272
_publ_section_title
;
Structure prediction by ZEFSAII (Michael W. Deem and Ramdas Pophale) SiO2 
 PCOD8008272
Probable space group: P -1
;
_chemical_formula_sum "Si O2"
_cell_formula_units_Z 14
_cell_length_a 8.489632
_cell_length_b 16.615247
_cell_length_c 8.281094
_cell_angle_alpha 31.819528
_cell_angle_beta 87.298938
_cell_angle_gamma 79.149300
_cell_volume 590.334225
_symmetry_space_group_name_H-M "P -1"
_symmetry_group_IT_number 2
_symmetry_cell_setting 'triclinic'
loop_
_space_group_symop_operation_xyz
x,y,z
-x,-y,-z
loop_
_atom_site_type_symbol
_atom_site_label
_atom_site_fract_x
_atom_site_fract_y
_atom_site_fract_z
Si Si1 0.818995 0.603208 0.876700
Si Si2 0.599704 0.436542 0.361664
Si Si3 0.807158 0.912811 0.508158
Si Si4 0.802967 0.699156 0.368160
Si Si5 0.985849 0.880293 0.867185
Si Si6 0.743401 0.407948 0.751399
Si Si7 0.535094 0.110737 0.952535
O O1 0.829463 0.726119 0.806476
O O2 0.752017 0.709227 0.541554
O O3 0.697657 0.498147 0.110022
O O4 0.000000 0.500000 0.000000
O O5 0.684366 0.453907 0.495486
O O6 0.411612 0.551589 0.185294
O O7 0.611779 0.250357 0.644806
O O8 0.828136 0.937837 0.657473
O O9 0.956371 0.971260 0.319685
O O10 0.637854 0.014533 0.261479
O O11 0.859122 0.518622 0.609625
O O12 0.639093 0.798128 0.113430
O O13 0.948536 0.779988 0.190803
O O14 0.142911 0.772895 0.939081
O O15 0.500000 0.000000 0.000000
#
# Coordination Sequence:
#
# PCOD8008272 Si02
#       7
#     2   2   2   2   2   2   2
#     4  12  25  43  67 102 136 180 225 275 337 409
#     4  10  23  42  72  98 134 180 224 277 335 401
#     4  11  25  45  67 100 136 178 230 271 344 397
#     4  11  24  40  70 102 137 179 224 277 341 397
#     4  11  23  44  70 102 135 176 225 286 333 396
#     4  10  20  42  69  98 134 174 226 278 334 394
#     4  11  23  46  67  98 140 178 224 276 338 403
#
# _framework density 23.71538
#
# number of rings (size 3 to 8) (size 9 to 14) (size 15 to 20)
#    0.000    1.143    2.857    3.000    0.000    4.571 
#    5.143    0.000    0.000    0.000    0.000    0.000 
#    0.000    0.000    0.000    0.000    0.000    0.000 
#
# Total GULP energy -173465.992400 kJ/mol
# GULP energy per Si atom -12390.428029 kJ/mol
# Density = 2.366140 g / cm^3
# Si number density = 23.715380 Si / 1000 Ang^3
#
#
#
# Elastic Constant Matrix: (Units=GPa)
#
#
# Indices 1 2 3 4 5 6 
#
# 1 94.9419 17.7714 49.4016 2.4275 -16.8899 -10.5621
# 2 17.7714 52.9807 21.6699 -2.2275 -8.8386 6.9351
# 3 49.4016 21.6699 104.9821 -2.5234 -12.0327 -13.0851
# 4 2.4275 -2.2275 -2.5234 36.5434 5.9946 -5.3374
# 5 -16.8899 -8.8386 -12.0327 5.9946 65.1050 1.1985
# 6 -10.5621 6.9351 -13.0851 -5.3374 1.1985 40.5101
#
#
#
# Elastic Compliance Matrix: (Units=1/GPa)
#
#
# Indices 1 2 3 4 5 6 
#
# 1 0.014812 -0.002451 -0.005958 -0.001657 0.002524 0.002064
# 2 -0.002451 0.022384 -0.003985 0.000117 0.001763 -0.005795
# 3 -0.005958 -0.003985 0.013684 0.001609 0.000225 0.003754
# 4 -0.001657 0.000117 0.001609 0.028629 -0.002825 0.003923
# 5 0.002524 0.001763 0.000225 -0.002825 0.016563 -0.000433
# 6 0.002064 -0.005795 0.003754 0.003923 -0.000433 0.027958
#
#
# Mechanical properties :
#
#
# Convention : Reuss Voigt Hill
#
# Bulk Modulus (GPa) = 38.32257 47.84337 43.08297
# Shear Modulus (GPa) = 31.74291 39.36917 35.55604
#
# Velocity S-wave (km/s) = 3.66251 4.07881 3.87626
# Velocity P-wave (km/s) = 5.83779 6.51153 6.18385
#
# Compressibility (1/GPa) = 0.02609428
#
# Stress axis : x y z
#
# Youngs Moduli (GPa) = 67.51080 44.67456 73.07846
#
# Poissons Ratio (x) = 0.10948 0.43539
# Poissons Ratio (y) = 0.16544 0.29120
# Poissons Ratio (z) = 0.40222 0.17801
#
# Static dielectric constant tensor:
#      x y z
#    x 4.505690 0.314030 0.062880 
#    y 0.314030 4.109750 -0.053600 
#    z 0.062880 -0.053600 4.509830 
# 
# 
# High freq. dielectric constant tensor:
#      x y z
#    x 1.946500 0.024870 0.002820 
#    y 0.024870 1.914870 -0.011030 
#    z 0.002820 -0.011030 1.949560 
# 
# From -- ./inp_files/211503.got.cif
#   From: 2010.06.25/outbox.cif.g09.slc.cpg/sg2_106_cif.got.tgz:211503.got - 2010.06.27 13:26:56.
