data_PCOD8008573
_publ_section_title
;
Structure prediction by ZEFSAII (Michael W. Deem and Ramdas Pophale) SiO2 
 PCOD8008573
Probable space group: P -1
;
_chemical_formula_sum "Si O2"
_cell_formula_units_Z 14
_cell_length_a 26.874296
_cell_length_b 9.602173
_cell_length_c 8.538910
_cell_angle_alpha 111.117193
_cell_angle_beta 41.323935
_cell_angle_gamma 143.629238
_cell_volume 674.097468
_symmetry_space_group_name_H-M "P -1"
_symmetry_group_IT_number 2
_symmetry_cell_setting 'triclinic'
loop_
_space_group_symop_operation_xyz
x,y,z
-x,-y,-z
loop_
_atom_site_type_symbol
_atom_site_label
_atom_site_fract_x
_atom_site_fract_y
_atom_site_fract_z
Si Si1 0.366522 0.880531 0.811137
Si Si2 0.568517 0.395932 0.768610
Si Si3 0.241143 0.811946 0.779857
Si Si4 0.951396 0.457014 0.271697
Si Si5 0.323888 0.675229 0.327070
Si Si6 0.882135 0.664851 0.613511
Si Si7 0.341959 0.165502 0.407412
O O1 0.335853 0.936831 0.760302
O O2 0.500000 0.000000 0.500000
O O3 0.421352 0.069549 0.905317
O O4 0.214313 0.530132 0.078494
O O5 0.688289 0.479527 0.581198
O O6 0.655635 0.650898 0.541863
O O7 0.506388 0.382798 0.058769
O O8 0.246675 0.687156 0.590756
O O9 0.309970 0.072007 0.627018
O O10 0.069713 0.561763 0.138387
O O11 0.967624 0.659283 0.359546
O O12 0.777954 0.104788 0.547641
O O13 0.000000 0.500000 0.000000
O O14 0.232046 0.475895 0.308366
O O15 0.500000 0.000000 0.000000
O O16 0.000000 0.000000 0.500000
#
# Coordination Sequence:
#
# PCOD8008573 Si02
#       7
#     2   2   2   2   2   2   2
#     4  12  24  42  65 103 139 175 226 293 339 399
#     4  11  22  39  69  95 128 172 239 275 330 407
#     4  11  22  39  71  92 134 184 218 274 357 405
#     4  10  20  44  68  90 134 182 222 272 347 413
#     4  12  19  44  71  92 131 189 225 274 345 409
#     4  12  26  45  70 105 143 178 230 291 342 406
#     4  10  21  41  66  95 124 181 227 279 329 416
#
# _framework density 20.768509999999999
#
# number of rings (size 3 to 8) (size 9 to 14) (size 15 to 20)
#    0.000    0.857    8.571    0.000    0.000    4.571 
#    5.143    1.429    0.000    0.000    0.000    0.000 
#    0.000    0.000    0.000    0.000    0.000    0.000 
#
# Total GULP energy -173546.542333 kJ/mol
# GULP energy per Si atom -12396.181595 kJ/mol
# Density = 2.072124 g / cm^3
# Si number density = 20.768510 Si / 1000 Ang^3
#
#
#
# Elastic Constant Matrix: (Units=GPa)
#
#
# Indices 1 2 3 4 5 6 
#
# 1 163.4332 40.1606 45.8429 -13.5189 -7.7789 -10.8055
# 2 40.1606 112.2097 42.2824 -11.8168 -6.0388 -15.4082
# 3 45.8429 42.2824 103.7006 4.5473 -9.8171 -14.6328
# 4 -13.5189 -11.8168 4.5473 28.8885 -5.4891 2.1252
# 5 -7.7789 -6.0388 -9.8171 -5.4891 37.8250 -2.4732
# 6 -10.8055 -15.4082 -14.6328 2.1252 -2.4732 39.4419
#
#
#
# Elastic Compliance Matrix: (Units=1/GPa)
#
#
# Indices 1 2 3 4 5 6 
#
# 1 0.007601 -0.001107 -0.002896 0.003757 0.001209 0.000449
# 2 -0.001107 0.011799 -0.004027 0.005036 0.001514 0.002636
# 3 -0.002896 -0.004027 0.013364 -0.005002 0.001698 0.002967
# 4 0.003757 0.005036 -0.005002 0.040429 0.006103 -0.000655
# 5 0.001209 0.001514 0.001698 0.006103 0.028451 0.003008
# 6 0.000449 0.002636 0.002967 -0.000655 0.003008 0.027831
#
#
# Mechanical properties :
#
#
# Convention : Reuss Voigt Hill
#
# Bulk Modulus (GPa) = 59.86341 70.65725 65.26033
# Shear Modulus (GPa) = 33.08982 37.96824 35.52903
#
# Velocity S-wave (km/s) = 3.99591 4.28034 4.14057
# Velocity P-wave (km/s) = 7.08353 7.65007 7.37225
#
# Compressibility (1/GPa) = 0.01670469
#
# Stress axis : x y z
#
# Youngs Moduli (GPa) = 131.56228 84.75024 74.82715
#
# Poissons Ratio (x) = 0.09381 0.21668
# Poissons Ratio (y) = 0.14563 0.30135
# Poissons Ratio (z) = 0.38097 0.34131
#
# Static dielectric constant tensor:
#      x y z
#    x 4.301280 -0.110490 -0.459640 
#    y -0.110490 3.864630 -0.126600 
#    z -0.459640 -0.126600 4.139390 
# 
# 
# High freq. dielectric constant tensor:
#      x y z
#    x 1.821760 -0.012000 -0.012010 
#    y -0.012000 1.791230 0.007480 
#    z -0.012010 0.007480 1.814180 
# 
# From -- ./inp_files/201510.got.cif
#   From: 2010.06.25/outbox.cif.g09.slc.cpg/sg2_101_cif.got.tgz:201510.got - 2010.06.27 13:26:56.
