data_PCOD8008618
_publ_section_title
;
Structure prediction by ZEFSAII (Michael W. Deem and Ramdas Pophale) SiO2 
 PCOD8008618
Probable space group: P -1
;
_chemical_formula_sum "Si O2"
_cell_formula_units_Z 16
_cell_length_a 14.724763
_cell_length_b 8.301292
_cell_length_c 8.560356
_cell_angle_alpha 133.997626
_cell_angle_beta 72.483229
_cell_angle_gamma 104.396467
_cell_volume 716.627508
_symmetry_space_group_name_H-M "P -1"
_symmetry_group_IT_number 2
_symmetry_cell_setting 'triclinic'
loop_
_space_group_symop_operation_xyz
x,y,z
-x,-y,-z
loop_
_atom_site_type_symbol
_atom_site_label
_atom_site_fract_x
_atom_site_fract_y
_atom_site_fract_z
Si Si1 0.307041 0.734478 0.748710
Si Si2 0.541125 0.968348 0.288808
Si Si3 0.686374 0.629643 0.055037
Si Si4 0.350807 0.851902 0.149847
Si Si5 0.749148 0.728807 0.426410
Si Si6 0.152851 0.060771 0.955820
Si Si7 0.002354 0.886738 0.676619
Si Si8 0.971701 0.700922 0.257290
O O1 0.280997 0.468378 0.566305
O O2 0.385540 0.817727 0.637199
O O3 0.211709 0.867975 0.872234
O O4 0.353187 0.774159 0.919778
O O5 0.596489 0.738983 0.093871
O O6 0.455795 0.959039 0.203114
O O7 0.500000 0.000000 0.500000
O O8 0.687024 0.703074 0.284561
O O9 0.782988 0.721220 0.982235
O O10 0.676048 0.359640 0.864435
O O11 0.270918 0.032461 0.328700
O O12 0.858897 0.717273 0.319794
O O13 0.080119 0.157254 0.182840
O O14 0.101348 0.945052 0.753319
O O15 0.006194 0.680614 0.409090
O O16 0.974341 0.087257 0.712150
O O17 0.000000 0.500000 0.000000
#
# Coordination Sequence:
#
# PCOD8008618 Si02
#       8
#     2   2   2   2   2   2   2   2
#     4  10  24  42  66  93 135 170 220 276 321 405
#     4  11  22  44  66  99 134 169 218 277 335 394
#     4  10  22  42  67  97 135 171 220 279 325 400
#     4  11  23  43  69  93 131 180 221 267 336 402
#     4  11  22  43  65  96 129 178 219 270 331 397
#     4  10  20  45  65 101 135 171 231 280 334 392
#     4  10  22  40  69  93 135 174 221 284 332 398
#     4  11  23  42  66 100 132 179 221 276 340 406
#
# _framework density 22.326802000000001
#
# number of rings (size 3 to 8) (size 9 to 14) (size 15 to 20)
#    0.000    1.500    2.500    2.250    0.000    3.500 
#    9.000    8.125    0.000    0.000    0.000    0.000 
#    0.000    0.000    0.000    0.000    0.000    0.000 
#
# Total GULP energy -198396.325834 kJ/mol
# GULP energy per Si atom -12399.770365 kJ/mol
# Density = 2.227599 g / cm^3
# Si number density = 22.326802 Si / 1000 Ang^3
#
#
#
# Elastic Constant Matrix: (Units=GPa)
#
#
# Indices 1 2 3 4 5 6 
#
# 1 111.3179 27.0967 35.2431 -6.9054 -4.4836 6.3649
# 2 27.0967 132.6100 42.5550 8.8487 -21.2626 10.0640
# 3 35.2431 42.5550 120.5871 -2.3942 -4.3817 6.0031
# 4 -6.9054 8.8487 -2.3942 37.3842 -9.8491 1.4047
# 5 -4.4836 -21.2626 -4.3817 -9.8491 33.0863 -8.8127
# 6 6.3649 10.0640 6.0031 1.4047 -8.8127 31.4002
#
#
#
# Elastic Compliance Matrix: (Units=1/GPa)
#
#
# Indices 1 2 3 4 5 6 
#
# 1 0.010296 -0.001290 -0.002430 0.002256 0.000613 -0.001138
# 2 -0.001290 0.009678 -0.002841 -0.001350 0.005048 -0.000820
# 3 -0.002430 -0.002841 0.010027 0.000675 -0.000833 -0.000778
# 4 0.002256 -0.001350 0.000675 0.029770 0.008639 0.000939
# 5 0.000613 0.005048 -0.000833 0.008639 0.038355 0.008795
# 6 -0.001138 -0.000820 -0.000778 0.000939 0.008795 0.034916
#
#
# Mechanical properties :
#
#
# Convention : Reuss Voigt Hill
#
# Bulk Modulus (GPa) = 59.24347 63.81164 61.52756
# Shear Modulus (GPa) = 32.94008 37.68216 35.31112
#
# Velocity S-wave (km/s) = 3.84521 4.11269 3.98119
# Velocity P-wave (km/s) = 6.80489 7.15507 6.98217
#
# Compressibility (1/GPa) = 0.01687950
#
# Stress axis : x y z
#
# Youngs Moduli (GPa) = 97.12145 103.32882 99.72618
#
# Poissons Ratio (x) = 0.13328 0.24237
# Poissons Ratio (y) = 0.12528 0.28331
# Poissons Ratio (z) = 0.23604 0.29354
#
# Static dielectric constant tensor:
#      x y z
#    x 4.326630 -0.040780 0.258650 
#    y -0.040780 4.332300 0.061930 
#    z 0.258650 0.061930 4.007800 
# 
# 
# High freq. dielectric constant tensor:
#      x y z
#    x 1.886640 0.001560 0.008060 
#    y 0.001560 1.890120 -0.005040 
#    z 0.008060 -0.005040 1.865120 
# 
# From -- ./inp_files/299818.got.cif
#   From: 2010.06.25/outbox.cif.g09.slc.cpg/sg2_150_cif.got.tgz:299818.got - 2010.06.27 13:26:56.
