data_PCOD8008524
_publ_section_title
;
Structure prediction by ZEFSAII (Michael W. Deem and Ramdas Pophale) SiO2 
 PCOD8008524
Probable space group: P -1
;
_chemical_formula_sum "Si O2"
_cell_formula_units_Z 14
_cell_length_a 8.604494
_cell_length_b 11.831128
_cell_length_c 17.066698
_cell_angle_alpha 139.107633
_cell_angle_beta 30.427070
_cell_angle_gamma 132.246703
_cell_volume 574.911718
_symmetry_space_group_name_H-M "P -1"
_symmetry_group_IT_number 2
_symmetry_cell_setting 'triclinic'
loop_
_space_group_symop_operation_xyz
x,y,z
-x,-y,-z
loop_
_atom_site_type_symbol
_atom_site_label
_atom_site_fract_x
_atom_site_fract_y
_atom_site_fract_z
Si Si1 0.648586 0.464515 0.633833
Si Si2 0.318311 0.639623 0.605735
Si Si3 0.862525 0.985419 0.824141
Si Si4 0.681059 0.147639 0.546578
Si Si5 0.662570 0.980709 0.228758
Si Si6 0.779228 0.335742 0.994225
Si Si7 0.641506 0.649881 0.960926
O O1 0.557091 0.379470 0.546581
O O2 0.555343 0.334046 0.678241
O O3 0.495970 0.645936 0.812807
O O4 0.000000 0.500000 0.500000
O O5 0.500000 0.500000 0.500000
O O6 0.952511 0.592928 0.753116
O O7 0.413373 0.842204 0.691239
O O8 0.038114 0.959214 0.816377
O O9 0.978846 0.174613 0.840924
O O10 0.965550 0.853195 0.641577
O O11 0.500000 0.000000 0.000000
O O12 0.628624 0.100788 0.636262
O O13 0.500000 0.000000 0.500000
O O14 0.740486 0.830680 0.056072
O O15 0.630951 0.317122 0.963381
O O16 0.000000 0.500000 0.000000
O O17 0.500000 0.500000 0.000000
#
# Coordination Sequence:
#
# PCOD8008524 Si02
#       7
#     2   2   2   2   2   2   2
#     4  12  23  46  72 104 144 187 246 299 355 427
#     4  12  28  48  74 106 149 196 240 301 369 436
#     4  11  22  41  72 106 137 180 241 294 351 424
#     4  10  20  43  73  98 138 189 238 293 356 420
#     4  11  25  50  74 105 150 193 241 304 366 436
#     4  12  26  43  75 105 137 188 240 298 357 433
#     4  12  27  51  70 109 154 192 239 304 373 436
#
# _framework density 24.351565999999998
#
# number of rings (size 3 to 8) (size 9 to 14) (size 15 to 20)
#    0.000    0.571    4.286    5.571    4.000    0.000 
#    2.571    1.429    0.000    0.000    0.000    0.000 
#    0.000    0.000    0.000    0.000    0.000    0.000 
#
# Total GULP energy -173469.473897 kJ/mol
# GULP energy per Si atom -12390.676707 kJ/mol
# Density = 2.429614 g / cm^3
# Si number density = 24.351566 Si / 1000 Ang^3
#
#
#
# Elastic Constant Matrix: (Units=GPa)
#
#
# Indices 1 2 3 4 5 6 
#
# 1 76.4454 35.7328 33.1391 7.8085 -3.1377 -3.8010
# 2 35.7328 85.8997 3.1885 12.2498 -8.4853 -32.8602
# 3 33.1391 3.1885 104.7728 3.9386 3.0837 -15.0335
# 4 7.8085 12.2498 3.9386 55.0184 -2.9522 -6.9168
# 5 -3.1377 -8.4853 3.0837 -2.9522 35.7142 2.6445
# 6 -3.8010 -32.8602 -15.0335 -6.9168 2.6445 37.0223
#
#
#
# Elastic Compliance Matrix: (Units=1/GPa)
#
#
# Indices 1 2 3 4 5 6 
#
# 1 0.023247 -0.014701 -0.008956 -0.001197 0.000301 -0.014543
# 2 -0.014701 0.027770 0.007468 -0.001252 0.002651 0.025748
# 3 -0.008956 0.007468 0.013816 -0.000005 -0.001049 0.011393
# 4 -0.001197 -0.001252 -0.000005 0.018959 0.001000 0.002235
# 5 0.000301 0.002651 -0.001049 0.001000 0.028823 0.000086
# 6 -0.014543 0.025748 0.011393 0.002235 0.000086 0.053408
#
#
# Mechanical properties :
#
#
# Convention : Reuss Voigt Hill
#
# Bulk Modulus (GPa) = 30.81227 45.69319 38.25273
# Shear Modulus (GPa) = 23.89840 38.55481 31.22660
#
# Velocity S-wave (km/s) = 3.13611 3.98333 3.58484
# Velocity P-wave (km/s) = 5.07880 6.32144 5.73388
#
# Compressibility (1/GPa) = 0.03245460
#
# Stress axis : x y z
#
# Youngs Moduli (GPa) = 43.01656 36.01069 72.38092
#
# Poissons Ratio (x) = 0.52939 0.64825
# Poissons Ratio (y) = 0.63238 -0.54055
# Poissons Ratio (z) = 0.38526 -0.26893
#
# Static dielectric constant tensor:
#      x y z
#    x 6.089600 2.496770 -0.014940 
#    y 2.496770 7.735600 0.208740 
#    z -0.014940 0.208740 5.355480 
# 
# 
# High freq. dielectric constant tensor:
#      x y z
#    x 1.932570 -0.006950 0.003130 
#    y -0.006950 1.995540 0.004420 
#    z 0.003130 0.004420 1.993200 
# 
# From -- ./inp_files/158155.got.cif
#   From: 2010.06.25/outbox.cif.g09.slc.cpg/sg2_80_cif.got.tgz:158155.got - 2010.06.27 13:26:56.
