data_PCOD8008418
_publ_section_title
;
Structure prediction by ZEFSAII (Michael W. Deem and Ramdas Pophale) SiO2 
 PCOD8008418
Probable space group: P -1
;
_chemical_formula_sum "Si O2"
_cell_formula_units_Z 14
_cell_length_a 8.687046
_cell_length_b 22.860160
_cell_length_c 17.091013
_cell_angle_alpha 22.113478
_cell_angle_beta 139.475323
_cell_angle_gamma 150.342246
_cell_volume 613.530879
_symmetry_space_group_name_H-M "P -1"
_symmetry_group_IT_number 2
_symmetry_cell_setting 'triclinic'
loop_
_space_group_symop_operation_xyz
x,y,z
-x,-y,-z
loop_
_atom_site_type_symbol
_atom_site_label
_atom_site_fract_x
_atom_site_fract_y
_atom_site_fract_z
Si Si1 0.453046 0.978139 0.666302
Si Si2 0.365323 0.707246 0.524663
Si Si3 0.234926 0.173823 0.938396
Si Si4 0.783289 0.388827 0.789313
Si Si5 0.862207 0.363284 0.238798
Si Si6 0.229029 0.412633 0.180340
Si Si7 0.371468 0.941285 0.109287
O O1 0.437980 0.100019 0.577745
O O2 0.652716 0.129893 0.481060
O O3 0.615747 0.892037 0.866284
O O4 0.095692 0.792439 0.729778
O O5 0.487499 0.585158 0.723318
O O6 0.400939 0.785887 0.352913
O O7 0.984263 0.546524 0.599152
O O8 0.515597 0.382981 0.735215
O O9 0.009142 0.187786 0.884124
O O10 0.000000 0.000000 0.000000
O O11 0.034333 0.474374 0.851826
O O12 0.591471 0.149877 0.988990
O O13 0.168252 0.425658 0.232360
O O14 0.661970 0.380682 0.078186
O O15 0.500000 0.000000 0.000000
#
# Coordination Sequence:
#
# PCOD8008418 Si02
#       7
#     2   2   2   2   2   2   2
#     4  11  21  42  66  96 124 176 212 252 328 375
#     4  11  24  40  67  98 129 168 212 264 327 368
#     4  10  20  43  67  90 128 167 215 256 312 390
#     4  10  22  44  65  94 126 168 219 253 318 382
#     4  10  23  40  64  92 128 172 211 257 321 380
#     4  11  23  41  62  98 133 161 216 264 315 384
#     4  11  25  44  66  99 128 166 213 270 320 372
#
# _framework density 22.818736999999999
#
# number of rings (size 3 to 8) (size 9 to 14) (size 15 to 20)
#    0.000    1.429    4.286    0.857    2.000    5.714 
#    2.571    0.000    0.000    0.000    0.000    0.000 
#    0.000    0.000    0.000    0.000    0.000    0.000 
#
# Total GULP energy -173437.213830 kJ/mol
# GULP energy per Si atom -12388.372416 kJ/mol
# Density = 2.276680 g / cm^3
# Si number density = 22.818737 Si / 1000 Ang^3
#
#
#
# Elastic Constant Matrix: (Units=GPa)
#
#
# Indices 1 2 3 4 5 6 
#
# 1 144.1249 36.0104 55.7644 17.7929 -26.0418 16.6865
# 2 36.0104 69.6852 36.0772 2.3749 -13.4333 12.5289
# 3 55.7644 36.0772 89.2160 5.6657 -27.1153 9.6557
# 4 17.7929 2.3749 5.6657 25.7643 1.3401 -2.4045
# 5 -26.0418 -13.4333 -27.1153 1.3401 49.4774 2.0152
# 6 16.6865 12.5289 9.6557 -2.4045 2.0152 32.3763
#
#
#
# Elastic Compliance Matrix: (Units=1/GPa)
#
#
# Indices 1 2 3 4 5 6 
#
# 1 0.011022 -0.001832 -0.004185 -0.007115 0.003385 -0.004463
# 2 -0.001832 0.019426 -0.005788 0.000219 0.001332 -0.004914
# 3 -0.004185 -0.005788 0.018337 -0.001084 0.006368 -0.001549
# 4 -0.007115 0.000219 -0.001084 0.044957 -0.005807 0.007606
# 5 0.003385 0.001332 0.006368 -0.005807 0.026255 -0.006225
# 6 -0.004463 -0.004914 -0.001549 0.007606 -0.006225 0.036503
#
#
# Mechanical properties :
#
#
# Convention : Reuss Voigt Hill
#
# Bulk Modulus (GPa) = 39.72011 62.08111 50.90061
# Shear Modulus (GPa) = 26.52505 33.20189 29.86347
#
# Velocity S-wave (km/s) = 3.41313 3.81862 3.62156
# Velocity P-wave (km/s) = 5.74258 6.83431 6.31209
#
# Compressibility (1/GPa) = 0.02517616
#
# Stress axis : x y z
#
# Youngs Moduli (GPa) = 90.72687 51.47722 54.53514
#
# Poissons Ratio (x) = 0.09429 0.22823
# Poissons Ratio (y) = 0.16618 0.31563
# Poissons Ratio (z) = 0.37969 0.29794
#
# Static dielectric constant tensor:
#      x y z
#    x 4.286860 -0.168030 -0.359060 
#    y -0.168030 3.979930 -0.232970 
#    z -0.359060 -0.232970 4.109430 
# 
# 
# High freq. dielectric constant tensor:
#      x y z
#    x 1.907520 -0.010460 -0.022800 
#    y -0.010460 1.897400 -0.008480 
#    z -0.022800 -0.008480 1.890180 
# 
# From -- ./inp_files/282833.got.cif
#   From: 2010.06.25/outbox.cif.g09.slc.cpg/sg2_142_cif.got.tgz:282833.got - 2010.06.27 13:26:56.
