data_PCOD8008414
_publ_section_title
;
Structure prediction by ZEFSAII (Michael W. Deem and Ramdas Pophale) SiO2 
 PCOD8008414
Probable space group: P -1
;
_chemical_formula_sum "Si O2"
_cell_formula_units_Z 16
_cell_length_a 8.078121
_cell_length_b 13.303565
_cell_length_c 24.143931
_cell_angle_alpha 159.219783
_cell_angle_beta 48.916500
_cell_angle_gamma 126.682750
_cell_volume 692.464538
_symmetry_space_group_name_H-M "P -1"
_symmetry_group_IT_number 2
_symmetry_cell_setting 'triclinic'
loop_
_space_group_symop_operation_xyz
x,y,z
-x,-y,-z
loop_
_atom_site_type_symbol
_atom_site_label
_atom_site_fract_x
_atom_site_fract_y
_atom_site_fract_z
Si Si1 0.629511 0.222381 0.618222
Si Si2 0.312452 0.215888 0.532195
Si Si3 0.900878 0.958966 0.768997
Si Si4 0.477166 0.590064 0.929417
Si Si5 0.392291 0.820388 0.216512
Si Si6 0.785004 0.392260 0.559282
Si Si7 0.840245 0.697177 0.027000
Si Si8 0.026442 0.281135 0.106928
O O1 0.442357 0.438842 0.799364
O O2 0.783819 0.370739 0.615746
O O3 0.500000 0.000000 0.500000
O O4 0.761810 0.041384 0.544430
O O5 0.554204 0.315399 0.544123
O O6 0.143975 0.482162 0.709796
O O7 0.303240 0.106249 0.413873
O O8 0.838529 0.713778 0.698724
O O9 0.023452 0.824073 0.618808
O O10 0.050935 0.189719 0.883043
O O11 0.679180 0.126919 0.882635
O O12 0.452622 0.374425 0.874422
O O13 0.732434 0.634149 0.890046
O O14 0.598002 0.864144 0.151907
O O15 0.196298 0.646211 0.143500
O O16 0.005613 0.761745 0.973919
O O17 0.000000 0.000000 0.000000
#
# Coordination Sequence:
#
# PCOD8008414 Si02
#       8
#     2   2   2   2   2   2   2   2
#     4   9  21  38  61  94 122 159 208 258 311 365
#     4  10  20  43  67  89 125 166 210 259 306 370
#     4  11  23  39  65  92 130 166 204 262 311 376
#     4  10  23  40  60  95 125 162 208 255 309 369
#     4   9  20  43  65  90 125 161 216 258 304 372
#     4  10  22  40  63  94 128 165 211 254 318 366
#     4  10  22  39  65  91 122 166 210 254 315 363
#     4  11  25  42  63  92 128 167 206 253 313 377
#
# _framework density 23.105875999999999
#
# number of rings (size 3 to 8) (size 9 to 14) (size 15 to 20)
#    0.000    2.000    1.250    0.750    5.250    6.500 
#    0.000    3.125    0.000    0.000    0.000    0.000 
#    0.000    0.000    0.000    0.000    0.000    0.000 
#
# Total GULP energy -198258.538840 kJ/mol
# GULP energy per Si atom -12391.158678 kJ/mol
# Density = 2.305329 g / cm^3
# Si number density = 23.105876 Si / 1000 Ang^3
#
#
#
# Elastic Constant Matrix: (Units=GPa)
#
#
# Indices 1 2 3 4 5 6 
#
# 1 38.9891 -5.5120 26.3809 7.2606 3.6619 13.2359
# 2 -5.5120 83.1356 42.5397 -2.5726 -5.5824 3.3928
# 3 26.3809 42.5397 180.7938 -9.1586 -13.3055 -0.9893
# 4 7.2606 -2.5726 -9.1586 29.0351 -0.7839 2.3653
# 5 3.6619 -5.5824 -13.3055 -0.7839 42.3055 -3.4205
# 6 13.2359 3.3928 -0.9893 2.3653 -3.4205 20.3395
#
#
#
# Elastic Compliance Matrix: (Units=1/GPa)
#
#
# Indices 1 2 3 4 5 6 
#
# 1 0.049017 0.009160 -0.010812 -0.012333 -0.009420 -0.034102
# 2 0.009160 0.015530 -0.005217 -0.001876 -0.001129 -0.008777
# 3 -0.010812 -0.005217 0.008889 0.004459 0.003810 0.008461
# 4 -0.012333 -0.001876 0.004459 0.038477 0.003310 0.004637
# 5 -0.009420 -0.001129 0.003810 0.003310 0.026418 0.010562
# 6 -0.034102 -0.008777 0.008461 0.004637 0.010562 0.074469
#
#
# Mechanical properties :
#
#
# Convention : Reuss Voigt Hill
#
# Bulk Modulus (GPa) = 16.75114 47.74842 32.24978
# Shear Modulus (GPa) = 20.28917 34.30334 27.29625
#
# Velocity S-wave (km/s) = 2.96648 3.85725 3.44081
# Velocity P-wave (km/s) = 4.35876 6.36771 5.45649
#
# Compressibility (1/GPa) = 0.05969742
#
# Stress axis : x y z
#
# Youngs Moduli (GPa) = 20.40103 64.39329 112.49976
#
# Poissons Ratio (x) = -0.58984 1.21639
# Poissons Ratio (y) = -0.18687 0.58688
# Poissons Ratio (z) = 0.22058 0.33592
#
# Static dielectric constant tensor:
#      x y z
#    x 4.382430 0.127050 0.114890 
#    y 0.127050 6.056580 -1.372520 
#    z 0.114890 -1.372520 5.105670 
# 
# 
# High freq. dielectric constant tensor:
#      x y z
#    x 1.897730 0.004000 0.024770 
#    y 0.004000 1.912650 -0.024360 
#    z 0.024770 -0.024360 1.924080 
# 
# From -- ./inp_files/263625.got.cif
#   From: 2010.06.25/outbox.cif.g09.slc.cpg/sg2_132_cif.got.tgz:263625.got - 2010.06.27 13:26:56.
