data_PCOD8008030
_publ_section_title
;
Structure prediction by ZEFSAII (Michael W. Deem and Ramdas Pophale) SiO2 
 PCOD8008030
Probable space group: P -1
;
_chemical_formula_sum "Si O2"
_cell_formula_units_Z 16
_cell_length_a 9.505755
_cell_length_b 24.284656
_cell_length_c 8.656820
_cell_angle_alpha 50.624503
_cell_angle_beta 79.983156
_cell_angle_gamma 39.822938
_cell_volume 765.964649
_symmetry_space_group_name_H-M "P -1"
_symmetry_group_IT_number 2
_symmetry_cell_setting 'triclinic'
loop_
_space_group_symop_operation_xyz
x,y,z
-x,-y,-z
loop_
_atom_site_type_symbol
_atom_site_label
_atom_site_fract_x
_atom_site_fract_y
_atom_site_fract_z
Si Si1 0.158727 0.500315 0.910341
Si Si2 0.594217 0.808653 0.145039
Si Si3 0.245652 0.768256 0.576966
Si Si4 0.868114 0.031892 0.627946
Si Si5 0.344709 0.178137 0.548008
Si Si6 0.676145 0.229708 0.777981
Si Si7 0.322676 0.049926 0.590583
Si Si8 0.850768 0.499316 0.445034
O O1 0.220501 0.456402 0.798853
O O2 0.964369 0.652918 0.706855
O O3 0.448997 0.389512 0.143193
O O4 0.000000 0.500000 0.000000
O O5 0.543249 0.864957 0.221828
O O6 0.465860 0.784692 0.212534
O O7 0.930902 0.661164 0.301652
O O8 0.446089 0.920693 0.846925
O O9 0.202518 0.869738 0.432527
O O10 0.212661 0.776640 0.382825
O O11 0.008439 0.822288 0.612300
O O12 0.571874 0.119053 0.497476
O O13 0.000000 0.000000 0.500000
O O14 0.074395 0.889811 0.934104
O O15 0.331752 0.102020 0.635423
O O16 0.449199 0.382714 0.623230
O O17 0.500000 0.000000 0.500000
O O18 0.000000 0.500000 0.500000
#
# Coordination Sequence:
#
# PCOD8008030 Si02
#       8
#     2   2   2   2   2   2   2   2
#     4  11  21  39  67  96 131 163 214 272 317 383
#     4  10  20  42  64  89 128 169 214 266 315 385
#     4  12  23  42  65  94 131 169 211 267 326 381
#     4  12  22  37  64  93 126 162 217 274 311 367
#     4  11  24  41  63  92 126 172 214 255 326 380
#     4  11  21  38  66  97 126 163 218 271 322 377
#     4  12  27  42  62  92 133 173 213 261 323 386
#     4   9  20  35  61  97 125 161 206 265 327 367
#
# _framework density 20.888691000000001
#
# number of rings (size 3 to 8) (size 9 to 14) (size 15 to 20)
#    0.000    1.000    3.750    4.500    0.000    2.500 
#    0.000    0.000    0.000    3.750    0.000    0.000 
#    0.000    0.000    0.000    0.000    0.000    0.000 
#
# Total GULP energy -198382.222732 kJ/mol
# GULP energy per Si atom -12398.888921 kJ/mol
# Density = 2.084115 g / cm^3
# Si number density = 20.888691 Si / 1000 Ang^3
#
#
#
# Elastic Constant Matrix: (Units=GPa)
#
#
# Indices 1 2 3 4 5 6 
#
# 1 74.3248 25.0123 21.6179 -8.4229 7.9112 -12.9665
# 2 25.0123 108.1747 63.0796 -8.8768 2.0217 -14.3494
# 3 21.6179 63.0796 111.4200 2.5002 22.2188 -16.4388
# 4 -8.4229 -8.8768 2.5002 34.2552 -2.2647 3.4200
# 5 7.9112 2.0217 22.2188 -2.2647 25.2934 -5.1432
# 6 -12.9665 -14.3494 -16.4388 3.4200 -5.1432 37.2116
#
#
#
# Elastic Compliance Matrix: (Units=1/GPa)
#
#
# Indices 1 2 3 4 5 6 
#
# 1 0.015748 -0.002647 -0.000413 0.002636 -0.003388 0.003574
# 2 -0.002647 0.016466 -0.010587 0.004860 0.009578 0.001627
# 3 -0.000413 -0.010587 0.018582 -0.005452 -0.015356 0.002361
# 4 0.002636 0.004860 -0.005452 0.032073 0.006098 -0.001721
# 5 -0.003388 0.009578 -0.015356 0.006098 0.054412 0.002689
# 6 0.003574 0.001627 0.002361 -0.001721 0.002689 0.030319
#
#
# Mechanical properties :
#
#
# Convention : Reuss Voigt Hill
#
# Bulk Modulus (GPa) = 42.55092 57.03768 49.79430
# Shear Modulus (GPa) = 24.66353 31.63270 28.14812
#
# Velocity S-wave (km/s) = 3.43988 3.89568 3.67485
# Velocity P-wave (km/s) = 6.01594 6.89927 6.47269
#
# Compressibility (1/GPa) = 0.02350125
#
# Stress axis : x y z
#
# Youngs Moduli (GPa) = 63.49953 60.73239 53.81542
#
# Poissons Ratio (x) = 0.16074 0.02224
# Poissons Ratio (y) = 0.16806 0.56976
# Poissons Ratio (z) = 0.02624 0.64300
#
# Static dielectric constant tensor:
#      x y z
#    x 3.552930 -0.038040 0.151700 
#    y -0.038040 4.286340 -0.389500 
#    z 0.151700 -0.389500 4.015910 
# 
# 
# High freq. dielectric constant tensor:
#      x y z
#    x 1.787540 0.001650 0.014720 
#    y 0.001650 1.840120 -0.011750 
#    z 0.014720 -0.011750 1.821280 
# 
# From -- ./inp_files/226115.got.cif
#   From: 2010.06.25/outbox.cif.g09.slc.cpg/sg2_114_cif.got.tgz:226115.got - 2010.06.27 13:26:56.
