data_PCOD8008575
_publ_section_title
;
Structure prediction by ZEFSAII (Michael W. Deem and Ramdas Pophale) SiO2 
 PCOD8008575
Probable space group: P -1
;
_chemical_formula_sum "Si O2"
_cell_formula_units_Z 16
_cell_length_a 15.053795
_cell_length_b 11.078524
_cell_length_c 12.515885
_cell_angle_alpha 59.597895
_cell_angle_beta 152.264091
_cell_angle_gamma 128.527761
_cell_volume 754.063733
_symmetry_space_group_name_H-M "P -1"
_symmetry_group_IT_number 2
_symmetry_cell_setting 'triclinic'
loop_
_space_group_symop_operation_xyz
x,y,z
-x,-y,-z
loop_
_atom_site_type_symbol
_atom_site_label
_atom_site_fract_x
_atom_site_fract_y
_atom_site_fract_z
Si Si1 0.488729 0.091459 0.283217
Si Si2 0.687834 0.282757 0.068471
Si Si3 0.780403 0.179568 0.742621
Si Si4 0.567291 0.352643 0.566991
Si Si5 0.982075 0.118863 0.511245
Si Si6 0.223827 0.447611 0.112458
Si Si7 0.445220 0.326335 0.987514
Si Si8 0.622588 0.906387 0.355023
O O1 0.708344 0.141138 0.560187
O O2 0.453179 0.239052 0.144013
O O3 0.289710 0.979930 0.194352
O O4 0.499583 0.001022 0.228879
O O5 0.849712 0.206661 0.285187
O O6 0.617192 0.319643 0.091082
O O7 0.805673 0.443915 0.057282
O O8 0.483255 0.164999 0.838789
O O9 0.659570 0.276641 0.614175
O O10 0.030784 0.277510 0.975256
O O11 0.443051 0.432918 0.333705
O O12 0.761578 0.478019 0.787262
O O13 0.396864 0.226983 0.522498
O O14 0.867278 0.020957 0.539277
O O15 0.000000 0.000000 0.500000
O O16 0.211866 0.249950 0.724731
O O17 0.500000 0.500000 0.000000
#
# Coordination Sequence:
#
# PCOD8008575 Si02
#       8
#     2   2   2   2   2   2   2   2
#     4  10  23  44  65  93 132 171 217 274 317 385
#     4  11  24  44  66  98 137 165 220 281 320 390
#     4  10  22  42  66  91 127 173 215 265 322 388
#     4   9  21  40  63  98 127 165 214 272 322 386
#     4  12  24  42  73  96 122 184 224 266 332 386
#     4  10  22  39  66  94 130 169 207 267 332 386
#     4  12  28  43  65 100 138 175 214 273 335 394
#     4  10  20  44  68  94 132 164 224 281 314 381
#
# _framework density 21.218364999999999
#
# number of rings (size 3 to 8) (size 9 to 14) (size 15 to 20)
#    0.000    1.500    2.500    1.500    5.250    1.500 
#    2.250    1.875    0.000    0.000    0.000    0.000 
#    0.000    0.000    0.000    0.000    0.000    0.000 
#
# Total GULP energy -198438.270460 kJ/mol
# GULP energy per Si atom -12402.391904 kJ/mol
# Density = 2.117007 g / cm^3
# Si number density = 21.218365 Si / 1000 Ang^3
#
#
#
# Elastic Constant Matrix: (Units=GPa)
#
#
# Indices 1 2 3 4 5 6 
#
# 1 71.8912 30.4867 38.6863 -5.9214 -5.0553 -5.3011
# 2 30.4867 127.7184 61.5469 2.7843 -4.8642 -4.1795
# 3 38.6863 61.5469 89.7081 4.6202 3.5428 4.6176
# 4 -5.9214 2.7843 4.6202 44.9276 -1.7994 5.3344
# 5 -5.0553 -4.8642 3.5428 -1.7994 25.3920 2.5895
# 6 -5.3011 -4.1795 4.6176 5.3344 2.5895 29.4180
#
#
#
# Elastic Compliance Matrix: (Units=1/GPa)
#
#
# Indices 1 2 3 4 5 6 
#
# 1 0.019701 -0.000133 -0.008970 0.003263 0.004981 0.003909
# 2 -0.000133 0.012218 -0.008591 -0.000094 0.003221 0.002794
# 3 -0.008970 -0.008591 0.021547 -0.002488 -0.006081 -0.005233
# 4 0.003263 -0.000094 -0.002488 0.023493 0.003007 -0.003559
# 5 0.004981 0.003221 -0.006081 0.003007 0.042252 -0.001955
# 6 0.003909 0.002794 -0.005233 -0.003559 -0.001955 0.036733
#
#
# Mechanical properties :
#
#
# Convention : Reuss Voigt Hill
#
# Bulk Modulus (GPa) = 55.32031 61.19526 58.25779
# Shear Modulus (GPa) = 25.33462 30.52072 27.92767
#
# Velocity S-wave (km/s) = 3.45917 3.79675 3.63189
# Velocity P-wave (km/s) = 6.48714 6.93713 6.71590
#
# Compressibility (1/GPa) = 0.01807654
#
# Stress axis : x y z
#
# Youngs Moduli (GPa) = 50.75923 81.84896 46.40932
#
# Poissons Ratio (x) = 0.01092 0.41631
# Poissons Ratio (y) = 0.00677 0.39870
# Poissons Ratio (z) = 0.45533 0.70316
#
# Static dielectric constant tensor:
#      x y z
#    x 3.808410 0.031650 -0.254030 
#    y 0.031650 4.079530 0.020100 
#    z -0.254030 0.020100 3.867950 
# 
# 
# High freq. dielectric constant tensor:
#      x y z
#    x 1.825720 -0.002600 -0.008410 
#    y -0.002600 1.849110 -0.001290 
#    z -0.008410 -0.001290 1.821500 
# 
# From -- ./inp_files/451308.got.cif
#   From: 2010.06.25/outbox.cif.g09.slc.cpg/sg2_226_cif.got.tgz:451308.got - 2010.06.27 13:26:56.
