data_PCOD8008983
_publ_section_title
;
Structure prediction by ZEFSAII (Michael W. Deem and Ramdas Pophale) SiO2 
 PCOD8008983
Probable space group: P -1
;
_chemical_formula_sum "Si O2"
_cell_formula_units_Z 16
_cell_length_a 10.062003
_cell_length_b 10.359479
_cell_length_c 13.158092
_cell_angle_alpha 111.055612
_cell_angle_beta 142.473314
_cell_angle_gamma 54.651575
_cell_volume 667.622067
_symmetry_space_group_name_H-M "P -1"
_symmetry_group_IT_number 2
_symmetry_cell_setting 'triclinic'
loop_
_space_group_symop_operation_xyz
x,y,z
-x,-y,-z
loop_
_atom_site_type_symbol
_atom_site_label
_atom_site_fract_x
_atom_site_fract_y
_atom_site_fract_z
Si Si1 0.729502 0.434961 0.995555
Si Si2 0.403645 0.878834 0.398561
Si Si3 0.615884 0.221538 0.224831
Si Si4 0.878141 0.689420 0.965660
Si Si5 0.962688 0.716962 0.485223
Si Si6 0.089090 0.400674 0.374775
Si Si7 0.123497 0.038552 0.855036
Si Si8 0.410897 0.821847 0.153107
O O1 0.534808 0.605120 0.874368
O O2 0.576820 0.347346 0.912226
O O3 0.972693 0.300542 0.038391
O O4 0.854284 0.473458 0.176511
O O5 0.631044 0.710849 0.536480
O O6 0.336254 0.862946 0.236901
O O7 0.150961 0.938944 0.329201
O O8 0.500000 0.000000 0.500000
O O9 0.431510 0.226265 0.205075
O O10 0.878551 0.196894 0.423216
O O11 0.680197 0.074515 0.145066
O O12 0.913999 0.782051 0.110214
O O13 0.000000 0.500000 0.000000
O O14 0.946356 0.710622 0.595709
O O15 0.682296 0.806897 0.291617
O O16 0.118300 0.536659 0.486240
O O17 0.212640 0.961235 0.999019
#
# Coordination Sequence:
#
# PCOD8008983 Si02
#       8
#     2   2   2   2   2   2   2   2
#     4  11  21  41  67  96 125 166 211 262 309 386
#     4  11  22  34  57  97 134 160 191 253 331 381
#     4  11  23  42  65  89 127 171 216 251 311 371
#     4  10  25  43  66  87 123 173 220 259 302 370
#     4  10  21  38  60  94 130 163 198 264 315 376
#     4  10  21  35  61  94 128 163 205 255 325 368
#     4  12  23  40  68  95 125 165 214 264 311 378
#     4  11  22  37  64  98 128 157 206 262 329 365
#
# _framework density 23.965655999999999
#
# number of rings (size 3 to 8) (size 9 to 14) (size 15 to 20)
#    0.000    1.250    1.250    6.750    3.500    1.500 
#    0.000    1.250    2.750    0.000    0.000    0.000 
#    0.000    0.000    0.000    0.000    0.000    0.000 
#
# Total GULP energy -198300.016020 kJ/mol
# GULP energy per Si atom -12393.751001 kJ/mol
# Density = 2.391111 g / cm^3
# Si number density = 23.965656 Si / 1000 Ang^3
#
#
#
# Elastic Constant Matrix: (Units=GPa)
#
#
# Indices 1 2 3 4 5 6 
#
# 1 63.6612 23.3036 27.6048 2.0643 35.9875 -21.4416
# 2 23.3036 119.8890 24.5898 13.0436 14.5800 -15.4560
# 3 27.6048 24.5898 113.2694 7.8329 30.5361 -2.9855
# 4 2.0643 13.0436 7.8329 36.4323 -0.1757 7.4864
# 5 35.9875 14.5800 30.5361 -0.1757 44.2138 -4.1388
# 6 -21.4416 -15.4560 -2.9855 7.4864 -4.1388 32.5794
#
#
#
# Elastic Compliance Matrix: (Units=1/GPa)
#
#
# Indices 1 2 3 4 5 6 
#
# 1 0.043431 -0.000158 -0.000561 -0.007809 -0.032497 0.026123
# 2 -0.000158 0.010008 -0.001183 -0.004421 -0.001875 0.005314
# 3 -0.000561 -0.001183 0.011217 -0.001919 -0.006940 -0.000343
# 4 -0.007809 -0.004421 -0.001919 0.032788 0.007965 -0.013935
# 5 -0.032497 -0.001875 -0.006940 0.007965 0.052823 -0.018033
# 6 0.026123 0.005314 -0.000343 -0.013935 -0.018033 0.051288
#
#
# Mechanical properties :
#
#
# Convention : Reuss Voigt Hill
#
# Bulk Modulus (GPa) = 16.43311 49.75733 33.09522
# Shear Modulus (GPa) = 22.15901 37.39986 29.77943
#
# Velocity S-wave (km/s) = 3.04405 3.95468 3.52886
# Velocity P-wave (km/s) = 4.38484 6.45443 5.51754
#
# Compressibility (1/GPa) = 0.06085276
#
# Stress axis : x y z
#
# Youngs Moduli (GPa) = 23.02493 99.91634 89.15359
#
# Poissons Ratio (x) = 0.01574 0.05003
# Poissons Ratio (y) = 0.00363 0.10547
# Poissons Ratio (z) = 0.01292 0.11820
#
# Static dielectric constant tensor:
#      x y z
#    x 4.489880 -0.453670 0.462690 
#    y -0.453670 4.522030 0.137190 
#    z 0.462690 0.137190 4.598670 
# 
# 
# High freq. dielectric constant tensor:
#      x y z
#    x 1.923650 -0.029490 0.036000 
#    y -0.029490 1.963330 0.011850 
#    z 0.036000 0.011850 1.947240 
# 
# From -- ./inp_files/428666.got.cif
#   From: 2010.06.25/outbox.cif.g09.slc.cpg/sg2_215_cif.got.tgz:428666.got - 2010.06.27 13:26:56.
