data_PCOD8008335
_publ_section_title
;
Structure prediction by ZEFSAII (Michael W. Deem and Ramdas Pophale) SiO2 
 PCOD8008335
Probable space group: P -1
;
_chemical_formula_sum "Si O2"
_cell_formula_units_Z 16
_cell_length_a 8.858562
_cell_length_b 15.410345
_cell_length_c 7.807599
_cell_angle_alpha 70.025057
_cell_angle_beta 131.237385
_cell_angle_gamma 112.455563
_cell_volume 734.511781
_symmetry_space_group_name_H-M "P -1"
_symmetry_group_IT_number 2
_symmetry_cell_setting 'triclinic'
loop_
_space_group_symop_operation_xyz
x,y,z
-x,-y,-z
loop_
_atom_site_type_symbol
_atom_site_label
_atom_site_fract_x
_atom_site_fract_y
_atom_site_fract_z
Si Si1 0.722917 0.487426 0.718415
Si Si2 0.981695 0.624944 0.053876
Si Si3 0.481584 0.165931 0.013398
Si Si4 0.518160 0.379452 0.929198
Si Si5 0.208240 0.837228 0.060189
Si Si6 0.676627 0.088861 0.525567
Si Si7 0.217872 0.485560 0.727187
Si Si8 0.942459 0.984090 0.164352
O O1 0.500000 0.500000 0.500000
O O2 0.836739 0.429370 0.710038
O O3 0.700648 0.411940 0.909037
O O4 0.879002 0.584981 0.822722
O O5 0.053687 0.736170 0.008735
O O6 0.807677 0.595405 0.088101
O O7 0.429455 0.268026 0.927121
O O8 0.609997 0.153753 0.286889
O O9 0.599963 0.158209 0.928371
O O10 0.268804 0.089644 0.904765
O O11 0.624646 0.416574 0.166005
O O12 0.333248 0.434376 0.704694
O O13 0.274595 0.854780 0.296875
O O14 0.082757 0.914815 0.848543
O O15 0.865472 0.054591 0.594416
O O16 0.500000 0.000000 0.500000
O O17 0.000000 0.500000 0.500000
O O18 0.000000 0.000000 0.000000
#
# Coordination Sequence:
#
# PCOD8008335 Si02
#       8
#     2   2   2   2   2   2   2   2
#     4  10  20  43  62  88 131 170 214 270 326 390
#     4  10  22  39  63  92 131 167 217 273 322 391
#     4  12  24  46  68  96 142 170 223 290 325 403
#     4  10  23  39  61  97 125 172 222 268 332 386
#     4  11  24  46  67 102 136 173 228 282 333 399
#     4  11  25  46  71  96 133 182 221 273 346 399
#     4  10  22  39  62  89 130 174 216 269 328 393
#     4  10  23  44  69  97 133 172 220 278 332 398
#
# _framework density 21.783176999999998
#
# number of rings (size 3 to 8) (size 9 to 14) (size 15 to 20)
#    0.000    1.500    3.750    1.125    5.250    0.500 
#    4.500    0.000    0.000    0.000    0.000    0.000 
#    0.000    0.000    0.000    0.000    0.000    0.000 
#
# Total GULP energy -198215.086400 kJ/mol
# GULP energy per Si atom -12388.442900 kJ/mol
# Density = 2.173360 g / cm^3
# Si number density = 21.783177 Si / 1000 Ang^3
#
#
#
# Elastic Constant Matrix: (Units=GPa)
#
#
# Indices 1 2 3 4 5 6 
#
# 1 114.9115 53.5034 26.2059 2.0520 12.0954 -1.2653
# 2 53.5034 184.4377 31.1366 0.6094 16.4016 1.5891
# 3 26.2059 31.1366 78.4390 3.1171 28.2305 -9.5906
# 4 2.0520 0.6094 3.1171 22.3754 -1.6690 5.4094
# 5 12.0954 16.4016 28.2305 -1.6690 41.3060 -4.0773
# 6 -1.2653 1.5891 -9.5906 5.4094 -4.0773 37.9158
#
#
#
# Elastic Compliance Matrix: (Units=1/GPa)
#
#
# Indices 1 2 3 4 5 6 
#
# 1 0.010502 -0.002614 -0.002272 -0.000593 -0.000517 -0.000086
# 2 -0.002614 0.006521 -0.001539 0.000432 -0.000844 -0.000902
# 3 -0.002272 -0.001539 0.018897 -0.004235 -0.011401 0.004147
# 4 -0.000593 0.000432 -0.004235 0.047427 0.004079 -0.007437
# 5 -0.000517 -0.000844 -0.011401 0.004079 0.032659 0.000064
# 6 -0.000086 -0.000902 0.004147 -0.007437 0.000064 0.028526
#
#
# Mechanical properties :
#
#
# Convention : Reuss Voigt Hill
#
# Bulk Modulus (GPa) = 43.34582 66.60888 54.97735
# Shear Modulus (GPa) = 30.28979 38.11560 34.20270
#
# Velocity S-wave (km/s) = 3.73300 4.18757 3.96680
# Velocity P-wave (km/s) = 6.20664 7.35020 6.80249
#
# Compressibility (1/GPa) = 0.02307028
#
# Stress axis : x y z
#
# Youngs Moduli (GPa) = 95.22289 153.33987 52.91805
#
# Poissons Ratio (x) = 0.40087 0.12021
# Poissons Ratio (y) = 0.24894 0.08145
# Poissons Ratio (z) = 0.21631 0.23601
#
# Static dielectric constant tensor:
#      x y z
#    x 4.904880 -0.159140 0.245730 
#    y -0.159140 3.953090 -0.005190 
#    z 0.245730 -0.005190 4.453030 
# 
# 
# High freq. dielectric constant tensor:
#      x y z
#    x 1.888870 0.003860 0.007670 
#    y 0.003860 1.850940 -0.005350 
#    z 0.007670 -0.005350 1.840060 
# 
# From -- ./inp_files/201114.got.cif
#   From: 2010.06.25/outbox.cif.g09.slc.cpg/sg2_101_cif.got.tgz:201114.got - 2010.06.27 13:26:56.
