data_PCOD8008442
_publ_section_title
;
Structure prediction by ZEFSAII (Michael W. Deem and Ramdas Pophale) SiO2 
 PCOD8008442
Probable space group: P -1
;
_chemical_formula_sum "Si O2"
_cell_formula_units_Z 14
_cell_length_a 13.363592
_cell_length_b 23.322926
_cell_length_c 11.164878
_cell_angle_alpha 36.068777
_cell_angle_beta 147.645456
_cell_angle_gamma 158.461046
_cell_volume 679.182320
_symmetry_space_group_name_H-M "P -1"
_symmetry_group_IT_number 2
_symmetry_cell_setting 'triclinic'
loop_
_space_group_symop_operation_xyz
x,y,z
-x,-y,-z
loop_
_atom_site_type_symbol
_atom_site_label
_atom_site_fract_x
_atom_site_fract_y
_atom_site_fract_z
Si Si1 0.315690 0.384026 0.618932
Si Si2 0.658349 0.140262 0.271903
Si Si3 0.731512 0.080657 0.205708
Si Si4 0.412477 0.845122 0.472040
Si Si5 0.658233 0.612311 0.795221
Si Si6 0.656959 0.830287 0.951388
Si Si7 0.849294 0.542383 0.291822
O O1 0.500000 0.500000 0.500000
O O2 0.418688 0.484480 0.669477
O O3 0.387042 0.299641 0.844436
O O4 0.964001 0.259476 0.455406
O O5 0.718141 0.165335 0.145318
O O6 0.455061 0.960884 0.399562
O O7 0.486720 0.168106 0.086955
O O8 0.072913 0.210278 0.283984
O O9 0.636335 0.944396 0.414238
O O10 0.500000 0.000000 0.000000
O O11 0.068207 0.699450 0.327367
O O12 0.494921 0.785706 0.735943
O O13 0.475927 0.599357 0.732835
O O14 0.805798 0.575545 0.063428
O O15 0.000000 0.000000 0.000000
O O16 0.000000 0.500000 0.500000
#
# Coordination Sequence:
#
# PCOD8008442 Si02
#       7
#     2   2   2   2   2   2   2
#     4  12  24  43  67  97 137 169 216 277 337 389
#     4  10  23  42  67  95 135 169 221 273 328 386
#     4  10  20  43  68  92 129 176 216 270 333 384
#     4  10  21  42  68  92 136 172 217 276 326 381
#     4  11  23  43  66  92 130 175 213 274 336 384
#     4  12  24  40  67 101 129 175 228 262 328 407
#     4  11  24  43  65  95 129 173 224 269 326 394
#
# _framework density 20.613021
#
# number of rings (size 3 to 8) (size 9 to 14) (size 15 to 20)
#    0.857    0.286    4.286    2.143    2.000    0.571 
#    5.143    0.714    0.000    0.000    0.000    0.000 
#    0.000    0.000    0.000    0.000    0.000    0.000 
#
# Total GULP energy -173568.183202 kJ/mol
# GULP energy per Si atom -12397.727372 kJ/mol
# Density = 2.056610 g / cm^3
# Si number density = 20.613021 Si / 1000 Ang^3
#
#
#
# Elastic Constant Matrix: (Units=GPa)
#
#
# Indices 1 2 3 4 5 6 
#
# 1 83.5449 38.9299 47.9532 8.5487 -4.2918 14.3860
# 2 38.9299 116.3034 25.1747 10.7965 -6.8645 4.9869
# 3 47.9532 25.1747 96.6385 -1.5289 -8.7409 3.8766
# 4 8.5487 10.7965 -1.5289 41.5993 -5.3179 -12.9072
# 5 -4.2918 -6.8645 -8.7409 -5.3179 39.1119 7.1423
# 6 14.3860 4.9869 3.8766 -12.9072 7.1423 39.5816
#
#
#
# Elastic Compliance Matrix: (Units=1/GPa)
#
#
# Indices 1 2 3 4 5 6 
#
# 1 0.021301 -0.004186 -0.009221 -0.006199 0.000228 -0.008374
# 2 -0.004186 0.010378 -0.000536 -0.001883 0.001085 -0.000543
# 3 -0.009221 -0.000536 0.015221 0.003735 0.002305 0.002730
# 4 -0.006199 -0.001883 0.003735 0.029733 0.001767 0.011501
# 5 0.000228 0.001085 0.002305 0.001767 0.027418 -0.004817
# 6 -0.008374 -0.000543 0.002730 0.011501 -0.004817 0.032728
#
#
# Mechanical properties :
#
#
# Convention : Reuss Voigt Hill
#
# Bulk Modulus (GPa) = 52.59379 57.84470 55.21925
# Shear Modulus (GPa) = 29.23942 36.35382 32.79662
#
# Velocity S-wave (km/s) = 3.77037 4.20412 3.99314
# Velocity P-wave (km/s) = 6.67267 7.18953 6.93591
#
# Compressibility (1/GPa) = 0.01901365
#
# Stress axis : x y z
#
# Youngs Moduli (GPa) = 46.94695 96.36190 65.69897
#
# Poissons Ratio (x) = 0.40338 0.60579
# Poissons Ratio (y) = 0.19652 0.03522
# Poissons Ratio (z) = 0.43288 0.05165
#
# Static dielectric constant tensor:
#      x y z
#    x 3.626610 0.098360 -0.321000 
#    y 0.098360 3.920410 0.086820 
#    z -0.321000 0.086820 3.573000 
# 
# 
# High freq. dielectric constant tensor:
#      x y z
#    x 1.803720 0.004160 -0.025100 
#    y 0.004160 1.821230 0.012540 
#    z -0.025100 0.012540 1.795450 
# 
# From -- ./inp_files/458268.got.cif
#   From: 2010.06.25/outbox.cif.g09.slc.cpg/sg2_230_cif.got.tgz:458268.got - 2010.06.27 13:26:56.
