data_PCOD8008991
_publ_section_title
;
Structure prediction by ZEFSAII (Michael W. Deem and Ramdas Pophale) SiO2 
 PCOD8008991
Probable space group: P -1
;
_chemical_formula_sum "Si O2"
_cell_formula_units_Z 16
_cell_length_a 11.351989
_cell_length_b 13.312612
_cell_length_c 15.629090
_cell_angle_alpha 115.103978
_cell_angle_beta 42.529461
_cell_angle_gamma 145.303104
_cell_volume 801.226650
_symmetry_space_group_name_H-M "P -1"
_symmetry_group_IT_number 2
_symmetry_cell_setting 'triclinic'
loop_
_space_group_symop_operation_xyz
x,y,z
-x,-y,-z
loop_
_atom_site_type_symbol
_atom_site_label
_atom_site_fract_x
_atom_site_fract_y
_atom_site_fract_z
Si Si1 0.341111 0.090612 0.648176
Si Si2 0.663927 0.072602 0.564831
Si Si3 0.296993 0.132014 0.054688
Si Si4 0.813845 0.281694 0.203782
Si Si5 0.101819 0.607056 0.072181
Si Si6 0.657262 0.474623 0.867909
Si Si7 0.655790 0.482614 0.668146
Si Si8 0.966556 0.728531 0.081942
O O1 0.445533 0.062544 0.656990
O O2 0.564082 0.316970 0.614261
O O3 0.377927 0.048735 0.523758
O O4 0.974290 0.926581 0.793366
O O5 0.019253 0.302579 0.468386
O O6 0.540604 0.952165 0.677152
O O7 0.549256 0.249261 0.037806
O O8 0.458854 0.263274 0.929439
O O9 0.155577 0.939360 0.037556
O O10 0.849325 0.432666 0.217345
O O11 0.988445 0.345690 0.222155
O O12 0.996867 0.323203 0.041938
O O13 0.089660 0.732797 0.104652
O O14 0.000000 0.500000 0.000000
O O15 0.680007 0.483813 0.757523
O O16 0.500000 0.500000 0.000000
O O17 0.398747 0.438967 0.767683
#
# Coordination Sequence:
#
# PCOD8008991 Si02
#       8
#     2   2   2   2   2   2   2   2
#     4  10  23  37  57  88 121 162 195 232 293 357
#     4  11  22  39  57  81 128 162 190 236 290 356
#     4  10  21  35  62  89 113 149 192 252 287 343
#     4  10  21  36  58  86 110 156 197 239 290 348
#     4   9  20  38  61  85 113 144 196 246 296 343
#     4  11  19  33  56  88 119 148 191 240 293 342
#     4  11  23  37  61  87 123 159 194 239 288 356
#     4  10  21  38  61  88 114 148 196 247 294 341
#
# _framework density 19.969380000000001
#
# number of rings (size 3 to 8) (size 9 to 14) (size 15 to 20)
#    0.000    1.750    1.250    3.750    5.250    1.000 
#    2.250    0.625    0.000    1.500    0.000    0.000 
#    0.000    0.000    0.000    0.000    0.000    0.000 
#
# Total GULP energy -198301.172887 kJ/mol
# GULP energy per Si atom -12393.823305 kJ/mol
# Density = 1.992393 g / cm^3
# Si number density = 19.969380 Si / 1000 Ang^3
#
#
#
# Elastic Constant Matrix: (Units=GPa)
#
#
# Indices 1 2 3 4 5 6 
#
# 1 93.8222 36.6233 53.7208 -25.2043 -9.3508 -8.5236
# 2 36.6233 86.6003 48.9011 -23.5985 -6.0837 -6.7491
# 3 53.7208 48.9011 89.8301 -30.7937 -6.6382 -14.4645
# 4 -25.2043 -23.5985 -30.7937 39.7976 -5.0598 2.9011
# 5 -9.3508 -6.0837 -6.6382 -5.0598 17.7136 -4.9804
# 6 -8.5236 -6.7491 -14.4645 2.9011 -4.9804 34.8181
#
#
#
# Elastic Compliance Matrix: (Units=1/GPa)
#
#
# Indices 1 2 3 4 5 6 
#
# 1 0.017785 -0.001161 -0.006919 0.006185 0.008722 0.001987
# 2 -0.001161 0.017558 -0.006733 0.004996 0.004475 0.000546
# 3 -0.006919 -0.006733 0.024630 0.011227 0.008588 0.007526
# 4 0.006185 0.004996 0.011227 0.043173 0.023462 0.006905
# 5 0.008722 0.004475 0.008588 0.023462 0.076906 0.015616
# 6 0.001987 0.000546 0.007526 0.006905 0.015616 0.034098
#
#
# Mechanical properties :
#
#
# Convention : Reuss Voigt Hill
#
# Bulk Modulus (GPa) = 32.95165 60.97146 46.96155
# Shear Modulus (GPa) = 19.69342 27.19968 23.44655
#
# Velocity S-wave (km/s) = 3.14376 3.69463 3.43027
# Velocity P-wave (km/s) = 5.45110 6.98564 6.26553
#
# Compressibility (1/GPa) = 0.03034749
#
# Stress axis : x y z
#
# Youngs Moduli (GPa) = 56.22802 56.95257 40.60086
#
# Poissons Ratio (x) = 0.06613 0.28091
# Poissons Ratio (y) = 0.06529 0.27336
# Poissons Ratio (z) = 0.38903 0.38345
#
# Static dielectric constant tensor:
#      x y z
#    x 4.433210 -0.406700 -0.153880 
#    y -0.406700 3.862140 -0.213640 
#    z -0.153880 -0.213640 3.557070 
# 
# 
# High freq. dielectric constant tensor:
#      x y z
#    x 1.776350 -0.017620 -0.004260 
#    y -0.017620 1.792640 -0.017600 
#    z -0.004260 -0.017600 1.761450 
# 
# From -- ./inp_files/502853.got.cif
#   From: 2010.06.25/outbox.cif.g09.slc.cpg/sg2_252_cif.got.tgz:502853.got - 2010.06.27 13:26:56.
