data_PCOD8008542
_publ_section_title
;
Structure prediction by ZEFSAII (Michael W. Deem and Ramdas Pophale) SiO2 
 PCOD8008542
Probable space group: P -1
;
_chemical_formula_sum "Si O2"
_cell_formula_units_Z 16
_cell_length_a 8.509008
_cell_length_b 24.691533
_cell_length_c 8.477490
_cell_angle_alpha 56.875597
_cell_angle_beta 52.169294
_cell_angle_gamma 30.448965
_cell_volume 712.215613
_symmetry_space_group_name_H-M "P -1"
_symmetry_group_IT_number 2
_symmetry_cell_setting 'triclinic'
loop_
_space_group_symop_operation_xyz
x,y,z
-x,-y,-z
loop_
_atom_site_type_symbol
_atom_site_label
_atom_site_fract_x
_atom_site_fract_y
_atom_site_fract_z
Si Si1 0.026960 0.168813 0.356695
Si Si2 0.242974 0.993394 0.308810
Si Si3 0.309617 0.168494 0.455891
Si Si4 0.080235 0.926986 0.933500
Si Si5 0.957437 0.326939 0.018273
Si Si6 0.550052 0.391488 0.609385
Si Si7 0.587116 0.240181 0.775508
Si Si8 0.533417 0.478673 0.769680
O O1 0.894718 0.269370 0.199331
O O2 0.730024 0.207624 0.563034
O O3 0.157652 0.087232 0.273026
O O4 0.290577 0.117409 0.414238
O O5 0.229992 0.999719 0.114391
O O6 0.593310 0.884829 0.346097
O O7 0.000000 0.000000 0.500000
O O8 0.590711 0.144575 0.258763
O O9 0.948359 0.294499 0.492037
O O10 0.135222 0.846009 0.124630
O O11 0.000000 0.000000 0.000000
O O12 0.769624 0.428520 0.077118
O O13 0.846386 0.368111 0.842674
O O14 0.341914 0.243162 0.927397
O O15 0.422367 0.351424 0.741777
O O16 0.428476 0.451098 0.754531
O O17 0.369284 0.480046 0.444480
#
# Coordination Sequence:
#
# PCOD8008542 Si02
#       8
#     2   2   2   2   2   2   2   2
#     4  11  22  44  66  96 135 174 212 265 327 384
#     4  10  23  39  67  96 132 173 215 263 321 392
#     4  10  20  44  64  92 135 174 207 269 323 379
#     4  11  23  40  63  97 133 167 220 266 318 391
#     4  11  23  42  67  96 130 169 216 272 321 386
#     4  10  22  41  66  93 127 175 213 269 325 383
#     4  11  22  41  66  93 131 171 215 264 330 374
#     4  10  22  43  64  94 132 164 222 269 325 381
#
# _framework density 22.465107
#
# number of rings (size 3 to 8) (size 9 to 14) (size 15 to 20)
#    0.000    1.500    3.750    1.875    1.750    5.000 
#    0.000    3.125    0.000    0.000    0.000    0.000 
#    0.000    0.000    0.000    0.000    0.000    0.000 
#
# Total GULP energy -198273.279083 kJ/mol
# GULP energy per Si atom -12392.079943 kJ/mol
# Density = 2.241398 g / cm^3
# Si number density = 22.465107 Si / 1000 Ang^3
#
#
#
# Elastic Constant Matrix: (Units=GPa)
#
#
# Indices 1 2 3 4 5 6 
#
# 1 87.2281 21.2644 45.8959 -15.8026 26.1283 -0.1675
# 2 21.2644 62.0191 42.0781 -21.0681 8.5445 -2.9722
# 3 45.8959 42.0781 121.8503 -31.9566 24.5310 -7.2808
# 4 -15.8026 -21.0681 -31.9566 37.4801 -14.3118 7.2273
# 5 26.1283 8.5445 24.5310 -14.3118 39.4646 -6.1931
# 6 -0.1675 -2.9722 -7.2808 7.2273 -6.1931 36.4765
#
#
#
# Elastic Compliance Matrix: (Units=1/GPa)
#
#
# Indices 1 2 3 4 5 6 
#
# 1 0.016566 -0.001989 -0.004089 -0.000432 -0.008507 -0.002261
# 2 -0.001989 0.023081 -0.005574 0.008545 0.002811 -0.000457
# 3 -0.004089 -0.005574 0.013714 0.005781 -0.002403 0.000711
# 4 -0.000432 0.008545 0.005781 0.040491 0.008792 -0.004682
# 5 -0.008507 0.002811 -0.002403 0.008792 0.035676 0.004026
# 6 -0.002261 -0.000457 0.000711 -0.004682 0.004026 0.029120
#
#
# Mechanical properties :
#
#
# Convention : Reuss Voigt Hill
#
# Bulk Modulus (GPa) = 33.26821 54.39715 43.83268
# Shear Modulus (GPa) = 26.04564 33.47484 29.76024
#
# Velocity S-wave (km/s) = 3.40866 3.86435 3.64364
# Velocity P-wave (km/s) = 5.50754 6.64662 6.10371
#
# Compressibility (1/GPa) = 0.03005872
#
# Stress axis : x y z
#
# Youngs Moduli (GPa) = 60.36481 43.32554 72.91872
#
# Poissons Ratio (x) = 0.08617 0.29813
# Poissons Ratio (y) = 0.12007 0.40642
# Poissons Ratio (z) = 0.24680 0.24148
#
# Static dielectric constant tensor:
#      x y z
#    x 4.122350 -0.074100 0.370280 
#    y -0.074100 3.947990 -0.301280 
#    z 0.370280 -0.301280 4.284280 
# 
# 
# High freq. dielectric constant tensor:
#      x y z
#    x 1.875320 0.007970 0.015300 
#    y 0.007970 1.873820 -0.020780 
#    z 0.015300 -0.020780 1.897030 
# 
# From -- ./inp_files/227362.got.cif
#   From: 2010.06.25/outbox.cif.g09.slc.cpg/sg2_114_cif.got.tgz:227362.got - 2010.06.27 13:26:56.
