data_PCOD8008971
_publ_section_title
;
Structure prediction by ZEFSAII (Michael W. Deem and Ramdas Pophale) SiO2 
 PCOD8008971
Probable space group: P -1
;
_chemical_formula_sum "Si O2"
_cell_formula_units_Z 16
_cell_length_a 20.637592
_cell_length_b 9.403369
_cell_length_c 5.164191
_cell_angle_alpha 103.964007
_cell_angle_beta 118.389850
_cell_angle_gamma 51.831546
_cell_volume 691.148873
_symmetry_space_group_name_H-M "P -1"
_symmetry_group_IT_number 2
_symmetry_cell_setting 'triclinic'
loop_
_space_group_symop_operation_xyz
x,y,z
-x,-y,-z
loop_
_atom_site_type_symbol
_atom_site_label
_atom_site_fract_x
_atom_site_fract_y
_atom_site_fract_z
Si Si1 0.414173 0.974177 0.087565
Si Si2 0.184295 0.563183 0.372622
Si Si3 0.603724 0.429356 0.716928
Si Si4 0.280298 0.755350 0.646394
Si Si5 0.984666 0.691276 0.058218
Si Si6 0.225339 0.342960 0.845432
Si Si7 0.501188 0.180052 0.319555
Si Si8 0.872831 0.831891 0.410682
O O1 0.440177 0.843441 0.326017
O O2 0.482929 0.029891 0.229487
O O3 0.433373 0.856232 0.815137
O O4 0.311865 0.145219 0.995155
O O5 0.212206 0.698397 0.520107
O O6 0.238444 0.403783 0.618765
O O7 0.077294 0.672197 0.269396
O O8 0.208828 0.482364 0.095902
O O9 0.500000 0.500000 0.500000
O O10 0.671332 0.301558 0.563973
O O11 0.594109 0.618867 0.785446
O O12 0.643267 0.331666 0.023716
O O13 0.222441 0.971455 0.654780
O O14 0.917183 0.818344 0.214623
O O15 0.941012 0.797384 0.754023
O O16 0.000000 0.500000 0.000000
O O17 0.141616 0.327005 0.669360
#
# Coordination Sequence:
#
# PCOD8008971 Si02
#       8
#     2   2   2   2   2   2   2   2
#     4  10  21  35  61  89 128 157 223 273 329 382
#     4  12  25  43  74  98 141 183 225 286 338 417
#     4  12  27  46  71  93 140 186 227 275 341 416
#     4  12  28  48  68 106 138 179 234 281 348 403
#     4  12  23  46  70 108 135 180 230 275 349 407
#     4  12  23  40  68 101 131 187 223 284 340 402
#     4  10  21  38  58  91 120 170 212 279 325 388
#     4  12  26  43  72 102 141 176 229 288 331 415
#
# _framework density 23.149861000000001
#
# number of rings (size 3 to 8) (size 9 to 14) (size 15 to 20)
#    0.000    0.500    2.500    6.000    3.500    3.000 
#    0.000    0.000    0.000    0.000    0.000    0.000 
#    0.000    0.000    0.000    0.000    0.000    0.000 
#
# Total GULP energy -198470.846791 kJ/mol
# GULP energy per Si atom -12404.427924 kJ/mol
# Density = 2.309717 g / cm^3
# Si number density = 23.149861 Si / 1000 Ang^3
#
#
#
# Elastic Constant Matrix: (Units=GPa)
#
#
# Indices 1 2 3 4 5 6 
#
# 1 54.7069 -4.9827 26.2157 17.9612 -3.2455 -10.3704
# 2 -4.9827 91.4870 17.7400 4.2013 -21.7816 -8.5706
# 3 26.2157 17.7400 116.8429 -1.9550 -25.3936 3.4649
# 4 17.9612 4.2013 -1.9550 41.9411 -2.0383 -6.8162
# 5 -3.2455 -21.7816 -25.3936 -2.0383 48.9080 11.1638
# 6 -10.3704 -8.5706 3.4649 -6.8162 11.1638 39.4399
#
#
#
# Elastic Compliance Matrix: (Units=1/GPa)
#
#
# Indices 1 2 3 4 5 6 
#
# 1 0.027218 0.003522 -0.007651 -0.011293 -0.002763 0.007425
# 2 0.003522 0.012845 -0.001899 -0.002306 0.004358 0.002252
# 3 -0.007651 -0.001899 0.012091 0.003580 0.006124 -0.004601
# 4 -0.011293 -0.002306 0.003580 0.029287 0.001082 0.000970
# 5 -0.002763 0.004358 0.006124 0.001082 0.027217 -0.007835
# 6 0.007425 0.002252 -0.004601 0.000970 -0.007835 0.030586
#
#
# Mechanical properties :
#
#
# Convention : Reuss Voigt Hill
#
# Bulk Modulus (GPa) = 24.93867 37.88697 31.41282
# Shear Modulus (GPa) = 30.36454 40.99538 35.67996
#
# Velocity S-wave (km/s) = 3.62560 4.21274 3.93015
# Velocity P-wave (km/s) = 5.32191 6.32964 5.84752
#
# Compressibility (1/GPa) = 0.04009837
#
# Stress axis : x y z
#
# Youngs Moduli (GPa) = 36.74067 77.85103 82.70818
#
# Poissons Ratio (x) = -0.27421 0.63282
# Poissons Ratio (y) = -0.12941 0.15704
# Poissons Ratio (z) = 0.28111 0.14781
#
# Static dielectric constant tensor:
#      x y z
#    x 4.420360 0.146180 -0.164840 
#    y 0.146180 4.178420 0.057810 
#    z -0.164840 0.057810 4.541590 
# 
# 
# High freq. dielectric constant tensor:
#      x y z
#    x 1.919450 -0.002630 -0.005450 
#    y -0.002630 1.913270 0.000810 
#    z -0.005450 0.000810 1.935230 
# 
# From -- ./inp_files/123818.got.cif
#   From: 2010.06.25/outbox.cif.g09.slc.cpg/sg2_62_cif.got.tgz:123818.got - 2010.06.27 13:26:56.
