data_PCOD8008695
_publ_section_title
;
Structure prediction by ZEFSAII (Michael W. Deem and Ramdas Pophale) SiO2 
 PCOD8008695
Probable space group: P -1
;
_chemical_formula_sum "Si O2"
_cell_formula_units_Z 16
_cell_length_a 5.192499
_cell_length_b 11.769882
_cell_length_c 15.510105
_cell_angle_alpha 108.880119
_cell_angle_beta 114.471230
_cell_angle_gamma 74.065362
_cell_volume 805.396258
_symmetry_space_group_name_H-M "P -1"
_symmetry_group_IT_number 2
_symmetry_cell_setting 'triclinic'
loop_
_space_group_symop_operation_xyz
x,y,z
-x,-y,-z
loop_
_atom_site_type_symbol
_atom_site_label
_atom_site_fract_x
_atom_site_fract_y
_atom_site_fract_z
Si Si1 0.497692 0.640472 0.020537
Si Si2 0.317116 0.116988 0.109434
Si Si3 0.953272 0.345118 0.177265
Si Si4 0.094193 0.727195 0.139314
Si Si5 0.908228 0.977963 0.119319
Si Si6 0.788041 0.397006 0.346562
Si Si7 0.785261 0.431000 0.721247
Si Si8 0.201364 0.585985 0.467197
O O1 0.817810 0.667915 0.059678
O O2 0.336835 0.711647 0.095974
O O3 0.500000 0.500000 0.000000
O O4 0.324014 0.684962 0.920172
O O5 0.235474 0.259649 0.157127
O O6 0.660140 0.077594 0.151029
O O7 0.208780 0.093101 0.993565
O O8 0.171246 0.041442 0.141817
O O9 0.955972 0.491429 0.205815
O O10 0.927102 0.311456 0.266959
O O11 0.009074 0.872366 0.177946
O O12 0.235453 0.665345 0.230499
O O13 0.468098 0.454283 0.289316
O O14 0.818297 0.326927 0.427885
O O15 0.939903 0.512997 0.411421
O O16 0.807490 0.353722 0.615023
O O17 0.500000 0.500000 0.500000
#
# Coordination Sequence:
#
# PCOD8008695 Si02
#       8
#     2   2   2   2   2   2   2   2
#     4  12  24  35  50  80 119 151 181 218 278 332
#     4  10  22  37  55  72 102 143 198 236 268 307
#     4  11  22  33  53  82 108 147 182 233 275 325
#     4  12  24  38  54  78 113 153 189 223 268 333
#     4  10  22  39  53  72 100 151 194 235 267 306
#     4   9  18  32  55  78 113 140 175 220 279 334
#     4  10  21  33  54  84 112 143 179 222 280 339
#     4   8  16  34  51  78 112 140 174 217 270 341
#
# _framework density 19.865997
#
# number of rings (size 3 to 8) (size 9 to 14) (size 15 to 20)
#    0.000    1.750    2.500    1.875    8.750    0.000 
#    0.000    0.000    0.000    0.000    0.000    1.750 
#    0.000    0.000    0.000    0.000    0.000    0.000 
#
# Total GULP energy -198220.675344 kJ/mol
# GULP energy per Si atom -12388.792209 kJ/mol
# Density = 1.982078 g / cm^3
# Si number density = 19.865997 Si / 1000 Ang^3
#
#
#
# Elastic Constant Matrix: (Units=GPa)
#
#
# Indices 1 2 3 4 5 6 
#
# 1 65.0803 0.1810 21.6252 -0.2235 -13.6460 -5.7786
# 2 0.1810 68.0228 23.8736 -6.4833 -12.5891 -3.7450
# 3 21.6252 23.8736 112.7343 -16.2519 -31.7210 -4.9190
# 4 -0.2235 -6.4833 -16.2519 11.4708 -2.3564 -4.6650
# 5 -13.6460 -12.5891 -31.7210 -2.3564 34.0286 5.6251
# 6 -5.7786 -3.7450 -4.9190 -4.6650 5.6251 27.8539
#
#
#
# Elastic Compliance Matrix: (Units=1/GPa)
#
#
# Indices 1 2 3 4 5 6 
#
# 1 0.017389 0.001867 -0.001981 0.000737 0.005450 0.002531
# 2 0.001867 0.017508 0.000135 0.013087 0.007695 0.003403
# 3 -0.001981 0.000135 0.019719 0.033906 0.019176 0.004895
# 4 0.000737 0.013087 0.033906 0.162272 0.043639 0.026265
# 5 0.005450 0.007695 0.019176 0.043639 0.055028 0.001747
# 6 0.002531 0.003403 0.004895 0.026265 0.001747 0.041795
#
#
# Mechanical properties :
#
#
# Convention : Reuss Voigt Hill
#
# Bulk Modulus (GPa) = 18.29587 37.46634 27.88111
# Shear Modulus (GPa) = 15.06535 28.01450 21.53993
#
# Velocity S-wave (km/s) = 2.75680 3.75930 3.29638
# Velocity P-wave (km/s) = 4.40033 6.14358 5.34352
#
# Compressibility (1/GPa) = 0.05465714
#
# Stress axis : x y z
#
# Youngs Moduli (GPa) = 57.50863 57.11819 50.71251
#
# Poissons Ratio (x) = -0.10665 0.10045
# Poissons Ratio (y) = -0.10738 -0.00683
# Poissons Ratio (z) = 0.11391 -0.00769
#
# Static dielectric constant tensor:
#      x y z
#    x 3.876220 -0.083670 -0.362110 
#    y -0.083670 3.347100 -0.189590 
#    z -0.362110 -0.189590 3.908850 
# 
# 
# High freq. dielectric constant tensor:
#      x y z
#    x 1.797440 -0.002780 -0.010050 
#    y -0.002780 1.724350 -0.011930 
#    z -0.010050 -0.011930 1.762470 
# 
# From -- ./inp_files/77584.got.cif
#   From: 2010.06.25/outbox.cif.g09.slc.cpg/sg2_39_cif.got.tgz:77584.got - 2010.06.27 13:26:56.
