data_PCOD8008440
_publ_section_title
;
Structure prediction by ZEFSAII (Michael W. Deem and Ramdas Pophale) SiO2 
 PCOD8008440
Probable space group: P -1
;
_chemical_formula_sum "Si O2"
_cell_formula_units_Z 16
_cell_length_a 17.965631
_cell_length_b 9.036045
_cell_length_c 7.509925
_cell_angle_alpha 50.290229
_cell_angle_beta 83.265806
_cell_angle_gamma 115.544798
_cell_volume 697.685589
_symmetry_space_group_name_H-M "P -1"
_symmetry_group_IT_number 2
_symmetry_cell_setting 'triclinic'
loop_
_space_group_symop_operation_xyz
x,y,z
-x,-y,-z
loop_
_atom_site_type_symbol
_atom_site_label
_atom_site_fract_x
_atom_site_fract_y
_atom_site_fract_z
Si Si1 0.338426 0.521943 0.420485
Si Si2 0.417171 0.455444 0.776004
Si Si3 0.902879 0.444088 0.634661
Si Si4 0.813213 0.010818 0.252859
Si Si5 0.679672 0.426225 0.020538
Si Si6 0.635056 0.940009 0.391332
Si Si7 0.902471 0.821454 0.548228
Si Si8 0.308166 0.900277 0.156102
O O1 0.417683 0.533841 0.508477
O O2 0.235120 0.224016 0.695982
O O3 0.363550 0.582262 0.155356
O O4 0.332594 0.725670 0.348757
O O5 0.529811 0.653783 0.663393
O O6 0.343973 0.460350 0.909771
O O7 0.376294 0.169065 0.035371
O O8 0.921192 0.700267 0.476536
O O9 0.811293 0.267923 0.654621
O O10 0.000000 0.500000 0.500000
O O11 0.874388 0.290047 0.942626
O O12 0.719878 0.941400 0.448235
O O13 0.891354 0.022593 0.335181
O O14 0.799165 0.591480 0.853278
O O15 0.630206 0.143014 0.323466
O O16 0.668384 0.034335 0.107449
O O17 0.000000 0.000000 0.500000
#
# Coordination Sequence:
#
# PCOD8008440 Si02
#       8
#     2   2   2   2   2   2   2   2
#     4  10  21  43  66  89 140 181 205 276 344 370
#     4  12  23  40  71 101 129 184 230 266 328 410
#     4  11  22  41  66  95 129 173 221 281 337 391
#     4  10  20  44  68  89 133 180 207 275 345 380
#     4  10  23  45  64  98 143 168 227 287 320 399
#     4  10  20  43  68  91 139 179 215 279 340 383
#     4  11  24  44  65  91 133 180 218 277 340 394
#     4  10  21  41  61  98 135 168 230 276 324 407
#
# _framework density 22.932966
#
# number of rings (size 3 to 8) (size 9 to 14) (size 15 to 20)
#    0.000    1.500    7.500    0.750    1.750    3.000 
#    9.000    2.500    0.000    0.000    0.000    0.000 
#    0.000    0.000    0.000    0.000    0.000    0.000 
#
# Total GULP energy -198237.160455 kJ/mol
# GULP energy per Si atom -12389.822528 kJ/mol
# Density = 2.288077 g / cm^3
# Si number density = 22.932966 Si / 1000 Ang^3
#
#
#
# Elastic Constant Matrix: (Units=GPa)
#
#
# Indices 1 2 3 4 5 6 
#
# 1 93.0777 7.8615 23.1030 -7.7306 8.8876 3.7357
# 2 7.8615 71.2340 18.4329 -19.5010 4.6572 -7.8697
# 3 23.1030 18.4329 50.0885 -19.5440 4.1345 -1.9501
# 4 -7.7306 -19.5010 -19.5440 27.6265 -6.2583 2.8424
# 5 8.8876 4.6572 4.1345 -6.2583 44.0877 -9.9360
# 6 3.7357 -7.8697 -1.9501 2.8424 -9.9360 39.7192
#
#
#
# Elastic Compliance Matrix: (Units=1/GPa)
#
#
# Indices 1 2 3 4 5 6 
#
# 1 0.012486 -0.000234 -0.006059 -0.001329 -0.002579 -0.002068
# 2 -0.000234 0.017871 -0.002172 0.010845 0.000537 0.002814
# 3 -0.006059 -0.002172 0.030811 0.018814 0.001379 0.000651
# 4 -0.001329 0.010845 0.018814 0.058033 0.005702 0.000471
# 5 -0.002579 0.000537 0.001379 0.005702 0.025251 0.006325
# 6 -0.002068 0.002814 0.000651 0.000471 0.006325 0.027509
#
#
# Mechanical properties :
#
#
# Convention : Reuss Voigt Hill
#
# Bulk Modulus (GPa) = 22.60505 34.79943 28.70224
# Shear Modulus (GPa) = 24.55337 33.28686 28.92012
#
# Velocity S-wave (km/s) = 3.27564 3.81397 3.55501
# Velocity P-wave (km/s) = 4.91781 5.88239 5.42159
#
# Compressibility (1/GPa) = 0.04423789
#
# Stress axis : x y z
#
# Youngs Moduli (GPa) = 80.08738 55.95734 32.45567
#
# Poissons Ratio (x) = 0.01308 0.19666
# Poissons Ratio (y) = 0.01872 0.07049
# Poissons Ratio (z) = 0.48529 0.12154
#
# Static dielectric constant tensor:
#      x y z
#    x 4.544430 -0.253740 0.235110 
#    y -0.253740 4.026870 -0.440450 
#    z 0.235110 -0.440450 4.299200 
# 
# 
# High freq. dielectric constant tensor:
#      x y z
#    x 1.920680 -0.015170 0.013760 
#    y -0.015170 1.884630 -0.035140 
#    z 0.013760 -0.035140 1.890980 
# 
# From -- ./inp_files/328420.got.cif
#   From: 2010.06.25/outbox.cif.g09.slc.cpg/sg2_165_cif.got.tgz:328420.got - 2010.06.27 13:26:56.
