data_PCOD8008996
_publ_section_title
;
Structure prediction by ZEFSAII (Michael W. Deem and Ramdas Pophale) SiO2 
 PCOD8008996
Probable space group: P -1
;
_chemical_formula_sum "Si O2"
_cell_formula_units_Z 16
_cell_length_a 9.634191
_cell_length_b 9.793740
_cell_length_c 10.241624
_cell_angle_alpha 110.489750
_cell_angle_beta 59.120464
_cell_angle_gamma 118.298883
_cell_volume 722.924370
_symmetry_space_group_name_H-M "P -1"
_symmetry_group_IT_number 2
_symmetry_cell_setting 'triclinic'
loop_
_space_group_symop_operation_xyz
x,y,z
-x,-y,-z
loop_
_atom_site_type_symbol
_atom_site_label
_atom_site_fract_x
_atom_site_fract_y
_atom_site_fract_z
Si Si1 0.175507 0.652972 0.863010
Si Si2 0.612945 0.217649 0.790592
Si Si3 0.995863 0.445633 0.635227
Si Si4 0.290171 0.364625 0.382097
Si Si5 0.538352 0.714610 0.379607
Si Si6 0.463224 0.131395 0.312604
Si Si7 0.166058 0.349567 0.894467
Si Si8 0.643616 0.661338 0.947213
O O1 0.088803 0.582765 0.741281
O O2 0.342699 0.808396 0.817317
O O3 0.232743 0.533786 0.884397
O O4 0.043201 0.710271 0.031109
O O5 0.530412 0.240980 0.703967
O O6 0.804541 0.351283 0.753142
O O7 0.631495 0.050395 0.736019
O O8 0.469650 0.225357 0.969351
O O9 0.110202 0.335515 0.535454
O O10 0.000000 0.500000 0.500000
O O11 0.426303 0.535726 0.414920
O O12 0.352009 0.226382 0.343238
O O13 0.261289 0.352509 0.236182
O O14 0.522783 0.840464 0.530218
O O15 0.740958 0.731495 0.277155
O O16 0.210161 0.304640 0.002175
O O17 0.500000 0.500000 0.000000
#
# Coordination Sequence:
#
# PCOD8008996 Si02
#       8
#     2   2   2   2   2   2   2   2
#     4  11  21  37  62  93 125 158 210 260 295 368
#     4  11  25  40  64  93 126 164 199 261 315 359
#     4  12  22  38  63  95 119 163 220 251 295 369
#     4  12  22  37  67  90 123 166 209 253 305 368
#     4  11  20  41  63  91 119 171 207 246 304 378
#     4  12  24  41  60  95 132 157 200 260 324 360
#     4  10  21  35  62  92 114 162 216 252 289 358
#     4  11  19  40  63  88 120 163 210 246 302 375
#
# _framework density 22.13233
#
# number of rings (size 3 to 8) (size 9 to 14) (size 15 to 20)
#    0.000    0.750    6.250    3.000    0.000    1.000 
#    0.000    3.750    0.000    0.000    0.000    0.000 
#    0.000    0.000    0.000    0.000    0.000    0.000 
#
# Total GULP energy -198252.861289 kJ/mol
# GULP energy per Si atom -12390.803831 kJ/mol
# Density = 2.208196 g / cm^3
# Si number density = 22.132330 Si / 1000 Ang^3
#
#
#
# Elastic Constant Matrix: (Units=GPa)
#
#
# Indices 1 2 3 4 5 6 
#
# 1 64.1682 16.9616 13.4012 -5.2021 -13.6728 0.0095
# 2 16.9616 74.4729 0.0002 8.2383 -8.3431 -5.9492
# 3 13.4012 0.0002 77.5027 -4.3304 -25.4309 4.1563
# 4 -5.2021 8.2383 -4.3304 26.6461 2.6018 -7.2604
# 5 -13.6728 -8.3431 -25.4309 2.6018 38.6679 1.1452
# 6 0.0095 -5.9492 4.1563 -7.2604 1.1452 18.3647
#
#
#
# Elastic Compliance Matrix: (Units=1/GPa)
#
#
# Indices 1 2 3 4 5 6 
#
# 1 0.018248 -0.004120 -0.001546 0.004290 0.004245 0.000437
# 2 -0.004120 0.015454 0.001272 -0.004965 0.002972 0.002572
# 3 -0.001546 0.001272 0.017012 -0.000150 0.011050 -0.004186
# 4 0.004290 -0.004965 -0.000150 0.044613 -0.003136 0.016256
# 5 0.004245 0.002972 0.011050 -0.003136 0.035630 -0.005002
# 6 0.000437 0.002572 -0.004186 0.016256 -0.005002 0.062971
#
#
# Mechanical properties :
#
#
# Convention : Reuss Voigt Hill
#
# Bulk Modulus (GPa) = 23.85158 30.76333 27.30746
# Shear Modulus (GPa) = 23.07423 29.12111 26.09767
#
# Velocity S-wave (km/s) = 3.23237 3.63129 3.43762
# Velocity P-wave (km/s) = 4.97304 5.61352 5.30296
#
# Compressibility (1/GPa) = 0.04192594
#
# Stress axis : x y z
#
# Youngs Moduli (GPa) = 54.79970 64.70921 58.78157
#
# Poissons Ratio (x) = 0.26662 0.09089
# Poissons Ratio (y) = 0.22579 -0.07479
# Poissons Ratio (z) = 0.08473 -0.08233
#
# Static dielectric constant tensor:
#      x y z
#    x 4.337450 -0.589280 -0.967880 
#    y -0.589280 3.925270 0.521890 
#    z -0.967880 0.521890 5.345760 
# 
# 
# High freq. dielectric constant tensor:
#      x y z
#    x 1.885320 -0.019140 -0.012310 
#    y -0.019140 1.813000 -0.002720 
#    z -0.012310 -0.002720 1.897480 
# 
# From -- ./inp_files/382863.got.cif
#   From: 2010.06.25/outbox.cif.g09.slc.cpg/sg2_192_cif.got.tgz:382863.got - 2010.06.27 13:26:56.
