data_PCOD8008052
_publ_section_title
;
Structure prediction by ZEFSAII (Michael W. Deem and Ramdas Pophale) SiO2 
 PCOD8008052
Probable space group: P -1
;
_chemical_formula_sum "Si O2"
_cell_formula_units_Z 16
_cell_length_a 15.351834
_cell_length_b 15.815662
_cell_length_c 5.463297
_cell_angle_alpha 88.814758
_cell_angle_beta 81.717501
_cell_angle_gamma 149.085619
_cell_volume 646.657983
_symmetry_space_group_name_H-M "P -1"
_symmetry_group_IT_number 2
_symmetry_cell_setting 'triclinic'
loop_
_space_group_symop_operation_xyz
x,y,z
-x,-y,-z
loop_
_atom_site_type_symbol
_atom_site_label
_atom_site_fract_x
_atom_site_fract_y
_atom_site_fract_z
Si Si1 0.978812 0.653136 0.688787
Si Si2 0.818886 0.300166 0.125724
Si Si3 0.829029 0.030320 0.540982
Si Si4 0.267195 0.693965 0.331356
Si Si5 0.272468 0.465425 0.844815
Si Si6 0.630593 0.738657 0.933585
Si Si7 0.488584 0.734395 0.381771
Si Si8 0.092328 0.156827 0.071581
O O1 0.920292 0.516827 0.586928
O O2 0.125930 0.751186 0.833912
O O3 0.071411 0.797167 0.455808
O O4 0.804648 0.548662 0.890806
O O5 0.713868 0.245716 0.414637
O O6 0.711807 0.224056 0.915691
O O7 0.000000 0.500000 0.000000
O O8 0.961616 0.082158 0.332398
O O9 0.780833 0.937316 0.808395
O O10 0.644021 0.895546 0.487246
O O11 0.433868 0.767836 0.230969
O O12 0.475762 0.605111 0.803293
O O13 0.297443 0.549605 0.601384
O O14 0.146696 0.278399 0.854698
O O15 0.721342 0.722152 0.898312
O O16 0.550251 0.700164 0.226155
O O17 0.000000 0.000000 0.000000
#
# Coordination Sequence:
#
# PCOD8008052 Si02
#       8
#     2   2   2   2   2   2   2   2
#     4  10  20  42  64  96 122 166 215 263 325 375
#     4  10  21  38  65  98 128 167 214 274 321 382
#     4  10  24  42  62  90 129 164 208 270 322 381
#     4  11  22  40  67  95 130 169 219 268 321 388
#     4  10  23  40  64  88 126 164 215 260 314 390
#     4  11  22  42  61  87 124 168 208 256 323 385
#     4  11  22  41  63  91 125 170 210 260 320 389
#     4  11  22  42  61  93 122 163 210 267 323 373
#
# _framework density 24.742599999999999
#
# number of rings (size 3 to 8) (size 9 to 14) (size 15 to 20)
#    0.000    1.500    2.500    3.750    1.750    1.500 
#    9.000    1.250    0.000    0.000    0.000    0.000 
#    0.000    0.000    0.000    0.000    0.000    0.000 
#
# Total GULP energy -198261.045514 kJ/mol
# GULP energy per Si atom -12391.315345 kJ/mol
# Density = 2.468629 g / cm^3
# Si number density = 24.742600 Si / 1000 Ang^3
#
#
#
# Elastic Constant Matrix: (Units=GPa)
#
#
# Indices 1 2 3 4 5 6 
#
# 1 110.5434 0.9740 18.3478 -11.7770 5.8764 5.3510
# 2 0.9740 56.3109 15.8132 -15.5398 -13.4861 -10.4454
# 3 18.3478 15.8132 109.5729 -7.5272 2.1432 -4.2434
# 4 -11.7770 -15.5398 -7.5272 28.2080 2.4170 5.2761
# 5 5.8764 -13.4861 2.1432 2.4170 26.1539 -2.0988
# 6 5.3510 -10.4454 -4.2434 5.2761 -2.0988 25.6674
#
#
#
# Elastic Compliance Matrix: (Units=1/GPa)
#
#
# Indices 1 2 3 4 5 6 
#
# 1 0.010121 0.000289 -0.001483 0.004871 -0.002732 -0.003462
# 2 0.000289 0.026621 -0.003041 0.011106 0.013615 0.009101
# 3 -0.001483 -0.003041 0.009901 0.000439 -0.002051 0.000450
# 4 0.004871 0.011106 0.000439 0.044772 0.000007 -0.005626
# 5 -0.002732 0.013615 -0.002051 0.000007 0.046807 0.009597
# 6 -0.003462 0.009101 0.000450 -0.005626 0.009597 0.045401
#
#
# Mechanical properties :
#
#
# Convention : Reuss Voigt Hill
#
# Bulk Modulus (GPa) = 26.19537 38.52191 32.35864
# Shear Modulus (GPa) = 24.41184 32.09200 28.25192
#
# Velocity S-wave (km/s) = 3.14448 3.60534 3.38277
# Velocity P-wave (km/s) = 4.87789 5.73883 5.32579
#
# Compressibility (1/GPa) = 0.03817468
#
# Stress axis : x y z
#
# Youngs Moduli (GPa) = 98.79960 37.56372 100.99758
#
# Poissons Ratio (x) = -0.01086 0.14974
# Poissons Ratio (y) = -0.02856 0.30716
# Poissons Ratio (z) = 0.14648 0.11424
#
# Static dielectric constant tensor:
#      x y z
#    x 6.412880 -0.100040 0.552250 
#    y -0.100040 4.276900 -0.254570 
#    z 0.552250 -0.254570 4.463350 
# 
# 
# High freq. dielectric constant tensor:
#      x y z
#    x 2.008790 0.010390 0.006990 
#    y 0.010390 1.957510 -0.013980 
#    z 0.006990 -0.013980 1.968320 
# 
# From -- ./inp_files/97895.got.cif
#   From: 2010.06.25/outbox.cif.g09.slc.cpg/sg2_49_cif.got.tgz:97895.got - 2010.06.27 13:26:56.
