data_PCOD8008209
_publ_section_title
;
Structure prediction by ZEFSAII (Michael W. Deem and Ramdas Pophale) SiO2 
 PCOD8008209
Probable space group: P -1
;
_chemical_formula_sum "Si O2"
_cell_formula_units_Z 14
_cell_length_a 8.646742
_cell_length_b 16.863577
_cell_length_c 9.972424
_cell_angle_alpha 99.040759
_cell_angle_beta 29.966083
_cell_angle_gamma 111.126385
_cell_volume 638.855663
_symmetry_space_group_name_H-M "P -1"
_symmetry_group_IT_number 2
_symmetry_cell_setting 'triclinic'
loop_
_space_group_symop_operation_xyz
x,y,z
-x,-y,-z
loop_
_atom_site_type_symbol
_atom_site_label
_atom_site_fract_x
_atom_site_fract_y
_atom_site_fract_z
Si Si1 0.584345 0.198816 0.698317
Si Si2 0.637057 0.724031 0.872378
Si Si3 0.368440 0.006485 0.745811
Si Si4 0.010585 0.178459 0.906963
Si Si5 0.480790 0.253473 0.336545
Si Si6 0.732040 0.449642 0.301234
Si Si7 0.186461 0.521265 0.225386
O O1 0.328767 0.203991 0.778372
O O2 0.983375 0.271981 0.386882
O O3 0.602784 0.103247 0.663472
O O4 0.441120 0.212175 0.951508
O O5 0.634660 0.758377 0.733585
O O6 0.327231 0.624095 0.099386
O O7 0.500000 0.000000 0.500000
O O8 0.314199 0.921158 0.855250
O O9 0.000000 0.000000 0.000000
O O10 0.165675 0.180261 0.642838
O O11 0.842422 0.246721 0.074115
O O12 0.515574 0.346519 0.395325
O O13 0.500000 0.500000 0.500000
O O14 0.917170 0.454024 0.303547
O O15 0.000000 0.500000 0.000000
O O16 0.000000 0.500000 0.500000
O O17 0.500000 0.500000 0.000000
#
# Coordination Sequence:
#
# PCOD8008209 Si02
#       7
#     2   2   2   2   2   2   2
#     4  11  24  43  72 100 133 178 221 276 333 394
#     4  12  26  45  65  99 142 174 215 278 349 386
#     4  10  20  42  68 100 136 171 220 274 332 387
#     4  11  24  43  71 101 129 176 230 274 319 405
#     4  12  26  44  68  98 138 176 224 273 334 401
#     4  12  26  48  69  93 133 185 221 264 340 402
#     4  12  28  46  68  99 134 172 227 283 328 392
#
# _framework density 21.914182
#
# number of rings (size 3 to 8) (size 9 to 14) (size 15 to 20)
#    0.000    0.571    1.429    7.714    8.000    0.000 
#    0.000    4.286    0.000    0.000    0.000    0.000 
#    0.000    0.000    0.000    0.000    0.000    0.000 
#
# Total GULP energy -173598.671635 kJ/mol
# GULP energy per Si atom -12399.905117 kJ/mol
# Density = 2.186430 g / cm^3
# Si number density = 21.914182 Si / 1000 Ang^3
#
#
#
# Elastic Constant Matrix: (Units=GPa)
#
#
# Indices 1 2 3 4 5 6 
#
# 1 108.5570 37.2013 55.5322 15.0969 15.9393 -1.0968
# 2 37.2013 89.8586 39.0560 18.4466 11.5281 -3.7877
# 3 55.5322 39.0560 185.7313 20.0679 23.8772 -4.9016
# 4 15.0969 18.4466 20.0679 46.6634 -5.2625 3.5299
# 5 15.9393 11.5281 23.8772 -5.2625 55.7103 6.6213
# 6 -1.0968 -3.7877 -4.9016 3.5299 6.6213 28.7251
#
#
#
# Elastic Compliance Matrix: (Units=1/GPa)
#
#
# Indices 1 2 3 4 5 6 
#
# 1 0.012158 -0.003328 -0.002488 -0.001785 -0.001923 0.000263
# 2 -0.003328 0.014350 -0.001171 -0.004547 -0.002259 0.002645
# 3 -0.002488 -0.001171 0.006966 -0.002137 -0.002443 0.001765
# 4 -0.001785 -0.004547 -0.002137 0.025751 0.005448 -0.005453
# 5 -0.001923 -0.002259 -0.002443 0.005448 0.021286 -0.006364
# 6 0.000263 0.002645 0.001765 -0.005453 -0.006364 0.037610
#
#
# Mechanical properties :
#
#
# Convention : Reuss Voigt Hill
#
# Bulk Modulus (GPa) = 51.28197 71.96954 61.62576
# Shear Modulus (GPa) = 36.07626 43.04358 39.55992
#
# Velocity S-wave (km/s) = 4.06180 4.43672 4.25340
# Velocity P-wave (km/s) = 6.74164 7.69148 7.23217
#
# Compressibility (1/GPa) = 0.01950003
#
# Stress axis : x y z
#
# Youngs Moduli (GPa) = 82.24802 69.68595 143.55697
#
# Poissons Ratio (x) = 0.23189 0.35723
# Poissons Ratio (y) = 0.27370 0.16811
# Poissons Ratio (z) = 0.20467 0.08160
#
# Static dielectric constant tensor:
#      x y z
#    x 3.956070 0.034180 0.063710 
#    y 0.034180 6.285060 -1.479760 
#    z 0.063710 -1.479760 5.223400 
# 
# 
# High freq. dielectric constant tensor:
#      x y z
#    x 1.852080 -0.005150 0.004100 
#    y -0.005150 1.865860 0.006280 
#    z 0.004100 0.006280 1.893030 
# 
# From -- ./inp_files/217953.got.cif
#   From: 2010.06.25/outbox.cif.g09.slc.cpg/sg2_109_cif.got.tgz:217953.got - 2010.06.27 13:26:56.
