data_PCOD8008896
_publ_section_title
;
Structure prediction by ZEFSAII (Michael W. Deem and Ramdas Pophale) SiO2 
 PCOD8008896
Probable space group: P -1
;
_chemical_formula_sum "Si O2"
_cell_formula_units_Z 14
_cell_length_a 10.322992
_cell_length_b 11.753326
_cell_length_c 9.461885
_cell_angle_alpha 78.060996
_cell_angle_beta 73.290682
_cell_angle_gamma 36.590009
_cell_volume 654.835859
_symmetry_space_group_name_H-M "P -1"
_symmetry_group_IT_number 2
_symmetry_cell_setting 'triclinic'
loop_
_space_group_symop_operation_xyz
x,y,z
-x,-y,-z
loop_
_atom_site_type_symbol
_atom_site_label
_atom_site_fract_x
_atom_site_fract_y
_atom_site_fract_z
Si Si1 0.955317 0.669078 0.131253
Si Si2 0.186064 0.675185 0.667263
Si Si3 0.601069 0.079648 0.130313
Si Si4 0.672486 0.326480 0.661026
Si Si5 0.117167 0.319166 0.176844
Si Si6 0.408370 0.456376 0.133848
Si Si7 0.075383 0.011421 0.117913
O O1 0.981479 0.523362 0.228771
O O2 0.188644 0.574815 0.086811
O O3 0.767126 0.877640 0.215091
O O4 0.902043 0.683207 0.981996
O O5 0.423266 0.449146 0.674250
O O6 0.190868 0.751050 0.506017
O O7 0.986318 0.719584 0.697986
O O8 0.140414 0.788123 0.788923
O O9 0.564799 0.235264 0.161016
O O10 0.378027 0.159020 0.163632
O O11 0.747025 0.005492 0.961478
O O12 0.645129 0.469985 0.708517
O O13 0.803683 0.155847 0.769402
O O14 0.500000 0.500000 0.000000
O O15 0.000000 0.000000 0.000000
#
# Coordination Sequence:
#
# PCOD8008896 Si02
#       7
#     2   2   2   2   2   2   2
#     4  10  21  35  57  93 122 158 213 266 309 363
#     4  11  25  43  63  92 133 173 207 258 331 385
#     4  11  22  34  61  98 122 157 211 269 313 366
#     4  11  25  42  63  94 131 169 210 262 325 389
#     4  10  22  37  59  91 126 164 210 261 317 377
#     4  11  21  36  60  91 122 162 210 264 312 366
#     4  12  24  39  69 100 127 161 214 271 317 377
#
# _framework density 21.379404000000001
#
# number of rings (size 3 to 8) (size 9 to 14) (size 15 to 20)
#    0.000    1.143    2.857    3.429    4.000    0.000 
#    0.000    2.857    0.000    4.286    0.000    0.000 
#    0.000    0.000    0.000    0.000    0.000    0.000 
#
# Total GULP energy -173440.645251 kJ/mol
# GULP energy per Si atom -12388.617518 kJ/mol
# Density = 2.133074 g / cm^3
# Si number density = 21.379404 Si / 1000 Ang^3
#
#
#
# Elastic Constant Matrix: (Units=GPa)
#
#
# Indices 1 2 3 4 5 6 
#
# 1 103.5211 43.1751 38.0731 10.7342 -21.8460 8.0798
# 2 43.1751 137.9660 34.2575 7.3855 -13.6654 10.3270
# 3 38.0731 34.2575 102.1286 10.1154 -11.2204 -2.5260
# 4 10.7342 7.3855 10.1154 30.7837 -2.7387 6.4559
# 5 -21.8460 -13.6654 -11.2204 -2.7387 24.1492 15.6304
# 6 8.0798 10.3270 -2.5260 6.4559 15.6304 16.6102
#
#
#
# Elastic Compliance Matrix: (Units=1/GPa)
#
#
# Indices 1 2 3 4 5 6 
#
# 1 -0.013876 -0.014393 0.004726 -0.027697 -0.100364 0.121626
# 2 -0.014393 0.003694 0.001592 -0.011112 -0.044630 0.051263
# 3 0.004726 0.001592 0.009725 0.004779 0.032255 -0.034019
# 4 -0.027697 -0.011112 0.004779 0.011482 -0.098724 0.109546
# 5 -0.100364 -0.044630 0.032255 -0.098724 -0.379639 0.477089
# 6 0.121626 0.051263 -0.034019 0.109546 0.477089 -0.527528
#
#
# Mechanical properties :
#
#
# Convention : Reuss Voigt Hill
#
# Bulk Modulus (GPa) = -60.21160 63.84746 1.81793
# Shear Modulus (GPa) = -5.64636 29.51594 11.93479
#
# Velocity S-wave (km/s) = -1.62689 3.71964 2.36527
# Velocity P-wave (km/s) = 5.63503 6.95532 2.88297
#
# Compressibility (1/GPa) = -0.01660809
#
# Stress axis : x y z
#
# Youngs Moduli (GPa) = -72.06786 270.68563 102.82924
#
# Poissons Ratio (x) = 3.89606 -0.48596
# Poissons Ratio (y) = -1.03729 -0.16367
# Poissons Ratio (z) = 0.34058 -0.43085
#
# Static dielectric constant tensor:
#      x y z
#    x 4.288590 0.208290 -0.029390 
#    y 0.208290 4.474450 0.348480 
#    z -0.029390 0.348480 3.668210 
# 
# 
# High freq. dielectric constant tensor:
#      x y z
#    x 1.849850 0.002480 -0.005310 
#    y 0.002480 1.863080 0.016420 
#    z -0.005310 0.016420 1.792600 
# 
# From -- ./inp_files/272830.got.cif
#   From: 2010.06.25/outbox.cif.g09.slc.cpg/sg2_137_cif.got.tgz:272830.got - 2010.06.27 13:26:56.
