data_PCOD8008179
_publ_section_title
;
Structure prediction by ZEFSAII (Michael W. Deem and Ramdas Pophale) SiO2 
 PCOD8008179
Probable space group: P -1
;
_chemical_formula_sum "Si O2"
_cell_formula_units_Z 16
_cell_length_a 21.614642
_cell_length_b 27.116766
_cell_length_c 9.601720
_cell_angle_alpha 27.480114
_cell_angle_beta 151.558261
_cell_angle_gamma 161.385889
_cell_volume 800.025376
_symmetry_space_group_name_H-M "P -1"
_symmetry_group_IT_number 2
_symmetry_cell_setting 'triclinic'
loop_
_space_group_symop_operation_xyz
x,y,z
-x,-y,-z
loop_
_atom_site_type_symbol
_atom_site_label
_atom_site_fract_x
_atom_site_fract_y
_atom_site_fract_z
Si Si1 0.280990 0.900020 0.347268
Si Si2 0.973788 0.958956 0.891380
Si Si3 0.022426 0.530158 0.806665
Si Si4 0.603543 0.602065 0.088915
Si Si5 0.671220 0.913309 0.258311
Si Si6 0.565960 0.270305 0.492406
Si Si7 0.382879 0.614021 0.225882
Si Si8 0.618152 0.866089 0.821995
O O1 0.127209 0.708162 0.538449
O O2 0.500000 0.000000 0.500000
O O3 0.295346 0.974132 0.333352
O O4 0.227110 0.931522 0.022373
O O5 0.866593 0.984380 0.531740
O O6 0.834825 0.766594 0.091119
O O7 0.000000 0.000000 0.000000
O O8 0.188624 0.086930 0.925502
O O9 0.804078 0.400006 0.629759
O O10 0.157423 0.517567 0.046084
O O11 0.000000 0.500000 0.000000
O O12 0.607752 0.509250 0.443485
O O13 0.500000 0.500000 0.000000
O O14 0.495990 0.642549 0.832973
O O15 0.524595 0.854667 0.243505
O O16 0.537972 0.752346 0.302183
O O17 0.473329 0.163721 0.434977
O O18 0.450586 0.697919 0.999030
#
# Coordination Sequence:
#
# PCOD8008179 Si02
#       8
#     2   2   2   2   2   2   2   2
#     4  11  23  44  67  94 129 175 223 270 325 394
#     4  11  22  42  67  97 133 170 220 271 337 390
#     4  12  23  43  71  94 127 180 226 266 324 403
#     4  11  21  41  68  93 127 175 221 266 323 400
#     4  10  20  42  67  92 132 167 220 271 321 395
#     4  11  23  43  66  97 134 170 217 273 332 390
#     4  11  23  42  66  96 134 169 222 273 326 391
#     4  11  25  42  66  95 139 166 213 282 329 380
#
# _framework density 19.999366999999999
#
# number of rings (size 3 to 8) (size 9 to 14) (size 15 to 20)
#    0.000    1.000    8.750    0.000    3.500    4.000 
#    2.250    2.500    0.000    0.000    0.000    0.000 
#    0.000    0.000    0.000    0.000    0.000    0.000 
#
# Total GULP energy -198289.806310 kJ/mol
# GULP energy per Si atom -12393.112894 kJ/mol
# Density = 1.995385 g / cm^3
# Si number density = 19.999367 Si / 1000 Ang^3
#
#
#
# Elastic Constant Matrix: (Units=GPa)
#
#
# Indices 1 2 3 4 5 6 
#
# 1 107.1947 36.3999 33.6997 13.5311 -11.1926 6.2494
# 2 36.3999 109.4440 44.3937 18.0975 -8.3779 14.0570
# 3 33.6997 44.3937 104.4754 2.5789 -6.9356 -4.5693
# 4 13.5311 18.0975 2.5789 43.8078 8.7064 1.1395
# 5 -11.1926 -8.3779 -6.9356 8.7064 36.1489 10.4595
# 6 6.2494 14.0570 -4.5693 1.1395 10.4595 35.4084
#
#
#
# Elastic Compliance Matrix: (Units=1/GPa)
#
#
# Indices 1 2 3 4 5 6 
#
# 1 0.011873 -0.001346 -0.002998 -0.003770 0.004620 -0.003192
# 2 -0.001346 0.014141 -0.005393 -0.005994 0.005435 -0.007485
# 3 -0.002998 -0.005393 0.012860 0.002614 -0.001715 0.004752
# 4 -0.003770 -0.005994 0.002614 0.028250 -0.010469 0.005566
# 5 0.004620 0.005435 -0.001715 -0.010469 0.036492 -0.013637
# 6 -0.003192 -0.007485 0.004752 0.005566 -0.013637 0.036239
#
#
# Mechanical properties :
#
#
# Convention : Reuss Voigt Hill
#
# Bulk Modulus (GPa) = 51.54642 61.12228 56.33435
# Shear Modulus (GPa) = 30.15793 36.84774 33.50284
#
# Velocity S-wave (km/s) = 3.88744 4.29703 4.09735
# Velocity P-wave (km/s) = 6.78082 7.43288 7.11433
#
# Compressibility (1/GPa) = 0.01939999
#
# Stress axis : x y z
#
# Youngs Moduli (GPa) = 84.22784 70.71652 77.76251
#
# Poissons Ratio (x) = 0.09517 0.23310
# Poissons Ratio (y) = 0.11335 0.41939
# Poissons Ratio (z) = 0.25248 0.38139
#
# Static dielectric constant tensor:
#      x y z
#    x 3.654500 0.153120 -0.002390 
#    y 0.153120 4.428400 0.286700 
#    z -0.002390 0.286700 3.824880 
# 
# 
# High freq. dielectric constant tensor:
#      x y z
#    x 1.777120 0.011680 -0.010900 
#    y 0.011680 1.784580 0.008660 
#    z -0.010900 0.008660 1.787590 
# 
# From -- ./inp_files/205744.got.cif
#   From: 2010.06.25/outbox.cif.g09.slc.cpg/sg2_103_cif.got.tgz:205744.got - 2010.06.27 13:26:56.
