data_PCOD8008055
_publ_section_title
;
Structure prediction by ZEFSAII (Michael W. Deem and Ramdas Pophale) SiO2 
 PCOD8008055
Probable space group: P -1
;
_chemical_formula_sum "Si O2"
_cell_formula_units_Z 12
_cell_length_a 9.864596
_cell_length_b 9.289937
_cell_length_c 8.195690
_cell_angle_alpha 96.256205
_cell_angle_beta 108.552233
_cell_angle_gamma 121.373790
_cell_volume 571.869187
_symmetry_space_group_name_H-M "P -1"
_symmetry_group_IT_number 2
_symmetry_cell_setting 'triclinic'
loop_
_space_group_symop_operation_xyz
x,y,z
-x,-y,-z
loop_
_atom_site_type_symbol
_atom_site_label
_atom_site_fract_x
_atom_site_fract_y
_atom_site_fract_z
Si Si1 0.800945 0.371514 0.844402
Si Si2 0.227372 0.209136 0.163555
Si Si3 0.944658 0.585994 0.616947
Si Si4 0.868258 0.143435 0.007943
Si Si5 0.835200 0.822468 0.497335
Si Si6 0.522199 0.428665 0.833007
O O1 0.662002 0.381124 0.898094
O O2 0.800367 0.424847 0.663011
O O3 0.763883 0.177769 0.836274
O O4 0.000000 0.500000 0.000000
O O5 0.188143 0.132111 0.322580
O O6 0.406935 0.408422 0.248224
O O7 0.069428 0.220210 0.040045
O O8 0.238965 0.071393 0.038505
O O9 0.112203 0.754461 0.802124
O O10 0.000000 0.500000 0.500000
O O11 0.855925 0.661481 0.489710
O O12 0.660635 0.751203 0.317319
O O13 0.000000 0.000000 0.500000
O O14 0.500000 0.500000 0.000000
#
# Coordination Sequence:
#
# PCOD8008055 Si02
#       6
#     2   2   2   2   2   2
#     4  10  20  42  64  97 132 178 218 272 334 394
#     4  10  21  43  67  95 135 176 224 276 331 399
#     4  10  22  37  67  97 134 175 224 263 341 392
#     4   9  20  38  71  91 131 173 221 263 344 381
#     4  11  26  42  67  97 139 178 225 273 336 399
#     4  12  26  41  70 101 133 180 228 275 338 400
#
# _framework density 20.983820000000001
#
# number of rings (size 3 to 8) (size 9 to 14) (size 15 to 20)
#    0.000    1.667    5.000    0.500   14.000    0.000 
#    0.000    3.333    0.000    0.000    0.000    0.000 
#    0.000    0.000    0.000    0.000    0.000    0.000 
#
# Total GULP energy -148692.979342 kJ/mol
# GULP energy per Si atom -12391.081612 kJ/mol
# Density = 2.093606 g / cm^3
# Si number density = 20.983820 Si / 1000 Ang^3
#
#
#
# Elastic Constant Matrix: (Units=GPa)
#
#
# Indices 1 2 3 4 5 6 
#
# 1 140.4391 60.1996 61.1155 -1.3871 -4.1958 -20.5126
# 2 60.1996 112.8302 45.3414 2.4410 5.4201 -5.4099
# 3 61.1155 45.3414 82.5576 0.7191 -2.0219 -6.9111
# 4 -1.3871 2.4410 0.7191 38.1474 -2.6309 0.2702
# 5 -4.1958 5.4201 -2.0219 -2.6309 41.2318 6.1560
# 6 -20.5126 -5.4099 -6.9111 0.2702 6.1560 42.4315
#
#
#
# Elastic Compliance Matrix: (Units=1/GPa)
#
#
# Indices 1 2 3 4 5 6 
#
# 1 0.012273 -0.003721 -0.006673 0.000837 0.000830 0.004246
# 2 -0.003721 0.012680 -0.004302 -0.001016 -0.002239 -0.000551
# 3 -0.006673 -0.004302 0.019377 -0.000263 0.000932 -0.000752
# 4 0.000837 -0.001016 -0.000263 0.026449 0.001926 -0.000215
# 5 0.000830 -0.002239 0.000932 0.001926 0.025311 -0.003417
# 6 0.004246 -0.000551 -0.000752 -0.000215 -0.003417 0.025924
#
#
# Mechanical properties :
#
#
# Convention : Reuss Voigt Hill
#
# Bulk Modulus (GPa) = 66.94014 74.34887 70.64450
# Shear Modulus (GPa) = 31.97249 35.64015 33.80632
#
# Velocity S-wave (km/s) = 3.90766 4.12571 4.01816
# Velocity P-wave (km/s) = 7.23394 7.62914 7.43416
#
# Compressibility (1/GPa) = 0.01493872
#
# Stress axis : x y z
#
# Youngs Moduli (GPa) = 81.48181 78.86584 51.60632
#
# Poissons Ratio (x) = 0.29344 0.34438
# Poissons Ratio (y) = 0.30317 0.22199
# Poissons Ratio (z) = 0.54375 0.33925
#
# Static dielectric constant tensor:
#      x y z
#    x 3.830680 -0.363990 0.105540 
#    y -0.363990 4.603740 -0.244690 
#    z 0.105540 -0.244690 3.772750 
# 
# 
# High freq. dielectric constant tensor:
#      x y z
#    x 1.809930 -0.021750 -0.004050 
#    y -0.021750 1.826000 -0.008490 
#    z -0.004050 -0.008490 1.802820 
# 
# From -- ./inp_files/155039.got.cif
#   From: 2010.06.25/outbox.cif.g09.slc.cpg/sg2_78_cif.got.tgz:155039.got - 2010.06.27 13:26:56.
