data_PCOD8008011
_publ_section_title
;
Structure prediction by ZEFSAII (Michael W. Deem and Ramdas Pophale) SiO2 
 PCOD8008011
Probable space group: P -1
;
_chemical_formula_sum "Si O2"
_cell_formula_units_Z 16
_cell_length_a 18.217807
_cell_length_b 9.093649
_cell_length_c 18.453167
_cell_angle_alpha 151.951752
_cell_angle_beta 31.952541
_cell_angle_gamma 137.049628
_cell_volume 758.983749
_symmetry_space_group_name_H-M "P -1"
_symmetry_group_IT_number 2
_symmetry_cell_setting 'triclinic'
loop_
_space_group_symop_operation_xyz
x,y,z
-x,-y,-z
loop_
_atom_site_type_symbol
_atom_site_label
_atom_site_fract_x
_atom_site_fract_y
_atom_site_fract_z
Si Si1 0.013236 0.534291 0.798662
Si Si2 0.151874 0.032880 0.981600
Si Si3 0.551022 0.750811 0.168354
Si Si4 0.775223 0.163504 0.890934
Si Si5 0.485210 0.361515 0.689698
Si Si6 0.336147 0.799567 0.260426
Si Si7 0.733941 0.751061 0.608860
Si Si8 0.131656 0.320087 0.276383
O O1 0.115031 0.434165 0.602460
O O2 0.895102 0.757735 0.956833
O O3 0.930217 0.263218 0.787317
O O4 0.097721 0.692200 0.861692
O O5 0.092193 0.156134 0.162474
O O6 0.318931 0.033651 0.841611
O O7 0.489810 0.642646 0.247821
O O8 0.435020 0.943888 0.301049
O O9 0.579530 0.417218 0.961700
O O10 0.720170 0.981690 0.788727
O O11 0.789145 0.938605 0.851008
O O12 0.663359 0.457367 0.128657
O O13 0.608497 0.525962 0.618077
O O14 0.500000 0.000000 0.500000
O O15 0.228802 0.599007 0.304177
O O16 0.263345 0.080541 0.398105
O O17 0.000000 0.500000 0.500000
#
# Coordination Sequence:
#
# PCOD8008011 Si02
#       8
#     2   2   2   2   2   2   2   2
#     4  11  23  43  68  94 130 178 227 274 344 396
#     4  10  22  41  66  88 137 177 216 276 338 398
#     4  10  20  42  63  91 131 174 216 274 334 385
#     4  12  24  43  71  98 137 175 230 277 334 405
#     4  12  26  43  63 101 141 176 221 275 337 404
#     4  10  22  39  69  95 132 167 221 280 331 388
#     4  12  24  41  73 103 126 175 233 278 334 405
#     4  11  23  42  67 103 135 174 227 282 338 398
#
# _framework density 21.080819000000002
#
# number of rings (size 3 to 8) (size 9 to 14) (size 15 to 20)
#    0.000    1.000    2.500    4.500    7.000    0.500 
#    2.250    1.250    0.000    0.000    0.000    0.000 
#    0.000    0.000    0.000    0.000    0.000    0.000 
#
# Total GULP energy -198358.636354 kJ/mol
# GULP energy per Si atom -12397.414772 kJ/mol
# Density = 2.103284 g / cm^3
# Si number density = 21.080819 Si / 1000 Ang^3
#
#
#
# Elastic Constant Matrix: (Units=GPa)
#
#
# Indices 1 2 3 4 5 6 
#
# 1 132.6802 56.8525 30.0771 3.8674 1.0930 1.7675
# 2 56.8525 146.1098 46.4541 -6.7165 6.3324 3.7725
# 3 30.0771 46.4541 104.3929 -5.5250 1.6088 4.9440
# 4 3.8674 -6.7165 -5.5250 32.3830 -4.5947 1.3829
# 5 1.0930 6.3324 1.6088 -4.5947 21.2019 -1.8196
# 6 1.7675 3.7725 4.9440 1.3829 -1.8196 36.3103
#
#
#
# Elastic Compliance Matrix: (Units=1/GPa)
#
#
# Indices 1 2 3 4 5 6 
#
# 1 0.009308 -0.003304 -0.001328 -0.002004 0.000187 0.000157
# 2 -0.003304 0.009269 -0.003034 0.001527 -0.002084 -0.000552
# 3 -0.001328 -0.003034 0.011448 0.001584 0.000344 -0.001222
# 4 -0.002004 0.001527 0.001584 0.032681 0.006507 -0.001195
# 5 0.000187 -0.002084 0.000344 0.006507 0.049367 0.002387
# 6 0.000157 -0.000552 -0.001222 -0.001195 0.002387 0.027922
#
#
# Mechanical properties :
#
#
# Convention : Reuss Voigt Hill
#
# Bulk Modulus (GPa) = 68.05324 72.21671 70.13498
# Shear Modulus (GPa) = 31.20610 34.63230 32.91920
#
# Velocity S-wave (km/s) = 3.85165 4.05759 3.95596
# Velocity P-wave (km/s) = 7.22028 7.50223 7.36260
#
# Compressibility (1/GPa) = 0.01469438
#
# Stress axis : x y z
#
# Youngs Moduli (GPa) = 107.42870 107.88527 87.35036
#
# Poissons Ratio (x) = 0.35646 0.11600
# Poissons Ratio (y) = 0.35495 0.26499
# Poissons Ratio (z) = 0.14266 0.32729
#
# Static dielectric constant tensor:
#      x y z
#    x 4.131280 0.034480 -0.050300 
#    y 0.034480 3.764730 0.105100 
#    z -0.050300 0.105100 3.551510 
# 
# 
# High freq. dielectric constant tensor:
#      x y z
#    x 1.833160 -0.000170 -0.001660 
#    y -0.000170 1.832150 -0.011050 
#    z -0.001660 -0.011050 1.821590 
# 
# From -- ./inp_files/495016.got.cif
#   From: 2010.06.25/outbox.cif.g09.slc.cpg/sg2_248_cif.got.tgz:495016.got - 2010.06.27 13:26:56.
