data_PCOD8008090
_publ_section_title
;
Structure prediction by ZEFSAII (Michael W. Deem and Ramdas Pophale) SiO2 
 PCOD8008090
Probable space group: P -1
;
_chemical_formula_sum "Si O2"
_cell_formula_units_Z 14
_cell_length_a 18.203001
_cell_length_b 8.619584
_cell_length_c 6.885944
_cell_angle_alpha 78.375334
_cell_angle_beta 123.753863
_cell_angle_gamma 129.123784
_cell_volume 678.010190
_symmetry_space_group_name_H-M "P -1"
_symmetry_group_IT_number 2
_symmetry_cell_setting 'triclinic'
loop_
_space_group_symop_operation_xyz
x,y,z
-x,-y,-z
loop_
_atom_site_type_symbol
_atom_site_label
_atom_site_fract_x
_atom_site_fract_y
_atom_site_fract_z
Si Si1 0.112938 0.180980 0.516938
Si Si2 0.792904 0.959266 0.590981
Si Si3 0.471365 0.861319 0.682633
Si Si4 0.773443 0.512742 0.063940
Si Si5 0.971179 0.784567 0.981892
Si Si6 0.395397 0.490221 0.419995
Si Si7 0.331894 0.881492 0.785983
O O1 0.163114 0.080465 0.522835
O O2 0.203359 0.340964 0.765534
O O3 0.084099 0.290996 0.294625
O O4 0.000000 0.000000 0.500000
O O5 0.714661 0.746815 0.648734
O O6 0.717673 0.017691 0.401178
O O7 0.903346 0.153856 0.826148
O O8 0.435056 0.640422 0.624965
O O9 0.371696 0.828367 0.669699
O O10 0.500000 0.000000 0.500000
O O11 0.574687 0.960729 0.959167
O O12 0.762225 0.324704 0.181807
O O13 0.877065 0.616499 0.037711
O O14 0.650448 0.430935 0.820517
O O15 0.000000 0.000000 0.000000
O O16 0.500000 0.500000 0.500000
#
# Coordination Sequence:
#
# PCOD8008090 Si02
#       7
#     2   2   2   2   2   2   2
#     4  11  20  40  70  95 129 179 219 272 332 389
#     4  11  23  44  65 102 134 165 235 273 320 409
#     4  11  24  49  65  94 143 180 219 272 340 394
#     4  12  23  43  67  98 135 175 220 273 344 392
#     4  10  20  42  65  94 135 168 218 279 329 390
#     4  12  25  42  72 101 131 177 227 278 329 394
#     4  11  27  42  69  98 135 183 219 273 339 398
#
# _framework density 20.648658999999999
#
# number of rings (size 3 to 8) (size 9 to 14) (size 15 to 20)
#    0.000    0.857    7.143    1.714    4.000    1.143 
#    2.571    0.714    0.000    0.000    0.000    0.000 
#    0.000    0.000    0.000    0.000    0.000    0.000 
#
# Total GULP energy -173512.762862 kJ/mol
# GULP energy per Si atom -12393.768776 kJ/mol
# Density = 2.060166 g / cm^3
# Si number density = 20.648659 Si / 1000 Ang^3
#
#
#
# Elastic Constant Matrix: (Units=GPa)
#
#
# Indices 1 2 3 4 5 6 
#
# 1 107.3240 33.1405 49.6834 10.7073 -1.8552 6.4833
# 2 33.1405 81.9729 21.9934 -3.7198 -6.0232 9.4434
# 3 49.6834 21.9934 101.2677 4.1034 -8.7598 -4.7812
# 4 10.7073 -3.7198 4.1034 34.8864 -0.5073 -2.6603
# 5 -1.8552 -6.0232 -8.7598 -0.5073 33.3615 -4.2292
# 6 6.4833 9.4434 -4.7812 -2.6603 -4.2292 36.6993
#
#
#
# Elastic Compliance Matrix: (Units=1/GPa)
#
#
# Indices 1 2 3 4 5 6 
#
# 1 0.013932 -0.004017 -0.006091 -0.004226 -0.001963 -0.002754
# 2 -0.004017 0.014765 -0.001330 0.002772 0.001773 -0.002858
# 3 -0.006091 -0.001330 0.013604 0.000454 0.003459 0.003622
# 4 -0.004226 0.002772 0.000454 0.030406 0.001155 0.002430
# 5 -0.001963 0.001773 0.003459 0.001155 0.031627 0.004070
# 6 -0.002754 -0.002858 0.003622 0.002430 0.004070 0.029587
#
#
# Mechanical properties :
#
#
# Convention : Reuss Voigt Hill
#
# Bulk Modulus (GPa) = 51.48047 55.57769 53.52908
# Shear Modulus (GPa) = 30.62356 33.37258 31.99807
#
# Velocity S-wave (km/s) = 3.85525 4.02457 3.94082
# Velocity P-wave (km/s) = 6.69351 6.96926 6.83277
#
# Compressibility (1/GPa) = 0.01942484
#
# Stress axis : x y z
#
# Youngs Moduli (GPa) = 71.77763 67.72675 73.50780
#
# Poissons Ratio (x) = 0.27206 0.44776
# Poissons Ratio (y) = 0.28833 0.09775
# Poissons Ratio (z) = 0.43723 0.09006
#
# Static dielectric constant tensor:
#      x y z
#    x 3.555360 0.276440 0.042480 
#    y 0.276440 3.916180 0.224350 
#    z 0.042480 0.224350 4.627870 
# 
# 
# High freq. dielectric constant tensor:
#      x y z
#    x 1.796050 0.018260 0.000060 
#    y 0.018260 1.811550 0.004080 
#    z 0.000060 0.004080 1.826890 
# 
# From -- ./inp_files/106793.got.cif
#   From: 2010.06.25/outbox.cif.g09.slc.cpg/sg2_54_cif.got.tgz:106793.got - 2010.06.27 13:26:56.
