data_PCOD8008741
_publ_section_title
;
Structure prediction by ZEFSAII (Michael W. Deem and Ramdas Pophale) SiO2 
 PCOD8008741
Probable space group: P -1
;
_chemical_formula_sum "Si O2"
_cell_formula_units_Z 16
_cell_length_a 14.756864
_cell_length_b 9.444384
_cell_length_c 13.783398
_cell_angle_alpha 82.764863
_cell_angle_beta 137.210145
_cell_angle_gamma 64.872788
_cell_volume 830.261292
_symmetry_space_group_name_H-M "P -1"
_symmetry_group_IT_number 2
_symmetry_cell_setting 'triclinic'
loop_
_space_group_symop_operation_xyz
x,y,z
-x,-y,-z
loop_
_atom_site_type_symbol
_atom_site_label
_atom_site_fract_x
_atom_site_fract_y
_atom_site_fract_z
Si Si1 0.034342 0.687645 0.764532
Si Si2 0.943895 0.941376 0.847724
Si Si3 0.433581 0.402155 0.997832
Si Si4 0.637823 0.310593 0.705599
Si Si5 0.228870 0.669827 0.458261
Si Si6 0.163677 0.927657 0.560266
Si Si7 0.692235 0.751710 0.208680
Si Si8 0.924229 0.502177 0.592057
O O1 0.947934 0.802354 0.792078
O O2 0.982133 0.564387 0.718382
O O3 0.276438 0.532199 0.955428
O O4 0.922602 0.864882 0.577519
O O5 0.755773 0.077725 0.767382
O O6 0.888895 0.133129 0.729799
O O7 0.169153 0.758112 0.092446
O O8 0.644411 0.160955 0.223879
O O9 0.500000 0.500000 0.000000
O O10 0.331926 0.391475 0.834345
O O11 0.500000 0.500000 0.500000
O O12 0.466651 0.422381 0.644126
O O13 0.235871 0.743676 0.560201
O O14 0.098173 0.632334 0.363719
O O15 0.000000 0.000000 0.500000
O O16 0.720411 0.718678 0.350706
O O17 0.890955 0.663953 0.325353
O O18 0.500000 0.000000 0.000000
#
# Coordination Sequence:
#
# PCOD8008741 Si02
#       8
#     2   2   2   2   2   2   2   2
#     4  10  21  36  51  78 110 144 177 226 268 315
#     4   9  19  36  61  84 105 133 178 226 277 326
#     4  11  20  31  49  73 100 139 186 225 262 303
#     4   9  18  37  62  86 105 131 173 229 281 323
#     4  10  21  34  55  82 109 143 179 226 267 323
#     4  11  21  32  52  77 108 142 185 228 261 307
#     4  10  22  34  50  69 105 155 189 222 257 310
#     4  10  22  36  50  74 113 148 185 218 269 317
#
# _framework density 19.271041
#
# number of rings (size 3 to 8) (size 9 to 14) (size 15 to 20)
#    0.000    2.000    1.250    2.250    5.250    1.000 
#    0.000    0.625    0.000    6.750    0.000    0.000 
#    0.000    0.000    0.000    0.000    0.000    0.000 
#
# Total GULP energy -198237.710985 kJ/mol
# GULP energy per Si atom -12389.856937 kJ/mol
# Density = 1.922718 g / cm^3
# Si number density = 19.271041 Si / 1000 Ang^3
#
#
#
# Elastic Constant Matrix: (Units=GPa)
#
#
# Indices 1 2 3 4 5 6 
#
# 1 61.6131 37.6716 19.1666 1.4966 16.3316 -9.6719
# 2 37.6716 81.3408 12.1228 3.9025 12.2957 -8.3723
# 3 19.1666 12.1228 115.1140 -2.9261 7.7604 -5.8397
# 4 1.4966 3.9025 -2.9261 24.4588 -1.9952 1.1755
# 5 16.3316 12.2957 7.7604 -1.9952 29.0037 0.1327
# 6 -9.6719 -8.3723 -5.8397 1.1755 0.1327 36.2172
#
#
#
# Elastic Compliance Matrix: (Units=1/GPa)
#
#
# Indices 1 2 3 4 5 6 
#
# 1 0.026435 -0.009805 -0.002491 -0.001396 -0.010178 0.004474
# 2 -0.009805 0.017418 -0.000052 -0.002422 -0.002022 0.001486
# 3 -0.002491 -0.000052 0.009242 0.001149 -0.000973 0.000779
# 4 -0.001396 -0.002422 0.001149 0.041956 0.004401 -0.002125
# 5 -0.010178 -0.002022 -0.000973 0.004401 0.041646 -0.003638
# 6 0.004474 0.001486 0.000779 -0.002125 -0.003638 0.029357
#
#
# Mechanical properties :
#
#
# Convention : Reuss Voigt Hill
#
# Bulk Modulus (GPa) = 35.21433 43.99889 39.60661
# Shear Modulus (GPa) = 24.97314 30.54306 27.75810
#
# Velocity S-wave (km/s) = 3.60375 3.98542 3.79938
# Velocity P-wave (km/s) = 5.96899 6.63772 6.31222
#
# Compressibility (1/GPa) = 0.02839753
#
# Stress axis : x y z
#
# Youngs Moduli (GPa) = 37.82926 57.41312 108.20675
#
# Poissons Ratio (x) = 0.56296 0.26956
# Poissons Ratio (y) = 0.37093 0.00557
# Poissons Ratio (z) = 0.09424 0.00296
#
# Static dielectric constant tensor:
#      x y z
#    x 3.486310 -0.351570 0.115010 
#    y -0.351570 3.620610 -0.039100 
#    z 0.115010 -0.039100 3.977660 
# 
# 
# High freq. dielectric constant tensor:
#      x y z
#    x 1.724350 -0.019870 0.004130 
#    y -0.019870 1.745970 -0.001300 
#    z 0.004130 -0.001300 1.768330 
# 
# From -- ./inp_files/112315.got.cif
#   From: 2010.06.25/outbox.cif.g09.slc.cpg/sg2_57_cif.got.tgz:112315.got - 2010.06.27 13:26:56.
