data_PCOD8008054
_publ_section_title
;
Structure prediction by ZEFSAII (Michael W. Deem and Ramdas Pophale) SiO2 
 PCOD8008054
Probable space group: P -1
;
_chemical_formula_sum "Si O2"
_cell_formula_units_Z 16
_cell_length_a 7.708378
_cell_length_b 12.429666
_cell_length_c 11.260632
_cell_angle_alpha 62.500239
_cell_angle_beta 103.135029
_cell_angle_gamma 133.397121
_cell_volume 688.557666
_symmetry_space_group_name_H-M "P -1"
_symmetry_group_IT_number 2
_symmetry_cell_setting 'triclinic'
loop_
_space_group_symop_operation_xyz
x,y,z
-x,-y,-z
loop_
_atom_site_type_symbol
_atom_site_label
_atom_site_fract_x
_atom_site_fract_y
_atom_site_fract_z
Si Si1 0.608838 0.359042 0.240847
Si Si2 0.240733 0.679828 0.476480
Si Si3 0.889393 0.788950 0.660713
Si Si4 0.682695 0.062607 0.779868
Si Si5 0.997855 0.717659 0.061771
Si Si6 0.807393 0.260767 0.150405
Si Si7 0.959749 0.964658 0.874440
Si Si8 0.741719 0.845228 0.388805
O O1 0.684943 0.301468 0.385618
O O2 0.326692 0.263937 0.257738
O O3 0.683264 0.324742 0.149197
O O4 0.763538 0.554634 0.173204
O O5 0.208161 0.806924 0.376770
O O6 0.454385 0.729507 0.399421
O O7 0.000000 0.500000 0.500000
O O8 0.801103 0.753778 0.527137
O O9 0.977749 0.693284 0.755387
O O10 0.119071 0.980587 0.615484
O O11 0.796225 0.157421 0.874175
O O12 0.392967 0.938061 0.800338
O O13 0.731750 0.943601 0.816336
O O14 0.093539 0.665447 0.004737
O O15 0.923585 0.804210 0.929554
O O16 0.178698 0.124989 0.751422
O O17 0.000000 0.000000 0.000000
#
# Coordination Sequence:
#
# PCOD8008054 Si02
#       8
#     2   2   2   2   2   2   2   2
#     4  11  26  43  67 104 139 178 224 282 349 403
#     4  11  22  44  71  97 135 179 221 293 347 389
#     4  10  22  41  66  94 140 174 222 279 335 403
#     4  11  23  42  71 100 130 175 239 278 337 411
#     4  11  23  46  65  95 144 179 224 285 344 400
#     4  12  24  42  71 102 130 189 227 278 342 409
#     4  10  22  41  69  98 131 183 223 275 339 403
#     4  10  20  42  64  96 130 177 223 276 337 400
#
# _framework density 23.236978000000001
#
# number of rings (size 3 to 8) (size 9 to 14) (size 15 to 20)
#    0.000    1.250    3.750    1.500    1.750    2.000 
#    2.250    1.875    0.000    0.000    0.000    0.000 
#    0.000    0.000    0.000    0.000    0.000    0.000 
#
# Total GULP energy -198299.079635 kJ/mol
# GULP energy per Si atom -12393.692477 kJ/mol
# Density = 2.318409 g / cm^3
# Si number density = 23.236978 Si / 1000 Ang^3
#
#
#
# Elastic Constant Matrix: (Units=GPa)
#
#
# Indices 1 2 3 4 5 6 
#
# 1 108.7908 33.4424 55.1452 3.8623 2.1387 16.2246
# 2 33.4424 73.9164 28.6799 -8.1581 -1.9583 23.4309
# 3 55.1452 28.6799 137.2861 -6.0267 -4.8054 8.0408
# 4 3.8623 -8.1581 -6.0267 28.3457 -2.1088 -6.5907
# 5 2.1387 -1.9583 -4.8054 -2.1088 42.1694 4.4215
# 6 16.2246 23.4309 8.0408 -6.5907 4.4215 29.1353
#
#
#
# Elastic Compliance Matrix: (Units=1/GPa)
#
#
# Indices 1 2 3 4 5 6 
#
# 1 0.013488 -0.003475 -0.004694 -0.004937 -0.001170 -0.004360
# 2 -0.003475 0.020610 -0.001881 0.002977 0.002518 -0.013829
# 3 -0.004694 -0.001881 0.009610 0.002671 0.001180 0.001900
# 4 -0.004937 0.002977 0.002671 0.039431 0.001798 0.008265
# 5 -0.001170 0.002518 0.001180 0.001798 0.024642 -0.005032
# 6 -0.004360 -0.013829 0.001900 0.008265 -0.005032 0.049981
#
#
# Mechanical properties :
#
#
# Convention : Reuss Voigt Hill
#
# Bulk Modulus (GPa) = 42.35913 61.61427 51.98670
# Shear Modulus (GPa) = 26.92050 33.44513 30.18282
#
# Velocity S-wave (km/s) = 3.40740 3.79794 3.60795
# Velocity P-wave (km/s) = 5.80941 6.76798 6.30693
#
# Compressibility (1/GPa) = 0.02360766
#
# Stress axis : x y z
#
# Youngs Moduli (GPa) = 74.13894 48.52079 104.05916
#
# Poissons Ratio (x) = 0.16860 0.48849
# Poissons Ratio (y) = 0.25762 0.19573
# Poissons Ratio (z) = 0.34803 0.09127
#
# Static dielectric constant tensor:
#      x y z
#    x 4.342190 0.180240 0.188700 
#    y 0.180240 3.886310 -0.072770 
#    z 0.188700 -0.072770 4.525280 
# 
# 
# High freq. dielectric constant tensor:
#      x y z
#    x 1.914460 0.021860 0.004640 
#    y 0.021860 1.894480 0.002770 
#    z 0.004640 0.002770 1.937910 
# 
# From -- ./inp_files/397209.got.cif
#   From: 2010.06.25/outbox.cif.g09.slc.cpg/sg2_199_cif.got.tgz:397209.got - 2010.06.27 13:26:56.
