data_PCOD8008328
_publ_section_title
;
Structure prediction by ZEFSAII (Michael W. Deem and Ramdas Pophale) SiO2 
 PCOD8008328
Probable space group: P -1
;
_chemical_formula_sum "Si O2"
_cell_formula_units_Z 14
_cell_length_a 11.870150
_cell_length_b 7.408251
_cell_length_c 20.239428
_cell_angle_alpha 131.878877
_cell_angle_beta 35.074767
_cell_angle_gamma 133.190387
_cell_volume 720.743007
_symmetry_space_group_name_H-M "P -1"
_symmetry_group_IT_number 2
_symmetry_cell_setting 'triclinic'
loop_
_space_group_symop_operation_xyz
x,y,z
-x,-y,-z
loop_
_atom_site_type_symbol
_atom_site_label
_atom_site_fract_x
_atom_site_fract_y
_atom_site_fract_z
Si Si1 0.478138 0.192658 0.256744
Si Si2 0.096915 0.783765 0.734044
Si Si3 0.657896 0.547885 0.495720
Si Si4 0.081790 0.774451 0.295985
Si Si5 0.179754 0.969834 0.151413
Si Si6 0.585895 0.365602 0.101368
Si Si7 0.222973 0.047266 0.874366
O O1 0.443123 0.392919 0.374792
O O2 0.540617 0.345595 0.196065
O O3 0.271323 0.951324 0.290518
O O4 0.661042 0.091227 0.166998
O O5 0.272204 0.705799 0.589207
O O6 0.915545 0.519533 0.776726
O O7 0.003531 0.963697 0.780898
O O8 0.209294 0.931569 0.780289
O O9 0.500000 0.500000 0.500000
O O10 0.865224 0.783401 0.433752
O O11 0.092100 0.864615 0.238323
O O12 0.382556 0.217359 0.120752
O O13 0.232047 0.752704 0.030623
O O14 0.650589 0.654413 0.116819
O O15 0.000000 0.000000 0.000000
#
# Coordination Sequence:
#
# PCOD8008328 Si02
#       7
#     2   2   2   2   2   2   2
#     4  11  21  43  61  89 123 157 208 247 296 359
#     4  10  22  37  60  89 118 159 199 242 306 349
#     4  10  21  41  61  90 124 160 199 246 305 358
#     4   9  21  38  66  87 118 162 199 250 296 353
#     4  10  20  43  60  90 122 155 206 251 297 357
#     4  10  24  38  64  89 121 161 200 251 302 354
#     4  12  24  38  61  91 123 161 200 248 305 361
#
# _framework density 19.424399999999999
#
# number of rings (size 3 to 8) (size 9 to 14) (size 15 to 20)
#    0.857    0.857    1.429    3.000    0.000    4.571 
#    2.571    8.571    0.000    0.000    0.000    0.000 
#    0.000    0.000    0.000    0.000    0.000    0.000 
#
# Total GULP energy -173574.344175 kJ/mol
# GULP energy per Si atom -12398.167441 kJ/mol
# Density = 1.938019 g / cm^3
# Si number density = 19.424400 Si / 1000 Ang^3
#
#
#
# Elastic Constant Matrix: (Units=GPa)
#
#
# Indices 1 2 3 4 5 6 
#
# 1 78.3011 -9.3913 5.5338 3.8090 -10.5120 -0.3194
# 2 -9.3913 47.7063 14.2879 9.0230 2.7728 0.7771
# 3 5.5338 14.2879 60.6092 1.6275 -14.4592 4.5047
# 4 3.8090 9.0230 1.6275 25.6928 -0.4695 0.4825
# 5 -10.5120 2.7728 -14.4592 -0.4695 33.1644 7.7913
# 6 -0.3194 0.7771 4.5047 0.4825 7.7913 23.8751
#
#
#
# Elastic Compliance Matrix: (Units=1/GPa)
#
#
# Indices 1 2 3 4 5 6 
#
# 1 0.013919 0.003419 -0.001002 -0.003113 0.003864 -0.000934
# 2 0.003419 0.025911 -0.007572 -0.009267 -0.005098 0.002482
# 3 -0.001002 -0.007572 0.021662 0.001791 0.011588 -0.007672
# 4 -0.003113 -0.009267 0.001791 0.042578 0.001508 -0.001431
# 5 0.003864 -0.005098 0.011588 0.001508 0.040448 -0.015199
# 6 -0.000934 0.002482 -0.007672 -0.001431 -0.015199 0.048228
#
#
# Mechanical properties :
#
#
# Convention : Reuss Voigt Hill
#
# Bulk Modulus (GPa) = 19.53811 23.05304 21.29558
# Shear Modulus (GPa) = 22.71529 28.29223 25.50376
#
# Velocity S-wave (km/s) = 3.42339 3.82059 3.62743
# Velocity P-wave (km/s) = 5.07016 5.59968 5.34148
#
# Compressibility (1/GPa) = 0.05118201
#
# Stress axis : x y z
#
# Youngs Moduli (GPa) = 71.84657 38.59345 46.16342
#
# Poissons Ratio (x) = -0.13197 0.04625
# Poissons Ratio (y) = -0.24567 0.34957
# Poissons Ratio (z) = 0.07199 0.29224
#
# Static dielectric constant tensor:
#      x y z
#    x 3.563880 0.100800 -0.040220 
#    y 0.100800 3.512010 0.066480 
#    z -0.040220 0.066480 3.617990 
# 
# 
# High freq. dielectric constant tensor:
#      x y z
#    x 1.765480 0.007460 0.000180 
#    y 0.007460 1.751500 0.004160 
#    z 0.000180 0.004160 1.760280 
# 
# From -- ./inp_files/396764.got.cif
#   From: 2010.06.25/outbox.cif.g09.slc.cpg/sg2_199_cif.got.tgz:396764.got - 2010.06.27 13:26:56.
