data_PCOD8008175
_publ_section_title
;
Structure prediction by ZEFSAII (Michael W. Deem and Ramdas Pophale) SiO2 
 PCOD8008175
Probable space group: P -1
;
_chemical_formula_sum "Si O2"
_cell_formula_units_Z 16
_cell_length_a 11.512598
_cell_length_b 5.239684
_cell_length_c 13.029042
_cell_angle_alpha 108.808009
_cell_angle_beta 122.105018
_cell_angle_gamma 62.659264
_cell_volume 588.171314
_symmetry_space_group_name_H-M "P -1"
_symmetry_group_IT_number 2
_symmetry_cell_setting 'triclinic'
loop_
_space_group_symop_operation_xyz
x,y,z
-x,-y,-z
loop_
_atom_site_type_symbol
_atom_site_label
_atom_site_fract_x
_atom_site_fract_y
_atom_site_fract_z
Si Si1 0.079719 0.223000 0.570636
Si Si2 0.424352 0.694046 0.333834
Si Si3 0.686774 0.682627 0.090430
Si Si4 0.532786 0.834087 0.834704
Si Si5 0.802860 0.927053 0.871024
Si Si6 0.330383 0.048415 0.521129
Si Si7 0.134544 0.962780 0.874216
Si Si8 0.068886 0.335630 0.294576
O O1 0.246280 0.049759 0.588720
O O2 0.000000 0.500000 0.500000
O O3 0.062015 0.360141 0.695200
O O4 0.000000 0.000000 0.500000
O O5 0.507003 0.359052 0.298015
O O6 0.274209 0.809559 0.210743
O O7 0.529058 0.869779 0.375376
O O8 0.384261 0.743331 0.443327
O O9 0.745022 0.359892 0.118924
O O10 0.606427 0.874505 0.175552
O O11 0.811684 0.801451 0.122612
O O12 0.572490 0.683538 0.945999
O O13 0.674900 0.887305 0.871446
O O14 0.895823 0.649015 0.808608
O O15 0.905888 0.980349 0.015243
O O16 0.216732 0.283867 0.422200
O O17 0.988722 0.933796 0.749466
#
# Coordination Sequence:
#
# PCOD8008175 Si02
#       8
#     2   2   2   2   2   2   2   2
#     4  10  23  44  66  90 128 171 219 266 311 379
#     4  10  20  42  67  91 133 167 220 273 327 382
#     4  10  24  40  67  99 133 170 221 259 333 389
#     4  10  22  38  66  94 133 170 211 277 320 393
#     4  10  22  41  64  99 127 172 216 266 331 391
#     4   9  22  42  65  97 124 175 224 267 326 385
#     4  11  23  44  66 100 133 172 213 269 323 401
#     4  10  23  43  66  93 134 173 217 270 324 387
#
# _framework density 27.202954999999999
#
# number of rings (size 3 to 8) (size 9 to 14) (size 15 to 20)
#    0.000    2.000    1.250    0.375    5.250    3.500 
#    9.000    3.750    0.000    0.000    0.000    0.000 
#    0.000    0.000    0.000    0.000    0.000    0.000 
#
# Total GULP energy -198244.662169 kJ/mol
# GULP energy per Si atom -12390.291386 kJ/mol
# Density = 2.714104 g / cm^3
# Si number density = 27.202955 Si / 1000 Ang^3
#
#
#
# Elastic Constant Matrix: (Units=GPa)
#
#
# Indices 1 2 3 4 5 6 
#
# 1 119.6433 18.1761 18.4302 30.1099 -37.0518 -34.7855
# 2 18.1761 71.5284 24.4086 23.1215 -23.1295 -16.4557
# 3 18.4302 24.4086 121.2295 32.1268 -24.8276 -19.2765
# 4 30.1099 23.1215 32.1268 49.1058 -19.7890 -9.5475
# 5 -37.0518 -23.1295 -24.8276 -19.7890 42.5031 24.6599
# 6 -34.7855 -16.4557 -19.2765 -9.5475 24.6599 40.6412
#
#
#
# Elastic Compliance Matrix: (Units=1/GPa)
#
#
# Indices 1 2 3 4 5 6 
#
# 1 0.013689 0.001857 0.001798 -0.006298 0.006468 0.007917
# 2 0.001857 0.018611 -0.000476 -0.006284 0.006538 0.003456
# 3 0.001798 -0.000476 0.010812 -0.006167 0.002835 0.003305
# 4 -0.006298 -0.006284 -0.006167 0.032583 0.006973 -0.007436
# 5 0.006468 0.006538 0.002835 0.006973 0.048071 -0.018002
# 6 0.007917 0.003456 0.003305 -0.007436 -0.018002 0.043525
#
#
# Mechanical properties :
#
#
# Convention : Reuss Voigt Hill
#
# Bulk Modulus (GPa) = 20.21451 48.27013 34.24232
# Shear Modulus (GPa) = 28.18106 43.20911 35.69509
#
# Velocity S-wave (km/s) = 3.22212 3.98979 3.62633
# Velocity P-wave (km/s) = 4.61409 6.24560 5.49079
#
# Compressibility (1/GPa) = 0.04946942
#
# Stress axis : x y z
#
# Youngs Moduli (GPa) = 73.05093 53.73040 92.49285
#
# Poissons Ratio (x) = -0.09977 -0.16627
# Poissons Ratio (y) = -0.13564 0.04401
# Poissons Ratio (z) = -0.13132 0.02556
#
# Static dielectric constant tensor:
#      x y z
#    x 5.167890 -0.619040 -0.507990 
#    y -0.619040 4.606930 0.403580 
#    z -0.507990 0.403580 5.729350 
# 
# 
# High freq. dielectric constant tensor:
#      x y z
#    x 2.095730 -0.028880 -0.012320 
#    y -0.028880 2.070090 0.004300 
#    z -0.012320 0.004300 2.124740 
# 
# From -- ./inp_files/95554.got.cif
#   From: 2010.06.25/outbox.cif.g09.slc.cpg/sg2_48_cif.got.tgz:95554.got - 2010.06.27 13:26:56.
