data_PCOD8008435
_publ_section_title
;
Structure prediction by ZEFSAII (Michael W. Deem and Ramdas Pophale) SiO2 
 PCOD8008435
Probable space group: P -1
;
_chemical_formula_sum "Si O2"
_cell_formula_units_Z 16
_cell_length_a 5.583248
_cell_length_b 12.430181
_cell_length_c 11.307312
_cell_angle_alpha 91.946417
_cell_angle_beta 121.348517
_cell_angle_gamma 90.801808
_cell_volume 669.331681
_symmetry_space_group_name_H-M "P -1"
_symmetry_group_IT_number 2
_symmetry_cell_setting 'triclinic'
loop_
_space_group_symop_operation_xyz
x,y,z
-x,-y,-z
loop_
_atom_site_type_symbol
_atom_site_label
_atom_site_fract_x
_atom_site_fract_y
_atom_site_fract_z
Si Si1 0.756652 0.843933 0.134119
Si Si2 0.389470 0.223368 0.155638
Si Si3 0.579859 0.355562 0.860474
Si Si4 0.086377 0.649345 0.830663
Si Si5 0.032097 0.463792 0.640722
Si Si6 0.265654 0.966564 0.718285
Si Si7 0.741428 0.269255 0.660203
Si Si8 0.686743 0.907743 0.495478
O O1 0.527763 0.761071 0.126870
O O2 0.050339 0.828332 0.275951
O O3 0.678188 0.968270 0.142041
O O4 0.789360 0.822021 0.002913
O O5 0.666420 0.290912 0.181700
O O6 0.496460 0.118927 0.249350
O O7 0.175703 0.281017 0.190265
O O8 0.342754 0.437354 0.765136
O O9 0.756729 0.336626 0.787930
O O10 0.775946 0.404024 0.018466
O O11 0.936552 0.557526 0.707550
O O12 0.000000 0.500000 0.500000
O O13 0.834262 0.355975 0.588773
O O14 0.969616 0.899572 0.643521
O O15 0.249889 0.061374 0.622156
O O16 0.447153 0.213787 0.542747
O O17 0.500000 0.000000 0.500000
#
# Coordination Sequence:
#
# PCOD8008435 Si02
#       8
#     2   2   2   2   2   2   2   2
#     4  10  20  43  68 111 142 187 245 302 366 440
#     4  11  26  45  76 110 149 193 248 315 366 437
#     4  10  22  45  75 106 143 193 243 310 371 449
#     4  11  26  50  74 112 151 194 255 307 381 444
#     4  11  28  48  73 110 147 193 249 315 378 448
#     4  11  24  42  66 107 149 194 243 301 368 442
#     4  11  22  43  76 101 144 193 249 299 373 445
#     4  11  24  41  68 101 144 195 245 290 367 454
#
# _framework density 23.904440000000001
#
# number of rings (size 3 to 8) (size 9 to 14) (size 15 to 20)
#    0.000    1.250    3.750    0.750    3.500    3.000 
#    0.000    2.500    0.000    0.000    0.000    0.000 
#    0.000    0.000    0.000    0.000    0.000    0.000 
#
# Total GULP energy -198330.875396 kJ/mol
# GULP energy per Si atom -12395.679712 kJ/mol
# Density = 2.385003 g / cm^3
# Si number density = 23.904440 Si / 1000 Ang^3
#
#
#
# Elastic Constant Matrix: (Units=GPa)
#
#
# Indices 1 2 3 4 5 6 
#
# 1 119.8124 47.6142 38.6692 2.4223 2.8278 -20.2067
# 2 47.6142 112.6927 68.5477 3.6683 9.3968 -19.3410
# 3 38.6692 68.5477 115.0461 8.1637 0.4123 -10.6904
# 4 2.4223 3.6683 8.1637 36.7508 -3.4294 -3.0286
# 5 2.8278 9.3968 0.4123 -3.4294 31.5143 6.5260
# 6 -20.2067 -19.3410 -10.6904 -3.0286 6.5260 38.9325
#
#
#
# Elastic Compliance Matrix: (Units=1/GPa)
#
#
# Indices 1 2 3 4 5 6 
#
# 1 0.010634 -0.002828 -0.001539 0.000159 -0.000871 0.003850
# 2 -0.002828 0.016595 -0.008434 0.000322 -0.005675 0.005436
# 3 -0.001539 -0.008434 0.014219 -0.002113 0.002586 -0.001682
# 4 0.000159 0.000322 -0.002113 0.028001 0.002676 0.001392
# 5 -0.000871 -0.005675 0.002586 0.002676 0.035478 -0.008300
# 6 0.003850 0.005436 -0.001682 0.001392 -0.008300 0.031422
#
#
# Mechanical properties :
#
#
# Convention : Reuss Voigt Hill
#
# Bulk Modulus (GPa) = 63.11705 73.02372 68.07039
# Shear Modulus (GPa) = 29.89808 34.28752 32.09280
#
# Velocity S-wave (km/s) = 3.54041 3.79140 3.66805
# Velocity P-wave (km/s) = 6.57068 7.05555 6.81743
#
# Compressibility (1/GPa) = 0.01584358
#
# Stress axis : x y z
#
# Youngs Moduli (GPa) = 94.03929 60.25976 70.32674
#
# Poissons Ratio (x) = 0.17044 0.10826
# Poissons Ratio (y) = 0.26598 0.59316
# Poissons Ratio (z) = 0.14477 0.50825
#
# Static dielectric constant tensor:
#      x y z
#    x 4.294740 -0.018240 -0.030040 
#    y -0.018240 4.202460 0.006540 
#    z -0.030040 0.006540 4.459920 
# 
# 
# High freq. dielectric constant tensor:
#      x y z
#    x 1.947210 -0.007320 -0.004600 
#    y -0.007320 1.943260 0.007250 
#    z -0.004600 0.007250 1.953200 
# 
# From -- ./inp_files/364875.got.cif
#   From: 2010.06.25/outbox.cif.g09.slc.cpg/sg2_183_cif.got.tgz:364875.got - 2010.06.27 13:26:56.
