data_PCOD8008726
_publ_section_title
;
Structure prediction by ZEFSAII (Michael W. Deem and Ramdas Pophale) SiO2 
 PCOD8008726
Probable space group: P -1
;
_chemical_formula_sum "Si O2"
_cell_formula_units_Z 16
_cell_length_a 8.567999
_cell_length_b 14.339389
_cell_length_c 15.305750
_cell_angle_alpha 140.177941
_cell_angle_beta 134.914099
_cell_angle_gamma 72.968626
_cell_volume 712.313188
_symmetry_space_group_name_H-M "P -1"
_symmetry_group_IT_number 2
_symmetry_cell_setting 'triclinic'
loop_
_space_group_symop_operation_xyz
x,y,z
-x,-y,-z
loop_
_atom_site_type_symbol
_atom_site_label
_atom_site_fract_x
_atom_site_fract_y
_atom_site_fract_z
Si Si1 0.375637 0.396441 0.011533
Si Si2 0.549919 0.028420 0.244076
Si Si3 0.054129 0.680492 0.867369
Si Si4 0.559573 0.296201 0.838516
Si Si5 0.094128 0.457475 0.592920
Si Si6 0.860506 0.065610 0.551782
Si Si7 0.203432 0.125646 0.098266
Si Si8 0.781912 0.055150 0.185829
O O1 0.388112 0.574904 0.127494
O O2 0.586437 0.430924 0.194142
O O3 0.445863 0.338140 0.908358
O O4 0.079695 0.243689 0.816117
O O5 0.693072 0.108795 0.450600
O O6 0.484325 0.160921 0.266856
O O7 0.742126 0.004394 0.237026
O O8 0.286428 0.838450 0.015307
O O9 0.968054 0.500981 0.655536
O O10 0.805758 0.701547 0.788445
O O11 0.165617 0.681682 0.008720
O O12 0.343792 0.093842 0.579053
O O13 0.000000 0.500000 0.500000
O O14 0.998708 0.258705 0.412266
O O15 0.000000 0.000000 0.500000
O O16 0.121783 0.040874 0.907556
O O17 0.000000 0.000000 0.000000
O O18 0.500000 0.000000 0.000000
#
# Coordination Sequence:
#
# PCOD8008726 Si02
#       8
#     2   2   2   2   2   2   2   2
#     4   9  18  30  50  78 113 141 184 241 278 330
#     4   9  18  32  52  84 111 142 184 238 280 329
#     4   9  18  34  59  81 111 144 190 227 276 344
#     4   8  16  30  49  83 105 140 187 230 279 324
#     4  11  21  34  52  83 111 142 184 236 283 330
#     4   9  17  28  51  79 111 142 184 236 280 330
#     4   9  17  34  55  79 109 154 187 223 281 346
#     4  10  21  34  53  79 115 143 181 231 286 330
#
# _framework density 22.462029000000001
#
# number of rings (size 3 to 8) (size 9 to 14) (size 15 to 20)
#    0.000    2.750    0.000    3.000    7.000    0.000 
#    0.000    2.500    0.000    2.250    3.250   14.000 
#    0.000   19.250    0.000    0.000    0.000    0.000 
#
# Total GULP energy -198213.801630 kJ/mol
# GULP energy per Si atom -12388.362602 kJ/mol
# Density = 2.241090 g / cm^3
# Si number density = 22.462029 Si / 1000 Ang^3
#
#
#
# Elastic Constant Matrix: (Units=GPa)
#
#
# Indices 1 2 3 4 5 6 
#
# 1 52.0157 17.0915 16.3550 -1.6459 -9.4091 -9.2074
# 2 17.0915 120.3269 49.6806 -5.7812 4.9539 -19.6664
# 3 16.3550 49.6806 136.7394 -2.6020 9.8845 -3.2233
# 4 -1.6459 -5.7812 -2.6020 23.7591 -1.9315 1.2986
# 5 -9.4091 4.9539 9.8845 -1.9315 18.1712 3.9999
# 6 -9.2074 -19.6664 -3.2233 1.2986 3.9999 31.6001
#
#
#
# Elastic Compliance Matrix: (Units=1/GPa)
#
#
# Indices 1 2 3 4 5 6 
#
# 1 0.024098 -0.002088 -0.003025 0.001782 0.014100 0.003556
# 2 -0.002088 0.011295 -0.003415 0.001588 -0.003556 0.006458
# 3 -0.003025 -0.003415 0.009268 -0.000392 -0.005420 -0.001359
# 4 0.001782 0.001588 -0.000392 0.043058 0.005499 -0.000998
# 5 0.014100 -0.003556 -0.005420 0.005499 0.068498 -0.007554
# 6 0.003556 0.006458 -0.001359 -0.000998 -0.007554 0.037559
#
#
# Mechanical properties :
#
#
# Convention : Reuss Voigt Hill
#
# Bulk Modulus (GPa) = 36.22354 52.81514 44.51934
# Shear Modulus (GPa) = 22.72382 29.76975 26.24678
#
# Velocity S-wave (km/s) = 3.18410 3.64447 3.42203
# Velocity P-wave (km/s) = 5.44790 6.42446 5.95622
#
# Compressibility (1/GPa) = 0.02760636
#
# Stress axis : x y z
#
# Youngs Moduli (GPa) = 41.49644 88.53308 107.89889
#
# Poissons Ratio (x) = 0.18482 0.32644
# Poissons Ratio (y) = 0.08663 0.36844
# Poissons Ratio (z) = 0.12554 0.30231
#
# Static dielectric constant tensor:
#      x y z
#    x 3.984970 -0.303980 0.070620 
#    y -0.303980 4.536700 -0.031390 
#    z 0.070620 -0.031390 4.542110 
# 
# 
# High freq. dielectric constant tensor:
#      x y z
#    x 1.829130 -0.013550 0.013060 
#    y -0.013550 1.892070 -0.004730 
#    z 0.013060 -0.004730 1.875770 
# 
# From -- ./inp_files/505623.got.cif
#   From: 2010.06.25/outbox.cif.g09.slc.cpg/sg2_253_cif.got.tgz:505623.got - 2010.06.27 13:26:56.
