data_PCOD8008204
_publ_section_title
;
Structure prediction by ZEFSAII (Michael W. Deem and Ramdas Pophale) SiO2 
 PCOD8008204
Probable space group: P -1
;
_chemical_formula_sum "Si O2"
_cell_formula_units_Z 16
_cell_length_a 9.193842
_cell_length_b 19.891807
_cell_length_c 10.810080
_cell_angle_alpha 133.358172
_cell_angle_beta 55.470177
_cell_angle_gamma 150.670371
_cell_volume 701.292856
_symmetry_space_group_name_H-M "P -1"
_symmetry_group_IT_number 2
_symmetry_cell_setting 'triclinic'
loop_
_space_group_symop_operation_xyz
x,y,z
-x,-y,-z
loop_
_atom_site_type_symbol
_atom_site_label
_atom_site_fract_x
_atom_site_fract_y
_atom_site_fract_z
Si Si1 0.078635 0.755258 0.951675
Si Si2 0.947651 0.975747 0.297333
Si Si3 0.932826 0.493033 0.752346
Si Si4 0.621033 0.059412 0.209743
Si Si5 0.452653 0.181683 0.479691
Si Si6 0.181017 0.883540 0.562761
Si Si7 0.434961 0.342721 0.992012
Si Si8 0.289412 0.470797 0.653660
O O1 0.186471 0.842656 0.880449
O O2 0.089364 0.649052 0.816563
O O3 0.745938 0.657286 0.003726
O O4 0.297676 0.879835 0.112451
O O5 0.775990 0.879263 0.384603
O O6 0.957652 0.085871 0.395460
O O7 0.793475 0.840687 0.103317
O O8 0.297005 0.102171 0.319031
O O9 0.726859 0.368898 0.582585
O O10 0.175015 0.517827 0.705380
O O11 0.734460 0.436703 0.896546
O O12 0.578975 0.136703 0.403349
O O13 0.801565 0.079643 0.253226
O O14 0.984930 0.710837 0.407562
O O15 0.500000 0.000000 0.500000
O O16 0.524805 0.424723 0.182373
O O17 0.500000 0.500000 0.500000
#
# Coordination Sequence:
#
# PCOD8008204 Si02
#       8
#     2   2   2   2   2   2   2   2
#     4  11  26  43  70 101 141 191 230 296 357 409
#     4  10  22  39  69 103 132 181 229 294 342 410
#     4  11  25  44  73 100 137 192 234 286 354 418
#     4  11  23  45  65  98 145 178 241 292 346 421
#     4  10  20  42  67  98 139 170 242 286 338 419
#     4  12  24  43  73 101 136 193 233 287 353 422
#     4  11  24  45  70 106 141 177 242 296 341 428
#     4  12  28  48  68 109 149 180 233 301 359 426
#
# _framework density 22.815006
#
# number of rings (size 3 to 8) (size 9 to 14) (size 15 to 20)
#    0.000    1.000    3.750    2.250    5.250    1.500 
#    0.000    1.250    0.000    0.000    0.000    0.000 
#    0.000    0.000    0.000    0.000    0.000    0.000 
#
# Total GULP energy -198320.226687 kJ/mol
# GULP energy per Si atom -12395.014168 kJ/mol
# Density = 2.276308 g / cm^3
# Si number density = 22.815006 Si / 1000 Ang^3
#
#
#
# Elastic Constant Matrix: (Units=GPa)
#
#
# Indices 1 2 3 4 5 6 
#
# 1 102.4044 25.7199 25.2409 8.9875 -13.6799 9.2401
# 2 25.7199 76.1176 38.3989 11.4797 -3.5842 7.4171
# 3 25.2409 38.3989 120.7594 22.2665 6.0107 12.4920
# 4 8.9875 11.4797 22.2665 36.7546 4.8663 -4.3777
# 5 -13.6799 -3.5842 6.0107 4.8663 51.5711 4.9532
# 6 9.2401 7.4171 12.4920 -4.3777 4.9532 29.1649
#
#
#
# Elastic Compliance Matrix: (Units=1/GPa)
#
#
# Indices 1 2 3 4 5 6 
#
# 1 0.011665 -0.002566 -0.000998 -0.002349 0.003598 -0.003580
# 2 -0.002566 0.016781 -0.004162 -0.002556 0.001433 -0.002299
# 3 -0.000998 -0.004162 0.011343 -0.005702 -0.000937 -0.004181
# 4 -0.002349 -0.002556 -0.005702 0.033743 -0.004244 0.009622
# 5 0.003598 0.001433 -0.000937 -0.004244 0.021472 -0.005387
# 6 -0.003580 -0.002299 -0.004181 0.009622 -0.005387 0.040157
#
#
# Mechanical properties :
#
#
# Convention : Reuss Voigt Hill
#
# Bulk Modulus (GPa) = 41.08710 53.11121 47.09916
# Shear Modulus (GPa) = 31.50100 37.49288 34.49694
#
# Velocity S-wave (km/s) = 3.71983 4.05821 3.89270
# Velocity P-wave (km/s) = 6.04131 6.72967 6.39476
#
# Compressibility (1/GPa) = 0.02433854
#
# Stress axis : x y z
#
# Youngs Moduli (GPa) = 85.72354 59.59095 88.15675
#
# Poissons Ratio (x) = 0.15289 0.08799
# Poissons Ratio (y) = 0.21994 0.36690
# Poissons Ratio (z) = 0.08556 0.24801
#
# Static dielectric constant tensor:
#      x y z
#    x 4.320950 0.243150 -0.085770 
#    y 0.243150 4.120590 0.307990 
#    z -0.085770 0.307990 4.398310 
# 
# 
# High freq. dielectric constant tensor:
#      x y z
#    x 1.901640 0.018010 -0.003610 
#    y 0.018010 1.894370 0.017050 
#    z -0.003610 0.017050 1.911080 
# 
# From -- ./inp_files/404914.got.cif
#   From: 2010.06.25/outbox.cif.g09.slc.cpg/sg2_203_cif.got.tgz:404914.got - 2010.06.27 13:26:56.
