data_PCOD8008219
_publ_section_title
;
Structure prediction by ZEFSAII (Michael W. Deem and Ramdas Pophale) SiO2 
 PCOD8008219
Probable space group: P -1
;
_chemical_formula_sum "Si O2"
_cell_formula_units_Z 16
_cell_length_a 14.565475
_cell_length_b 9.335051
_cell_length_c 10.931113
_cell_angle_alpha 103.027667
_cell_angle_beta 121.901047
_cell_angle_gamma 39.680456
_cell_volume 759.281094
_symmetry_space_group_name_H-M "P -1"
_symmetry_group_IT_number 2
_symmetry_cell_setting 'triclinic'
loop_
_space_group_symop_operation_xyz
x,y,z
-x,-y,-z
loop_
_atom_site_type_symbol
_atom_site_label
_atom_site_fract_x
_atom_site_fract_y
_atom_site_fract_z
Si Si1 0.023902 0.001592 0.661210
Si Si2 0.280316 0.646212 0.307172
Si Si3 0.686158 0.760045 0.133537
Si Si4 0.018956 0.327099 0.669572
Si Si5 0.802545 0.755596 0.783607
Si Si6 0.479433 0.712318 0.389829
Si Si7 0.149732 0.525266 0.042781
Si Si8 0.247221 0.518460 0.668598
O O1 0.067231 0.126985 0.740789
O O2 0.852547 0.142052 0.646111
O O3 0.182198 0.721332 0.750946
O O4 0.000000 0.000000 0.500000
O O5 0.364436 0.687885 0.296111
O O6 0.426456 0.390247 0.430666
O O7 0.179603 0.655547 0.139930
O O8 0.801262 0.780338 0.251910
O O9 0.649560 0.706775 0.219444
O O10 0.782614 0.556112 0.063104
O O11 0.500000 0.000000 0.000000
O O12 0.887175 0.566772 0.701038
O O13 0.921414 0.386165 0.487630
O O14 0.748923 0.704894 0.847330
O O15 0.636982 0.017269 0.659437
O O16 0.940910 0.722392 0.931882
O O17 0.629534 0.547330 0.361741
#
# Coordination Sequence:
#
# PCOD8008219 Si02
#       8
#     2   2   2   2   2   2   2   2
#     4  10  20  42  68  92 128 166 216 264 318 389
#     4  11  23  43  65  97 128 169 216 266 325 373
#     4  11  25  42  62  98 134 167 217 266 321 383
#     4  10  21  42  69  93 119 177 210 266 322 379
#     4  10  21  40  66  92 129 163 219 259 322 379
#     4  11  24  40  67  98 128 162 219 275 312 373
#     4  10  22  42  62  91 128 179 209 255 323 391
#     4  11  23  44  65  96 128 173 216 262 323 379
#
# _framework density 21.072564
#
# number of rings (size 3 to 8) (size 9 to 14) (size 15 to 20)
#    0.000    1.500    3.750    1.125    3.500    4.500 
#    2.250    1.250    0.000    0.000    0.000    0.000 
#    0.000    0.000    0.000    0.000    0.000    0.000 
#
# Total GULP energy -198365.402831 kJ/mol
# GULP energy per Si atom -12397.837677 kJ/mol
# Density = 2.102460 g / cm^3
# Si number density = 21.072564 Si / 1000 Ang^3
#
#
#
# Elastic Constant Matrix: (Units=GPa)
#
#
# Indices 1 2 3 4 5 6 
#
# 1 122.2995 35.7252 36.9371 0.7826 4.3704 2.9262
# 2 35.7252 107.6315 45.7162 -9.1277 18.7757 10.7669
# 3 36.9371 45.7162 68.4731 -1.5749 3.4866 10.0230
# 4 0.7826 -9.1277 -1.5749 37.1183 8.2310 -2.7505
# 5 4.3704 18.7757 3.4866 8.2310 28.3246 -3.4494
# 6 2.9262 10.7669 10.0230 -2.7505 -3.4494 24.4184
#
#
#
# Elastic Compliance Matrix: (Units=1/GPa)
#
#
# Indices 1 2 3 4 5 6 
#
# 1 0.009987 -0.001715 -0.004494 -0.000845 0.000564 0.001388
# 2 -0.001715 0.016656 -0.008778 0.006088 -0.012019 -0.004548
# 3 -0.004494 -0.008778 0.023368 -0.002255 0.003692 -0.004916
# 4 -0.000845 0.006088 -0.002255 0.031176 -0.012679 0.000063
# 5 0.000564 -0.012019 0.003692 -0.012679 0.047511 0.009000
# 6 0.001388 -0.004548 -0.004916 0.000063 0.009000 0.046088
#
#
# Mechanical properties :
#
#
# Convention : Reuss Voigt Hill
#
# Bulk Modulus (GPa) = 49.90308 59.46234 54.68271
# Shear Modulus (GPa) = 23.64741 29.97399 26.81070
#
# Velocity S-wave (km/s) = 3.35354 3.77559 3.57081
# Velocity P-wave (km/s) = 6.22318 6.87647 6.55797
#
# Compressibility (1/GPa) = 0.02003884
#
# Stress axis : x y z
#
# Youngs Moduli (GPa) = 100.13168 60.03670 42.79272
#
# Poissons Ratio (x) = 0.10297 0.19229
# Poissons Ratio (y) = 0.17174 0.37563
# Poissons Ratio (z) = 0.44995 0.52699
#
# Static dielectric constant tensor:
#      x y z
#    x 4.308460 0.062580 -0.094160 
#    y 0.062580 4.162390 -0.022220 
#    z -0.094160 -0.022220 3.778100 
# 
# 
# High freq. dielectric constant tensor:
#      x y z
#    x 1.832820 0.005440 -0.002940 
#    y 0.005440 1.823000 -0.001090 
#    z -0.002940 -0.001090 1.814480 
# 
# From -- ./inp_files/417819.got.cif
#   From: 2010.06.25/outbox.cif.g09.slc.cpg/sg2_209_cif.got.tgz:417819.got - 2010.06.27 13:26:56.
