data_PCOD8008878
_publ_section_title
;
Structure prediction by ZEFSAII (Michael W. Deem and Ramdas Pophale) SiO2 
 PCOD8008878
Probable space group: P -1
;
_chemical_formula_sum "Si O2"
_cell_formula_units_Z 16
_cell_length_a 25.464406
_cell_length_b 6.092806
_cell_length_c 11.722192
_cell_angle_alpha 126.501239
_cell_angle_beta 31.463327
_cell_angle_gamma 127.762992
_cell_volume 738.779591
_symmetry_space_group_name_H-M "P -1"
_symmetry_group_IT_number 2
_symmetry_cell_setting 'triclinic'
loop_
_space_group_symop_operation_xyz
x,y,z
-x,-y,-z
loop_
_atom_site_type_symbol
_atom_site_label
_atom_site_fract_x
_atom_site_fract_y
_atom_site_fract_z
Si Si1 0.184561 0.299499 0.605371
Si Si2 0.937476 0.350877 0.677919
Si Si3 0.324167 0.893583 0.487150
Si Si4 0.712284 0.189848 0.725143
Si Si5 0.429585 0.694504 0.555039
Si Si6 0.113083 0.276022 0.490395
Si Si7 0.462006 0.755231 0.767064
Si Si8 0.788227 0.631229 0.173289
O O1 0.278449 0.575237 0.509936
O O2 0.102281 0.309736 0.659292
O O3 0.145352 0.290199 0.806953
O O4 0.219089 0.017211 0.425094
O O5 0.000000 0.500000 0.500000
O O6 0.011774 0.343920 0.645276
O O7 0.876783 0.033925 0.659294
O O8 0.858230 0.534278 0.918291
O O9 0.342152 0.918353 0.326081
O O10 0.437537 0.984573 0.363792
O O11 0.248404 0.097751 0.723537
O O12 0.783529 0.507886 0.681796
O O13 0.623151 0.158110 0.972702
O O14 0.408555 0.637467 0.711103
O O15 0.494411 0.481537 0.321039
O O16 0.314863 0.624306 0.689243
O O17 0.500000 0.000000 0.500000
#
# Coordination Sequence:
#
# PCOD8008878 Si02
#       8
#     2   2   2   2   2   2   2   2
#     4  10  21  41  63  89 126 166 208 252 310 370
#     4  11  25  44  66  94 124 159 208 261 318 375
#     4   9  20  39  58  93 126 162 210 252 305 369
#     4  10  21  37  64  88 126 166 207 257 305 369
#     4  10  22  36  56  91 127 164 207 250 309 369
#     4  10  24  42  63  95 122 157 211 259 309 379
#     4  10  21  35  56  90 127 165 208 255 298 368
#     4  10  23  40  64  90 124 166 202 261 311 367
#
# _framework density 21.657337999999999
#
# number of rings (size 3 to 8) (size 9 to 14) (size 15 to 20)
#    0.000    2.000    0.000    1.875    5.250    4.000 
#    0.000    8.750    0.000    0.000    0.000    0.000 
#    0.000    0.000    0.000    0.000    0.000    0.000 
#
# Total GULP energy -198344.316881 kJ/mol
# GULP energy per Si atom -12396.519805 kJ/mol
# Density = 2.160804 g / cm^3
# Si number density = 21.657338 Si / 1000 Ang^3
#
#
#
# Elastic Constant Matrix: (Units=GPa)
#
#
# Indices 1 2 3 4 5 6 
#
# 1 108.3589 21.7870 25.7691 2.0569 3.1474 12.3088
# 2 21.7870 124.3007 43.1559 9.5602 -0.8654 5.6230
# 3 25.7691 43.1559 120.0819 12.9525 9.6988 0.8052
# 4 2.0569 9.5602 12.9525 19.2153 4.4434 2.5499
# 5 3.1474 -0.8654 9.6988 4.4434 16.0670 -1.7764
# 6 12.3088 5.6230 0.8052 2.5499 -1.7764 29.7565
#
#
#
# Elastic Compliance Matrix: (Units=1/GPa)
#
#
# Indices 1 2 3 4 5 6 
#
# 1 0.010404 -0.001142 -0.001820 0.001702 -0.001947 -0.004301
# 2 -0.001142 0.009646 -0.003145 -0.003253 0.003455 -0.000781
# 3 -0.001820 -0.003145 0.010721 -0.004482 -0.004918 0.001147
# 4 0.001702 -0.003253 -0.004482 0.060847 -0.015304 -0.006096
# 5 -0.001947 0.003455 -0.004918 -0.015304 0.070651 0.005815
# 6 -0.004301 -0.000781 0.001147 -0.006096 0.005815 0.036371
#
#
# Mechanical properties :
#
#
# Convention : Reuss Voigt Hill
#
# Bulk Modulus (GPa) = 53.88169 59.35172 56.61670
# Shear Modulus (GPa) = 23.03726 30.47641 26.75683
#
# Velocity S-wave (km/s) = 3.26500 3.75535 3.51873
# Velocity P-wave (km/s) = 6.25675 6.80205 6.53509
#
# Compressibility (1/GPa) = 0.01855918
#
# Stress axis : x y z
#
# Youngs Moduli (GPa) = 96.12002 103.66481 93.27124
#
# Poissons Ratio (x) = 0.11835 0.16973
# Poissons Ratio (y) = 0.10973 0.29332
# Poissons Ratio (z) = 0.17492 0.32600
#
# Static dielectric constant tensor:
#      x y z
#    x 4.280310 0.147900 0.093420 
#    y 0.147900 4.038510 0.195950 
#    z 0.093420 0.195950 3.489610 
# 
# 
# High freq. dielectric constant tensor:
#      x y z
#    x 1.868250 0.009180 0.008880 
#    y 0.009180 1.860230 0.013440 
#    z 0.008880 0.013440 1.819960 
# 
# From -- ./inp_files/38104.got.cif
#   From: 2010.06.25/outbox.cif.g09.slc.cpg/sg2_20_cif.got.tgz:38104.got - 2010.06.27 13:26:56.
