data_PCOD8008831
_publ_section_title
;
Structure prediction by ZEFSAII (Michael W. Deem and Ramdas Pophale) SiO2 
 PCOD8008831
Probable space group: P -1
;
_chemical_formula_sum "Si O2"
_cell_formula_units_Z 16
_cell_length_a 27.064322
_cell_length_b 23.608371
_cell_length_c 17.306249
_cell_angle_alpha 155.039913
_cell_angle_beta 17.464426
_cell_angle_gamma 165.335160
_cell_volume 820.761475
_symmetry_space_group_name_H-M "P -1"
_symmetry_group_IT_number 2
_symmetry_cell_setting 'triclinic'
loop_
_space_group_symop_operation_xyz
x,y,z
-x,-y,-z
loop_
_atom_site_type_symbol
_atom_site_label
_atom_site_fract_x
_atom_site_fract_y
_atom_site_fract_z
Si Si1 0.896586 0.338252 0.374965
Si Si2 0.319586 0.228040 0.993017
Si Si3 0.815787 0.721181 0.097355
Si Si4 0.936497 0.204704 0.490461
Si Si5 0.590450 0.156854 0.446322
Si Si6 0.601024 0.333840 0.366627
Si Si7 0.079811 0.533989 0.796701
Si Si8 0.860247 0.609744 0.746577
O O1 0.793965 0.276309 0.363314
O O2 0.942877 0.524291 0.562693
O O3 0.666742 0.115623 0.498705
O O4 0.176868 0.427630 0.065157
O O5 0.491581 0.248115 0.701392
O O6 0.524377 0.387832 0.957469
O O7 0.218910 0.301241 0.196733
O O8 0.043086 0.961144 0.101650
O O9 0.510979 0.589823 0.391699
O O10 0.913692 0.771710 0.923295
O O11 0.937235 0.328884 0.701259
O O12 0.940404 0.253288 0.455909
O O13 0.654578 0.937789 0.597388
O O14 0.751743 0.245250 0.233623
O O15 0.722243 0.407646 0.363635
O O16 0.837974 0.458181 0.105106
#
# Coordination Sequence:
#
# PCOD8008831 Si02
#       8
#     2   2   2   2   2   2   2   2
#     4   9  18  35  52  86 108 142 177 225 271 323
#     4   9  19  32  50  85 111 139 170 224 279 322
#     4  10  21  35  54  81 117 136 184 225 265 328
#     4  11  21  33  58  85 110 139 184 222 275 327
#     4   9  18  33  60  76 112 144 180 217 277 321
#     4  10  25  37  56  83 107 149 185 220 271 318
#     4  11  21  41  57  76 113 148 181 226 268 325
#     4  11  20  31  57  85 111 146 170 221 289 315
#
# _framework density 19.494092999999999
#
# number of rings (size 3 to 8) (size 9 to 14) (size 15 to 20)
#    0.000    2.000    2.500    2.625    5.250    1.000 
#    0.000    0.625    0.000    0.750    0.000    0.000 
#    0.000    0.000    0.000    0.000    0.000    0.000 
#
# Total GULP energy -198286.643121 kJ/mol
# GULP energy per Si atom -12392.915195 kJ/mol
# Density = 1.944972 g / cm^3
# Si number density = 19.494093 Si / 1000 Ang^3
#
#
#
# Elastic Constant Matrix: (Units=GPa)
#
#
# Indices 1 2 3 4 5 6 
#
# 1 76.8746 28.7884 57.4527 -8.4023 -4.6486 -12.3002
# 2 28.7884 54.5456 28.2316 2.2331 -4.9618 -3.8960
# 3 57.4527 28.2316 109.8988 -3.6626 -16.0653 -13.8052
# 4 -8.4023 2.2331 -3.6626 28.6861 -0.3816 -1.2987
# 5 -4.6486 -4.9618 -16.0653 -0.3816 33.7160 2.4651
# 6 -12.3002 -3.8960 -13.8052 -1.2987 2.4651 33.5566
#
#
#
# Elastic Compliance Matrix: (Units=1/GPa)
#
#
# Indices 1 2 3 4 5 6 
#
# 1 0.025426 -0.008024 -0.010907 0.006837 -0.003116 0.004395
# 2 -0.008024 0.023844 -0.002026 -0.004504 0.001481 -0.001289
# 3 -0.010907 -0.002026 0.016411 -0.000770 0.005858 0.002058
# 4 0.006837 -0.004504 -0.000770 0.037257 0.000108 0.003100
# 5 -0.003116 0.001481 0.005858 0.000108 0.032308 -0.000929
# 6 0.004395 -0.001289 0.002058 0.003100 -0.000929 0.032297
#
#
# Mechanical properties :
#
#
# Convention : Reuss Voigt Hill
#
# Bulk Modulus (GPa) = 42.07423 52.25159 47.16291
# Shear Modulus (GPa) = 23.00138 27.64818 25.32478
#
# Velocity S-wave (km/s) = 3.43872 3.77010 3.60821
# Velocity P-wave (km/s) = 6.11525 6.76857 6.45019
#
# Compressibility (1/GPa) = 0.02376752
#
# Stress axis : x y z
#
# Youngs Moduli (GPa) = 39.32948 41.93956 60.93584
#
# Poissons Ratio (x) = 0.33652 0.66460
# Poissons Ratio (y) = 0.31558 0.12346
# Poissons Ratio (z) = 0.42895 0.08497
#
# Static dielectric constant tensor:
#      x y z
#    x 3.716440 0.176270 -0.305360 
#    y 0.176270 3.569660 0.112470 
#    z -0.305360 0.112470 3.539060 
# 
# 
# High freq. dielectric constant tensor:
#      x y z
#    x 1.768230 0.021780 -0.022870 
#    y 0.021780 1.755660 0.014700 
#    z -0.022870 0.014700 1.741260 
# 
# From -- ./inp_files/317478.got.cif
#   From: 2010.06.25/outbox.cif.g09.slc.cpg/sg2_159_cif.got.tgz:317478.got - 2010.06.27 13:26:56.
