data_PCOD8008531
_publ_section_title
;
Structure prediction by ZEFSAII (Michael W. Deem and Ramdas Pophale) SiO2 
 PCOD8008531
Probable space group: P -1
;
_chemical_formula_sum "Si O2"
_cell_formula_units_Z 12
_cell_length_a 8.150477
_cell_length_b 9.512221
_cell_length_c 10.267108
_cell_angle_alpha 69.875926
_cell_angle_beta 46.209173
_cell_angle_gamma 71.160668
_cell_volume 535.288100
_symmetry_space_group_name_H-M "P -1"
_symmetry_group_IT_number 2
_symmetry_cell_setting 'triclinic'
loop_
_space_group_symop_operation_xyz
x,y,z
-x,-y,-z
loop_
_atom_site_type_symbol
_atom_site_label
_atom_site_fract_x
_atom_site_fract_y
_atom_site_fract_z
Si Si1 0.420220 0.221223 0.134785
Si Si2 0.306128 0.079460 0.860566
Si Si3 0.063928 0.200940 0.533917
Si Si4 0.485739 0.331443 0.332369
Si Si5 0.843906 0.071211 0.255269
Si Si6 0.457317 0.672103 0.235567
O O1 0.162228 0.199670 0.332117
O O2 0.543398 0.310009 0.151953
O O3 0.562923 0.057638 0.083797
O O4 0.407213 0.312409 0.978877
O O5 0.446576 0.223178 0.741710
O O6 0.293439 0.029794 0.733533
O O7 0.058066 0.125410 0.045154
O O8 0.227081 0.289979 0.509411
O O9 0.811062 0.285366 0.655199
O O10 0.076780 0.027869 0.630309
O O11 0.673165 0.218804 0.344937
O O12 0.505179 0.500799 0.313456
#
# Coordination Sequence:
#
# PCOD8008531 Si02
#       6
#     2   2   2   2   2   2
#     4   9  21  38  61  90 115 160 195 238 303 343
#     4  10  22  37  66  88 116 164 197 247 297 346
#     4  10  22  38  69  83 120 160 203 238 296 362
#     4   9  22  38  62  90 120 159 194 243 308 347
#     4  10  20  44  60  86 120 163 203 234 299 367
#     4  12  21  41  61  94 122 146 207 254 289 353
#
# _framework density 22.417833000000002
#
# number of rings (size 3 to 8) (size 9 to 14) (size 15 to 20)
#    1.000    1.000    1.667    2.000    0.000    1.333 
#    0.000    0.833    0.000    0.000    0.000    0.000 
#    0.000    0.000    0.000    0.000    0.000    0.000 
#
# Total GULP energy -148770.158531 kJ/mol
# GULP energy per Si atom -12397.513211 kJ/mol
# Density = 2.236681 g / cm^3
# Si number density = 22.417833 Si / 1000 Ang^3
#
#
#
# Elastic Constant Matrix: (Units=GPa)
#
#
# Indices 1 2 3 4 5 6 
#
# 1 28.7327 44.4730 27.7744 -1.7109 -13.8646 -2.7516
# 2 44.4730 170.4285 38.7258 -11.9684 -29.5868 -12.4724
# 3 27.7744 38.7258 87.7704 1.1400 -8.3401 -19.1655
# 4 -1.7109 -11.9684 1.1400 20.4302 2.4786 -4.1656
# 5 -13.8646 -29.5868 -8.3401 2.4786 23.0574 -6.7492
# 6 -2.7516 -12.4724 -19.1655 -4.1656 -6.7492 28.2473
#
#
#
# Elastic Compliance Matrix: (Units=1/GPa)
#
#
# Indices 1 2 3 4 5 6 
#
# 1 0.089399 -0.014978 -0.020575 -0.004563 0.025715 -0.006393
# 2 -0.014978 0.011843 0.002028 0.006178 0.008636 0.008121
# 3 -0.020575 0.002028 0.019887 0.000828 0.001071 0.012762
# 4 -0.004563 0.006178 0.000828 0.054124 0.003048 0.011555
# 5 0.025715 0.008636 0.001071 0.003048 0.077595 0.026034
# 6 -0.006393 0.008121 0.012762 0.011555 0.026034 0.054948
#
#
# Mechanical properties :
#
#
# Convention : Reuss Voigt Hill
#
# Bulk Modulus (GPa) = 18.49105 56.54200 37.51653
# Shear Modulus (GPa) = 12.72680 26.07753 19.40217
#
# Velocity S-wave (km/s) = 2.38525 3.41434 2.94509
# Velocity P-wave (km/s) = 3.98148 6.38908 5.32318
#
# Compressibility (1/GPa) = 0.05408022
#
# Stress axis : x y z
#
# Youngs Moduli (GPa) = 11.18576 84.44117 50.28390
#
# Poissons Ratio (x) = 1.26473 1.03458
# Poissons Ratio (y) = 0.16754 -0.10198
# Poissons Ratio (z) = 0.23015 -0.17125
#
# Static dielectric constant tensor:
#      x y z
#    x 3.709370 -0.017750 -0.155470 
#    y -0.017750 3.825080 -0.048300 
#    z -0.155470 -0.048300 3.851920 
# 
# 
# High freq. dielectric constant tensor:
#      x y z
#    x 1.859880 -0.004350 -0.010610 
#    y -0.004350 1.868050 -0.000300 
#    z -0.010610 -0.000300 1.880990 
# 
# From -- ./inp_files/172220.got.cif
#   From: 2010.06.25/outbox.cif.g09.slc.cpg/sg2_87_cif.got.tgz:172220.got - 2010.06.27 13:26:56.
