data_PCOD8008341
_publ_section_title
;
Structure prediction by ZEFSAII (Michael W. Deem and Ramdas Pophale) SiO2 
 PCOD8008341
Probable space group: P -1
;
_chemical_formula_sum "Si O2"
_cell_formula_units_Z 16
_cell_length_a 8.636779
_cell_length_b 19.047049
_cell_length_c 12.465671
_cell_angle_alpha 24.736428
_cell_angle_beta 70.490762
_cell_angle_gamma 58.660668
_cell_volume 675.693422
_symmetry_space_group_name_H-M "P -1"
_symmetry_group_IT_number 2
_symmetry_cell_setting 'triclinic'
loop_
_space_group_symop_operation_xyz
x,y,z
-x,-y,-z
loop_
_atom_site_type_symbol
_atom_site_label
_atom_site_fract_x
_atom_site_fract_y
_atom_site_fract_z
Si Si1 0.952029 0.060824 0.693853
Si Si2 0.090506 0.270440 0.794303
Si Si3 0.475298 0.612270 0.622203
Si Si4 0.818287 0.874077 0.628263
Si Si5 0.561075 0.714651 0.828139
Si Si6 0.806198 0.510097 0.850568
Si Si7 0.126471 0.168150 0.679102
Si Si8 0.492479 0.141138 0.899225
O O1 0.718537 0.207203 0.522169
O O2 0.095857 0.085955 0.552083
O O3 0.979156 0.116018 0.732936
O O4 0.013496 0.829909 0.985230
O O5 0.103262 0.200293 0.766605
O O6 0.284095 0.210354 0.901674
O O7 0.000000 0.500000 0.500000
O O8 0.676016 0.553655 0.715662
O O9 0.490971 0.681182 0.403240
O O10 0.465147 0.415584 0.895192
O O11 0.709393 0.766513 0.768859
O O12 0.655100 0.086467 0.427059
O O13 0.008582 0.723744 0.866255
O O14 0.661399 0.571624 0.900386
O O15 0.898306 0.643805 0.639472
O O16 0.348898 0.972269 0.885832
O O17 0.500000 0.000000 0.000000
#
# Coordination Sequence:
#
# PCOD8008341 Si02
#       8
#     2   2   2   2   2   2   2   2
#     4  12  23  43  73  95 133 186 226 277 342 410
#     4  11  24  43  65 101 138 169 222 289 336 398
#     4  12  23  41  71  95 133 179 228 276 343 402
#     4  11  26  45  66  99 138 174 231 287 335 403
#     4  11  25  45  66  98 136 176 229 287 336 403
#     4  12  22  44  69 100 133 184 223 278 343 405
#     4  11  22  43  71  95 131 181 229 267 341 413
#     4  10  20  43  62  93 131 172 219 275 329 406
#
# _framework density 23.679379000000001
#
# number of rings (size 3 to 8) (size 9 to 14) (size 15 to 20)
#    0.000    0.750    7.500    1.875    1.750    0.500 
#    4.500    1.875    0.000    0.000    0.000    0.000 
#    0.000    0.000    0.000    0.000    0.000    0.000 
#
# Total GULP energy -198214.237124 kJ/mol
# GULP energy per Si atom -12388.389820 kJ/mol
# Density = 2.362548 g / cm^3
# Si number density = 23.679379 Si / 1000 Ang^3
#
#
#
# Elastic Constant Matrix: (Units=GPa)
#
#
# Indices 1 2 3 4 5 6 
#
# 1 110.5126 18.3326 64.9004 -11.0618 -9.0749 -20.0309
# 2 18.3326 26.0216 11.8675 -7.5625 4.1751 -10.9845
# 3 64.9004 11.8675 166.9641 -12.3399 -15.8066 -9.4322
# 4 -11.0618 -7.5625 -12.3399 35.1161 -12.5078 2.2971
# 5 -9.0749 4.1751 -15.8066 -12.5078 59.1158 0.9074
# 6 -20.0309 -10.9845 -9.4322 2.2971 0.9074 19.8286
#
#
#
# Elastic Compliance Matrix: (Units=1/GPa)
#
#
# Indices 1 2 3 4 5 6 
#
# 1 0.014453 -0.003446 -0.004491 0.002115 0.001552 0.010239
# 2 -0.003446 0.054880 -0.000875 0.007511 -0.003446 0.025792
# 3 -0.004491 -0.000875 0.008049 0.002028 0.001977 -0.001519
# 4 0.002115 0.007511 0.002028 0.033939 0.007472 0.002989
# 5 0.001552 -0.003446 0.001977 0.007472 0.019525 -0.001160
# 6 0.010239 0.025792 -0.001519 0.002989 -0.001160 0.074048
#
#
# Mechanical properties :
#
#
# Convention : Reuss Voigt Hill
#
# Bulk Modulus (GPa) = 16.73474 54.85549 35.79511
# Shear Modulus (GPa) = 20.62387 36.70530 28.66458
#
# Velocity S-wave (km/s) = 2.95441 3.94140 3.48304
# Velocity P-wave (km/s) = 4.32673 6.62790 5.59686
#
# Compressibility (1/GPa) = 0.05975595
#
# Stress axis : x y z
#
# Youngs Moduli (GPa) = 69.18961 18.22163 124.24433
#
# Poissons Ratio (x) = 0.06279 0.55804
# Poissons Ratio (y) = 0.23843 0.10875
# Poissons Ratio (z) = 0.31076 0.01595
#
# Static dielectric constant tensor:
#      x y z
#    x 4.269480 -0.280960 0.025040 
#    y -0.280960 3.736710 -0.062630 
#    z 0.025040 -0.062630 4.695790 
# 
# 
# High freq. dielectric constant tensor:
#      x y z
#    x 1.947880 -0.028010 -0.006110 
#    y -0.028010 1.893120 -0.001180 
#    z -0.006110 -0.001180 1.962160 
# 
# From -- ./inp_files/508558.got.cif
#   From: 2010.06.25/outbox.cif.g09.slc.cpg/sg2_255_cif.got.tgz:508558.got - 2010.06.27 13:26:56.
