data_PCOD8008265
_publ_section_title
;
Structure prediction by ZEFSAII (Michael W. Deem and Ramdas Pophale) SiO2 
 PCOD8008265
Probable space group: P -1
;
_chemical_formula_sum "Si O2"
_cell_formula_units_Z 16
_cell_length_a 20.036933
_cell_length_b 9.056166
_cell_length_c 12.037760
_cell_angle_alpha 71.010856
_cell_angle_beta 138.355977
_cell_angle_gamma 140.223659
_cell_volume 752.811363
_symmetry_space_group_name_H-M "P -1"
_symmetry_group_IT_number 2
_symmetry_cell_setting 'triclinic'
loop_
_space_group_symop_operation_xyz
x,y,z
-x,-y,-z
loop_
_atom_site_type_symbol
_atom_site_label
_atom_site_fract_x
_atom_site_fract_y
_atom_site_fract_z
Si Si1 0.808584 0.189380 0.123366
Si Si2 0.997030 0.625905 0.057667
Si Si3 0.295489 0.704229 0.861536
Si Si4 0.421072 0.740317 0.670736
Si Si5 0.079917 0.269945 0.501018
Si Si6 0.461434 0.773295 0.245645
Si Si7 0.280267 0.489847 0.325978
Si Si8 0.668473 0.778807 0.569828
O O1 0.894890 0.428870 0.087917
O O2 0.791873 0.250062 0.208491
O O3 0.925351 0.182287 0.276843
O O4 0.603278 0.882664 0.899318
O O5 0.905209 0.655560 0.878145
O O6 0.200465 0.945165 0.259585
O O7 0.000000 0.500000 0.000000
O O8 0.162904 0.465814 0.661989
O O9 0.309269 0.592692 0.004656
O O10 0.500000 0.000000 0.000000
O O11 0.235590 0.427362 0.566746
O O12 0.410014 0.724850 0.527265
O O13 0.423792 0.918181 0.680086
O O14 0.000000 0.000000 0.500000
O O15 0.379719 0.634739 0.297743
O O16 0.594215 0.799011 0.375639
O O17 0.232236 0.244740 0.352095
O O18 0.500000 0.500000 0.500000
#
# Coordination Sequence:
#
# PCOD8008265 Si02
#       8
#     2   2   2   2   2   2   2   2
#     4  11  25  45  75  99 132 185 237 275 346 404
#     4  12  24  41  70  98 133 183 232 273 330 422
#     4  11  22  47  75  93 135 183 235 281 331 415
#     4  11  23  45  70 102 139 183 227 281 343 412
#     4  12  27  47  68 105 138 174 234 295 344 398
#     4  10  20  42  69  95 129 182 223 267 338 407
#     4  11  22  41  67  99 142 170 220 280 344 404
#     4  10  24  39  62 100 142 174 216 275 348 401
#
# _framework density 21.253663
#
# number of rings (size 3 to 8) (size 9 to 14) (size 15 to 20)
#    0.000    1.000    5.000    3.375    3.500    2.500 
#    9.000    0.000    0.000    0.000    0.000    0.000 
#    0.000    0.000    0.000    0.000    0.000    0.000 
#
# Total GULP energy -198328.934901 kJ/mol
# GULP energy per Si atom -12395.558431 kJ/mol
# Density = 2.120529 g / cm^3
# Si number density = 21.253663 Si / 1000 Ang^3
#
#
#
# Elastic Constant Matrix: (Units=GPa)
#
#
# Indices 1 2 3 4 5 6 
#
# 1 89.9490 32.6681 40.8834 -5.7547 8.3027 4.2651
# 2 32.6681 88.9888 50.6237 -5.5665 20.3166 -7.1645
# 3 40.8834 50.6237 146.3905 -18.4020 20.5591 -4.6585
# 4 -5.7547 -5.5665 -18.4020 37.9936 0.1399 11.0864
# 5 8.3027 20.3166 20.5591 0.1399 38.4094 -10.4224
# 6 4.2651 -7.1645 -4.6585 11.0864 -10.4224 35.5292
#
#
#
# Elastic Compliance Matrix: (Units=1/GPa)
#
#
# Indices 1 2 3 4 5 6 
#
# 1 0.013890 -0.003760 -0.002426 0.001358 -0.000629 -0.003352
# 2 -0.003760 0.016066 -0.003797 -0.000580 -0.005145 0.001865
# 3 -0.002426 -0.003797 0.009739 0.004218 -0.003080 -0.001417
# 4 0.001358 -0.000580 0.004218 0.031781 -0.005408 -0.011230
# 5 -0.000629 -0.005145 -0.003080 -0.005408 0.033299 0.010090
# 6 -0.003352 0.001865 -0.001417 -0.011230 0.010090 0.035202
#
#
# Mechanical properties :
#
#
# Convention : Reuss Voigt Hill
#
# Bulk Modulus (GPa) = 50.68662 63.74208 57.21435
# Shear Modulus (GPa) = 30.02642 35.79666 32.91154
#
# Velocity S-wave (km/s) = 3.76275 4.10842 3.93938
# Velocity P-wave (km/s) = 6.54049 7.24995 6.90434
#
# Compressibility (1/GPa) = 0.01972907
#
# Stress axis : x y z
#
# Youngs Moduli (GPa) = 71.99563 62.24322 102.67554
#
# Poissons Ratio (x) = 0.23403 0.24913
# Poissons Ratio (y) = 0.27069 0.38984
# Poissons Ratio (z) = 0.17469 0.23632
#
# Static dielectric constant tensor:
#      x y z
#    x 4.069770 -0.137170 0.174000 
#    y -0.137170 3.937850 -0.327940 
#    z 0.174000 -0.327940 4.268220 
# 
# 
# High freq. dielectric constant tensor:
#      x y z
#    x 1.834540 -0.004240 0.007330 
#    y -0.004240 1.822810 -0.010700 
#    z 0.007330 -0.010700 1.847630 
# 
# From -- ./inp_files/469957.got.cif
#   From: 2010.06.25/outbox.cif.g09.slc.cpg/sg2_235_cif.got.tgz:469957.got - 2010.06.27 13:26:56.
