data_PCOD8008395
_publ_section_title
;
Structure prediction by ZEFSAII (Michael W. Deem and Ramdas Pophale) SiO2 
 PCOD8008395
Probable space group: P -1
;
_chemical_formula_sum "Si O2"
_cell_formula_units_Z 14
_cell_length_a 12.894821
_cell_length_b 6.745667
_cell_length_c 11.126785
_cell_angle_alpha 102.501594
_cell_angle_beta 112.391158
_cell_angle_gamma 43.196706
_cell_volume 609.678163
_symmetry_space_group_name_H-M "P -1"
_symmetry_group_IT_number 2
_symmetry_cell_setting 'triclinic'
loop_
_space_group_symop_operation_xyz
x,y,z
-x,-y,-z
loop_
_atom_site_type_symbol
_atom_site_label
_atom_site_fract_x
_atom_site_fract_y
_atom_site_fract_z
Si Si1 0.729276 0.888076 0.477130
Si Si2 0.677331 0.092755 0.731222
Si Si3 0.492719 0.033645 0.790395
Si Si4 0.031177 0.748623 0.543925
Si Si5 0.973452 0.453180 0.850733
Si Si6 0.794745 0.381303 0.889146
Si Si7 0.174811 0.496211 0.832667
O O1 0.825868 0.552248 0.505440
O O2 0.861774 0.855908 0.467788
O O3 0.639322 0.120202 0.576634
O O4 0.585479 0.031265 0.340474
O O5 0.718536 0.264875 0.812986
O O6 0.530998 0.194434 0.758176
O O7 0.831476 0.753944 0.763660
O O8 0.654772 0.732922 0.877464
O O9 0.366244 0.255150 0.867222
O O10 0.080655 0.699335 0.700315
O O11 0.000000 0.000000 0.500000
O O12 0.924311 0.279118 0.827823
O O13 0.126594 0.320862 0.819250
O O14 0.000000 0.500000 0.000000
O O15 0.871834 0.295548 0.047039
#
# Coordination Sequence:
#
# PCOD8008395 Si02
#       7
#     2   2   2   2   2   2   2
#     4  10  22  42  61  90 130 163 211 263 300 380
#     4  11  22  41  59  96 130 163 213 251 314 381
#     4  10  23  40  64  89 129 170 208 257 316 365
#     4  10  22  41  65  95 122 164 212 260 321 364
#     4   9  20  40  62  90 124 167 204 259 312 365
#     4  10  23  40  65  95 127 168 207 256 320 378
#     4  10  20  43  66  93 129 160 213 268 306 375
#
# _framework density 22.962935000000002
#
# number of rings (size 3 to 8) (size 9 to 14) (size 15 to 20)
#    0.000    2.000    1.429    0.857    0.000    8.000 
#    2.571    4.286    0.000    0.000    0.000    0.000 
#    0.000    0.000    0.000    0.000    0.000    0.000 
#
# Total GULP energy -173444.057742 kJ/mol
# GULP energy per Si atom -12388.861267 kJ/mol
# Density = 2.291067 g / cm^3
# Si number density = 22.962935 Si / 1000 Ang^3
#
#
#
# Elastic Constant Matrix: (Units=GPa)
#
#
# Indices 1 2 3 4 5 6 
#
# 1 161.5062 34.3030 42.3753 11.3511 -8.5756 10.4730
# 2 34.3030 36.5162 23.9360 6.9157 -7.3533 20.7941
# 3 42.3753 23.9360 100.2391 11.2320 -8.6782 22.8274
# 4 11.3511 6.9157 11.2320 34.7050 -3.3681 1.3384
# 5 -8.5756 -7.3533 -8.6782 -3.3681 36.2139 4.1701
# 6 10.4730 20.7941 22.8274 1.3384 4.1701 32.8429
#
#
#
# Elastic Compliance Matrix: (Units=1/GPa)
#
#
# Indices 1 2 3 4 5 6 
#
# 1 0.008498 -0.009415 -0.002589 -0.000379 -0.001155 0.005213
# 2 -0.009415 0.061727 -0.000338 -0.006318 0.013937 -0.037357
# 3 -0.002589 -0.000338 0.013781 -0.002877 0.003372 -0.008850
# 4 -0.000379 -0.006318 -0.002877 0.030968 0.000262 0.004826
# 5 -0.001155 0.013937 0.003372 0.000262 0.032726 -0.014966
# 6 0.005213 -0.037357 -0.008850 0.004826 -0.014966 0.060292
#
#
# Mechanical properties :
#
#
# Convention : Reuss Voigt Hill
#
# Bulk Modulus (GPa) = 16.85708 55.49890 36.17799
# Shear Modulus (GPa) = 19.80590 33.92884 26.86737
#
# Velocity S-wave (km/s) = 2.94005 3.84806 3.42428
# Velocity P-wave (km/s) = 4.34536 6.63059 5.60566
#
# Compressibility (1/GPa) = 0.05932224
#
# Stress axis : x y z
#
# Youngs Moduli (GPa) = 117.67523 16.20036 72.56364
#
# Poissons Ratio (x) = 0.15253 0.18786
# Poissons Ratio (y) = 1.10795 0.02450
# Poissons Ratio (z) = 0.30465 0.00547
#
# Static dielectric constant tensor:
#      x y z
#    x 4.812700 -0.002830 -0.116440 
#    y -0.002830 3.770180 -0.099770 
#    z -0.116440 -0.099770 4.215630 
# 
# 
# High freq. dielectric constant tensor:
#      x y z
#    x 1.927260 -0.002620 0.003290 
#    y -0.002620 1.865520 -0.007030 
#    z 0.003290 -0.007030 1.919930 
# 
# From -- ./inp_files/72549.got.cif
#   From: 2010.06.25/outbox.cif.g09.slc.cpg/sg2_37_cif.got.tgz:72549.got - 2010.06.27 13:26:56.
