data_PCOD8008774
_publ_section_title
;
Structure prediction by ZEFSAII (Michael W. Deem and Ramdas Pophale) SiO2 
 PCOD8008774
Probable space group: P -1
;
_chemical_formula_sum "Si O2"
_cell_formula_units_Z 14
_cell_length_a 20.078561
_cell_length_b 13.601795
_cell_length_c 13.277703
_cell_angle_alpha 52.404487
_cell_angle_beta 27.013656
_cell_angle_gamma 32.483584
_cell_volume 720.701989
_symmetry_space_group_name_H-M "P -1"
_symmetry_group_IT_number 2
_symmetry_cell_setting 'triclinic'
loop_
_space_group_symop_operation_xyz
x,y,z
-x,-y,-z
loop_
_atom_site_type_symbol
_atom_site_label
_atom_site_fract_x
_atom_site_fract_y
_atom_site_fract_z
Si Si1 0.937464 0.042085 0.395088
Si Si2 0.448919 0.367591 0.699292
Si Si3 0.996474 0.804893 0.629289
Si Si4 0.564546 0.324017 0.182159
Si Si5 0.786869 0.695234 0.030083
Si Si6 0.619841 0.797535 0.411224
Si Si7 0.261878 0.732466 0.810297
O O1 0.708434 0.202452 0.520946
O O2 0.970566 0.153108 0.332573
O O3 0.870551 0.986477 0.604284
O O4 0.214936 0.814078 0.112639
O O5 0.219488 0.624123 0.887962
O O6 0.516814 0.354606 0.500775
O O7 0.346090 0.298532 0.880353
O O8 0.287252 0.554730 0.359097
O O9 0.800231 0.826196 0.889411
O O10 0.561183 0.188660 0.317712
O O11 0.627478 0.369509 0.162948
O O12 0.075808 0.436098 0.822913
O O13 0.604424 0.823834 0.295131
O O14 0.500000 0.000000 0.500000
O O15 0.000000 0.000000 0.000000
#
# Coordination Sequence:
#
# PCOD8008774 Si02
#       7
#     2   2   2   2   2   2   2
#     4  11  22  39  63  82 112 157 196 239 278 336
#     4  11  23  36  59  89 118 149 189 237 293 343
#     4  10  23  41  58  83 115 155 199 233 280 341
#     4  11  20  37  60  86 110 149 195 239 280 340
#     4  10  22  37  55  86 119 148 188 235 287 345
#     4  10  21  34  58  83 117 152 183 232 291 344
#     4  11  22  35  57  87 120 147 184 236 296 344
#
# _framework density 19.425505999999999
#
# number of rings (size 3 to 8) (size 9 to 14) (size 15 to 20)
#    0.000    1.429    4.286    1.286    2.000    0.571 
#    0.000    0.000    0.000    0.857    0.000    0.000 
#    0.000    0.000    0.000    0.000    0.000    0.000 
#
# Total GULP energy -173605.115653 kJ/mol
# GULP energy per Si atom -12400.365404 kJ/mol
# Density = 1.938129 g / cm^3
# Si number density = 19.425506 Si / 1000 Ang^3
#
#
#
# Elastic Constant Matrix: (Units=GPa)
#
#
# Indices 1 2 3 4 5 6 
#
# 1 81.8323 29.4703 38.0189 -8.9147 -2.1081 25.7179
# 2 29.4703 89.5946 29.6368 -7.1691 1.1783 28.5414
# 3 38.0189 29.6368 61.9844 -6.8715 5.7748 20.1567
# 4 -8.9147 -7.1691 -6.8715 33.9482 9.0348 -3.1282
# 5 -2.1081 1.1783 5.7748 9.0348 26.6706 -2.0059
# 6 25.7179 28.5414 20.1567 -3.1282 -2.0059 39.5078
#
#
#
# Elastic Compliance Matrix: (Units=1/GPa)
#
#
# Indices 1 2 3 4 5 6 
#
# 1 0.019229 -0.001016 -0.009110 0.001707 0.002442 -0.006875
# 2 -0.001016 0.015649 -0.003727 0.001813 -0.001230 -0.008661
# 3 -0.009110 -0.003727 0.026239 0.003781 -0.007884 -0.004865
# 4 0.001707 0.001813 0.003781 0.034173 -0.012512 -0.002280
# 5 0.002442 -0.001230 -0.007884 -0.012512 0.044031 0.004566
# 6 -0.006875 -0.008661 -0.004865 -0.002280 0.004566 0.038577
#
#
# Mechanical properties :
#
#
# Convention : Reuss Voigt Hill
#
# Bulk Modulus (GPa) = 29.93240 47.51812 38.72526
# Shear Modulus (GPa) = 23.06911 29.11103 26.09007
#
# Velocity S-wave (km/s) = 3.44985 3.87537 3.66879
# Velocity P-wave (km/s) = 5.59561 6.67379 6.15834
#
# Compressibility (1/GPa) = 0.03340861
#
# Stress axis : x y z
#
# Youngs Moduli (GPa) = 52.00608 63.90289 38.11169
#
# Poissons Ratio (x) = 0.06496 0.34722
# Poissons Ratio (y) = 0.05286 0.14203
# Poissons Ratio (z) = 0.47380 0.23815
#
# Static dielectric constant tensor:
#      x y z
#    x 3.560570 0.228810 0.061060 
#    y 0.228810 3.538260 0.019430 
#    z 0.061060 0.019430 3.454960 
# 
# 
# High freq. dielectric constant tensor:
#      x y z
#    x 1.754680 0.017320 0.007610 
#    y 0.017320 1.756880 0.006430 
#    z 0.007610 0.006430 1.747640 
# 
# From -- ./inp_files/63169.got.cif
#   From: 2010.06.25/outbox.cif.g09.slc.cpg/sg2_32_cif.got.tgz:63169.got - 2010.06.27 13:26:56.
