data_PCOD8008100
_publ_section_title
;
Structure prediction by ZEFSAII (Michael W. Deem and Ramdas Pophale) SiO2 
 PCOD8008100
Probable space group: P -1
;
_chemical_formula_sum "Si O2"
_cell_formula_units_Z 14
_cell_length_a 14.661858
_cell_length_b 8.685185
_cell_length_c 22.393094
_cell_angle_alpha 139.031553
_cell_angle_beta 153.395137
_cell_angle_gamma 33.081656
_cell_volume 696.841762
_symmetry_space_group_name_H-M "P -1"
_symmetry_group_IT_number 2
_symmetry_cell_setting 'triclinic'
loop_
_space_group_symop_operation_xyz
x,y,z
-x,-y,-z
loop_
_atom_site_type_symbol
_atom_site_label
_atom_site_fract_x
_atom_site_fract_y
_atom_site_fract_z
Si Si1 0.334391 0.936496 0.322219
Si Si2 0.889741 0.519925 0.216158
Si Si3 0.929133 0.033541 0.036543
Si Si4 0.241818 0.197104 0.556390
Si Si5 0.541176 0.479259 0.621222
Si Si6 0.841036 0.286840 0.634167
Si Si7 0.468385 0.036550 0.768274
O O1 0.580616 0.868094 0.414367
O O2 0.410365 0.768841 0.379596
O O3 0.151114 0.273125 0.326126
O O4 0.183059 0.842163 0.166289
O O5 0.791945 0.363518 0.073365
O O6 0.706104 0.709723 0.215775
O O7 0.917566 0.727536 0.249349
O O8 0.747712 0.933730 0.913999
O O9 0.000000 0.000000 0.000000
O O10 0.396048 0.153397 0.693129
O O11 0.000000 0.500000 0.500000
O O12 0.130049 0.009033 0.437064
O O13 0.780592 0.406524 0.701875
O O14 0.363161 0.500497 0.471045
O O15 0.442675 0.771016 0.684778
#
# Coordination Sequence:
#
# PCOD8008100 Si02
#       7
#     2   2   2   2   2   2   2
#     4  10  23  39  63  95 116 167 202 253 304 363
#     4  10  23  38  64  92 118 168 202 251 307 357
#     4  10  20  42  66  86 124 164 211 244 307 365
#     4  11  25  38  63  94 126 160 204 258 308 364
#     4  10  22  38  64  89 126 161 207 247 312 361
#     4  10  22  40  59  88 129 166 197 250 311 373
#     4  11  22  41  63  91 126 163 205 255 304 363
#
# _framework density 20.090644999999999
#
# number of rings (size 3 to 8) (size 9 to 14) (size 15 to 20)
#    0.857    0.857    1.429    3.857    6.000    2.857 
#    0.000    0.000    0.000    2.571    0.000    0.000 
#    0.000    0.000    0.000    0.000    0.000    0.000 
#
# Total GULP energy -173480.605320 kJ/mol
# GULP energy per Si atom -12391.471809 kJ/mol
# Density = 2.004492 g / cm^3
# Si number density = 20.090645 Si / 1000 Ang^3
#
#
#
# Elastic Constant Matrix: (Units=GPa)
#
#
# Indices 1 2 3 4 5 6 
#
# 1 122.4574 44.6425 16.4648 8.6118 1.0924 -0.0716
# 2 44.6425 96.6750 11.3804 4.9955 0.1326 -2.9949
# 3 16.4648 11.3804 46.7562 8.6897 3.9042 4.2730
# 4 8.6118 4.9955 8.6897 29.3992 -4.5497 -3.2797
# 5 1.0924 0.1326 3.9042 -4.5497 33.2637 4.5679
# 6 -0.0716 -2.9949 4.2730 -3.2797 4.5679 39.5538
#
#
#
# Elastic Compliance Matrix: (Units=1/GPa)
#
#
# Indices 1 2 3 4 5 6 
#
# 1 0.010166 -0.004358 -0.002172 -0.001656 -0.000263 -0.000184
# 2 -0.004358 0.012590 -0.001589 -0.000257 0.000095 0.001085
# 3 -0.002172 -0.001589 0.024423 -0.007164 -0.003361 -0.002968
# 4 -0.001656 -0.000257 -0.007164 0.037894 0.005634 0.003243
# 5 -0.000263 0.000095 -0.003361 0.005634 0.031623 -0.002815
# 6 -0.000184 0.001085 -0.002968 0.003243 -0.002815 0.026278
#
#
# Mechanical properties :
#
#
# Convention : Reuss Voigt Hill
#
# Bulk Modulus (GPa) = 32.32146 45.65157 38.98652
# Shear Modulus (GPa) = 29.49382 33.33672 31.41527
#
# Velocity S-wave (km/s) = 3.83565 4.07789 3.95862
# Velocity P-wave (km/s) = 5.97822 6.70406 6.35151
#
# Compressibility (1/GPa) = 0.03093919
#
# Stress axis : x y z
#
# Youngs Moduli (GPa) = 98.36929 79.42587 40.94571
#
# Poissons Ratio (x) = 0.34617 0.08895
# Poissons Ratio (y) = 0.42873 0.06506
# Poissons Ratio (z) = 0.21370 0.12621
#
# Static dielectric constant tensor:
#      x y z
#    x 3.723740 -0.028590 0.188930 
#    y -0.028590 3.484580 0.201440 
#    z 0.188930 0.201440 4.267590 
# 
# 
# High freq. dielectric constant tensor:
#      x y z
#    x 1.792480 -0.005240 0.004660 
#    y -0.005240 1.771080 0.021190 
#    z 0.004660 0.021190 1.773850 
# 
# From -- ./inp_files/611560.got.cif
#   From: 2010.06.25/outbox.cif.g09.slc.cpg/sg2_306_cif.got.tgz:611560.got - 2010.06.27 13:26:56.
