data_PCOD8008870
_publ_section_title
;
Structure prediction by ZEFSAII (Michael W. Deem and Ramdas Pophale) SiO2 
 PCOD8008870
Probable space group: P -1
;
_chemical_formula_sum "Si O2"
_cell_formula_units_Z 12
_cell_length_a 12.867332
_cell_length_b 12.346611
_cell_length_c 23.259104
_cell_angle_alpha 151.964756
_cell_angle_beta 152.959951
_cell_angle_gamma 22.758009
_cell_volume 609.061588
_symmetry_space_group_name_H-M "P -1"
_symmetry_group_IT_number 2
_symmetry_cell_setting 'triclinic'
loop_
_space_group_symop_operation_xyz
x,y,z
-x,-y,-z
loop_
_atom_site_type_symbol
_atom_site_label
_atom_site_fract_x
_atom_site_fract_y
_atom_site_fract_z
Si Si1 0.833450 0.261034 0.671539
Si Si2 0.505105 0.090728 0.212013
Si Si3 0.245782 0.786296 0.973170
Si Si4 0.743194 0.033137 0.418116
Si Si5 0.939950 0.484919 0.329173
Si Si6 0.569508 0.015030 0.476485
O O1 0.693818 0.598144 0.775035
O O2 0.792696 0.096868 0.625262
O O3 0.635442 0.264403 0.525396
O O4 0.170790 0.093074 0.741779
O O5 0.488399 0.151787 0.301239
O O6 0.369256 0.924850 0.062846
O O7 0.125240 0.715112 0.827207
O O8 0.500000 0.500000 0.000000
O O9 0.000000 0.000000 0.000000
O O10 0.888530 0.704517 0.357327
O O11 0.000000 0.000000 0.500000
O O12 0.273245 0.267578 0.414246
O O13 0.722535 0.691813 0.371824
O O14 0.500000 0.000000 0.500000
#
# Coordination Sequence:
#
# PCOD8008870 Si02
#       6
#     2   2   2   2   2   2
#     4  10  21  35  56  85 113 153 196 244 298 340
#     4  11  21  35  55  83 124 160 186 230 286 360
#     4  12  24  38  58  85 129 170 194 223 279 367
#     4   9  18  31  53  81 119 148 182 229 286 350
#     4  11  23  38  59  91 119 154 202 239 294 357
#     4  11  23  42  66  86 113 150 203 266 306 334
#
# _framework density 19.702441
#
# number of rings (size 3 to 8) (size 9 to 14) (size 15 to 20)
#    0.000    1.333    1.667    6.000    4.667    0.000 
#    0.000    0.000    0.000    6.000    0.000    0.000 
#    0.000    0.000    0.000    0.000    0.000    0.000 
#
# Total GULP energy -148668.571499 kJ/mol
# GULP energy per Si atom -12389.047625 kJ/mol
# Density = 1.965760 g / cm^3
# Si number density = 19.702441 Si / 1000 Ang^3
#
#
#
# Elastic Constant Matrix: (Units=GPa)
#
#
# Indices 1 2 3 4 5 6 
#
# 1 127.6120 31.5422 65.7907 5.3179 24.6100 -18.1714
# 2 31.5422 114.1705 42.7614 10.3081 8.3902 -24.6361
# 3 65.7907 42.7614 118.5766 20.4065 25.5215 -4.9653
# 4 5.3179 10.3081 20.4065 28.6493 0.5232 2.1793
# 5 24.6100 8.3902 25.5215 0.5232 27.5025 4.6018
# 6 -18.1714 -24.6361 -4.9653 2.1793 4.6018 27.2472
#
#
#
# Elastic Compliance Matrix: (Units=1/GPa)
#
#
# Indices 1 2 3 4 5 6 
#
# 1 0.013787 0.001338 -0.005759 0.000402 -0.009229 0.010882
# 2 0.001338 0.013120 -0.003445 -0.003436 -0.004129 0.013099
# 3 -0.005759 -0.003445 0.016086 -0.008852 -0.008232 -0.001926
# 4 0.000402 -0.003436 -0.008852 0.042919 0.009679 -0.009519
# 5 -0.009229 -0.004129 -0.008232 0.009679 0.056979 -0.021786
# 6 0.010882 0.013099 -0.001926 -0.009519 -0.021786 0.059892
#
#
# Mechanical properties :
#
#
# Convention : Reuss Voigt Hill
#
# Bulk Modulus (GPa) = 36.68369 71.17197 53.92783
# Shear Modulus (GPa) = 21.96816 31.36415 26.66615
#
# Velocity S-wave (km/s) = 3.34278 3.99418 3.68291
# Velocity P-wave (km/s) = 5.79294 7.58110 6.74653
#
# Compressibility (1/GPa) = 0.02726007
#
# Stress axis : x y z
#
# Youngs Moduli (GPa) = 72.52967 76.22085 62.16677
#
# Poissons Ratio (x) = -0.10199 0.35805
# Poissons Ratio (y) = -0.09705 0.21417
# Poissons Ratio (z) = 0.41773 0.26259
#
# Static dielectric constant tensor:
#      x y z
#    x 2.825130 -0.052270 0.558920 
#    y -0.052270 3.530970 0.167420 
#    z 0.558920 0.167420 3.574320 
# 
# 
# High freq. dielectric constant tensor:
#      x y z
#    x 1.754480 -0.011810 0.028670 
#    y -0.011810 1.776280 0.012010 
#    z 0.028670 0.012010 1.758450 
# 
# From -- ./inp_files/64254.got.cif
#   From: 2010.06.25/outbox.cif.g09.slc.cpg/sg2_33_cif.got.tgz:64254.got - 2010.06.27 13:26:56.
