data_PCOD8008454
_publ_section_title
;
Structure prediction by ZEFSAII (Michael W. Deem and Ramdas Pophale) SiO2 
 PCOD8008454
Probable space group: P -1
;
_chemical_formula_sum "Si O2"
_cell_formula_units_Z 14
_cell_length_a 25.951367
_cell_length_b 14.624652
_cell_length_c 17.847653
_cell_angle_alpha 22.615944
_cell_angle_beta 15.747396
_cell_angle_gamma 21.802063
_cell_volume 652.919433
_symmetry_space_group_name_H-M "P -1"
_symmetry_group_IT_number 2
_symmetry_cell_setting 'triclinic'
loop_
_space_group_symop_operation_xyz
x,y,z
-x,-y,-z
loop_
_atom_site_type_symbol
_atom_site_label
_atom_site_fract_x
_atom_site_fract_y
_atom_site_fract_z
Si Si1 0.484350 0.942544 0.342338
Si Si2 0.408684 0.599247 0.132163
Si Si3 0.313487 0.518249 0.695527
Si Si4 0.351765 0.897929 0.240297
Si Si5 0.610565 0.438250 0.124686
Si Si6 0.034513 0.252316 0.738273
Si Si7 0.989847 0.568484 0.712760
O O1 0.614223 0.758606 0.234880
O O2 0.438205 0.785829 0.594424
O O3 0.266566 0.153541 0.455343
O O4 0.623266 0.100674 0.051088
O O5 0.558319 0.433945 0.113786
O O6 0.197969 0.557318 0.467679
O O7 0.500000 0.500000 0.000000
O O8 0.500000 0.500000 0.500000
O O9 0.261151 0.742314 0.539238
O O10 0.107500 0.585906 0.980923
O O11 0.472300 0.717487 0.139861
O O12 0.159963 0.135098 0.299678
O O13 0.500000 0.000000 0.000000
O O14 0.851917 0.397554 0.824907
O O15 0.018664 0.442819 0.685599
O O16 0.000000 0.000000 0.000000
#
# Coordination Sequence:
#
# PCOD8008454 Si02
#       7
#     2   2   2   2   2   2   2
#     4  10  23  44  67  98 138 172 227 276 336 398
#     4  12  27  46  63  98 140 185 224 273 332 409
#     4  11  22  40  71 102 134 170 215 287 340 388
#     4  11  21  40  68 104 130 166 224 279 335 397
#     4  10  23  43  71  94 138 176 224 282 335 393
#     4  10  20  43  68  98 131 174 226 281 331 391
#     4  12  24  44  67  99 138 174 225 275 334 402
#
# _framework density 21.442156000000001
#
# number of rings (size 3 to 8) (size 9 to 14) (size 15 to 20)
#    0.000    1.143    4.286    2.571    0.000    4.571 
#    7.714    2.857    0.000    0.000    0.000    0.000 
#    0.000    0.000    0.000    0.000    0.000    0.000 
#
# Total GULP energy -173584.495404 kJ/mol
# GULP energy per Si atom -12398.892529 kJ/mol
# Density = 2.139335 g / cm^3
# Si number density = 21.442156 Si / 1000 Ang^3
#
#
#
# Elastic Constant Matrix: (Units=GPa)
#
#
# Indices 1 2 3 4 5 6 
#
# 1 126.2684 30.6986 35.1710 4.7123 -19.8741 -0.5756
# 2 30.6986 84.8787 20.4384 -6.6735 -11.5963 -5.2592
# 3 35.1710 20.4384 119.3585 7.6437 -24.1549 4.8082
# 4 4.7123 -6.6735 7.6437 33.3645 3.9060 -8.0634
# 5 -19.8741 -11.5963 -24.1549 3.9060 31.7000 -0.2983
# 6 -0.5756 -5.2592 4.8082 -8.0634 -0.2983 29.6592
#
#
#
# Elastic Compliance Matrix: (Units=1/GPa)
#
#
# Indices 1 2 3 4 5 6 
#
# 1 0.009746 -0.002835 -0.001334 -0.002310 0.004335 -0.000682
# 2 -0.002835 0.014009 -0.001682 0.004347 0.001567 0.003899
# 3 -0.001334 -0.001682 0.010961 -0.004297 0.007400 -0.003195
# 4 -0.002310 0.004347 -0.004297 0.035693 -0.007427 0.011052
# 5 0.004335 0.001567 0.007400 -0.007427 0.041367 -0.002441
# 6 -0.000682 0.003899 -0.003195 0.011052 -0.002441 0.037893
#
#
# Mechanical properties :
#
#
# Convention : Reuss Voigt Hill
#
# Bulk Modulus (GPa) = 43.45116 55.90239 49.67677
# Shear Modulus (GPa) = 29.57858 35.22460 32.40159
#
# Velocity S-wave (km/s) = 3.71814 4.05751 3.89152
# Velocity P-wave (km/s) = 6.22423 6.93391 6.58863
#
# Compressibility (1/GPa) = 0.02301435
#
# Stress axis : x y z
#
# Youngs Moduli (GPa) = 102.60781 71.38059 91.23671
#
# Poissons Ratio (x) = 0.20239 0.12167
# Poissons Ratio (y) = 0.29093 0.15344
# Poissons Ratio (z) = 0.13683 0.12005
#
# Static dielectric constant tensor:
#      x y z
#    x 3.794690 -0.151250 -0.281270 
#    y -0.151250 3.937760 0.197810 
#    z -0.281270 0.197810 4.899360 
# 
# 
# High freq. dielectric constant tensor:
#      x y z
#    x 1.832800 0.006430 0.003400 
#    y 0.006430 1.850900 -0.009340 
#    z 0.003400 -0.009340 1.853580 
# 
# From -- ./inp_files/258438.got.cif
#   From: 2010.06.25/outbox.cif.g09.slc.cpg/sg2_130_cif.got.tgz:258438.got - 2010.06.27 13:26:56.
