data_PCOD8008169
_publ_section_title
;
Structure prediction by ZEFSAII (Michael W. Deem and Ramdas Pophale) SiO2 
 PCOD8008169
Probable space group: P -1
;
_chemical_formula_sum "Si O2"
_cell_formula_units_Z 16
_cell_length_a 22.039113
_cell_length_b 15.856975
_cell_length_c 9.838927
_cell_angle_alpha 57.725781
_cell_angle_beta 49.422079
_cell_angle_gamma 17.892041
_cell_volume 747.145996
_symmetry_space_group_name_H-M "P -1"
_symmetry_group_IT_number 2
_symmetry_cell_setting 'triclinic'
loop_
_space_group_symop_operation_xyz
x,y,z
-x,-y,-z
loop_
_atom_site_type_symbol
_atom_site_label
_atom_site_fract_x
_atom_site_fract_y
_atom_site_fract_z
Si Si1 0.221659 0.151185 0.380468
Si Si2 0.370893 0.624967 0.220623
Si Si3 0.070214 0.699489 0.241985
Si Si4 0.623773 0.714332 0.620726
Si Si5 0.706661 0.505166 0.160379
Si Si6 0.770338 0.763463 0.422089
Si Si7 0.864390 0.302085 0.415194
Si Si8 0.316592 0.689214 0.718138
O O1 0.308954 0.104849 0.427653
O O2 0.075020 0.226415 0.569303
O O3 0.056745 0.418752 0.298309
O O4 0.444248 0.855998 0.223155
O O5 0.273713 0.626119 0.370399
O O6 0.581113 0.394452 0.217204
O O7 0.500000 0.500000 0.000000
O O8 0.147423 0.957850 0.294911
O O9 0.309776 0.426859 0.219558
O O10 0.127978 0.618842 0.066734
O O11 0.925287 0.969414 0.253736
O O12 0.657573 0.788779 0.544765
O O13 0.801086 0.474598 0.445558
O O14 0.350106 0.022894 0.701420
O O15 0.779557 0.413063 0.288911
O O16 0.734253 0.367725 0.161973
O O17 0.500000 0.500000 0.500000
#
# Coordination Sequence:
#
# PCOD8008169 Si02
#       8
#     2   2   2   2   2   2   2   2
#     4  10  20  42  67  90 120 163 208 252 314 367
#     4  11  25  40  61  93 127 166 207 249 296 364
#     4  11  24  39  64  93 125 163 206 249 303 372
#     4  10  21  40  65  93 120 160 208 257 315 359
#     4  12  24  40  63  93 127 167 202 249 306 371
#     4   9  20  40  69  86 119 164 203 264 316 358
#     4  11  23  40  63  88 130 165 199 252 310 361
#     4  12  22  41  62  91 130 167 204 243 298 372
#
# _framework density 21.414822999999998
#
# number of rings (size 3 to 8) (size 9 to 14) (size 15 to 20)
#    0.000    1.250    3.750    1.875    5.250    0.000 
#    0.000    6.250    0.000    0.000    0.000    0.000 
#    0.000    0.000    0.000    0.000    0.000    0.000 
#
# Total GULP energy -198291.833305 kJ/mol
# GULP energy per Si atom -12393.239582 kJ/mol
# Density = 2.136608 g / cm^3
# Si number density = 21.414823 Si / 1000 Ang^3
#
#
#
# Elastic Constant Matrix: (Units=GPa)
#
#
# Indices 1 2 3 4 5 6 
#
# 1 81.8681 37.9315 3.9040 5.6998 24.7334 0.8350
# 2 37.9315 178.2396 38.2967 4.3789 15.8804 -8.7629
# 3 3.9040 38.2967 103.5028 11.4403 26.6398 -2.3302
# 4 5.6998 4.3789 11.4403 8.8370 -15.6213 13.1080
# 5 24.7334 15.8804 26.6398 -15.6213 12.9303 0.8336
# 6 0.8350 -8.7629 -2.3302 13.1080 0.8336 34.9962
#
#
#
# Elastic Compliance Matrix: (Units=1/GPa)
#
#
# Indices 1 2 3 4 5 6 
#
# 1 0.011480 -0.003049 -0.002180 0.014576 0.004323 -0.006745
# 2 -0.003049 0.006873 -0.002263 -0.001444 0.000169 0.002180
# 3 -0.002180 -0.002263 0.007354 0.012222 0.006871 -0.004766
# 4 0.014576 -0.001444 0.012222 0.002321 -0.048510 0.000390
# 5 0.004323 0.000169 0.006871 -0.048510 -0.005104 0.018688
# 6 -0.006745 0.002180 -0.004766 0.000390 0.018688 0.028373
#
#
# Mechanical properties :
#
#
# Convention : Reuss Voigt Hill
#
# Bulk Modulus (GPa) = 93.26628 58.20828 75.73728
# Shear Modulus (GPa) = 71.57572 30.25125 50.91349
#
# Velocity S-wave (km/s) = 5.78757 3.76258 4.88124
# Velocity P-wave (km/s) = 9.39724 6.79090 8.19830
#
# Compressibility (1/GPa) = 0.01072199
#
# Stress axis : x y z
#
# Youngs Moduli (GPa) = 87.11087 145.49329 135.97192
#
# Poissons Ratio (x) = 0.44367 0.29646
# Poissons Ratio (y) = 0.26564 0.30770
# Poissons Ratio (z) = 0.18993 0.32924
#
# Static dielectric constant tensor:
#      x y z
#    x 3.994590 0.077220 0.109750 
#    y 0.077220 5.164770 -0.296730 
#    z 0.109750 -0.296730 3.742670 
# 
# 
# High freq. dielectric constant tensor:
#      x y z
#    x 1.842590 -0.002530 0.021620 
#    y -0.002530 1.872050 0.002810 
#    z 0.021620 0.002810 1.808700 
# 
# From -- ./inp_files/201789.got.cif
#   From: 2010.06.25/outbox.cif.g09.slc.cpg/sg2_101_cif.got.tgz:201789.got - 2010.06.27 13:26:56.
