data_PCOD8008636
_publ_section_title
;
Structure prediction by ZEFSAII (Michael W. Deem and Ramdas Pophale) SiO2 
 PCOD8008636
Probable space group: P -1
;
_chemical_formula_sum "Si O2"
_cell_formula_units_Z 14
_cell_length_a 14.472094
_cell_length_b 14.617717
_cell_length_c 7.681513
_cell_angle_alpha 78.227342
_cell_angle_beta 127.328430
_cell_angle_gamma 143.037344
_cell_volume 629.235114
_symmetry_space_group_name_H-M "P -1"
_symmetry_group_IT_number 2
_symmetry_cell_setting 'triclinic'
loop_
_space_group_symop_operation_xyz
x,y,z
-x,-y,-z
loop_
_atom_site_type_symbol
_atom_site_label
_atom_site_fract_x
_atom_site_fract_y
_atom_site_fract_z
Si Si1 0.162536 0.839246 0.071990
Si Si2 0.605454 0.819600 0.886027
Si Si3 0.933052 0.892533 0.129024
Si Si4 0.834887 0.616018 0.089124
Si Si5 0.581839 0.809877 0.256008
Si Si6 0.370027 0.851660 0.057734
Si Si7 0.900031 0.590426 0.558729
O O1 0.362404 0.904928 0.211226
O O2 0.042303 0.722712 0.159818
O O3 0.968939 0.711601 0.743948
O O4 0.267159 0.015625 0.154002
O O5 0.740942 0.815585 0.049181
O O6 0.589658 0.848830 0.050732
O O7 0.347415 0.626075 0.589539
O O8 0.812644 0.711876 0.003457
O O9 0.162231 0.037660 0.449216
O O10 0.000000 0.000000 0.000000
O O11 0.591333 0.398851 0.838211
O O12 0.896981 0.639338 0.350571
O O13 0.487145 0.834259 0.242127
O O14 0.100721 0.649646 0.762548
O O15 0.500000 0.000000 0.000000
#
# Coordination Sequence:
#
# PCOD8008636 Si02
#       7
#     2   2   2   2   2   2   2
#     4  10  22  42  69  98 137 176 212 280 335 384
#     4  11  22  44  68  97 130 184 220 269 344 384
#     4  12  26  42  66  99 136 171 233 277 319 408
#     4  11  24  43  67 104 131 178 225 270 340 388
#     4  11  25  44  70  98 134 178 221 277 336 391
#     4  10  20  45  71  96 140 171 218 278 329 407
#     4   9  24  42  69  99 137 167 228 266 329 411
#
# _framework density 22.249234000000001
#
# number of rings (size 3 to 8) (size 9 to 14) (size 15 to 20)
#    0.857    0.571    2.857    2.143    2.000    6.857 
#    2.571    4.286    0.000    0.000    0.000    0.000 
#    0.000    0.000    0.000    0.000    0.000    0.000 
#
# Total GULP energy -173567.267586 kJ/mol
# GULP energy per Si atom -12397.661970 kJ/mol
# Density = 2.219859 g / cm^3
# Si number density = 22.249234 Si / 1000 Ang^3
#
#
#
# Elastic Constant Matrix: (Units=GPa)
#
#
# Indices 1 2 3 4 5 6 
#
# 1 97.7679 19.3901 15.4787 10.2741 8.6422 -6.5038
# 2 19.3901 106.3700 31.0518 23.7492 -10.7608 0.3515
# 3 15.4787 31.0518 80.9154 27.5482 21.4316 -3.2759
# 4 10.2741 23.7492 27.5482 32.2371 7.1220 -0.3381
# 5 8.6422 -10.7608 21.4316 7.1220 34.5629 -2.4490
# 6 -6.5038 0.3515 -3.2759 -0.3381 -2.4490 36.3353
#
#
#
# Elastic Compliance Matrix: (Units=1/GPa)
#
#
# Indices 1 2 3 4 5 6 
#
# 1 0.011163 -0.002035 -0.000025 -0.001355 -0.003002 0.001801
# 2 -0.002035 0.013792 -0.004860 -0.007421 0.009319 -0.000377
# 3 -0.000025 -0.004860 0.021709 -0.012217 -0.012376 0.001052
# 4 -0.001355 -0.007421 -0.012217 0.048327 -0.004434 -0.001121
# 5 -0.003002 0.009319 -0.012376 -0.004434 0.041243 0.000995
# 6 0.001801 -0.000377 0.001052 -0.001121 0.000995 0.027999
#
#
# Mechanical properties :
#
#
# Convention : Reuss Voigt Hill
#
# Bulk Modulus (GPa) = 30.46619 46.32165 38.39392
# Shear Modulus (GPa) = 26.45295 35.23589 30.84442
#
# Velocity S-wave (km/s) = 3.45184 3.98388 3.72736
# Velocity P-wave (km/s) = 5.44149 6.48277 5.98482
#
# Compressibility (1/GPa) = 0.03282327
#
# Stress axis : x y z
#
# Youngs Moduli (GPa) = 89.57829 72.50651 46.06482
#
# Poissons Ratio (x) = 0.14753 0.00116
# Poissons Ratio (y) = 0.18227 0.22389
# Poissons Ratio (z) = 0.00226 0.35241
#
# Static dielectric constant tensor:
#      x y z
#    x 4.846150 -0.282830 1.035330 
#    y -0.282830 4.090250 -0.248530 
#    z 1.035330 -0.248530 5.281050 
# 
# 
# High freq. dielectric constant tensor:
#      x y z
#    x 1.882400 0.010230 -0.002680 
#    y 0.010230 1.876590 0.013700 
#    z -0.002680 0.013700 1.866920 
# 
# From -- ./inp_files/315140.got.cif
#   From: 2010.06.25/outbox.cif.g09.slc.cpg/sg2_158_cif.got.tgz:315140.got - 2010.06.27 13:26:56.
