data_PCOD8008638
_publ_section_title
;
Structure prediction by ZEFSAII (Michael W. Deem and Ramdas Pophale) SiO2 
 PCOD8008638
Probable space group: P -1
;
_chemical_formula_sum "Si O2"
_cell_formula_units_Z 16
_cell_length_a 27.391013
_cell_length_b 5.938812
_cell_length_c 9.114537
_cell_angle_alpha 55.341317
_cell_angle_beta 143.476087
_cell_angle_gamma 109.046319
_cell_volume 699.503776
_symmetry_space_group_name_H-M "P -1"
_symmetry_group_IT_number 2
_symmetry_cell_setting 'triclinic'
loop_
_space_group_symop_operation_xyz
x,y,z
-x,-y,-z
loop_
_atom_site_type_symbol
_atom_site_label
_atom_site_fract_x
_atom_site_fract_y
_atom_site_fract_z
Si Si1 0.656000 0.846705 0.576445
Si Si2 0.314395 0.641157 0.709078
Si Si3 0.180793 0.130360 0.896498
Si Si4 0.034978 0.172590 0.742497
Si Si5 0.737152 0.495180 0.663924
Si Si6 0.545120 0.727124 0.604338
Si Si7 0.161714 0.086249 0.309372
Si Si8 0.925400 0.760698 0.665597
O O1 0.655343 0.636032 0.516548
O O2 0.580866 0.865602 0.502157
O O3 0.643618 0.154051 0.360609
O O4 0.749263 0.724120 0.924178
O O5 0.287132 0.454046 0.585731
O O6 0.232433 0.796646 0.550201
O O7 0.380984 0.457079 0.049012
O O8 0.120026 0.049106 0.901002
O O9 0.125713 0.326961 0.562771
O O10 0.233199 0.820469 0.083412
O O11 0.000000 0.500000 0.500000
O O12 0.066985 0.105958 0.011527
O O13 0.963633 0.008629 0.601357
O O14 0.810681 0.656898 0.798923
O O15 0.500000 0.500000 0.500000
O O16 0.500000 0.000000 0.500000
O O17 0.147721 0.118415 0.437163
O O18 0.000000 0.500000 0.000000
#
# Coordination Sequence:
#
# PCOD8008638 Si02
#       8
#     2   2   2   2   2   2   2   2
#     4  10  25  47  80 105 142 197 247 298 372 454
#     4  10  25  47  79 105 147 198 249 302 365 462
#     4  11  23  43  67  97 133 196 249 298 359 457
#     4  12  23  43  62  94 142 187 241 310 375 429
#     4  10  20  45  73 100 133 187 258 293 356 434
#     4  12  32  51  79 123 160 188 241 312 389 461
#     4  11  23  42  66 101 138 190 251 302 363 447
#     4  12  27  38  64  99 147 188 241 322 384 424
#
# _framework density 22.873356000000001
#
# number of rings (size 3 to 8) (size 9 to 14) (size 15 to 20)
#    0.000    1.000    3.750    3.000   10.500    1.000 
#    0.000    0.000    0.000    0.000    0.000    0.000 
#    0.000    0.000    0.000    0.000    0.000    0.000 
#
# Total GULP energy -198238.736788 kJ/mol
# GULP energy per Si atom -12389.921049 kJ/mol
# Density = 2.282129 g / cm^3
# Si number density = 22.873356 Si / 1000 Ang^3
#
#
#
# Elastic Constant Matrix: (Units=GPa)
#
#
# Indices 1 2 3 4 5 6 
#
# 1 135.8492 32.1945 -0.8055 -8.3804 16.1393 -12.0779
# 2 32.1945 93.0719 24.2605 -6.5957 9.5779 -18.0126
# 3 -0.8055 24.2605 112.6388 -5.7409 -5.7682 -11.1100
# 4 -8.3804 -6.5957 -5.7409 26.6689 -4.4477 -3.7830
# 5 16.1393 9.5779 -5.7682 -4.4477 26.8840 -2.2155
# 6 -12.0779 -18.0126 -11.1100 -3.7830 -2.2155 34.9962
#
#
#
# Elastic Compliance Matrix: (Units=1/GPa)
#
#
# Indices 1 2 3 4 5 6 
#
# 1 0.008643 -0.002245 0.000651 0.001959 -0.003760 0.002008
# 2 -0.002245 0.013746 -0.002469 0.002416 -0.003220 0.005574
# 3 0.000651 -0.002469 0.009976 0.002660 0.003285 0.002617
# 4 0.001959 0.002416 0.002660 0.041364 0.006005 0.007616
# 5 -0.003760 -0.003220 0.003285 0.006005 0.042417 0.001422
# 6 0.002008 0.005574 0.002617 0.007616 0.001422 0.033880
#
#
# Mechanical properties :
#
#
# Convention : Reuss Voigt Hill
#
# Bulk Modulus (GPa) = 41.25600 50.31765 45.78683
# Shear Modulus (GPa) = 30.07842 36.77050 33.42446
#
# Velocity S-wave (km/s) = 3.63022 4.01380 3.82682
# Velocity P-wave (km/s) = 5.97053 6.59749 6.29183
#
# Compressibility (1/GPa) = 0.02423890
#
# Stress axis : x y z
#
# Youngs Moduli (GPa) = 115.70075 72.74958 100.23849
#
# Poissons Ratio (x) = 0.16333 -0.06522
# Poissons Ratio (y) = 0.25975 0.24745
# Poissons Ratio (z) = -0.07528 0.17959
#
# Static dielectric constant tensor:
#      x y z
#    x 4.285630 -0.295500 0.025230 
#    y -0.295500 4.500430 0.187600 
#    z 0.025230 0.187600 3.961110 
# 
# 
# High freq. dielectric constant tensor:
#      x y z
#    x 1.909540 -0.015350 -0.010970 
#    y -0.015350 1.907640 0.004690 
#    z -0.010970 0.004690 1.892680 
# 
# From -- ./inp_files/52278.got.cif
#   From: 2010.06.25/outbox.cif.g09.slc.cpg/sg2_27_cif.got.tgz:52278.got - 2010.06.27 13:26:56.
