data_PCOD8008674
_publ_section_title
;
Structure prediction by ZEFSAII (Michael W. Deem and Ramdas Pophale) SiO2 
 PCOD8008674
Probable space group: P -1
;
_chemical_formula_sum "Si O2"
_cell_formula_units_Z 16
_cell_length_a 13.592034
_cell_length_b 20.382885
_cell_length_c 8.769301
_cell_angle_alpha 81.744186
_cell_angle_beta 94.564504
_cell_angle_gamma 22.480990
_cell_volume 761.101661
_symmetry_space_group_name_H-M "P -1"
_symmetry_group_IT_number 2
_symmetry_cell_setting 'triclinic'
loop_
_space_group_symop_operation_xyz
x,y,z
-x,-y,-z
loop_
_atom_site_type_symbol
_atom_site_label
_atom_site_fract_x
_atom_site_fract_y
_atom_site_fract_z
Si Si1 0.913393 0.373918 0.431116
Si Si2 0.787846 0.228910 0.085450
Si Si3 0.747553 0.399912 0.690543
Si Si4 0.256634 0.980665 0.000197
Si Si5 0.617441 0.861789 0.232396
Si Si6 0.594028 0.647803 0.030517
Si Si7 0.757129 0.347533 0.286084
Si Si8 0.037729 0.316650 0.950902
O O1 0.732848 0.460497 0.528647
O O2 0.682739 0.564094 0.236856
O O3 0.009586 0.243466 0.398997
O O4 0.199435 0.240222 0.553151
O O5 0.914675 0.186860 0.266048
O O6 0.691507 0.214724 0.115759
O O7 0.487556 0.459115 0.914045
O O8 0.047320 0.062899 0.042072
O O9 0.422598 0.566662 0.613369
O O10 0.795498 0.411738 0.849410
O O11 0.052205 0.157956 0.804482
O O12 0.448369 0.899209 0.180249
O O13 0.485147 0.793110 0.982588
O O14 0.367085 0.079844 0.128421
O O15 0.877719 0.697343 0.186575
O O16 0.886054 0.459623 0.013752
#
# Coordination Sequence:
#
# PCOD8008674 Si02
#       8
#     2   2   2   2   2   2   2   2
#     4  10  21  32  56  84 111 136 181 227 270 308
#     4   9  18  33  54  85 109 134 182 229 266 315
#     4   9  17  36  58  80 108 140 183 226 263 317
#     4  10  21  35  59  77 114 147 177 214 274 328
#     4   9  20  37  53  80 110 146 180 221 263 317
#     4  11  21  35  58  86 106 141 180 227 274 317
#     4   9  16  30  57  84 102 140 185 225 262 312
#     4   9  18  36  60  77 106 144 189 220 257 323
#
# _framework density 21.022158999999998
#
# number of rings (size 3 to 8) (size 9 to 14) (size 15 to 20)
#    0.000    2.500    1.250    1.500    5.250    1.500 
#    0.000    0.000    5.500    1.500    0.000    0.000 
#    0.000    0.000    0.000    0.000    0.000    0.000 
#
# Total GULP energy -198235.464019 kJ/mol
# GULP energy per Si atom -12389.716501 kJ/mol
# Density = 2.097431 g / cm^3
# Si number density = 21.022159 Si / 1000 Ang^3
#
#
#
# Elastic Constant Matrix: (Units=GPa)
#
#
# Indices 1 2 3 4 5 6 
#
# 1 57.7869 21.9952 22.1641 -5.6048 20.9094 3.5086
# 2 21.9952 116.1336 27.7225 9.7345 2.6330 15.0845
# 3 22.1641 27.7225 57.3839 7.4894 6.8367 10.7520
# 4 -5.6048 9.7345 7.4894 16.5226 -1.0122 3.4597
# 5 20.9094 2.6330 6.8367 -1.0122 31.7882 2.9498
# 6 3.5086 15.0845 10.7520 3.4597 2.9498 29.3295
#
#
#
# Elastic Compliance Matrix: (Units=1/GPa)
#
#
# Indices 1 2 3 4 5 6 
#
# 1 0.030614 -0.004654 -0.010046 0.016151 -0.017285 0.002247
# 2 -0.004654 0.010988 -0.002348 -0.006018 0.002818 -0.003807
# 3 -0.010046 -0.002348 0.024844 -0.012051 0.001580 -0.005436
# 4 0.016151 -0.006018 -0.012051 0.075300 -0.004875 -0.002811
# 5 -0.017285 0.002818 0.001580 -0.004875 0.042439 -0.003654
# 6 0.002247 -0.003807 -0.005436 -0.002811 -0.003654 0.038476
#
#
# Mechanical properties :
#
#
# Convention : Reuss Voigt Hill
#
# Bulk Modulus (GPa) = 30.91085 41.67420 36.29253
# Shear Modulus (GPa) = 18.68895 26.15623 22.42259
#
# Velocity S-wave (km/s) = 2.98486 3.53118 3.26945
# Velocity P-wave (km/s) = 5.15898 6.04091 5.61728
#
# Compressibility (1/GPa) = 0.03235110
#
# Stress axis : x y z
#
# Youngs Moduli (GPa) = 32.66511 91.01098 40.25166
#
# Poissons Ratio (x) = 0.42355 0.40435
# Poissons Ratio (y) = 0.15202 0.09449
# Poissons Ratio (z) = 0.32814 0.21365
#
# Static dielectric constant tensor:
#      x y z
#    x 3.929720 0.025480 0.443700 
#    y 0.025480 3.540870 0.278000 
#    z 0.443700 0.278000 3.729660 
# 
# 
# High freq. dielectric constant tensor:
#      x y z
#    x 1.822930 -0.004290 0.027410 
#    y -0.004290 1.798700 0.027540 
#    z 0.027410 0.027540 1.796820 
# 
# From -- ./inp_files/205467.got.cif
#   From: 2010.06.25/outbox.cif.g09.slc.cpg/sg2_103_cif.got.tgz:205467.got - 2010.06.27 13:26:56.
