data_PCOD8008432
_publ_section_title
;
Structure prediction by ZEFSAII (Michael W. Deem and Ramdas Pophale) SiO2 
 PCOD8008432
Probable space group: P -1
;
_chemical_formula_sum "Si O2"
_cell_formula_units_Z 16
_cell_length_a 9.861977
_cell_length_b 15.509246
_cell_length_c 9.854269
_cell_angle_alpha 68.228102
_cell_angle_beta 119.400492
_cell_angle_gamma 144.765808
_cell_volume 756.203879
_symmetry_space_group_name_H-M "P -1"
_symmetry_group_IT_number 2
_symmetry_cell_setting 'triclinic'
loop_
_space_group_symop_operation_xyz
x,y,z
-x,-y,-z
loop_
_atom_site_type_symbol
_atom_site_label
_atom_site_fract_x
_atom_site_fract_y
_atom_site_fract_z
Si Si1 0.253756 0.061195 0.423962
Si Si2 0.496940 0.574781 0.069218
Si Si3 0.470174 0.435698 0.386868
Si Si4 0.011639 0.889254 0.658852
Si Si5 0.001334 0.561638 0.100460
Si Si6 0.225613 0.870059 0.003001
Si Si7 0.957807 0.084748 0.875795
Si Si8 0.232582 0.595104 0.464369
O O1 0.534168 0.232769 0.470424
O O2 0.015098 0.020130 0.344247
O O3 0.214191 0.975153 0.585733
O O4 0.212796 0.992687 0.298958
O O5 0.405280 0.480174 0.214584
O O6 0.767895 0.746959 0.120024
O O7 0.500000 0.500000 0.000000
O O8 0.291562 0.556769 0.938852
O O9 0.500000 0.500000 0.500000
O O10 0.712290 0.488080 0.437390
O O11 0.267070 0.264780 0.433259
O O12 0.053126 0.833807 0.826631
O O13 0.149209 0.574641 0.280905
O O14 0.145312 0.726640 0.066020
O O15 0.000000 0.500000 0.000000
O O16 0.191674 0.917378 0.093544
O O17 0.500000 0.000000 0.000000
O O18 0.000000 0.000000 0.000000
O O19 0.000000 0.500000 0.500000
#
# Coordination Sequence:
#
# PCOD8008432 Si02
#       8
#     2   2   2   2   2   2   2   2
#     4  10  23  43  71 101 142 183 240 289 350 430
#     4  12  24  45  76 102 140 182 246 295 343 424
#     4  11  22  42  69  98 131 182 235 284 339 420
#     4  10  20  43  67  99 135 182 232 289 344 415
#     4  12  27  46  71 107 143 187 234 296 363 419
#     4  12  26  45  68 101 144 180 233 296 359 422
#     4  12  26  45  74 107 136 194 245 292 354 425
#     4  11  26  43  68 101 145 184 230 294 359 413
#
# _framework density 21.158314000000001
#
# number of rings (size 3 to 8) (size 9 to 14) (size 15 to 20)
#    0.000    0.750    3.750    3.000    5.250    2.000 
#    0.000    1.250    0.000    0.000    0.000    0.000 
#    0.000    0.000    0.000    0.000    0.000    0.000 
#
# Total GULP energy -198281.866065 kJ/mol
# GULP energy per Si atom -12392.616629 kJ/mol
# Density = 2.111016 g / cm^3
# Si number density = 21.158314 Si / 1000 Ang^3
#
#
#
# Elastic Constant Matrix: (Units=GPa)
#
#
# Indices 1 2 3 4 5 6 
#
# 1 116.4042 47.4741 23.6820 18.0732 -21.7486 3.1235
# 2 47.4741 120.7265 37.7081 6.7529 -16.0060 9.7624
# 3 23.6820 37.7081 114.6186 12.5880 -20.6467 -7.1053
# 4 18.0732 6.7529 12.5880 37.3282 -0.9120 1.1263
# 5 -21.7486 -16.0060 -20.6467 -0.9120 40.9258 3.1833
# 6 3.1235 9.7624 -7.1053 1.1263 3.1833 41.2365
#
#
#
# Elastic Compliance Matrix: (Units=1/GPa)
#
#
# Indices 1 2 3 4 5 6 
#
# 1 0.011750 -0.003756 0.000201 -0.004954 0.004782 -0.000200
# 2 -0.003756 0.011005 -0.002935 0.000932 0.001076 -0.002935
# 3 0.000201 -0.002935 0.010903 -0.003210 0.004207 0.002321
# 4 -0.004954 0.000932 -0.003210 0.030055 -0.003142 -0.000977
# 5 0.004782 0.001076 0.004207 -0.003142 0.029612 -0.002092
# 6 -0.000200 -0.002935 0.002321 -0.000977 -0.002092 0.025548
#
#
# Mechanical properties :
#
#
# Convention : Reuss Voigt Hill
#
# Bulk Modulus (GPa) = 48.36099 63.27533 55.81816
# Shear Modulus (GPa) = 36.03751 40.09044 38.06397
#
# Velocity S-wave (km/s) = 4.13150 4.35763 4.24607
# Velocity P-wave (km/s) = 6.75762 7.43567 7.10474
#
# Compressibility (1/GPa) = 0.02067782
#
# Stress axis : x y z
#
# Youngs Moduli (GPa) = 85.10914 90.86995 91.71850
#
# Poissons Ratio (x) = 0.34130 -0.01844
# Poissons Ratio (y) = 0.31967 0.26918
# Poissons Ratio (z) = -0.01711 0.26669
#
# Static dielectric constant tensor:
#      x y z
#    x 3.836290 0.072720 -0.172680 
#    y 0.072720 3.776160 0.101900 
#    z -0.172680 0.101900 3.681600 
# 
# 
# High freq. dielectric constant tensor:
#      x y z
#    x 1.832710 0.002410 -0.003290 
#    y 0.002410 1.839720 -0.000440 
#    z -0.003290 -0.000440 1.841070 
# 
# From -- ./inp_files/207096.got.cif
#   From: 2010.06.25/outbox.cif.g09.slc.cpg/sg2_104_cif.got.tgz:207096.got - 2010.06.27 13:26:56.
