data_PCOD8008385
_publ_section_title
;
Structure prediction by ZEFSAII (Michael W. Deem and Ramdas Pophale) SiO2 
 PCOD8008385
Probable space group: P -1
;
_chemical_formula_sum "Si O2"
_cell_formula_units_Z 16
_cell_length_a 11.578060
_cell_length_b 12.081328
_cell_length_c 7.319498
_cell_angle_alpha 134.078133
_cell_angle_beta 88.177985
_cell_angle_gamma 101.271630
_cell_volume 713.401721
_symmetry_space_group_name_H-M "P -1"
_symmetry_group_IT_number 2
_symmetry_cell_setting 'triclinic'
loop_
_space_group_symop_operation_xyz
x,y,z
-x,-y,-z
loop_
_atom_site_type_symbol
_atom_site_label
_atom_site_fract_x
_atom_site_fract_y
_atom_site_fract_z
Si Si1 0.845862 0.068827 0.708861
Si Si2 0.399467 0.843928 0.274823
Si Si3 0.514804 0.685043 0.769007
Si Si4 0.352297 0.700674 0.499415
Si Si5 0.866882 0.268355 0.254016
Si Si6 0.910004 0.763198 0.256504
Si Si7 0.754236 0.657679 0.803846
Si Si8 0.894627 0.575986 0.387677
O O1 0.718531 0.102447 0.713299
O O2 0.947977 0.163429 0.673470
O O3 0.839024 0.883114 0.484105
O O4 0.883479 0.113649 0.969169
O O5 0.374545 0.734229 0.326600
O O6 0.500000 0.000000 0.500000
O O7 0.434679 0.727952 0.987129
O O8 0.500000 0.500000 0.500000
O O9 0.475165 0.766058 0.682783
O O10 0.652396 0.756817 0.903973
O O11 0.253269 0.782525 0.681303
O O12 0.306440 0.513633 0.311673
O O13 0.861783 0.390087 0.224769
O O14 0.969959 0.344080 0.475065
O O15 0.881942 0.606142 0.206366
O O16 0.862454 0.730010 0.015684
O O17 0.806559 0.656338 0.597841
#
# Coordination Sequence:
#
# PCOD8008385 Si02
#       8
#     2   2   2   2   2   2   2   2
#     4  11  24  43  65  96 139 172 220 269 331 405
#     4  12  26  45  68  97 133 180 228 277 334 401
#     4  10  23  43  66  96 132 171 225 279 325 394
#     4  10  23  42  70  93 129 175 219 277 336 386
#     4  10  20  43  66 100 129 165 224 272 327 401
#     4  11  24  42  65 100 136 176 211 271 338 398
#     4  10  22  40  64 100 129 165 220 270 322 405
#     4  10  22  39  68  96 131 172 212 269 333 393
#
# _framework density 22.427755999999999
#
# number of rings (size 3 to 8) (size 9 to 14) (size 15 to 20)
#    0.000    1.500    2.500    1.500    1.750    5.500 
#    4.500    0.000    0.000    0.000    0.000    0.000 
#    0.000    0.000    0.000    0.000    0.000    0.000 
#
# Total GULP energy -198293.451760 kJ/mol
# GULP energy per Si atom -12393.340735 kJ/mol
# Density = 2.237671 g / cm^3
# Si number density = 22.427756 Si / 1000 Ang^3
#
#
#
# Elastic Constant Matrix: (Units=GPa)
#
#
# Indices 1 2 3 4 5 6 
#
# 1 135.2453 16.7891 22.6923 -0.0879 -7.6869 -10.4786
# 2 16.7891 36.3906 8.3255 -4.3263 -3.4366 4.4964
# 3 22.6923 8.3255 87.9386 6.0873 -7.1985 -4.6183
# 4 -0.0879 -4.3263 6.0873 23.5208 -4.1538 2.5041
# 5 -7.6869 -3.4366 -7.1985 -4.1538 36.3839 2.6270
# 6 -10.4786 4.4964 -4.6183 2.5041 2.6270 18.7074
#
#
#
# Elastic Compliance Matrix: (Units=1/GPa)
#
#
# Indices 1 2 3 4 5 6 
#
# 1 0.008645 -0.004404 -0.001407 -0.000898 0.000626 0.005585
# 2 -0.004404 0.033177 -0.003003 0.008860 0.003550 -0.012867
# 3 -0.001407 -0.003003 0.012570 -0.003959 0.001209 0.003397
# 4 -0.000898 0.008860 -0.003959 0.047386 0.006054 -0.010803
# 5 0.000626 0.003550 0.001209 0.006054 0.029252 -0.005122
# 6 0.005585 -0.012867 0.003397 -0.010803 -0.005122 0.062680
#
#
# Mechanical properties :
#
#
# Convention : Reuss Voigt Hill
#
# Bulk Modulus (GPa) = 27.20079 39.46537 33.33308
# Shear Modulus (GPa) = 22.36215 29.84027 26.10121
#
# Velocity S-wave (km/s) = 3.16107 3.65157 3.41514
# Velocity P-wave (km/s) = 5.04754 5.95092 5.51775
#
# Compressibility (1/GPa) = 0.03676363
#
# Stress axis : x y z
#
# Youngs Moduli (GPa) = 115.68021 30.14154 79.55218
#
# Poissons Ratio (x) = 0.13274 0.11193
# Poissons Ratio (y) = 0.50946 0.23889
# Poissons Ratio (z) = 0.16276 0.09051
#
# Static dielectric constant tensor:
#      x y z
#    x 4.576550 -0.116300 0.070530 
#    y -0.116300 3.741400 -0.053320 
#    z 0.070530 -0.053320 4.202600 
# 
# 
# High freq. dielectric constant tensor:
#      x y z
#    x 1.904600 -0.004620 -0.002740 
#    y -0.004620 1.851760 -0.006720 
#    z -0.002740 -0.006720 1.893120 
# 
# From -- ./inp_files/72330.got.cif
#   From: 2010.06.25/outbox.cif.g09.slc.cpg/sg2_37_cif.got.tgz:72330.got - 2010.06.27 13:26:56.
