data_PCOD8008555
_publ_section_title
;
Structure prediction by ZEFSAII (Michael W. Deem and Ramdas Pophale) SiO2 
 PCOD8008555
Probable space group: P -1
;
_chemical_formula_sum "Si O2"
_cell_formula_units_Z 14
_cell_length_a 6.452329
_cell_length_b 9.089042
_cell_length_c 13.584967
_cell_angle_alpha 84.316985
_cell_angle_beta 85.912545
_cell_angle_gamma 57.176891
_cell_volume 666.064547
_symmetry_space_group_name_H-M "P -1"
_symmetry_group_IT_number 2
_symmetry_cell_setting 'triclinic'
loop_
_space_group_symop_operation_xyz
x,y,z
-x,-y,-z
loop_
_atom_site_type_symbol
_atom_site_label
_atom_site_fract_x
_atom_site_fract_y
_atom_site_fract_z
Si Si1 0.213729 0.150273 0.248424
Si Si2 0.012874 0.496607 0.883818
Si Si3 0.494754 0.232289 0.771186
Si Si4 0.250296 0.706952 0.644716
Si Si5 0.582679 0.817596 0.559950
Si Si6 0.270329 0.564129 0.252717
Si Si7 0.141934 0.422495 0.603531
O O1 0.356213 0.185725 0.326917
O O2 0.085327 0.310347 0.166352
O O3 0.996940 0.135106 0.306427
O O4 0.395288 0.971756 0.194709
O O5 0.293801 0.358111 0.850638
O O6 0.832164 0.440181 0.850729
O O7 0.000000 0.500000 0.000000
O O8 0.722617 0.260299 0.756769
O O9 0.370382 0.265061 0.666076
O O10 0.355536 0.789130 0.560362
O O11 0.448822 0.595128 0.730189
O O12 0.165824 0.590649 0.599076
O O13 0.820597 0.650798 0.506096
O O14 0.500000 0.000000 0.500000
O O15 0.107763 0.550240 0.344458
#
# Coordination Sequence:
#
# PCOD8008555 Si02
#       7
#     2   2   2   2   2   2   2
#     4  12  24  43  65  98 137 170 218 268 321 387
#     4  11  24  47  73  96 124 168 220 272 333 394
#     4  10  23  42  65  99 131 167 215 271 324 386
#     4  11  22  40  64  91 132 179 215 261 325 375
#     4  12  25  38  61 100 134 179 221 263 315 377
#     4  10  20  44  66  91 130 169 216 276 317 387
#     4  10  21  41  60  93 129 175 226 259 310 385
#
# _framework density 21.018986000000002
#
# number of rings (size 3 to 8) (size 9 to 14) (size 15 to 20)
#    0.000    1.143    7.143    0.429    2.000    6.286 
#    0.000    0.714    0.000    0.000    0.000    0.000 
#    0.000    0.000    0.000    0.000    0.000    0.000 
#
# Total GULP energy -173564.427475 kJ/mol
# GULP energy per Si atom -12397.459105 kJ/mol
# Density = 2.097115 g / cm^3
# Si number density = 21.018986 Si / 1000 Ang^3
#
#
#
# Elastic Constant Matrix: (Units=GPa)
#
#
# Indices 1 2 3 4 5 6 
#
# 1 142.8401 51.6009 49.7503 9.0524 -0.4179 8.9571
# 2 51.6009 159.1513 54.3723 7.7101 -13.0128 4.7268
# 3 49.7503 54.3723 147.6987 8.0218 4.1109 4.4331
# 4 9.0524 7.7101 8.0218 18.3621 -0.4780 0.3062
# 5 -0.4179 -13.0128 4.1109 -0.4780 23.4736 -2.9280
# 6 8.9571 4.7268 4.4331 0.3062 -2.9280 21.3647
#
#
#
# Elastic Compliance Matrix: (Units=1/GPa)
#
#
# Indices 1 2 3 4 5 6 
#
# 1 0.008762 -0.002053 -0.001937 -0.002590 -0.001061 -0.002925
# 2 -0.002053 0.008234 -0.002416 -0.001265 0.004955 0.000238
# 3 -0.001937 -0.002416 0.008519 -0.001817 -0.003003 -0.000806
# 4 -0.002590 -0.001265 -0.001817 0.057067 0.000863 0.001043
# 5 -0.001061 0.004955 -0.003003 0.000863 0.046665 0.006355
# 6 -0.002925 0.000238 -0.000806 0.001043 0.006355 0.049003
#
#
# Mechanical properties :
#
#
# Convention : Reuss Voigt Hill
#
# Bulk Modulus (GPa) = 78.73136 84.57078 81.65107
# Shear Modulus (GPa) = 25.60212 32.23787 28.92000
#
# Velocity S-wave (km/s) = 3.49384 3.92056 3.71334
# Velocity P-wave (km/s) = 7.33583 7.79854 7.57072
#
# Compressibility (1/GPa) = 0.01270142
#
# Stress axis : x y z
#
# Youngs Moduli (GPa) = 114.13124 121.45172 117.38534
#
# Poissons Ratio (x) = 0.24937 0.22743
# Poissons Ratio (y) = 0.23434 0.28358
# Poissons Ratio (z) = 0.22112 0.29341
#
# Static dielectric constant tensor:
#      x y z
#    x 4.224380 -0.014520 0.048810 
#    y -0.014520 3.938710 -0.055830 
#    z 0.048810 -0.055830 3.505880 
# 
# 
# High freq. dielectric constant tensor:
#      x y z
#    x 1.844250 -0.003470 0.007550 
#    y -0.003470 1.831290 -0.004470 
#    z 0.007550 -0.004470 1.789670 
# 
# From -- ./inp_files/39721.got.cif
#   From: 2010.06.25/outbox.cif.g09.slc.cpg/sg2_20_cif.got.tgz:39721.got - 2010.06.27 13:26:56.
