data_PCOD8008037
_publ_section_title
;
Structure prediction by ZEFSAII (Michael W. Deem and Ramdas Pophale) SiO2 
 PCOD8008037
Probable space group: P -1
;
_chemical_formula_sum "Si O2"
_cell_formula_units_Z 16
_cell_length_a 5.076048
_cell_length_b 27.751297
_cell_length_c 10.376048
_cell_angle_alpha 144.664365
_cell_angle_beta 59.487014
_cell_angle_gamma 110.784122
_cell_volume 723.106992
_symmetry_space_group_name_H-M "P -1"
_symmetry_group_IT_number 2
_symmetry_cell_setting 'triclinic'
loop_
_space_group_symop_operation_xyz
x,y,z
-x,-y,-z
loop_
_atom_site_type_symbol
_atom_site_label
_atom_site_fract_x
_atom_site_fract_y
_atom_site_fract_z
Si Si1 0.942898 0.746736 0.160971
Si Si2 0.877072 0.596396 0.248395
Si Si3 0.847381 0.096049 0.472569
Si Si4 0.529683 0.313473 0.669229
Si Si5 0.362067 0.827591 0.863043
Si Si6 0.478056 0.002938 0.164082
Si Si7 0.520902 0.693388 0.752454
Si Si8 0.244048 0.172309 0.869835
O O1 0.074562 0.807971 0.369910
O O2 0.687251 0.694031 0.168688
O O3 0.812450 0.818609 0.248871
O O4 0.206214 0.681575 0.882327
O O5 0.645262 0.619628 0.239293
O O6 0.689045 0.609828 0.460478
O O7 0.155406 0.653047 0.291967
O O8 0.000000 0.500000 0.000000
O O9 0.560427 0.110298 0.676249
O O10 0.124010 0.041329 0.360004
O O11 0.735205 0.053906 0.277154
O O12 0.610129 0.221524 0.386760
O O13 0.476176 0.764236 0.808605
O O14 0.551135 0.907262 0.986912
O O15 0.011357 0.865471 0.064216
O O16 0.500000 0.000000 0.000000
O O17 0.749209 0.730354 0.876374
#
# Coordination Sequence:
#
# PCOD8008037 Si02
#       8
#     2   2   2   2   2   2   2   2
#     4  10  22  42  69  95 131 171 225 266 317 381
#     4  11  24  45  70 101 136 166 207 261 324 389
#     4  11  24  41  60  88 125 171 216 269 328 363
#     4  11  24  42  71  99 125 172 218 262 314 391
#     4  10  23  39  64  91 125 171 226 260 323 390
#     4  12  26  41  59  90 132 170 214 284 331 364
#     4   9  21  42  66  96 126 176 212 264 321 396
#     4  10  20  42  64  90 125 172 218 268 316 384
#
# _framework density 22.126738
#
# number of rings (size 3 to 8) (size 9 to 14) (size 15 to 20)
#    0.000    1.500    2.500    1.500    5.250    1.000 
#    0.000    1.250    0.000    0.000    0.000    0.000 
#    0.000    0.000    0.000    0.000    0.000    0.000 
#
# Total GULP energy -198267.604136 kJ/mol
# GULP energy per Si atom -12391.725258 kJ/mol
# Density = 2.207638 g / cm^3
# Si number density = 22.126738 Si / 1000 Ang^3
#
#
#
# Elastic Constant Matrix: (Units=GPa)
#
#
# Indices 1 2 3 4 5 6 
#
# 1 67.8905 2.6175 14.3206 -2.3257 1.4199 11.5638
# 2 2.6175 76.8157 38.4417 -21.6866 -0.4501 14.1887
# 3 14.3206 38.4417 136.4919 -5.0487 -0.5986 6.2764
# 4 -2.3257 -21.6866 -5.0487 27.7701 -1.8456 -2.1251
# 5 1.4199 -0.4501 -0.5986 -1.8456 28.0096 -2.1693
# 6 11.5638 14.1887 6.2764 -2.1251 -2.1693 26.0722
#
#
#
# Elastic Compliance Matrix: (Units=1/GPa)
#
#
# Indices 1 2 3 4 5 6 
#
# 1 0.016559 0.002614 -0.002015 0.002346 -0.001321 -0.008200
# 2 0.002614 0.021991 -0.005404 0.015626 0.000320 -0.010526
# 3 -0.002015 -0.005404 0.008894 -0.002649 0.000146 0.001490
# 4 0.002346 0.015626 -0.002649 0.047752 0.002852 -0.004777
# 5 -0.001321 0.000320 0.000146 0.002852 0.036246 0.003625
# 6 -0.008200 -0.010526 0.001490 -0.004777 0.003625 0.047274
#
#
# Mechanical properties :
#
#
# Convention : Reuss Voigt Hill
#
# Bulk Modulus (GPa) = 26.43288 43.55086 34.99187
# Shear Modulus (GPa) = 24.88324 31.42493 28.15409
#
# Velocity S-wave (km/s) = 3.35711 3.77267 3.57094
# Velocity P-wave (km/s) = 5.19605 6.22114 5.73156
#
# Compressibility (1/GPa) = 0.03783168
#
# Stress axis : x y z
#
# Youngs Moduli (GPa) = 60.39133 45.47252 112.43338
#
# Poissons Ratio (x) = -0.11885 0.22659
# Poissons Ratio (y) = -0.15784 0.60764
# Poissons Ratio (z) = 0.12171 0.24575
#
# Static dielectric constant tensor:
#      x y z
#    x 4.489120 0.117230 -0.231870 
#    y 0.117230 3.596710 -0.315560 
#    z -0.231870 -0.315560 4.526200 
# 
# 
# High freq. dielectric constant tensor:
#      x y z
#    x 1.881900 0.014340 0.001220 
#    y 0.014340 1.832270 -0.029020 
#    z 0.001220 -0.029020 1.874690 
# 
# From -- ./inp_files/44648.got.cif
#   From: 2010.06.25/outbox.cif.g09.slc.cpg/sg2_23_cif.got.tgz:44648.got - 2010.06.27 13:26:56.
