data_PCOD8008550
_publ_section_title
;
Structure prediction by ZEFSAII (Michael W. Deem and Ramdas Pophale) SiO2 
 PCOD8008550
Probable space group: P -1
;
_chemical_formula_sum "Si O2"
_cell_formula_units_Z 14
_cell_length_a 10.931993
_cell_length_b 11.232057
_cell_length_c 10.760826
_cell_angle_alpha 142.906958
_cell_angle_beta 55.063517
_cell_angle_gamma 126.520784
_cell_volume 627.198796
_symmetry_space_group_name_H-M "P -1"
_symmetry_group_IT_number 2
_symmetry_cell_setting 'triclinic'
loop_
_space_group_symop_operation_xyz
x,y,z
-x,-y,-z
loop_
_atom_site_type_symbol
_atom_site_label
_atom_site_fract_x
_atom_site_fract_y
_atom_site_fract_z
Si Si1 0.831865 0.785483 0.884928
Si Si2 0.638544 0.365169 0.715914
Si Si3 0.256919 0.943385 0.039546
Si Si4 0.345788 0.453640 0.876481
Si Si5 0.145925 0.904795 0.681233
Si Si6 0.047227 0.100187 0.687492
Si Si7 0.470232 0.682555 0.746857
O O1 0.717860 0.561583 0.747042
O O2 0.004876 0.772485 0.739801
O O3 0.786097 0.967057 0.989354
O O4 0.815618 0.856684 0.095994
O O5 0.456548 0.313879 0.744253
O O6 0.704658 0.180992 0.477560
O O7 0.678824 0.412961 0.878107
O O8 0.102476 0.844026 0.124998
O O9 0.373307 0.131681 0.201086
O O10 0.334974 0.758430 0.820597
O O11 0.191388 0.306244 0.780608
O O12 0.427046 0.618589 0.861430
O O13 0.084609 0.912395 0.584016
O O14 0.000000 0.000000 0.500000
O O15 0.500000 0.500000 0.500000
#
# Coordination Sequence:
#
# PCOD8008550 Si02
#       7
#     2   2   2   2   2   2   2
#     4  10  20  44  66 102 130 167 234 270 326 401
#     4  11  23  44  68 100 136 171 222 282 333 388
#     4  10  24  43  69  91 135 177 219 280 320 399
#     4  11  25  44  66 102 139 168 227 280 328 399
#     4  10  23  40  72  97 132 181 215 277 335 390
#     4  11  24  46  65 101 137 177 223 269 339 404
#     4  11  24  45  66  97 130 181 225 268 333 396
#
# _framework density 22.321472
#
# number of rings (size 3 to 8) (size 9 to 14) (size 15 to 20)
#    0.000    1.429    2.857    1.286    4.000    1.143 
#    5.143    0.000    0.000    0.000    0.000    0.000 
#    0.000    0.000    0.000    0.000    0.000    0.000 
#
# Total GULP energy -173542.917784 kJ/mol
# GULP energy per Si atom -12395.922699 kJ/mol
# Density = 2.227067 g / cm^3
# Si number density = 22.321472 Si / 1000 Ang^3
#
#
#
# Elastic Constant Matrix: (Units=GPa)
#
#
# Indices 1 2 3 4 5 6 
#
# 1 96.3299 18.8361 32.1543 -5.2434 -7.9254 14.4790
# 2 18.8361 68.0749 23.9294 -3.3671 -3.4219 12.6046
# 3 32.1543 23.9294 106.5757 -4.3568 -20.7161 4.2846
# 4 -5.2434 -3.3671 -4.3568 25.8239 3.0953 3.2838
# 5 -7.9254 -3.4219 -20.7161 3.0953 43.1963 -1.6117
# 6 14.4790 12.6046 4.2846 3.2838 -1.6117 43.5063
#
#
#
# Elastic Compliance Matrix: (Units=1/GPa)
#
#
# Indices 1 2 3 4 5 6 
#
# 1 0.012396 -0.001567 -0.003082 0.002194 0.000383 -0.003519
# 2 -0.001567 0.017129 -0.003275 0.002006 -0.000805 -0.004300
# 3 -0.003082 -0.003275 0.011980 0.000255 0.004938 0.000959
# 4 0.002194 0.002006 0.000255 0.040326 -0.002373 -0.004468
# 5 0.000383 -0.000805 0.004938 -0.002373 0.025723 0.000751
# 6 -0.003519 -0.004300 0.000959 -0.004468 0.000751 0.025673
#
#
# Mechanical properties :
#
#
# Convention : Reuss Voigt Hill
#
# Bulk Modulus (GPa) = 38.97600 46.75780 42.86690
# Shear Modulus (GPa) = 31.72005 35.57601 33.64803
#
# Velocity S-wave (km/s) = 3.77378 3.99658 3.88677
# Velocity P-wave (km/s) = 6.04050 6.50306 6.27604
#
# Compressibility (1/GPa) = 0.02565682
#
# Stress axis : x y z
#
# Youngs Moduli (GPa) = 80.66939 58.37920 83.47247
#
# Poissons Ratio (x) = 0.09148 0.25730
# Poissons Ratio (y) = 0.12641 0.27337
# Poissons Ratio (z) = 0.24866 0.19119
#
# Static dielectric constant tensor:
#      x y z
#    x 4.190770 0.070400 -0.083380 
#    y 0.070400 4.211530 -0.283430 
#    z -0.083380 -0.283430 3.914330 
# 
# 
# High freq. dielectric constant tensor:
#      x y z
#    x 1.888790 0.006590 -0.003640 
#    y 0.006590 1.887870 -0.010920 
#    z -0.003640 -0.010920 1.861610 
# 
# From -- ./inp_files/429183.got.cif
#   From: 2010.06.25/outbox.cif.g09.slc.cpg/sg2_215_cif.got.tgz:429183.got - 2010.06.27 13:26:56.
