data_PCOD8008472
_publ_section_title
;
Structure prediction by ZEFSAII (Michael W. Deem and Ramdas Pophale) SiO2 
 PCOD8008472
Probable space group: P -1
;
_chemical_formula_sum "Si O2"
_cell_formula_units_Z 16
_cell_length_a 9.466749
_cell_length_b 14.000575
_cell_length_c 12.015540
_cell_angle_alpha 108.554288
_cell_angle_beta 127.742560
_cell_angle_gamma 112.608484
_cell_volume 757.950984
_symmetry_space_group_name_H-M "P -1"
_symmetry_group_IT_number 2
_symmetry_cell_setting 'triclinic'
loop_
_space_group_symop_operation_xyz
x,y,z
-x,-y,-z
loop_
_atom_site_type_symbol
_atom_site_label
_atom_site_fract_x
_atom_site_fract_y
_atom_site_fract_z
Si Si1 0.733780 0.183694 0.499128
Si Si2 0.397233 0.344090 0.383933
Si Si3 0.828797 0.322727 0.828001
Si Si4 0.234015 0.159116 0.916463
Si Si5 0.729894 0.347570 0.380645
Si Si6 0.290373 0.199410 0.507703
Si Si7 0.909754 0.156120 0.921545
Si Si8 0.112923 0.161745 0.631603
O O1 0.875771 0.299186 0.717490
O O2 0.800126 0.276912 0.455452
O O3 0.860710 0.128608 0.522844
O O4 0.397267 0.027813 0.293034
O O5 0.500000 0.500000 0.500000
O O6 0.613077 0.378912 0.422233
O O7 0.418031 0.311556 0.505955
O O8 0.074143 0.201606 0.132024
O O9 0.496956 0.197438 0.635777
O O10 0.906649 0.274381 0.941201
O O11 0.000000 0.500000 0.000000
O O12 0.090773 0.187528 0.922684
O O13 0.318817 0.243955 0.868664
O O14 0.499349 0.226354 0.129985
O O15 0.019421 0.973669 0.732650
O O16 0.000000 0.500000 0.500000
O O17 0.277180 0.265607 0.636260
O O18 0.000000 0.000000 0.500000
#
# Coordination Sequence:
#
# PCOD8008472 Si02
#       8
#     2   2   2   2   2   2   2   2
#     4  12  23  45  71 101 133 183 234 277 338 407
#     4  11  24  43  64  95 138 178 222 279 346 398
#     4  12  24  40  67 105 139 170 222 285 343 401
#     4  10  20  43  69  97 128 175 224 277 333 399
#     4  11  26  44  66  96 137 177 228 282 344 401
#     4  11  22  43  66  95 136 170 227 274 332 411
#     4  11  21  40  74  98 128 179 231 276 331 409
#     4  10  23  41  66 102 134 170 218 282 335 392
#
# _framework density 21.109546000000002
#
# number of rings (size 3 to 8) (size 9 to 14) (size 15 to 20)
#    0.000    1.000    3.750    3.375    1.750    3.000 
#    4.500    4.375    0.000    0.000    0.000    0.000 
#    0.000    0.000    0.000    0.000    0.000    0.000 
#
# Total GULP energy -198342.679140 kJ/mol
# GULP energy per Si atom -12396.417446 kJ/mol
# Density = 2.106150 g / cm^3
# Si number density = 21.109546 Si / 1000 Ang^3
#
#
#
# Elastic Constant Matrix: (Units=GPa)
#
#
# Indices 1 2 3 4 5 6 
#
# 1 111.9935 44.6229 49.9429 -11.3011 -6.5921 7.3621
# 2 44.6229 112.9131 41.5539 -6.9111 -0.6728 6.5378
# 3 49.9429 41.5539 78.3008 -10.0899 -4.4058 8.6310
# 4 -11.3011 -6.9111 -10.0899 36.9539 -1.1037 -3.5962
# 5 -6.5921 -0.6728 -4.4058 -1.1037 28.8898 -1.6816
# 6 7.3621 6.5378 8.6310 -3.5962 -1.6816 41.5493
#
#
#
# Elastic Compliance Matrix: (Units=1/GPa)
#
#
# Indices 1 2 3 4 5 6 
#
# 1 0.013286 -0.002649 -0.006694 0.001769 0.001999 -0.000313
# 2 -0.002649 0.011564 -0.004447 0.000062 -0.001038 -0.000463
# 3 -0.006694 -0.004447 0.020014 0.002433 0.001397 -0.002005
# 4 0.001769 0.000062 0.002433 0.028504 0.001965 0.001718
# 5 0.001999 -0.001038 0.001397 0.001965 0.035400 0.001122
# 6 -0.000313 -0.000463 -0.002005 0.001718 0.001122 0.024807
#
#
# Mechanical properties :
#
#
# Convention : Reuss Voigt Hill
#
# Bulk Modulus (GPa) = 57.85278 63.93853 60.89565
# Shear Modulus (GPa) = 29.95543 32.61777 31.28660
#
# Velocity S-wave (km/s) = 3.77111 3.93513 3.85399
# Velocity P-wave (km/s) = 6.81375 7.14154 6.97957
#
# Compressibility (1/GPa) = 0.01728525
#
# Stress axis : x y z
#
# Youngs Moduli (GPa) = 75.26534 86.47401 49.96588
#
# Poissons Ratio (x) = 0.22907 0.33446
# Poissons Ratio (y) = 0.19938 0.22218
# Poissons Ratio (z) = 0.50380 0.38453
#
# Static dielectric constant tensor:
#      x y z
#    x 4.211210 0.323240 -0.410500 
#    y 0.323240 4.036590 -0.724630 
#    z -0.410500 -0.724630 4.825840 
# 
# 
# High freq. dielectric constant tensor:
#      x y z
#    x 1.832120 0.001930 -0.005830 
#    y 0.001930 1.828620 -0.022170 
#    z -0.005830 -0.022170 1.830680 
# 
# From -- ./inp_files/243114.got.cif
#   From: 2010.06.25/outbox.cif.g09.slc.cpg/sg2_122_cif.got.tgz:243114.got - 2010.06.27 13:26:56.
