data_PCOD8008299
_publ_section_title
;
Structure prediction by ZEFSAII (Michael W. Deem and Ramdas Pophale) SiO2 
 PCOD8008299
Probable space group: P -1
;
_chemical_formula_sum "Si O2"
_cell_formula_units_Z 16
_cell_length_a 14.050117
_cell_length_b 11.546191
_cell_length_c 9.478488
_cell_angle_alpha 112.042082
_cell_angle_beta 110.770562
_cell_angle_gamma 126.120253
_cell_volume 735.835678
_symmetry_space_group_name_H-M "P -1"
_symmetry_group_IT_number 2
_symmetry_cell_setting 'triclinic'
loop_
_space_group_symop_operation_xyz
x,y,z
-x,-y,-z
loop_
_atom_site_type_symbol
_atom_site_label
_atom_site_fract_x
_atom_site_fract_y
_atom_site_fract_z
Si Si1 0.795175 0.270498 0.333596
Si Si2 0.567660 0.428813 0.016088
Si Si3 0.747884 0.073996 0.491084
Si Si4 0.034305 0.180245 0.097714
Si Si5 0.208690 0.713986 0.149971
Si Si6 0.706621 0.018756 0.923152
Si Si7 0.659527 0.404114 0.349647
Si Si8 0.864113 0.629444 0.068070
O O1 0.792703 0.228794 0.475198
O O2 0.685371 0.287113 0.260155
O O3 0.000000 0.500000 0.500000
O O4 0.716079 0.071710 0.115217
O O5 0.610530 0.438752 0.205016
O O6 0.754539 0.609828 0.105034
O O7 0.500000 0.500000 0.000000
O O8 0.407695 0.178828 0.755690
O O9 0.672836 0.077119 0.587199
O O10 0.933412 0.187245 0.676958
O O11 0.159531 0.354566 0.372283
O O12 0.837208 0.041840 0.952783
O O13 0.121221 0.300501 0.048023
O O14 0.000000 0.000000 0.000000
O O15 0.240012 0.802742 0.052956
O O16 0.263371 0.625443 0.126644
O O17 0.000000 0.500000 0.000000
O O18 0.498386 0.753326 0.683600
#
# Coordination Sequence:
#
# PCOD8008299 Si02
#       8
#     2   2   2   2   2   2   2   2
#     4  12  22  43  75 106 143 182 230 295 360 419
#     4  12  30  48  69 102 142 192 239 282 342 422
#     4  11  24  44  72 105 141 180 229 288 361 411
#     4  12  29  48  74 101 140 198 240 287 349 419
#     4  10  20  42  71 104 139 177 226 289 356 415
#     4  12  24  44  73 105 147 180 234 294 360 420
#     4  12  28  47  72 111 141 184 239 296 357 418
#     4  11  26  48  72 105 141 183 236 291 352 417
#
# _framework density 21.743984000000001
#
# number of rings (size 3 to 8) (size 9 to 14) (size 15 to 20)
#    0.000    0.500    5.000    4.125    7.000    1.500 
#    0.000    0.000    0.000    0.000    0.000    0.000 
#    0.000    0.000    0.000    0.000    0.000    0.000 
#
# Total GULP energy -198400.521351 kJ/mol
# GULP energy per Si atom -12400.032584 kJ/mol
# Density = 2.169449 g / cm^3
# Si number density = 21.743984 Si / 1000 Ang^3
#
#
#
# Elastic Constant Matrix: (Units=GPa)
#
#
# Indices 1 2 3 4 5 6 
#
# 1 119.6539 69.8762 5.7680 -1.7590 0.2822 -3.6426
# 2 69.8762 113.8776 30.5357 -16.8435 9.0338 -6.1869
# 3 5.7680 30.5357 60.5172 -3.7217 0.2137 -1.0693
# 4 -1.7590 -16.8435 -3.7217 35.6995 -1.0735 3.8292
# 5 0.2822 9.0338 0.2137 -1.0735 28.3109 3.4174
# 6 -3.6426 -6.1869 -1.0693 3.8292 3.4174 43.3936
#
#
#
# Elastic Compliance Matrix: (Units=1/GPa)
#
#
# Indices 1 2 3 4 5 6 
#
# 1 0.014290 -0.010580 0.003730 -0.003793 0.003077 -0.000125
# 2 -0.010580 0.019070 -0.008119 0.007300 -0.005816 0.001445
# 3 0.003730 -0.008119 0.020162 -0.001429 0.002397 -0.000410
# 4 -0.003793 0.007300 -0.001429 0.031310 -0.000851 -0.002009
# 5 0.003077 -0.005816 0.002397 -0.000851 0.037506 -0.003391
# 6 -0.000125 0.001445 -0.000410 -0.002009 -0.003391 0.023675
#
#
# Mechanical properties :
#
#
# Convention : Reuss Voigt Hill
#
# Bulk Modulus (GPa) = 42.40252 56.26762 49.33507
# Shear Modulus (GPa) = 27.20181 34.00538 30.60360
#
# Velocity S-wave (km/s) = 3.54079 3.95891 3.75567
# Velocity P-wave (km/s) = 6.02158 6.84330 6.44555
#
# Compressibility (1/GPa) = 0.02358351
#
# Stress axis : x y z
#
# Youngs Moduli (GPa) = 69.98109 52.43779 49.59885
#
# Poissons Ratio (x) = 0.55481 -0.18502
# Poissons Ratio (y) = 0.74042 0.40269
# Poissons Ratio (z) = -0.26105 0.42574
#
# Static dielectric constant tensor:
#      x y z
#    x 4.272060 0.067670 -0.326770 
#    y 0.067670 3.882750 0.000730 
#    z -0.326770 0.000730 4.260440 
# 
# 
# High freq. dielectric constant tensor:
#      x y z
#    x 1.857920 0.011060 0.000630 
#    y 0.011060 1.866980 -0.001500 
#    z 0.000630 -0.001500 1.859250 
# 
# From -- ./inp_files/272756.got.cif
#   From: 2010.06.25/outbox.cif.g09.slc.cpg/sg2_137_cif.got.tgz:272756.got - 2010.06.27 13:26:56.
