data_PCOD8008592
_publ_section_title
;
Structure prediction by ZEFSAII (Michael W. Deem and Ramdas Pophale) SiO2 
 PCOD8008592
Probable space group: P -1
;
_chemical_formula_sum "Si O2"
_cell_formula_units_Z 14
_cell_length_a 23.345187
_cell_length_b 6.564259
_cell_length_c 9.376331
_cell_angle_alpha 126.386383
_cell_angle_beta 145.343300
_cell_angle_gamma 48.140673
_cell_volume 605.211680
_symmetry_space_group_name_H-M "P -1"
_symmetry_group_IT_number 2
_symmetry_cell_setting 'triclinic'
loop_
_space_group_symop_operation_xyz
x,y,z
-x,-y,-z
loop_
_atom_site_type_symbol
_atom_site_label
_atom_site_fract_x
_atom_site_fract_y
_atom_site_fract_z
Si Si1 0.397988 0.387525 0.533550
Si Si2 0.179388 0.943662 0.894001
Si Si3 0.755358 0.715461 0.617600
Si Si4 0.916607 0.116435 0.749779
Si Si5 0.713065 0.003766 0.367348
Si Si6 0.642419 0.014251 0.917954
Si Si7 0.984039 0.258928 0.449302
O O1 0.354161 0.311033 0.559557
O O2 0.356568 0.715264 0.573722
O O3 0.528577 0.257420 0.743718
O O4 0.348196 0.272857 0.253004
O O5 0.143176 0.684329 0.744174
O O6 0.063892 0.191693 0.720747
O O7 0.263422 0.889697 0.910614
O O8 0.229640 0.024190 0.170858
O O9 0.861525 0.446281 0.764936
O O10 0.737640 0.758471 0.429662
O O11 0.827012 0.989311 0.535285
O O12 0.979590 0.009750 0.687905
O O13 0.000000 0.000000 0.000000
O O14 0.647567 0.970307 0.080528
O O15 0.000000 0.500000 0.500000
#
# Coordination Sequence:
#
# PCOD8008592 Si02
#       7
#     2   2   2   2   2   2   2
#     4   9  22  43  68  96 137 172 219 276 331 396
#     4  10  22  41  61  91 129 169 218 266 324 394
#     4  10  23  42  65  98 130 171 219 275 329 393
#     4  11  23  41  64  92 131 175 218 276 330 389
#     4  11  22  41  65  99 134 173 220 274 333 392
#     4  10  20  44  69  96 135 177 219 274 333 398
#     4  11  23  40  62  92 125 171 217 271 324 390
#
# _framework density 23.132404000000001
#
# number of rings (size 3 to 8) (size 9 to 14) (size 15 to 20)
#    0.000    1.714    1.429    2.143    0.000    7.429 
#    2.571    7.857    0.000    0.000    0.000    0.000 
#    0.000    0.000    0.000    0.000    0.000    0.000 
#
# Total GULP energy -173564.109679 kJ/mol
# GULP energy per Si atom -12397.436406 kJ/mol
# Density = 2.307975 g / cm^3
# Si number density = 23.132404 Si / 1000 Ang^3
#
#
#
# Elastic Constant Matrix: (Units=GPa)
#
#
# Indices 1 2 3 4 5 6 
#
# 1 112.5659 52.8964 45.8831 -2.7964 -1.9711 6.8642
# 2 52.8964 84.4366 35.5122 -2.9389 -0.8918 18.3387
# 3 45.8831 35.5122 89.9290 -9.8863 0.1226 7.4555
# 4 -2.7964 -2.9389 -9.8863 24.5643 0.9448 1.1215
# 5 -1.9711 -0.8918 0.1226 0.9448 47.1755 -2.6938
# 6 6.8642 18.3387 7.4555 1.1215 -2.6938 40.2049
#
#
#
# Elastic Compliance Matrix: (Units=1/GPa)
#
#
# Indices 1 2 3 4 5 6 
#
# 1 0.014053 -0.007324 -0.004568 -0.001223 0.000591 0.001862
# 2 -0.007324 0.019339 -0.003264 0.000499 -0.000342 -0.007002
# 3 -0.004568 -0.003264 0.015390 0.005335 -0.000443 -0.000764
# 4 -0.001223 0.000499 0.005335 0.042921 -0.001045 -0.002276
# 5 0.000591 -0.000342 -0.000443 -0.001045 0.021329 0.001595
# 6 0.001862 -0.007002 -0.000764 -0.002276 0.001595 0.028061
#
#
# Mechanical properties :
#
#
# Convention : Reuss Voigt Hill
#
# Bulk Modulus (GPa) = 54.13974 61.72389 57.93182
# Shear Modulus (GPa) = 28.15937 32.56494 30.36215
#
# Velocity S-wave (km/s) = 3.49279 3.75609 3.62683
# Velocity P-wave (km/s) = 6.30247 6.74920 6.52966
#
# Compressibility (1/GPa) = 0.01847072
#
# Stress axis : x y z
#
# Youngs Moduli (GPa) = 71.15675 51.71025 64.97755
#
# Poissons Ratio (x) = 0.37870 0.29681
# Poissons Ratio (y) = 0.52112 0.21210
# Poissons Ratio (z) = 0.32503 0.16879
#
# Static dielectric constant tensor:
#      x y z
#    x 4.346920 -0.118940 0.057200 
#    y -0.118940 3.930490 0.027190 
#    z 0.057200 0.027190 4.200470 
# 
# 
# High freq. dielectric constant tensor:
#      x y z
#    x 1.924740 -0.000950 -0.002080 
#    y -0.000950 1.893800 -0.001660 
#    z -0.002080 -0.001660 1.917690 
# 
# From -- ./inp_files/49265.got.cif
#   From: 2010.06.25/outbox.cif.g09.slc.cpg/sg2_25_cif.got.tgz:49265.got - 2010.06.27 13:26:56.
