data_PCOD8008769
_publ_section_title
;
Structure prediction by ZEFSAII (Michael W. Deem and Ramdas Pophale) SiO2 
 PCOD8008769
Probable space group: P -1
;
_chemical_formula_sum "Si O2"
_cell_formula_units_Z 16
_cell_length_a 15.193797
_cell_length_b 11.497605
_cell_length_c 11.894814
_cell_angle_alpha 51.798808
_cell_angle_beta 29.895720
_cell_angle_gamma 46.529194
_cell_volume 750.235635
_symmetry_space_group_name_H-M "P -1"
_symmetry_group_IT_number 2
_symmetry_cell_setting 'triclinic'
loop_
_space_group_symop_operation_xyz
x,y,z
-x,-y,-z
loop_
_atom_site_type_symbol
_atom_site_label
_atom_site_fract_x
_atom_site_fract_y
_atom_site_fract_z
Si Si1 0.026978 0.002221 0.773838
Si Si2 0.924169 0.348922 0.056114
Si Si3 0.833079 0.477900 0.838334
Si Si4 0.590681 0.157607 0.216032
Si Si5 0.574611 0.071795 0.530545
Si Si6 0.698190 0.600268 0.328901
Si Si7 0.052827 0.688298 0.424240
Si Si8 0.430474 0.508518 0.239574
O O1 0.056611 0.822982 0.812458
O O2 0.197211 0.995644 0.672352
O O3 0.037208 0.116228 0.590235
O O4 0.820025 0.090234 0.007202
O O5 0.751483 0.484862 0.231156
O O6 0.876179 0.362094 0.968811
O O7 0.122003 0.367371 0.843943
O O8 0.932250 0.366276 0.689636
O O9 0.918825 0.614399 0.681617
O O10 0.605298 0.567652 0.019104
O O11 0.509853 0.135768 0.438981
O O12 0.502334 0.348002 0.177908
O O13 0.507155 0.067362 0.271152
O O14 0.466475 0.230489 0.631563
O O15 0.625602 0.517014 0.557109
O O16 0.255138 0.639786 0.291031
#
# Coordination Sequence:
#
# PCOD8008769 Si02
#       8
#     2   2   2   2   2   2   2   2
#     4  12  24  37  62  94 128 161 208 262 314 371
#     4  11  23  43  70  93 124 165 219 265 316 360
#     4  11  24  40  66  90 127 174 206 257 307 386
#     4  10  21  34  57  93 127 160 201 262 312 366
#     4  10  22  35  59  92 127 158 204 261 318 361
#     4  10  22  43  69  94 122 166 218 269 304 375
#     4  11  26  39  59 100 135 162 210 253 322 379
#     4  11  22  42  66  93 128 174 208 251 319 380
#
# _framework density 21.326632
#
# number of rings (size 3 to 8) (size 9 to 14) (size 15 to 20)
#    0.000    1.250    3.750    2.250    5.250    2.000 
#    0.000    0.625    0.000    1.500    0.000    0.000 
#    0.000    0.000    0.000    0.000    0.000    0.000 
#
# Total GULP energy -198361.237993 kJ/mol
# GULP energy per Si atom -12397.577375 kJ/mol
# Density = 2.127809 g / cm^3
# Si number density = 21.326632 Si / 1000 Ang^3
#
#
#
# Elastic Constant Matrix: (Units=GPa)
#
#
# Indices 1 2 3 4 5 6 
#
# 1 59.9343 28.5562 19.0990 0.3955 -5.9646 -5.6537
# 2 28.5562 120.5537 40.4195 -10.8169 -3.5333 -7.8908
# 3 19.0990 40.4195 91.7177 -3.7132 -14.4139 7.8441
# 4 0.3955 -10.8169 -3.7132 28.2171 3.7986 -0.7236
# 5 -5.9646 -3.5333 -14.4139 3.7986 27.6504 -1.0410
# 6 -5.6537 -7.8908 7.8441 -0.7236 -1.0410 18.3941
#
#
#
# Elastic Compliance Matrix: (Units=1/GPa)
#
#
# Indices 1 2 3 4 5 6 
#
# 1 0.020133 -0.003579 -0.002742 -0.002266 0.002990 0.005902
# 2 -0.003579 0.011547 -0.005047 0.004276 -0.002287 0.006044
# 3 -0.002742 -0.005047 0.015493 -0.000987 0.006626 -0.009278
# 4 -0.002266 0.004276 -0.000987 0.037797 -0.005547 0.002732
# 5 0.002990 -0.002287 0.006626 -0.005547 0.040705 -0.000802
# 6 0.005902 0.006044 -0.009278 0.002732 -0.000802 0.062791
#
#
# Mechanical properties :
#
#
# Convention : Reuss Voigt Hill
#
# Bulk Modulus (GPa) = 40.91998 49.81723 45.36861
# Shear Modulus (GPa) = 22.79487 27.12771 24.96129
#
# Velocity S-wave (km/s) = 3.27287 3.57040 3.42486
# Velocity P-wave (km/s) = 5.78888 6.35664 6.07939
#
# Compressibility (1/GPa) = 0.02443794
#
# Stress axis : x y z
#
# Youngs Moduli (GPa) = 49.66907 86.60112 64.54555
#
# Poissons Ratio (x) = 0.30996 0.17697
# Poissons Ratio (y) = 0.17778 0.32574
# Poissons Ratio (z) = 0.13618 0.43705
#
# Static dielectric constant tensor:
#      x y z
#    x 3.536080 -0.007010 -0.230060 
#    y -0.007010 4.149740 -0.194080 
#    z -0.230060 -0.194080 4.016320 
# 
# 
# High freq. dielectric constant tensor:
#      x y z
#    x 1.808300 -0.008400 -0.032270 
#    y -0.008400 1.834900 -0.013940 
#    z -0.032270 -0.013940 1.843340 
# 
# From -- ./inp_files/451210.got.cif
#   From: 2010.06.25/outbox.cif.g09.slc.cpg/sg2_226_cif.got.tgz:451210.got - 2010.06.27 13:26:56.
