data_PCOD8008429
_publ_section_title
;
Structure prediction by ZEFSAII (Michael W. Deem and Ramdas Pophale) SiO2 
 PCOD8008429
Probable space group: P -1
;
_chemical_formula_sum "Si O2"
_cell_formula_units_Z 16
_cell_length_a 11.146844
_cell_length_b 8.830502
_cell_length_c 14.967479
_cell_angle_alpha 129.595109
_cell_angle_beta 53.313414
_cell_angle_gamma 139.065674
_cell_volume 723.939541
_symmetry_space_group_name_H-M "P -1"
_symmetry_group_IT_number 2
_symmetry_cell_setting 'triclinic'
loop_
_space_group_symop_operation_xyz
x,y,z
-x,-y,-z
loop_
_atom_site_type_symbol
_atom_site_label
_atom_site_fract_x
_atom_site_fract_y
_atom_site_fract_z
Si Si1 0.954242 0.057852 0.188904
Si Si2 0.000670 0.223621 0.557882
Si Si3 0.248835 0.930589 0.554882
Si Si4 0.299369 0.223626 0.211460
Si Si5 0.068114 0.793280 0.933325
Si Si6 0.476711 0.278320 0.980510
Si Si7 0.820879 0.262357 0.818886
Si Si8 0.641986 0.387211 0.537947
O O1 0.784579 0.987128 0.303655
O O2 0.971895 0.222118 0.160683
O O3 0.142904 0.215440 0.222025
O O4 0.930726 0.825244 0.065179
O O5 0.928679 0.183921 0.473296
O O6 0.870959 0.238754 0.687882
O O7 0.215089 0.476857 0.558048
O O8 0.000000 0.000000 0.500000
O O9 0.285134 0.728647 0.474170
O O10 0.431777 0.172321 0.517022
O O11 0.368856 0.413854 0.332016
O O12 0.221442 0.955383 0.181653
O O13 0.472388 0.320410 0.103982
O O14 0.998394 0.516329 0.881743
O O15 0.285343 0.010578 0.938396
O O16 0.646767 0.268177 0.883398
O O17 0.500000 0.500000 0.000000
#
# Coordination Sequence:
#
# PCOD8008429 Si02
#       8
#     2   2   2   2   2   2   2   2
#     4  10  20  43  67  98 134 170 225 279 334 396
#     4  12  25  47  66  98 141 178 223 276 337 398
#     4  11  25  41  71  99 128 183 228 280 337 393
#     4  11  24  45  67  99 140 176 221 277 340 398
#     4  10  24  41  68 104 130 177 223 281 336 398
#     4  11  26  44  71 103 136 175 225 281 334 398
#     4  12  25  45  69  97 141 180 220 274 340 404
#     4  11  25  43  67 100 130 179 230 281 327 401
#
# _framework density 22.101292000000001
#
# number of rings (size 3 to 8) (size 9 to 14) (size 15 to 20)
#    0.000    1.000    2.500    3.750    7.000    4.500 
#    4.500    0.000    0.000    0.000    0.000    0.000 
#    0.000    0.000    0.000    0.000    0.000    0.000 
#
# Total GULP energy -198376.173335 kJ/mol
# GULP energy per Si atom -12398.510833 kJ/mol
# Density = 2.205099 g / cm^3
# Si number density = 22.101292 Si / 1000 Ang^3
#
#
#
# Elastic Constant Matrix: (Units=GPa)
#
#
# Indices 1 2 3 4 5 6 
#
# 1 42.1823 21.4418 24.1172 -0.4998 -12.6778 8.6728
# 2 21.4418 153.5905 49.3816 -2.2114 -14.4984 1.1746
# 3 24.1172 49.3816 133.9120 -24.2506 -14.2754 -0.5213
# 4 -0.4998 -2.2114 -24.2506 40.6614 -1.4730 -4.1300
# 5 -12.6778 -14.4984 -14.2754 -1.4730 30.9621 -6.1994
# 6 8.6728 1.1746 -0.5213 -4.1300 -6.1994 23.7080
#
#
#
# Elastic Compliance Matrix: (Units=1/GPa)
#
#
# Indices 1 2 3 4 5 6 
#
# 1 0.031902 -0.002167 -0.004778 -0.003340 0.007634 -0.010254
# 2 -0.002167 0.007743 -0.002453 -0.000943 0.001689 0.000632
# 3 -0.004778 -0.002453 0.010795 0.006769 0.003010 0.004073
# 4 -0.003340 -0.000943 0.006769 0.029470 0.004248 0.007662
# 5 0.007634 0.001689 0.003010 0.004248 0.039455 0.008247
# 6 -0.010254 0.000632 0.004073 0.007662 0.008247 0.049480
#
#
# Mechanical properties :
#
#
# Convention : Reuss Voigt Hill
#
# Bulk Modulus (GPa) = 31.60020 57.72955 44.66488
# Shear Modulus (GPa) = 25.22828 34.71592 29.97210
#
# Velocity S-wave (km/s) = 3.38225 3.96759 3.68655
# Velocity P-wave (km/s) = 5.43891 6.86776 6.19467
#
# Compressibility (1/GPa) = 0.03164537
#
# Stress axis : x y z
#
# Youngs Moduli (GPa) = 31.34559 129.14628 92.63336
#
# Poissons Ratio (x) = 0.27983 0.44256
# Poissons Ratio (y) = 0.06792 0.22727
# Poissons Ratio (z) = 0.14975 0.31685
#
# Static dielectric constant tensor:
#      x y z
#    x 3.731240 -0.015100 -0.107950 
#    y -0.015100 4.124160 -0.017470 
#    z -0.107950 -0.017470 4.139420 
# 
# 
# High freq. dielectric constant tensor:
#      x y z
#    x 1.847590 -0.003350 -0.010730 
#    y -0.003350 1.882940 -0.004090 
#    z -0.010730 -0.004090 1.885930 
# 
# From -- ./inp_files/516232.got.cif
#   From: 2010.06.25/outbox.cif.g09.slc.cpg/sg2_259_cif.got.tgz:516232.got - 2010.06.27 13:26:56.
