data_PCOD8008202
_publ_section_title
;
Structure prediction by ZEFSAII (Michael W. Deem and Ramdas Pophale) SiO2 
 PCOD8008202
Probable space group: P -1
;
_chemical_formula_sum "Si O2"
_cell_formula_units_Z 16
_cell_length_a 9.433672
_cell_length_b 9.171875
_cell_length_c 15.996507
_cell_angle_alpha 46.354070
_cell_angle_beta 99.096561
_cell_angle_gamma 70.055800
_cell_volume 767.931139
_symmetry_space_group_name_H-M "P -1"
_symmetry_group_IT_number 2
_symmetry_cell_setting 'triclinic'
loop_
_space_group_symop_operation_xyz
x,y,z
-x,-y,-z
loop_
_atom_site_type_symbol
_atom_site_label
_atom_site_fract_x
_atom_site_fract_y
_atom_site_fract_z
Si Si1 0.572492 0.223210 0.435057
Si Si2 0.598059 0.996844 0.786355
Si Si3 0.176423 0.469787 0.558641
Si Si4 0.298025 0.253173 0.279992
Si Si5 0.162781 0.692337 0.633910
Si Si6 0.009634 0.779099 0.128755
Si Si7 0.265835 0.663710 0.343980
Si Si8 0.693430 0.784746 0.061305
O O1 0.477649 0.202626 0.354905
O O2 0.649042 0.364782 0.352669
O O3 0.438445 0.381031 0.438762
O O4 0.729840 0.936581 0.599995
O O5 0.676795 0.795860 0.796980
O O6 0.374081 0.180044 0.692262
O O7 0.681537 0.148686 0.729033
O O8 0.678396 0.819631 0.946518
O O9 0.112811 0.578080 0.602986
O O10 0.211956 0.643798 0.440309
O O11 0.000000 0.500000 0.500000
O O12 0.119351 0.540730 0.168751
O O13 0.213533 0.517425 0.790708
O O14 0.000000 0.000000 0.500000
O O15 0.810279 0.857931 0.087070
O O16 0.094342 0.741523 0.242108
O O17 0.000000 0.000000 0.000000
O O18 0.500000 0.000000 0.000000
#
# Coordination Sequence:
#
# PCOD8008202 Si02
#       8
#     2   2   2   2   2   2   2   2
#     4  10  20  42  67  98 128 175 223 274 334 403
#     4  12  23  44  69 100 133 180 227 287 337 401
#     4  12  25  41  67 103 138 175 226 287 337 402
#     4  10  23  38  70  97 131 163 232 284 330 387
#     4  12  26  44  68  97 141 182 228 275 348 409
#     4  11  24  45  66  98 131 179 226 274 334 411
#     4  11  21  42  73  96 131 176 230 275 335 405
#     4  12  25  45  70  97 141 185 221 274 348 410
#
# _framework density 20.835201000000001
#
# number of rings (size 3 to 8) (size 9 to 14) (size 15 to 20)
#    0.000    0.750    5.000    2.625    3.500    0.500 
#    2.250    0.625    0.000    0.000    0.000    0.000 
#    0.000    0.000    0.000    0.000    0.000    0.000 
#
# Total GULP energy -198337.957410 kJ/mol
# GULP energy per Si atom -12396.122338 kJ/mol
# Density = 2.078778 g / cm^3
# Si number density = 20.835201 Si / 1000 Ang^3
#
#
#
# Elastic Constant Matrix: (Units=GPa)
#
#
# Indices 1 2 3 4 5 6 
#
# 1 120.9207 18.3476 54.6410 1.6659 5.1553 9.4224
# 2 18.3476 108.0525 41.9515 10.5583 3.1991 3.4166
# 3 54.6410 41.9515 140.0056 -3.0756 -12.5024 -4.3638
# 4 1.6659 10.5583 -3.0756 35.5215 -0.1003 -1.9193
# 5 5.1553 3.1991 -12.5024 -0.1003 40.5718 0.2733
# 6 9.4224 3.4166 -4.3638 -1.9193 0.2733 23.7032
#
#
#
# Elastic Compliance Matrix: (Units=1/GPa)
#
#
# Indices 1 2 3 4 5 6 
#
# 1 0.010965 0.000413 -0.004859 -0.001357 -0.002890 -0.005389
# 2 0.000413 0.011219 -0.003884 -0.003847 -0.002125 -0.002784
# 3 -0.004859 -0.003884 0.010781 0.002578 0.004221 0.004636
# 4 -0.001357 -0.003847 0.002578 0.029800 0.001317 0.003966
# 5 -0.002890 -0.002125 0.004221 0.001317 0.026473 0.002034
# 6 -0.005389 -0.002784 0.004636 0.003966 0.002034 0.045883
#
#
# Mechanical properties :
#
#
# Convention : Reuss Voigt Hill
#
# Bulk Modulus (GPa) = 61.32978 66.53990 63.93484
# Shear Modulus (GPa) = 31.80338 36.89522 34.34930
#
# Velocity S-wave (km/s) = 3.91119 4.21267 4.06472
# Velocity P-wave (km/s) = 7.06372 7.46108 7.26511
#
# Compressibility (1/GPa) = 0.01630529
#
# Stress axis : x y z
#
# Youngs Moduli (GPa) = 91.20181 89.13128 92.75723
#
# Poissons Ratio (x) = -0.03683 0.45071
# Poissons Ratio (y) = -0.03769 0.36028
# Poissons Ratio (z) = 0.44315 0.34619
#
# Static dielectric constant tensor:
#      x y z
#    x 2.375120 -4.376430 -3.696410 
#    y -4.376430 -9.610440 -10.945890 
#    z -3.696410 -10.945890 -5.155970 
# 
# 
# High freq. dielectric constant tensor:
#      x y z
#    x 1.825850 0.005670 0.002340 
#    y 0.005670 1.809710 0.007610 
#    z 0.002340 0.007610 1.824680 
# 
# From -- ./inp_files/262045.got.cif
#   From: 2010.06.25/outbox.cif.g09.slc.cpg/sg2_132_cif.got.tgz:262045.got - 2010.06.27 13:26:56.
