data_PCOD8008353
_publ_section_title
;
Structure prediction by ZEFSAII (Michael W. Deem and Ramdas Pophale) SiO2 
 PCOD8008353
Probable space group: P -1
;
_chemical_formula_sum "Si O2"
_cell_formula_units_Z 16
_cell_length_a 16.142355
_cell_length_b 9.106977
_cell_length_c 15.736777
_cell_angle_alpha 52.104157
_cell_angle_beta 25.440458
_cell_angle_gamma 50.581797
_cell_volume 761.901745
_symmetry_space_group_name_H-M "P -1"
_symmetry_group_IT_number 2
_symmetry_cell_setting 'triclinic'
loop_
_space_group_symop_operation_xyz
x,y,z
-x,-y,-z
loop_
_atom_site_type_symbol
_atom_site_label
_atom_site_fract_x
_atom_site_fract_y
_atom_site_fract_z
Si Si1 0.408445 0.868907 0.318531
Si Si2 0.380693 0.584764 0.202753
Si Si3 0.516105 0.702510 0.446207
Si Si4 0.822503 0.928893 0.078373
Si Si5 0.717807 0.621768 0.001266
Si Si6 0.569101 0.202169 0.082821
Si Si7 0.072521 0.789968 0.544209
Si Si8 0.770134 0.218925 0.171267
O O1 0.391181 0.854274 0.441481
O O2 0.221136 0.808702 0.474907
O O3 0.422001 0.088245 0.212964
O O4 0.611616 0.731034 0.143637
O O5 0.440101 0.356545 0.212729
O O6 0.182694 0.641229 0.423262
O O7 0.561075 0.647245 0.060544
O O8 0.334426 0.692798 0.117069
O O9 0.500000 0.500000 0.500000
O O10 0.436051 0.727494 0.606923
O O11 0.737125 0.738148 0.229842
O O12 0.747871 0.055475 0.018577
O O13 0.750244 0.053673 0.184302
O O14 0.059596 0.855018 0.889363
O O15 0.894038 0.714569 0.775455
O O16 0.807334 0.400055 0.020143
O O17 0.000000 0.000000 0.500000
#
# Coordination Sequence:
#
# PCOD8008353 Si02
#       8
#     2   2   2   2   2   2   2   2
#     4  10  23  41  62  90 125 161 203 253 307 364
#     4  10  22  41  67  88 124 161 206 254 307 366
#     4  11  23  40  63  91 124 161 205 251 307 363
#     4  10  24  42  63  90 126 164 204 254 304 369
#     4  11  22  41  65  89 126 164 205 252 305 366
#     4  10  20  43  64  90 124 162 200 260 312 355
#     4  11  24  41  64  94 122 165 208 249 307 369
#     4  11  23  42  63  92 123 165 208 250 308 366
#
# _framework density 21.000084000000001
#
# number of rings (size 3 to 8) (size 9 to 14) (size 15 to 20)
#    0.000    1.500    2.500    1.875    1.750    5.500 
#    9.000    6.875    0.000    0.000    0.000    0.000 
#    0.000    0.000    0.000    0.000    0.000    0.000 
#
# Total GULP energy -198377.892617 kJ/mol
# GULP energy per Si atom -12398.618289 kJ/mol
# Density = 2.095229 g / cm^3
# Si number density = 21.000084 Si / 1000 Ang^3
#
#
#
# Elastic Constant Matrix: (Units=GPa)
#
#
# Indices 1 2 3 4 5 6 
#
# 1 80.0115 14.2116 31.4945 -1.3986 -3.0597 -2.8217
# 2 14.2116 84.2341 23.6839 -16.9101 -8.7508 2.8740
# 3 31.4945 23.6839 96.9689 -8.9476 -4.6936 -1.3616
# 4 -1.3986 -16.9101 -8.9476 30.8680 0.4834 -0.6045
# 5 -3.0597 -8.7508 -4.6936 0.4834 24.7709 -4.7829
# 6 -2.8217 2.8740 -1.3616 -0.6045 -4.7829 41.0183
#
#
#
# Elastic Compliance Matrix: (Units=1/GPa)
#
#
# Indices 1 2 3 4 5 6 
#
# 1 0.014546 -0.001452 -0.004454 -0.001418 0.000663 0.001011
# 2 -0.001452 0.014670 -0.002242 0.007242 0.004323 -0.000591
# 3 -0.004454 -0.002242 0.012569 0.002204 0.001078 0.000426
# 4 -0.001418 0.007242 0.002204 0.036910 0.002131 0.000261
# 5 0.000663 0.004323 0.001078 0.002131 0.043075 0.004833
# 6 0.001011 -0.000591 0.000426 0.000261 0.004833 0.025072
#
#
# Mechanical properties :
#
#
# Convention : Reuss Voigt Hill
#
# Bulk Modulus (GPa) = 39.23550 44.44383 41.83966
# Shear Modulus (GPa) = 29.13188 32.11973 30.62580
#
# Velocity S-wave (km/s) = 3.72859 3.91513 3.82300
# Velocity P-wave (km/s) = 6.10414 6.45347 6.28123
#
# Compressibility (1/GPa) = 0.02548712
#
# Stress axis : x y z
#
# Youngs Moduli (GPa) = 68.74935 68.16575 79.56384
#
# Poissons Ratio (x) = 0.09898 0.35439
# Poissons Ratio (y) = 0.09983 0.17841
# Poissons Ratio (z) = 0.30622 0.15285
#
# Static dielectric constant tensor:
#      x y z
#    x 5.990440 -0.238840 0.822680 
#    y -0.238840 4.101730 -0.295230 
#    z 0.822680 -0.295230 4.237390 
# 
# 
# High freq. dielectric constant tensor:
#      x y z
#    x 1.836050 0.006910 0.003810 
#    y 0.006910 1.831670 -0.011040 
#    z 0.003810 -0.011040 1.806500 
# 
# From -- ./inp_files/68465.got.cif
#   From: 2010.06.25/outbox.cif.g09.slc.cpg/sg2_35_cif.got.tgz:68465.got - 2010.06.27 13:26:56.
