data_PCOD8008581
_publ_section_title
;
Structure prediction by ZEFSAII (Michael W. Deem and Ramdas Pophale) SiO2 
 PCOD8008581
Probable space group: P -1
;
_chemical_formula_sum "Si O2"
_cell_formula_units_Z 16
_cell_length_a 13.847986
_cell_length_b 16.563090
_cell_length_c 8.464358
_cell_angle_alpha 133.329012
_cell_angle_beta 144.527171
_cell_angle_gamma 41.029464
_cell_volume 726.315396
_symmetry_space_group_name_H-M "P -1"
_symmetry_group_IT_number 2
_symmetry_cell_setting 'triclinic'
loop_
_space_group_symop_operation_xyz
x,y,z
-x,-y,-z
loop_
_atom_site_type_symbol
_atom_site_label
_atom_site_fract_x
_atom_site_fract_y
_atom_site_fract_z
Si Si1 0.144037 0.265996 0.799336
Si Si2 0.314374 0.159999 0.573031
Si Si3 0.016277 0.653856 0.809985
Si Si4 0.131510 0.516098 0.465364
Si Si5 0.195736 0.815419 0.396318
Si Si6 0.040835 0.909134 0.649301
Si Si7 0.659588 0.093938 0.747767
Si Si8 0.437272 0.281916 0.430402
O O1 0.277469 0.239756 0.789881
O O2 0.958034 0.395798 0.689073
O O3 0.093041 0.154599 0.609873
O O4 0.256747 0.271165 0.109637
O O5 0.530911 0.108339 0.748446
O O6 0.192595 0.244872 0.380325
O O7 0.256667 0.050490 0.385919
O O8 0.138414 0.594368 0.733349
O O9 0.998749 0.549591 0.753241
O O10 0.109261 0.720623 0.128226
O O11 0.346064 0.419482 0.574122
O O12 0.174974 0.859800 0.608848
O O13 0.415156 0.737784 0.538248
O O14 0.087958 0.940771 0.316427
O O15 0.174807 0.874264 0.934928
O O16 0.543684 0.179271 0.565307
#
# Coordination Sequence:
#
# PCOD8008581 Si02
#       8
#     2   2   2   2   2   2   2   2
#     4  11  25  44  67  93 135 176 219 265 327 390
#     4  10  21  39  67  96 130 169 214 267 333 385
#     4  10  20  44  68  97 125 177 215 272 320 390
#     4  10  23  43  69  91 130 178 225 262 324 382
#     4  11  25  42  69  94 138 167 221 270 333 383
#     4  11  25  44  66  99 135 174 212 270 336 390
#     4  11  23  38  67 100 135 164 217 270 328 391
#     4  12  25  42  65 100 133 174 221 269 320 390
#
# _framework density 22.028997
#
# number of rings (size 3 to 8) (size 9 to 14) (size 15 to 20)
#    0.000    1.250    2.500    2.625    3.500    4.500 
#    0.000    1.250    0.000    0.000    0.000    0.000 
#    0.000    0.000    0.000    0.000    0.000    0.000 
#
# Total GULP energy -198432.332018 kJ/mol
# GULP energy per Si atom -12402.020751 kJ/mol
# Density = 2.197886 g / cm^3
# Si number density = 22.028997 Si / 1000 Ang^3
#
#
#
# Elastic Constant Matrix: (Units=GPa)
#
#
# Indices 1 2 3 4 5 6 
#
# 1 56.4512 22.8968 3.7945 -7.9784 -1.6226 -15.6642
# 2 22.8968 99.6137 19.9462 7.9132 -7.7276 -6.3805
# 3 3.7945 19.9462 85.4230 -1.9090 -8.7833 3.0373
# 4 -7.9784 7.9132 -1.9090 27.2100 6.7168 -2.3394
# 5 -1.6226 -7.7276 -8.7833 6.7168 28.3929 -1.7788
# 6 -15.6642 -6.3805 3.0373 -2.3394 -1.7788 47.1825
#
#
#
# Elastic Compliance Matrix: (Units=1/GPa)
#
#
# Indices 1 2 3 4 5 6 
#
# 1 0.023458 -0.005867 0.000069 0.009737 -0.002075 0.007394
# 2 -0.005867 0.012683 -0.002438 -0.006564 0.003900 -0.000254
# 3 0.000069 -0.002438 0.012633 0.000792 0.003001 -0.000968
# 4 0.009737 -0.006564 0.000792 0.044713 -0.011307 0.004085
# 5 -0.002075 0.003900 0.003001 -0.011307 0.039803 0.000585
# 6 0.007394 -0.000254 -0.000968 0.004085 0.000585 0.023902
#
#
# Mechanical properties :
#
#
# Convention : Reuss Voigt Hill
#
# Bulk Modulus (GPa) = 30.95603 37.19588 34.07596
# Shear Modulus (GPa) = 27.11069 33.54711 30.32890
#
# Velocity S-wave (km/s) = 3.51191 3.90662 3.71451
# Velocity P-wave (km/s) = 5.52518 6.10496 5.82229
#
# Compressibility (1/GPa) = 0.03230388
#
# Stress axis : x y z
#
# Youngs Moduli (GPa) = 42.63007 78.84563 79.15662
#
# Poissons Ratio (x) = 0.46255 -0.00548
# Poissons Ratio (y) = 0.25009 0.19295
# Poissons Ratio (z) = -0.00295 0.19219
#
# Static dielectric constant tensor:
#      x y z
#    x 4.034490 -0.238280 -0.124390 
#    y -0.238280 4.090430 0.101390 
#    z -0.124390 0.101390 3.735000 
# 
# 
# High freq. dielectric constant tensor:
#      x y z
#    x 1.873870 -0.011510 -0.012500 
#    y -0.011510 1.871910 0.007760 
#    z -0.012500 0.007760 1.852000 
# 
# From -- ./inp_files/216412.got.cif
#   From: 2010.06.25/outbox.cif.g09.slc.cpg/sg2_109_cif.got.tgz:216412.got - 2010.06.27 13:26:56.
