data_PCOD8008163
_publ_section_title
;
Structure prediction by ZEFSAII (Michael W. Deem and Ramdas Pophale) SiO2 
 PCOD8008163
Probable space group: P -1
;
_chemical_formula_sum "Si O2"
_cell_formula_units_Z 16
_cell_length_a 9.037886
_cell_length_b 12.536601
_cell_length_c 11.046712
_cell_angle_alpha 96.895120
_cell_angle_beta 126.954425
_cell_angle_gamma 58.544912
_cell_volume 818.067674
_symmetry_space_group_name_H-M "P -1"
_symmetry_group_IT_number 2
_symmetry_cell_setting 'triclinic'
loop_
_space_group_symop_operation_xyz
x,y,z
-x,-y,-z
loop_
_atom_site_type_symbol
_atom_site_label
_atom_site_fract_x
_atom_site_fract_y
_atom_site_fract_z
Si Si1 0.298425 0.504169 0.840340
Si Si2 0.535384 0.017592 0.877706
Si Si3 0.486462 0.752061 0.237740
Si Si4 0.015019 0.817816 0.976646
Si Si5 0.952411 0.800094 0.689798
Si Si6 0.026213 0.419014 0.116042
Si Si7 0.211902 0.989284 0.551048
Si Si8 0.586558 0.766754 0.561586
O O1 0.385820 0.393761 0.768829
O O2 0.124362 0.648204 0.718890
O O3 0.165920 0.478846 0.872133
O O4 0.500000 0.500000 0.000000
O O5 0.386574 0.975758 0.733431
O O6 0.795743 0.922831 0.957661
O O7 0.466801 0.160136 0.815725
O O8 0.500000 0.000000 0.000000
O O9 0.585851 0.730264 0.417739
O O10 0.224612 0.810417 0.137860
O O11 0.032275 0.849728 0.847398
O O12 0.031472 0.683474 0.966263
O O13 0.717424 0.836352 0.635779
O O14 0.905875 0.874098 0.554261
O O15 0.269548 0.356370 0.292396
O O16 0.000000 0.500000 0.000000
O O17 0.337735 0.866833 0.504816
O O18 0.000000 0.000000 0.500000
#
# Coordination Sequence:
#
# PCOD8008163 Si02
#       8
#     2   2   2   2   2   2   2   2
#     4  10  21  40  65  95 124 167 221 254 316 387
#     4  12  27  41  62 100 133 165 212 276 324 375
#     4  12  23  41  69  96 127 168 222 267 309 393
#     4  10  22  43  65  93 126 173 217 249 326 387
#     4  10  20  42  67  87 123 177 213 255 315 391
#     4  10  22  41  69  90 129 176 207 264 326 385
#     4  12  25  42  64  94 132 167 212 268 330 379
#     4  10  22  43  66  90 124 173 216 257 321 375
#
# _framework density 19.558285000000001
#
# number of rings (size 3 to 8) (size 9 to 14) (size 15 to 20)
#    0.000    1.500    6.250    1.500    5.250    3.000 
#    0.000    0.625    0.000    0.000    0.000    0.000 
#    0.000    0.000    0.000    0.000    0.000    0.000 
#
# Total GULP energy -198223.236491 kJ/mol
# GULP energy per Si atom -12388.952281 kJ/mol
# Density = 1.951377 g / cm^3
# Si number density = 19.558285 Si / 1000 Ang^3
#
#
#
# Elastic Constant Matrix: (Units=GPa)
#
#
# Indices 1 2 3 4 5 6 
#
# 1 111.6571 60.7920 57.8526 -22.9591 -7.1133 -14.6252
# 2 60.7920 86.1207 45.0740 -3.8949 -11.7999 -23.1859
# 3 57.8526 45.0740 118.3375 -11.9570 -20.0831 5.9430
# 4 -22.9591 -3.8949 -11.9570 29.2597 0.5025 -1.2276
# 5 -7.1133 -11.7999 -20.0831 0.5025 43.2266 -6.3871
# 6 -14.6252 -23.1859 5.9430 -1.2276 -6.3871 29.6417
#
#
#
# Elastic Compliance Matrix: (Units=1/GPa)
#
#
# Indices 1 2 3 4 5 6 
#
# 1 0.020056 -0.010402 -0.004998 0.012460 -0.001572 0.002938
# 2 -0.010402 0.027679 -0.006032 -0.006258 0.005882 0.018736
# 3 -0.004998 -0.006032 0.014191 0.000632 0.002725 -0.009416
# 4 0.012460 -0.006258 0.000632 0.043497 0.000581 0.003053
# 5 -0.001572 0.005882 0.002725 0.000581 0.027091 0.009141
# 6 0.002938 0.018736 -0.009416 0.003053 0.009141 0.053825
#
#
# Mechanical properties :
#
#
# Convention : Reuss Voigt Hill
#
# Bulk Modulus (GPa) = 52.46465 71.50586 61.98525
# Shear Modulus (GPa) = 21.22625 30.58539 25.90582
#
# Velocity S-wave (km/s) = 3.29794 3.95879 3.64338
# Velocity P-wave (km/s) = 6.43310 7.58524 7.03280
#
# Compressibility (1/GPa) = 0.01906045
#
# Stress axis : x y z
#
# Youngs Moduli (GPa) = 49.86029 36.12894 70.46830
#
# Poissons Ratio (x) = 0.37582 0.35221
# Poissons Ratio (y) = 0.51866 0.42507
# Poissons Ratio (z) = 0.24921 0.21793
#
# Static dielectric constant tensor:
#      x y z
#    x 4.963740 -1.128390 0.955050 
#    y -1.128390 4.497360 -0.760320 
#    z 0.955050 -0.760320 4.465710 
# 
# 
# High freq. dielectric constant tensor:
#      x y z
#    x 1.759120 -0.013730 0.004190 
#    y -0.013730 1.754730 -0.005470 
#    z 0.004190 -0.005470 1.775120 
# 
# From -- ./inp_files/390516.got.cif
#   From: 2010.06.25/outbox.cif.g09.slc.cpg/sg2_196_cif.got.tgz:390516.got - 2010.06.27 13:26:56.
