data_PCOD8008387
_publ_section_title
;
Structure prediction by ZEFSAII (Michael W. Deem and Ramdas Pophale) SiO2 
 PCOD8008387
Probable space group: P -1
;
_chemical_formula_sum "Si O2"
_cell_formula_units_Z 16
_cell_length_a 9.174251
_cell_length_b 19.297800
_cell_length_c 9.674625
_cell_angle_alpha 83.248898
_cell_angle_beta 59.373964
_cell_angle_gamma 39.092313
_cell_volume 798.330237
_symmetry_space_group_name_H-M "P -1"
_symmetry_group_IT_number 2
_symmetry_cell_setting 'triclinic'
loop_
_space_group_symop_operation_xyz
x,y,z
-x,-y,-z
loop_
_atom_site_type_symbol
_atom_site_label
_atom_site_fract_x
_atom_site_fract_y
_atom_site_fract_z
Si Si1 0.925005 0.965473 0.650107
Si Si2 0.654954 0.637260 0.595452
Si Si3 0.721673 0.786016 0.168574
Si Si4 0.295646 0.624891 0.739544
Si Si5 0.725455 0.348856 0.577941
Si Si6 0.522640 0.702225 0.341927
Si Si7 0.237224 0.903769 0.787805
Si Si8 0.671438 0.867681 0.472747
O O1 0.150583 0.825583 0.526537
O O2 0.013217 0.957012 0.762096
O O3 0.564116 0.069937 0.789138
O O4 0.000000 0.000000 0.500000
O O5 0.427712 0.651344 0.726810
O O6 0.703804 0.641293 0.411944
O O7 0.501201 0.754190 0.728352
O O8 0.000000 0.500000 0.500000
O O9 0.636846 0.732430 0.201341
O O10 0.770631 0.793106 0.301429
O O11 0.010954 0.702383 0.954575
O O12 0.563866 0.475918 0.671822
O O13 0.189682 0.670083 0.621029
O O14 0.460340 0.378777 0.724378
O O15 0.024715 0.230256 0.555642
O O16 0.412281 0.914016 0.666867
O O17 0.000000 0.000000 0.000000
O O18 0.500000 0.000000 0.500000
#
# Coordination Sequence:
#
# PCOD8008387 Si02
#       8
#     2   2   2   2   2   2   2   2
#     4   9  17  38  62  81 124 166 198 245 315 385
#     4  10  20  43  66  86 128 178 207 254 326 392
#     4  11  22  40  65  94 123 168 213 255 326 385
#     4  10  24  41  67  95 124 166 218 265 319 382
#     4  10  23  44  62  92 131 163 214 267 318 381
#     4   9  19  40  63  86 123 172 204 247 325 383
#     4  11  24  40  62  99 126 166 219 263 318 385
#     4  12  25  41  64  95 131 165 209 274 324 369
#
# _framework density 20.041830000000001
#
# number of rings (size 3 to 8) (size 9 to 14) (size 15 to 20)
#    0.000    1.750    3.750    1.500    5.250    1.000 
#    0.000    2.500    0.000    0.000    0.000    0.000 
#    0.000    0.000    0.000    0.000    0.000    0.000 
#
# Total GULP energy -198231.515259 kJ/mol
# GULP energy per Si atom -12389.469704 kJ/mol
# Density = 1.999621 g / cm^3
# Si number density = 20.041830 Si / 1000 Ang^3
#
#
#
# Elastic Constant Matrix: (Units=GPa)
#
#
# Indices 1 2 3 4 5 6 
#
# 1 82.7247 46.6205 45.3057 0.7242 -14.1118 8.2546
# 2 46.6205 145.9887 47.6425 8.4054 -6.7267 -6.6934
# 3 45.3057 47.6425 126.3710 8.7017 -18.1819 0.9002
# 4 0.7242 8.4054 8.7017 19.7549 1.5822 -4.0786
# 5 -14.1118 -6.7267 -18.1819 1.5822 29.7463 -2.1066
# 6 8.2546 -6.6934 0.9002 -4.0786 -2.1066 47.5556
#
#
#
# Elastic Compliance Matrix: (Units=1/GPa)
#
#
# Indices 1 2 3 4 5 6 
#
# 1 0.017997 -0.004419 -0.004241 0.002041 0.004605 -0.003287
# 2 -0.004419 0.009029 -0.001793 -0.002442 -0.000891 0.001823
# 3 -0.004241 -0.001793 0.011064 -0.004300 0.004582 0.000109
# 4 0.002041 -0.002442 -0.004300 0.054663 -0.004847 0.003857
# 5 0.004605 -0.000891 0.004582 -0.004847 0.038679 0.000286
# 6 -0.003287 0.001823 0.000109 0.003857 0.000286 0.022196
#
#
# Mechanical properties :
#
#
# Convention : Reuss Voigt Hill
#
# Bulk Modulus (GPa) = 58.19098 70.46909 64.33003
# Shear Modulus (GPa) = 27.73725 33.77905 30.75815
#
# Velocity S-wave (km/s) = 3.72421 4.10985 3.92177
# Velocity P-wave (km/s) = 6.89861 7.59990 7.25773
#
# Compressibility (1/GPa) = 0.01718479
#
# Stress axis : x y z
#
# Youngs Moduli (GPa) = 55.56496 110.75037 90.38369
#
# Poissons Ratio (x) = 0.48944 0.38328
# Poissons Ratio (y) = 0.24556 0.16204
# Poissons Ratio (z) = 0.23563 0.19855
#
# Static dielectric constant tensor:
#      x y z
#    x 3.520260 0.812690 0.064680 
#    y 0.812690 2.365280 -0.034670 
#    z 0.064680 -0.034670 3.425510 
# 
# 
# High freq. dielectric constant tensor:
#      x y z
#    x 1.788660 0.005480 -0.003620 
#    y 0.005480 1.804160 -0.000170 
#    z -0.003620 -0.000170 1.758120 
# 
# From -- ./inp_files/217447.got.cif
#   From: 2010.06.25/outbox.cif.g09.slc.cpg/sg2_109_cif.got.tgz:217447.got - 2010.06.27 13:26:56.
