data_PCOD8008978
_publ_section_title
;
Structure prediction by ZEFSAII (Michael W. Deem and Ramdas Pophale) SiO2 
 PCOD8008978
Probable space group: P -1
;
_chemical_formula_sum "Si O2"
_cell_formula_units_Z 16
_cell_length_a 9.321696
_cell_length_b 19.199154
_cell_length_c 10.815437
_cell_angle_alpha 148.430168
_cell_angle_beta 129.499976
_cell_angle_gamma 62.536216
_cell_volume 766.161210
_symmetry_space_group_name_H-M "P -1"
_symmetry_group_IT_number 2
_symmetry_cell_setting 'triclinic'
loop_
_space_group_symop_operation_xyz
x,y,z
-x,-y,-z
loop_
_atom_site_type_symbol
_atom_site_label
_atom_site_fract_x
_atom_site_fract_y
_atom_site_fract_z
Si Si1 0.584927 0.928969 0.198499
Si Si2 0.735185 0.171833 0.470530
Si Si3 0.387876 0.249143 0.275585
Si Si4 0.272010 0.062382 0.321413
Si Si5 0.662749 0.487741 0.477697
Si Si6 0.074189 0.413603 0.015978
Si Si7 0.882016 0.968694 0.075131
Si Si8 0.612627 0.736910 0.118860
O O1 0.698621 0.864198 0.267744
O O2 0.698440 0.066836 0.406648
O O3 0.401518 0.952281 0.208531
O O4 0.526193 0.807757 0.885045
O O5 0.548897 0.238201 0.450039
O O6 0.910636 0.289256 0.780399
O O7 0.785025 0.093659 0.255872
O O8 0.337357 0.396114 0.450699
O O9 0.184762 0.154776 0.054022
O O10 0.390979 0.204824 0.656030
O O11 0.189647 0.089693 0.185703
O O12 0.108140 0.010134 0.254044
O O13 0.500000 0.500000 0.500000
O O14 0.854614 0.504971 0.693368
O O15 0.602599 0.341636 0.154953
O O16 0.247279 0.367142 0.971663
O O17 0.000000 0.500000 0.000000
#
# Coordination Sequence:
#
# PCOD8008978 Si02
#       8
#     2   2   2   2   2   2   2   2
#     4  11  21  36  65  90 126 158 202 253 310 367
#     4  11  20  37  63  96 121 154 211 258 306 353
#     4  11  19  39  66  92 121 161 208 258 304 353
#     4  11  21  39  57  94 131 166 194 246 315 378
#     4  10  21  40  61  87 122 161 209 259 299 356
#     4  11  23  38  62  92 120 159 210 258 304 355
#     4  10  21  35  61  92 128 156 203 256 301 362
#     4  11  23  40  60  92 123 171 202 247 310 371
#
# _framework density 20.883333
#
# number of rings (size 3 to 8) (size 9 to 14) (size 15 to 20)
#    0.000    1.250    6.250    2.625    0.000    1.500 
#    0.000    0.625    0.000    1.500    0.000    0.000 
#    0.000    0.000    0.000    0.000    0.000    0.000 
#
# Total GULP energy -198234.002520 kJ/mol
# GULP energy per Si atom -12389.625158 kJ/mol
# Density = 2.083580 g / cm^3
# Si number density = 20.883333 Si / 1000 Ang^3
#
#
#
# Elastic Constant Matrix: (Units=GPa)
#
#
# Indices 1 2 3 4 5 6 
#
# 1 78.3870 26.5899 26.6712 1.5415 -0.6721 -1.0998
# 2 26.5899 121.1479 55.4246 5.4085 4.5946 10.5508
# 3 26.6712 55.4246 144.6069 -18.3579 -2.9092 14.3013
# 4 1.5415 5.4085 -18.3579 26.7039 4.6958 4.0899
# 5 -0.6721 4.5946 -2.9092 4.6958 28.3278 2.8211
# 6 -1.0998 10.5508 14.3013 4.0899 2.8211 17.9137
#
#
#
# Elastic Compliance Matrix: (Units=1/GPa)
#
#
# Indices 1 2 3 4 5 6 
#
# 1 0.014584 -0.002286 -0.002692 -0.003078 0.000450 0.005023
# 2 -0.002286 0.011124 -0.004231 -0.004475 -0.001344 -0.002081
# 3 -0.002692 -0.004231 0.011209 0.009923 0.001030 -0.009049
# 4 -0.003078 -0.004475 0.009923 0.048622 -0.004813 -0.015819
# 5 0.000450 -0.001344 0.001030 -0.004813 0.036903 -0.004716
# 6 0.005023 -0.002081 -0.009049 -0.015819 -0.004716 0.068936
#
#
# Mechanical properties :
#
#
# Convention : Reuss Voigt Hill
#
# Bulk Modulus (GPa) = 54.06135 62.39036 58.22585
# Shear Modulus (GPa) = 23.15220 30.28617 26.71918
#
# Velocity S-wave (km/s) = 3.33324 3.81235 3.58082
# Velocity P-wave (km/s) = 6.38416 7.02277 6.71106
#
# Compressibility (1/GPa) = 0.01849750
#
# Stress axis : x y z
#
# Youngs Moduli (GPa) = 68.57033 89.89655 89.21486
#
# Poissons Ratio (x) = 0.20554 0.24015
# Poissons Ratio (y) = 0.15678 0.37748
# Poissons Ratio (z) = 0.18458 0.38036
#
# Static dielectric constant tensor:
#      x y z
#    x 3.675230 0.026420 0.091460 
#    y 0.026420 3.912290 0.031370 
#    z 0.091460 0.031370 4.593470 
# 
# 
# High freq. dielectric constant tensor:
#      x y z
#    x 1.789560 0.009700 0.006800 
#    y 0.009700 1.814290 -0.007390 
#    z 0.006800 -0.007390 1.821650 
# 
# From -- ./inp_files/392057.got.cif
#   From: 2010.06.25/outbox.cif.g09.slc.cpg/sg2_197_cif.got.tgz:392057.got - 2010.06.27 13:26:56.
