data_PCOD8008788
_publ_section_title
;
Structure prediction by ZEFSAII (Michael W. Deem and Ramdas Pophale) SiO2 
 PCOD8008788
Probable space group: P -1
;
_chemical_formula_sum "Si O2"
_cell_formula_units_Z 16
_cell_length_a 20.294407
_cell_length_b 8.653716
_cell_length_c 20.592990
_cell_angle_alpha 139.971799
_cell_angle_beta 159.044384
_cell_angle_gamma 39.277311
_cell_volume 804.061886
_symmetry_space_group_name_H-M "P -1"
_symmetry_group_IT_number 2
_symmetry_cell_setting 'triclinic'
loop_
_space_group_symop_operation_xyz
x,y,z
-x,-y,-z
loop_
_atom_site_type_symbol
_atom_site_label
_atom_site_fract_x
_atom_site_fract_y
_atom_site_fract_z
Si Si1 0.266622 0.211902 0.670609
Si Si2 0.946408 0.297798 0.300208
Si Si3 0.443876 0.458420 0.362104
Si Si4 0.665640 0.335720 0.872010
Si Si5 0.036488 0.417233 0.284265
Si Si6 0.358734 0.941957 0.111879
Si Si7 0.322713 0.689023 0.594328
Si Si8 0.299238 0.937530 0.307953
O O1 0.208033 0.463871 0.737973
O O2 0.460885 0.207296 0.811063
O O3 0.101487 0.180518 0.459220
O O4 0.303072 0.980885 0.679744
O O5 0.059526 0.377161 0.369686
O O6 0.835077 0.095556 0.110336
O O7 0.500000 0.500000 0.500000
O O8 0.625650 0.387824 0.458030
O O9 0.307525 0.718011 0.296800
O O10 0.337256 0.237431 0.189512
O O11 0.606430 0.170486 0.820286
O O12 0.481643 0.534048 0.739400
O O13 0.769387 0.147631 0.850972
O O14 0.813414 0.484143 0.082329
O O15 0.119740 0.643742 0.411516
O O16 0.146848 0.172470 0.269556
O O17 0.500000 0.000000 0.500000
#
# Coordination Sequence:
#
# PCOD8008788 Si02
#       8
#     2   2   2   2   2   2   2   2
#     4  10  22  40  64  86 119 154 197 253 298 346
#     4  10  23  41  61  90 115 157 201 244 303 345
#     4  10  21  34  59  89 115 157 199 233 289 356
#     4  10  21  38  57  87 117 159 193 237 295 345
#     4  11  22  38  60  84 121 153 197 243 287 353
#     4  10  21  39  63  85 121 156 198 243 290 356
#     4  10  22  37  60  85 116 156 195 242 294 346
#     4  11  20  36  59  83 119 159 193 235 292 351
#
# _framework density 19.898966000000001
#
# number of rings (size 3 to 8) (size 9 to 14) (size 15 to 20)
#    0.000    1.750    2.500    2.250    3.500    3.500 
#    0.000    5.000    0.000    0.000    0.000    0.000 
#    0.000    0.000    0.000    0.000    0.000    0.000 
#
# Total GULP energy -198414.381665 kJ/mol
# GULP energy per Si atom -12400.898854 kJ/mol
# Density = 1.985368 g / cm^3
# Si number density = 19.898966 Si / 1000 Ang^3
#
#
#
# Elastic Constant Matrix: (Units=GPa)
#
#
# Indices 1 2 3 4 5 6 
#
# 1 96.1081 29.7114 39.1583 9.4093 7.2075 25.0268
# 2 29.7114 56.9632 19.8561 7.0445 -1.3551 24.3036
# 3 39.1583 19.8561 79.9334 13.1873 3.4946 16.1119
# 4 9.4093 7.0445 13.1873 22.3439 -0.8759 3.9729
# 5 7.2075 -1.3551 3.4946 -0.8759 30.8311 4.2490
# 6 25.0268 24.3036 16.1119 3.9729 4.2490 28.5357
#
#
#
# Elastic Compliance Matrix: (Units=1/GPa)
#
#
# Indices 1 2 3 4 5 6 
#
# 1 0.015739 -0.002948 -0.005057 -0.001392 -0.002184 -0.007919
# 2 -0.002948 0.029467 -0.001084 -0.003262 0.005074 -0.022200
# 3 -0.005057 -0.001084 0.017098 -0.007068 -0.000559 -0.003228
# 4 -0.001392 -0.003262 -0.007068 0.050524 0.002335 0.000608
# 5 -0.002184 0.005074 -0.000559 0.002335 0.034336 -0.007528
# 6 -0.007919 -0.022200 -0.003228 0.000608 -0.007528 0.063755
#
#
# Mechanical properties :
#
#
# Convention : Reuss Voigt Hill
#
# Bulk Modulus (GPa) = 22.66258 45.60624 34.13441
# Shear Modulus (GPa) = 20.50819 25.96075 23.23447
#
# Velocity S-wave (km/s) = 3.21380 3.61588 3.42076
# Velocity P-wave (km/s) = 5.01846 6.35621 5.72653
#
# Compressibility (1/GPa) = 0.04412561
#
# Stress axis : x y z
#
# Youngs Moduli (GPa) = 63.53818 33.93663 58.48568
#
# Poissons Ratio (x) = 0.10004 0.29574
# Poissons Ratio (y) = 0.18730 0.06343
# Poissons Ratio (z) = 0.32129 0.03680
#
# Static dielectric constant tensor:
#      x y z
#    x 3.924430 0.071900 0.187610 
#    y 0.071900 3.639250 0.065900 
#    z 0.187610 0.065900 3.854940 
# 
# 
# High freq. dielectric constant tensor:
#      x y z
#    x 1.787820 0.006700 0.002210 
#    y 0.006700 1.770990 0.006100 
#    z 0.002210 0.006100 1.772230 
# 
# From -- ./inp_files/270792.got.cif
#   From: 2010.06.25/outbox.cif.g09.slc.cpg/sg2_136_cif.got.tgz:270792.got - 2010.06.27 13:26:56.
