data_PCOD8008751
_publ_section_title
;
Structure prediction by ZEFSAII (Michael W. Deem and Ramdas Pophale) SiO2 
 PCOD8008751
Probable space group: P -1
;
_chemical_formula_sum "Si O2"
_cell_formula_units_Z 16
_cell_length_a 17.849680
_cell_length_b 5.587973
_cell_length_c 12.808748
_cell_angle_alpha 84.064082
_cell_angle_beta 136.352254
_cell_angle_gamma 113.190267
_cell_volume 776.686899
_symmetry_space_group_name_H-M "P -1"
_symmetry_group_IT_number 2
_symmetry_cell_setting 'triclinic'
loop_
_space_group_symop_operation_xyz
x,y,z
-x,-y,-z
loop_
_atom_site_type_symbol
_atom_site_label
_atom_site_fract_x
_atom_site_fract_y
_atom_site_fract_z
Si Si1 0.251383 0.157558 0.430728
Si Si2 0.680368 0.149678 0.209162
Si Si3 0.678401 0.261490 0.600066
Si Si4 0.153346 0.282455 0.699231
Si Si5 0.587858 0.057743 0.736710
Si Si6 0.660779 0.825412 0.008147
Si Si7 0.096824 0.909239 0.473967
Si Si8 0.478207 0.269320 0.778883
O O1 0.244254 0.409872 0.352982
O O2 0.126947 0.000075 0.379606
O O3 0.363257 0.300741 0.617957
O O4 0.267088 0.928869 0.387666
O O5 0.715847 0.454870 0.201216
O O6 0.810867 0.188492 0.381468
O O7 0.576500 0.016137 0.199146
O O8 0.627507 0.976634 0.059086
O O9 0.677168 0.215112 0.724712
O O10 0.541683 0.176869 0.425076
O O11 0.104610 0.156131 0.541916
O O12 0.199799 0.118957 0.831276
O O13 0.046196 0.321678 0.649647
O O14 0.563404 0.271089 0.769873
O O15 0.656728 0.935020 0.883606
O O16 0.556584 0.514200 0.923515
#
# Coordination Sequence:
#
# PCOD8008751 Si02
#       8
#     2   2   2   2   2   2   2   2
#     4  10  21  38  62  90 115 152 193 253 289 348
#     4  10  21  35  55  84 114 153 193 236 286 354
#     4  10  22  38  60  88 117 151 202 239 301 337
#     4  10  21  37  57  82 117 151 196 234 291 349
#     4  10  22  34  56  82 118 155 188 242 285 357
#     4  11  21  35  51  84 117 159 186 235 289 354
#     4   9  21  37  59  84 111 151 194 246 288 343
#     4  10  21  34  56  83 121 154 189 232 291 351
#
# _framework density 20.600324000000001
#
# number of rings (size 3 to 8) (size 9 to 14) (size 15 to 20)
#    0.000    2.000    1.250    1.500    7.000    4.500 
#    0.000    0.000    0.000    1.500    0.000    0.000 
#    0.000    0.000    0.000    0.000    0.000    0.000 
#
# Total GULP energy -198240.292049 kJ/mol
# GULP energy per Si atom -12390.018253 kJ/mol
# Density = 2.055344 g / cm^3
# Si number density = 20.600324 Si / 1000 Ang^3
#
#
#
# Elastic Constant Matrix: (Units=GPa)
#
#
# Indices 1 2 3 4 5 6 
#
# 1 110.2937 36.9662 28.5097 -8.4241 -17.9434 15.7983
# 2 36.9662 98.7117 20.3737 -7.8798 -13.4791 11.2418
# 3 28.5097 20.3737 58.2630 -11.7681 -13.8359 10.5089
# 4 -8.4241 -7.8798 -11.7681 29.3181 2.0028 -7.7670
# 5 -17.9434 -13.4791 -13.8359 2.0028 26.6247 -6.1987
# 6 15.7983 11.2418 10.5089 -7.7670 -6.1987 29.7275
#
#
#
# Elastic Compliance Matrix: (Units=1/GPa)
#
#
# Indices 1 2 3 4 5 6 
#
# 1 0.012034 -0.002876 -0.003259 0.000238 0.004194 -0.003220
# 2 -0.002876 0.012223 -0.001645 0.001176 0.002936 -0.001593
# 3 -0.003259 -0.001645 0.022977 0.006676 0.007854 -0.002387
# 4 0.000238 0.001176 0.006676 0.039059 0.003132 0.007927
# 5 0.004194 0.002936 0.007854 0.003132 0.046754 0.004452
# 6 -0.003220 -0.001593 -0.002387 0.007927 0.004452 0.039796
#
#
# Mechanical properties :
#
#
# Convention : Reuss Voigt Hill
#
# Bulk Modulus (GPa) = 31.56957 48.77417 40.17187
# Shear Modulus (GPa) = 25.13060 29.22866 27.17963
#
# Velocity S-wave (km/s) = 3.49651 3.77084 3.63627
# Velocity P-wave (km/s) = 5.62662 6.53351 6.09695
#
# Compressibility (1/GPa) = 0.03167607
#
# Stress axis : x y z
#
# Youngs Moduli (GPa) = 83.09464 81.81170 43.52135
#
# Poissons Ratio (x) = 0.23528 0.14182
# Poissons Ratio (y) = 0.23897 0.07159
# Poissons Ratio (z) = 0.27077 0.13458
#
# Static dielectric constant tensor:
#      x y z
#    x 3.726700 0.064330 -0.059290 
#    y 0.064330 3.714060 -0.094400 
#    z -0.059290 -0.094400 3.593310 
# 
# 
# High freq. dielectric constant tensor:
#      x y z
#    x 1.796230 -0.001530 -0.005070 
#    y -0.001530 1.802090 -0.012190 
#    z -0.005070 -0.012190 1.784470 
# 
# From -- ./inp_files/66251.got.cif
#   From: 2010.06.25/outbox.cif.g09.slc.cpg/sg2_34_cif.got.tgz:66251.got - 2010.06.27 13:26:56.
