data_PCOD8008740
_publ_section_title
;
Structure prediction by ZEFSAII (Michael W. Deem and Ramdas Pophale) SiO2 
 PCOD8008740
Probable space group: P -1
;
_chemical_formula_sum "Si O2"
_cell_formula_units_Z 14
_cell_length_a 8.927168
_cell_length_b 19.545263
_cell_length_c 12.242585
_cell_angle_alpha 38.221720
_cell_angle_beta 130.223018
_cell_angle_gamma 100.877124
_cell_volume 745.034035
_symmetry_space_group_name_H-M "P -1"
_symmetry_group_IT_number 2
_symmetry_cell_setting 'triclinic'
loop_
_space_group_symop_operation_xyz
x,y,z
-x,-y,-z
loop_
_atom_site_type_symbol
_atom_site_label
_atom_site_fract_x
_atom_site_fract_y
_atom_site_fract_z
Si Si1 0.344119 0.763409 0.245655
Si Si2 0.760338 0.444196 0.517012
Si Si3 0.234434 0.826046 0.348818
Si Si4 0.344793 0.165604 0.088421
Si Si5 0.742334 0.042738 0.614324
Si Si6 0.738496 0.428425 0.286288
Si Si7 0.278393 0.325479 0.653050
O O1 0.339310 0.633845 0.381908
O O2 0.426741 0.754887 0.422128
O O3 0.559131 0.740694 0.299551
O O4 0.055962 0.927046 0.881882
O O5 0.637557 0.510893 0.253655
O O6 0.672768 0.575173 0.391168
O O7 0.079482 0.325101 0.807735
O O8 0.123695 0.743443 0.411112
O O9 0.366068 0.814948 0.538776
O O10 0.000000 0.000000 0.000000
O O11 0.326777 0.040845 0.245164
O O12 0.593526 0.111842 0.343723
O O13 0.390291 0.186507 0.959069
O O14 0.967851 0.422001 0.355966
O O15 0.500000 0.500000 0.000000
#
# Coordination Sequence:
#
# PCOD8008740 Si02
#       7
#     2   2   2   2   2   2   2
#     4   9  19  35  52  80 108 141 172 219 272 317
#     4   9  19  35  54  77 106 144 176 212 269 319
#     4   9  18  35  55  72 105 148 177 212 270 317
#     4   9  18  32  55  81  99 135 189 215 255 315
#     4   9  18  34  56  75 104 141 182 219 253 322
#     4  10  21  34  55  82 106 139 190 222 254 323
#     4  11  20  33  56  78 113 137 173 223 273 308
#
# _framework density 18.791087000000001
#
# number of rings (size 3 to 8) (size 9 to 14) (size 15 to 20)
#    0.000    2.571    0.000    4.714    4.000    0.571 
#    0.000    9.286    9.429    0.000    0.000    0.000 
#    0.000    0.000    0.000    0.000    0.000    0.000 
#
# Total GULP energy -173505.300851 kJ/mol
# GULP energy per Si atom -12393.235775 kJ/mol
# Density = 1.874832 g / cm^3
# Si number density = 18.791087 Si / 1000 Ang^3
#
#
#
# Elastic Constant Matrix: (Units=GPa)
#
#
# Indices 1 2 3 4 5 6 
#
# 1 124.0346 39.3049 25.3147 5.2020 4.6772 -14.5765
# 2 39.3049 100.9151 20.8981 2.7700 10.5844 -7.0748
# 3 25.3147 20.8981 50.9904 18.9954 -0.3609 -3.4275
# 4 5.2020 2.7700 18.9954 32.4119 5.5839 -0.3799
# 5 4.6772 10.5844 -0.3609 5.5839 16.7590 -1.6412
# 6 -14.5765 -7.0748 -3.4275 -0.3799 -1.6412 18.3125
#
#
#
# Elastic Compliance Matrix: (Units=1/GPa)
#
#
# Indices 1 2 3 4 5 6 
#
# 1 0.010515 -0.002702 -0.004147 0.001238 -0.001096 0.006478
# 2 -0.002702 0.012990 -0.005484 0.004069 -0.008812 0.001136
# 3 -0.004147 -0.005484 0.031220 -0.019181 0.011790 0.001082
# 4 0.001238 0.004069 -0.019181 0.044696 -0.018392 -0.001753
# 5 -0.001096 -0.008812 0.011790 -0.018392 0.072318 0.004029
# 6 0.006478 0.001136 0.001082 -0.001753 0.004029 0.060730
#
#
# Mechanical properties :
#
#
# Convention : Reuss Voigt Hill
#
# Bulk Modulus (GPa) = 33.26796 49.66392 41.46594
# Shear Modulus (GPa) = 18.71586 26.19151 22.45368
#
# Velocity S-wave (km/s) = 3.15936 3.73745 3.46050
# Velocity P-wave (km/s) = 5.57237 6.71652 6.17102
#
# Compressibility (1/GPa) = 0.03005895
#
# Stress axis : x y z
#
# Youngs Moduli (GPa) = 95.09870 76.98494 32.03111
#
# Poissons Ratio (x) = 0.20799 0.13283
# Poissons Ratio (y) = 0.25693 0.17567
# Poissons Ratio (z) = 0.39435 0.42221
#
# Static dielectric constant tensor:
#      x y z
#    x 3.296570 0.087140 -0.246210 
#    y 0.087140 4.006700 0.164250 
#    z -0.246210 0.164250 3.359600 
# 
# 
# High freq. dielectric constant tensor:
#      x y z
#    x 1.707440 0.007220 -0.021930 
#    y 0.007220 1.743320 0.003900 
#    z -0.021930 0.003900 1.711620 
# 
# From -- ./inp_files/167918.got.cif
#   From: 2010.06.25/outbox.cif.g09.slc.cpg/sg2_84_cif.got.tgz:167918.got - 2010.06.27 13:26:56.
