data_PCOD8008225
_publ_section_title
;
Structure prediction by ZEFSAII (Michael W. Deem and Ramdas Pophale) SiO2 
 PCOD8008225
Probable space group: P -1
;
_chemical_formula_sum "Si O2"
_cell_formula_units_Z 16
_cell_length_a 14.035387
_cell_length_b 9.751385
_cell_length_c 18.690353
_cell_angle_alpha 68.430963
_cell_angle_beta 158.675108
_cell_angle_gamma 100.408672
_cell_volume 759.696661
_symmetry_space_group_name_H-M "P -1"
_symmetry_group_IT_number 2
_symmetry_cell_setting 'triclinic'
loop_
_space_group_symop_operation_xyz
x,y,z
-x,-y,-z
loop_
_atom_site_type_symbol
_atom_site_label
_atom_site_fract_x
_atom_site_fract_y
_atom_site_fract_z
Si Si1 0.261933 0.753753 0.920292
Si Si2 0.819987 0.632802 0.664421
Si Si3 0.259499 0.504716 0.223106
Si Si4 0.926977 0.870645 0.512950
Si Si5 0.089770 0.625685 0.336397
Si Si6 0.758332 0.494842 0.230966
Si Si7 0.784988 0.155492 0.866198
Si Si8 0.732156 0.019296 0.996758
O O1 0.079344 0.681294 0.851909
O O2 0.085296 0.831625 0.708305
O O3 0.597952 0.602809 0.168953
O O4 0.293354 0.894241 0.960952
O O5 0.669775 0.613652 0.635441
O O6 0.967371 0.456347 0.758708
O O7 0.562631 0.779857 0.408836
O O8 0.554150 0.445838 0.391636
O O9 0.138803 0.696009 0.126230
O O10 0.000000 0.500000 0.000000
O O11 0.573073 0.959850 0.253369
O O12 0.027504 0.702557 0.567340
O O13 0.000000 0.000000 0.500000
O O14 0.950222 0.575270 0.315050
O O15 0.949489 0.823461 0.194382
O O16 0.500000 0.500000 0.000000
O O17 0.853332 0.102491 0.007193
O O18 0.000000 0.000000 0.000000
#
# Coordination Sequence:
#
# PCOD8008225 Si02
#       8
#     2   2   2   2   2   2   2   2
#     4  11  24  43  67  98 137 176 226 279 338 400
#     4  11  21  43  67  91 133 179 218 272 341 403
#     4  11  24  42  64  98 131 173 227 277 334 403
#     4  11  23  42  66  96 136 175 227 276 338 400
#     4  11  22  42  69  92 133 180 223 270 339 405
#     4  10  20  42  68  93 131 180 220 273 335 404
#     4  11  22  42  67  94 130 175 222 274 337 398
#     4  12  24  41  67 103 133 172 227 286 328 396
#
# _framework density 21.061036999999999
#
# number of rings (size 3 to 8) (size 9 to 14) (size 15 to 20)
#    0.000    1.000    3.750    6.000    0.000    3.500 
#    2.250    5.000    0.000    0.000    0.000    0.000 
#    0.000    0.000    0.000    0.000    0.000    0.000 
#
# Total GULP energy -198379.525051 kJ/mol
# GULP energy per Si atom -12398.720316 kJ/mol
# Density = 2.101310 g / cm^3
# Si number density = 21.061037 Si / 1000 Ang^3
#
#
#
# Elastic Constant Matrix: (Units=GPa)
#
#
# Indices 1 2 3 4 5 6 
#
# 1 98.7459 58.5150 41.3601 -4.8932 11.5880 6.5313
# 2 58.5150 109.7498 60.9885 -18.4189 2.9889 11.4334
# 3 41.3601 60.9885 87.6928 -10.4389 13.0473 -1.5444
# 4 -4.8932 -18.4189 -10.4389 42.5964 1.3337 7.4138
# 5 11.5880 2.9889 13.0473 1.3337 32.0260 0.6345
# 6 6.5313 11.4334 -1.5444 7.4138 0.6345 47.0798
#
#
#
# Elastic Compliance Matrix: (Units=1/GPa)
#
#
# Indices 1 2 3 4 5 6 
#
# 1 0.015783 -0.007638 -0.001715 -0.001768 -0.004225 -0.000056
# 2 -0.007638 0.020711 -0.010924 0.006175 0.005131 -0.005370
# 3 -0.001715 -0.010924 0.020878 -0.000232 -0.006930 0.003706
# 4 -0.001768 0.006175 -0.000232 0.026867 -0.000852 -0.005481
# 5 -0.004225 0.005131 -0.006930 -0.000852 0.035157 -0.001227
# 6 -0.000056 -0.005370 0.003706 -0.005481 -0.001227 0.023554
#
#
# Mechanical properties :
#
#
# Convention : Reuss Voigt Hill
#
# Bulk Modulus (GPa) = 59.45994 68.65730 64.05862
# Shear Modulus (GPa) = 26.43958 33.36209 29.90084
#
# Velocity S-wave (km/s) = 3.54698 3.98435 3.77201
# Velocity P-wave (km/s) = 6.71329 7.33735 7.03224
#
# Compressibility (1/GPa) = 0.01681805
#
# Stress axis : x y z
#
# Youngs Moduli (GPa) = 63.35814 48.28456 47.89620
#
# Poissons Ratio (x) = 0.36880 0.08214
# Poissons Ratio (y) = 0.48393 0.52323
# Poissons Ratio (z) = 0.10866 0.52747
#
# Static dielectric constant tensor:
#      x y z
#    x 9.574570 -2.028010 -15.141500 
#    y -2.028010 4.740260 5.814110 
#    z -15.141500 5.814110 46.436250 
# 
# 
# High freq. dielectric constant tensor:
#      x y z
#    x 1.820270 0.011120 0.012900 
#    y 0.011120 1.835000 -0.003720 
#    z 0.012900 -0.003720 1.825920 
# 
# From -- ./inp_files/447598.got.cif
#   From: 2010.06.25/outbox.cif.g09.slc.cpg/sg2_224_cif.got.tgz:447598.got - 2010.06.27 13:26:56.
