data_PCOD8008734
_publ_section_title
;
Structure prediction by ZEFSAII (Michael W. Deem and Ramdas Pophale) SiO2 
 PCOD8008734
Probable space group: P -1
;
_chemical_formula_sum "Si O2"
_cell_formula_units_Z 14
_cell_length_a 11.694018
_cell_length_b 11.407096
_cell_length_c 19.823503
_cell_angle_alpha 50.480333
_cell_angle_beta 29.785717
_cell_angle_gamma 71.089397
_cell_volume 814.083826
_symmetry_space_group_name_H-M "P -1"
_symmetry_group_IT_number 2
_symmetry_cell_setting 'triclinic'
loop_
_space_group_symop_operation_xyz
x,y,z
-x,-y,-z
loop_
_atom_site_type_symbol
_atom_site_label
_atom_site_fract_x
_atom_site_fract_y
_atom_site_fract_z
Si Si1 0.095715 0.331150 0.752158
Si Si2 0.231604 0.334236 0.527920
Si Si3 0.324029 0.824576 0.203987
Si Si4 0.699521 0.730986 0.098536
Si Si5 0.442348 0.057829 0.820923
Si Si6 0.307479 0.027188 0.635348
Si Si7 0.543991 0.256067 0.564098
O O1 0.140031 0.355263 0.640438
O O2 0.288566 0.272905 0.706425
O O3 0.175117 0.527590 0.670251
O O4 0.766751 0.168418 0.999211
O O5 0.550429 0.518986 0.279608
O O6 0.227751 0.151026 0.592188
O O7 0.004906 0.316356 0.598222
O O8 0.482925 0.722776 0.157732
O O9 0.330137 0.889616 0.254867
O O10 0.500000 0.000000 0.000000
O O11 0.748226 0.872059 0.082508
O O12 0.013701 0.818981 0.876081
O O13 0.595547 0.160169 0.634791
O O14 0.483609 0.133106 0.574037
O O15 0.500000 0.000000 0.500000
#
# Coordination Sequence:
#
# PCOD8008734 Si02
#       7
#     2   2   2   2   2   2   2
#     4  10  17  27  49  76 104 131 157 210 269 302
#     4  11  18  34  53  83 107 131 171 214 261 308
#     4  10  16  31  53  83 110 130 158 215 277 306
#     4  10  20  31  53  81 107 130 170 212 266 305
#     4  10  18  28  50  81 107 126 159 209 275 303
#     4  11  24  38  51  70 107 150 177 203 245 310
#     4  10  19  30  48  74 103 130 170 213 256 307
#
# _framework density 17.197244999999999
#
# number of rings (size 3 to 8) (size 9 to 14) (size 15 to 20)
#    0.857    0.857    7.143    0.857    0.000    0.571 
#    0.000    0.000    0.000    0.857    0.000    5.000 
#    0.000    0.000    0.000    0.000    0.000    0.000 
#
# Total GULP energy -173494.581926 kJ/mol
# GULP energy per Si atom -12392.470138 kJ/mol
# Density = 1.715810 g / cm^3
# Si number density = 17.197245 Si / 1000 Ang^3
#
#
#
# Elastic Constant Matrix: (Units=GPa)
#
#
# Indices 1 2 3 4 5 6 
#
# 1 110.0069 24.2432 32.1455 -6.9621 3.5957 3.6378
# 2 24.2432 44.0481 30.9526 1.7675 1.3727 9.4582
# 3 32.1455 30.9526 111.9803 -22.3410 -3.3287 8.9567
# 4 -6.9621 1.7675 -22.3410 23.8251 -0.4167 0.4396
# 5 3.5957 1.3727 -3.3287 -0.4167 28.1833 -4.8121
# 6 3.6378 9.4582 8.9567 0.4396 -4.8121 10.7400
#
#
#
# Elastic Compliance Matrix: (Units=1/GPa)
#
#
# Indices 1 2 3 4 5 6 
#
# 1 0.010792 -0.005462 -0.001296 0.002295 -0.000936 0.001722
# 2 -0.005462 0.039383 -0.010076 -0.013592 -0.007243 -0.027119
# 3 -0.001296 -0.010076 0.015372 0.014879 0.002154 -0.003151
# 4 0.002295 -0.013592 0.014879 0.057693 0.002565 -0.002428
# 5 -0.000936 -0.007243 0.002154 0.002565 0.040136 0.022777
# 6 0.001722 -0.027119 -0.003151 -0.002428 0.022777 0.129341
#
#
# Mechanical properties :
#
#
# Convention : Reuss Voigt Hill
#
# Bulk Modulus (GPa) = 31.36818 48.96864 40.16841
# Shear Modulus (GPa) = 14.83637 24.46263 19.64950
#
# Velocity S-wave (km/s) = 2.94039 3.77566 3.38390
# Velocity P-wave (km/s) = 5.45964 6.89522 6.21899
#
# Compressibility (1/GPa) = 0.03187944
#
# Stress axis : x y z
#
# Youngs Moduli (GPa) = 92.66535 25.39163 65.05431
#
# Poissons Ratio (x) = 0.13868 0.08430
# Poissons Ratio (y) = 0.50609 0.65549
# Poissons Ratio (z) = 0.12008 0.25585
#
# Static dielectric constant tensor:
#      x y z
#    x 3.345660 -0.000090 -0.028830 
#    y -0.000090 2.724180 -0.364430 
#    z -0.028830 -0.364430 3.198700 
# 
# 
# High freq. dielectric constant tensor:
#      x y z
#    x 1.673430 0.001400 0.002120 
#    y 0.001400 1.595940 -0.042550 
#    z 0.002120 -0.042550 1.666680 
# 
# From -- ./inp_files/423179.got.cif
#   From: 2010.06.25/outbox.cif.g09.slc.cpg/sg2_212_cif.got.tgz:423179.got - 2010.06.27 13:26:56.
