data_PCOD8008208
_publ_section_title
;
Structure prediction by ZEFSAII (Michael W. Deem and Ramdas Pophale) SiO2 
 PCOD8008208
Probable space group: P -1
;
_chemical_formula_sum "Si O2"
_cell_formula_units_Z 14
_cell_length_a 9.788107
_cell_length_b 8.532553
_cell_length_c 18.409187
_cell_angle_alpha 113.045665
_cell_angle_beta 57.445128
_cell_angle_gamma 149.646659
_cell_volume 645.207759
_symmetry_space_group_name_H-M "P -1"
_symmetry_group_IT_number 2
_symmetry_cell_setting 'triclinic'
loop_
_space_group_symop_operation_xyz
x,y,z
-x,-y,-z
loop_
_atom_site_type_symbol
_atom_site_label
_atom_site_fract_x
_atom_site_fract_y
_atom_site_fract_z
Si Si1 0.454031 0.109767 0.977267
Si Si2 0.529107 0.402388 0.758084
Si Si3 0.845642 0.899764 0.324862
Si Si4 0.694293 0.378138 0.308567
Si Si5 0.851918 0.734132 0.046957
Si Si6 0.330954 0.799738 0.224062
Si Si7 0.735389 0.852884 0.505171
O O1 0.625085 0.220444 0.874215
O O2 0.582254 0.400508 0.023219
O O3 0.500000 0.000000 0.000000
O O4 0.099332 0.815070 0.014110
O O5 0.405943 0.251290 0.685387
O O6 0.269780 0.277014 0.849916
O O7 0.595260 0.284030 0.756468
O O8 0.822822 0.779520 0.742551
O O9 0.788146 0.648659 0.305727
O O10 0.830758 0.992716 0.421967
O O11 0.427129 0.139873 0.402295
O O12 0.985069 0.543748 0.288291
O O13 0.557360 0.156426 0.238885
O O14 0.000000 0.000000 0.000000
O O15 0.500000 0.500000 0.500000
O O16 0.000000 0.000000 0.500000
#
# Coordination Sequence:
#
# PCOD8008208 Si02
#       7
#     2   2   2   2   2   2   2
#     4  12  28  46  68  99 134 171 227 283 325 389
#     4  12  26  43  67  98 137 174 223 271 330 398
#     4  11  24  43  71 101 128 174 228 273 317 402
#     4  11  24  43  71  97 132 176 217 276 333 390
#     4  12  26  48  69  93 133 186 221 263 337 397
#     4  12  26  44  65  99 141 172 216 276 344 384
#     4  10  20  42  68 100 133 168 220 271 329 388
#
# _framework density 21.698436999999998
#
# number of rings (size 3 to 8) (size 9 to 14) (size 15 to 20)
#    0.000    0.571    1.429    7.714    8.000    0.000 
#    0.000    4.286    0.000    0.000    0.000    0.000 
#    0.000    0.000    0.000    0.000    0.000    0.000 
#
# Total GULP energy -173650.388265 kJ/mol
# GULP energy per Si atom -12403.599162 kJ/mol
# Density = 2.164905 g / cm^3
# Si number density = 21.698437 Si / 1000 Ang^3
#
#
#
# Elastic Constant Matrix: (Units=GPa)
#
#
# Indices 1 2 3 4 5 6 
#
# 1 144.4526 32.2488 72.1933 -4.3254 6.4011 26.2948
# 2 32.2488 110.6347 27.8790 -3.6978 4.1062 20.0855
# 3 72.1933 27.8790 96.1083 -10.6212 3.0597 18.0016
# 4 -4.3254 -3.6978 -10.6212 34.4072 11.5417 2.7213
# 5 6.4011 4.1062 3.0597 11.5417 37.2387 -5.5228
# 6 26.2948 20.0855 18.0016 2.7213 -5.5228 40.0444
#
#
#
# Elastic Compliance Matrix: (Units=1/GPa)
#
#
# Indices 1 2 3 4 5 6 
#
# 1 0.011845 -0.000639 -0.007871 -0.000031 -0.001930 -0.004183
# 2 -0.000639 0.010572 -0.001463 0.001691 -0.002147 -0.004636
# 3 -0.007871 -0.001463 0.017910 0.005275 -0.002005 -0.002784
# 4 -0.000031 0.001691 0.005275 0.035744 -0.012789 -0.007392
# 5 -0.001930 -0.002147 -0.002005 -0.012789 0.032833 0.008643
# 6 -0.004183 -0.004636 -0.002784 -0.007392 0.008643 0.032990
#
#
# Mechanical properties :
#
#
# Convention : Reuss Voigt Hill
#
# Bulk Modulus (GPa) = 49.06537 68.42643 58.74590
# Shear Modulus (GPa) = 29.65027 36.92971 33.28999
#
# Velocity S-wave (km/s) = 3.70059 4.12995 3.92115
# Velocity P-wave (km/s) = 6.39692 7.37195 6.90168
#
# Compressibility (1/GPa) = 0.02038098
#
# Stress axis : x y z
#
# Youngs Moduli (GPa) = 84.42439 94.59274 55.83603
#
# Poissons Ratio (x) = 0.06048 0.43946
# Poissons Ratio (y) = 0.05398 0.08167
# Poissons Ratio (z) = 0.66447 0.13836
#
# Static dielectric constant tensor:
#      x y z
#    x 4.570940 1.709910 -0.989800 
#    y 1.709910 7.648870 -2.801700 
#    z -0.989800 -2.801700 6.730490 
# 
# 
# High freq. dielectric constant tensor:
#      x y z
#    x 1.850120 0.016850 0.002860 
#    y 0.016850 1.869320 -0.001690 
#    z 0.002860 -0.001690 1.863340 
# 
# From -- ./inp_files/217400.got.cif
#   From: 2010.06.25/outbox.cif.g09.slc.cpg/sg2_109_cif.got.tgz:217400.got - 2010.06.27 13:26:56.
