data_PCOD8008717
_publ_section_title
;
Structure prediction by ZEFSAII (Michael W. Deem and Ramdas Pophale) SiO2 
 PCOD8008717
Probable space group: P -1
;
_chemical_formula_sum "Si O2"
_cell_formula_units_Z 16
_cell_length_a 12.908571
_cell_length_b 19.757418
_cell_length_c 15.260599
_cell_angle_alpha 152.029792
_cell_angle_beta 25.559699
_cell_angle_gamma 137.510630
_cell_volume 752.938462
_symmetry_space_group_name_H-M "P -1"
_symmetry_group_IT_number 2
_symmetry_cell_setting 'triclinic'
loop_
_space_group_symop_operation_xyz
x,y,z
-x,-y,-z
loop_
_atom_site_type_symbol
_atom_site_label
_atom_site_fract_x
_atom_site_fract_y
_atom_site_fract_z
Si Si1 0.362855 0.221437 0.368249
Si Si2 0.640610 0.082131 0.679002
Si Si3 0.167006 0.526120 0.775348
Si Si4 0.410960 0.613468 0.839818
Si Si5 0.375922 0.358589 0.695081
Si Si6 0.878879 0.036190 0.726662
Si Si7 0.718035 0.127708 0.292579
Si Si8 0.742072 0.057307 0.382481
O O1 0.178580 0.366856 0.629360
O O2 0.401565 0.236758 0.459450
O O3 0.240560 0.090071 0.289604
O O4 0.646826 0.189659 0.075189
O O5 0.710826 0.137866 0.593596
O O6 0.894966 0.957137 0.373816
O O7 0.416330 0.005290 0.764540
O O8 0.558861 0.226033 0.971279
O O9 0.175707 0.637362 0.979288
O O10 0.374118 0.499796 0.512460
O O11 0.908985 0.598834 0.004011
O O12 0.412850 0.515639 0.813411
O O13 0.565199 0.283994 0.542875
O O14 0.000000 0.000000 0.500000
O O15 0.736068 0.164621 0.425034
O O16 0.993171 0.075447 0.978473
O O17 0.500000 0.000000 0.500000
#
# Coordination Sequence:
#
# PCOD8008717 Si02
#       8
#     2   2   2   2   2   2   2   2
#     4  10  21  34  51  81 118 160 202 229 267 335
#     4  11  21  36  60  87 116 150 190 238 289 335
#     4  10  21  37  53  76 121 166 195 225 269 329
#     4  10  22  36  55  83 119 161 196 224 272 336
#     4  11  21  36  57  82 114 153 194 233 275 330
#     4  11  21  32  52  85 122 153 191 241 281 322
#     4  10  22  39  63  90 109 139 190 241 293 349
#     4   9  21  42  65  85 111 142 181 239 300 350
#
# _framework density 21.250076
#
# number of rings (size 3 to 8) (size 9 to 14) (size 15 to 20)
#    0.000    1.750    0.000    5.250    0.000   11.000 
#    0.000    0.625    0.000    7.500    0.000    0.000 
#    0.000    0.000    0.000    0.000    0.000    0.000 
#
# Total GULP energy -198251.616700 kJ/mol
# GULP energy per Si atom -12390.726044 kJ/mol
# Density = 2.120171 g / cm^3
# Si number density = 21.250076 Si / 1000 Ang^3
#
#
#
# Elastic Constant Matrix: (Units=GPa)
#
#
# Indices 1 2 3 4 5 6 
#
# 1 100.7959 17.2070 46.2450 -6.6568 -14.7144 -13.9300
# 2 17.2070 55.2465 23.3648 -9.6556 -5.8584 0.8733
# 3 46.2450 23.3648 105.0544 -13.3191 -15.3893 0.1892
# 4 -6.6568 -9.6556 -13.3191 33.2819 2.3597 0.4433
# 5 -14.7144 -5.8584 -15.3893 2.3597 43.2437 0.3420
# 6 -13.9300 0.8733 0.1892 0.4433 0.3420 27.6315
#
#
#
# Elastic Compliance Matrix: (Units=1/GPa)
#
#
# Indices 1 2 3 4 5 6 
#
# 1 0.014102 -0.001973 -0.005434 -0.000203 0.002552 0.007181
# 2 -0.001973 0.020910 -0.003100 0.004395 0.000832 -0.001715
# 3 -0.005434 -0.003100 0.013356 0.003231 0.002330 -0.002814
# 4 -0.000203 0.004395 0.003231 0.032591 -0.000096 -0.000785
# 5 0.002552 0.000832 0.002330 -0.000096 0.024933 0.000937
# 6 0.007181 -0.001715 -0.002814 -0.000785 0.000937 0.039885
#
#
# Mechanical properties :
#
#
# Convention : Reuss Voigt Hill
#
# Bulk Modulus (GPa) = 36.55579 48.30338 42.42958
# Shear Modulus (GPa) = 28.42380 32.45007 30.43693
#
# Velocity S-wave (km/s) = 3.66127 3.91200 3.78871
# Velocity P-wave (km/s) = 5.92564 6.57155 6.25693
#
# Compressibility (1/GPa) = 0.02735545
#
# Stress axis : x y z
#
# Youngs Moduli (GPa) = 70.91007 47.82503 74.87024
#
# Poissons Ratio (x) = 0.09434 0.40685
# Poissons Ratio (y) = 0.13987 0.23209
# Poissons Ratio (z) = 0.38533 0.14825
#
# Static dielectric constant tensor:
#      x y z
#    x 4.224180 -0.113120 -0.105580 
#    y -0.113120 3.813230 -0.306380 
#    z -0.105580 -0.306380 4.065220 
# 
# 
# High freq. dielectric constant tensor:
#      x y z
#    x 1.816690 -0.016530 -0.008140 
#    y -0.016530 1.830000 -0.024730 
#    z -0.008140 -0.024730 1.841970 
# 
# From -- ./inp_files/523931.got.cif
#   From: 2010.06.25/outbox.cif.g09.slc.cpg/sg2_262_cif.got.tgz:523931.got - 2010.06.27 13:26:56.
