data_PCOD8008067
_publ_section_title
;
Structure prediction by ZEFSAII (Michael W. Deem and Ramdas Pophale) SiO2 
 PCOD8008067
Probable space group: P -1
;
_chemical_formula_sum "Si O2"
_cell_formula_units_Z 14
_cell_length_a 16.860959
_cell_length_b 9.074941
_cell_length_c 19.511077
_cell_angle_alpha 42.916871
_cell_angle_beta 159.833332
_cell_angle_gamma 140.425500
_cell_volume 655.179195
_symmetry_space_group_name_H-M "P -1"
_symmetry_group_IT_number 2
_symmetry_cell_setting 'triclinic'
loop_
_space_group_symop_operation_xyz
x,y,z
-x,-y,-z
loop_
_atom_site_type_symbol
_atom_site_label
_atom_site_fract_x
_atom_site_fract_y
_atom_site_fract_z
Si Si1 0.547917 0.219087 0.350862
Si Si2 0.283083 0.935685 0.003781
Si Si3 0.047328 0.655890 0.267527
Si Si4 0.874861 0.078308 0.973120
Si Si5 0.006578 0.783611 0.380561
Si Si6 0.789762 0.337755 0.287286
Si Si7 0.778522 0.522555 0.964449
O O1 0.756691 0.242421 0.456354
O O2 0.446915 0.433287 0.194664
O O3 0.663173 0.222002 0.519516
O O4 0.317298 0.984873 0.225484
O O5 0.520959 0.163207 0.111158
O O6 0.238955 0.849298 0.076129
O O7 0.319705 0.732450 0.058821
O O8 0.049764 0.990699 0.765532
O O9 0.927895 0.436303 0.295230
O O10 0.002140 0.555816 0.188077
O O11 0.926822 0.850010 0.115177
O O12 0.118182 0.286711 0.076746
O O13 0.060296 0.794471 0.501943
O O14 0.778628 0.550743 0.253442
#
# Coordination Sequence:
#
# PCOD8008067 Si02
#       7
#     2   2   2   2   2   2   2
#     4  10  20  42  65  88 120 161 213 249 297 361
#     4  12  23  42  63  95 128 161 199 258 314 360
#     4  10  22  42  66  95 119 161 212 254 304 366
#     4  11  22  42  66  89 122 169 213 245 296 373
#     4  10  21  38  66  96 116 159 214 249 300 374
#     4  10  21  38  68  92 121 160 207 256 301 370
#     4  11  27  40  60  94 133 161 200 255 313 361
#
# _framework density 21.368200999999999
#
# number of rings (size 3 to 8) (size 9 to 14) (size 15 to 20)
#    0.000    1.429    4.286    2.571    0.000    6.286 
#    0.000    4.286    0.000    0.000    0.000    0.000 
#    0.000    0.000    0.000    0.000    0.000    0.000 
#
# Total GULP energy -173499.272964 kJ/mol
# GULP energy per Si atom -12392.805212 kJ/mol
# Density = 2.131957 g / cm^3
# Si number density = 21.368201 Si / 1000 Ang^3
#
#
#
# Elastic Constant Matrix: (Units=GPa)
#
#
# Indices 1 2 3 4 5 6 
#
# 1 61.1516 37.8489 36.1435 -5.7289 -3.1705 -3.2824
# 2 37.8489 95.4513 51.1876 2.6836 12.7247 -3.2748
# 3 36.1435 51.1876 109.8038 8.0085 -6.7981 -9.0394
# 4 -5.7289 2.6836 8.0085 17.8111 -6.0741 4.0778
# 5 -3.1705 12.7247 -6.7981 -6.0741 31.1316 3.1754
# 6 -3.2824 -3.2748 -9.0394 4.0778 3.1754 33.8785
#
#
#
# Elastic Compliance Matrix: (Units=1/GPa)
#
#
# Indices 1 2 3 4 5 6 
#
# 1 0.027405 -0.009782 -0.005298 0.016344 0.009078 -0.002522
# 2 -0.009782 0.019334 -0.005841 -0.007793 -0.011838 0.001410
# 3 -0.005298 -0.005841 0.014566 -0.007006 0.003321 0.003340
# 4 0.016344 -0.007793 -0.007006 0.074974 0.019158 -0.011859
# 5 0.009078 -0.011838 0.003321 0.019158 0.042930 -0.005708
# 6 -0.002522 0.001410 0.003340 -0.011859 -0.005708 0.032263
#
#
# Mechanical properties :
#
#
# Convention : Reuss Voigt Hill
#
# Bulk Modulus (GPa) = 51.38413 57.41853 54.40133
# Shear Modulus (GPa) = 19.24535 25.97935 22.61235
#
# Velocity S-wave (km/s) = 3.00435 3.49061 3.25657
# Velocity P-wave (km/s) = 6.01116 6.57078 6.29719
#
# Compressibility (1/GPa) = 0.01946126
#
# Stress axis : x y z
#
# Youngs Moduli (GPa) = 36.48933 51.72352 68.65349
#
# Poissons Ratio (x) = 0.50595 0.36376
# Poissons Ratio (y) = 0.35693 0.40104
# Poissons Ratio (z) = 0.19334 0.30214
#
# Static dielectric constant tensor:
#      x y z
#    x 3.733270 -0.060970 -0.329910 
#    y -0.060970 3.636030 0.220320 
#    z -0.329910 0.220320 4.125870 
# 
# 
# High freq. dielectric constant tensor:
#      x y z
#    x 1.829770 0.005760 -0.022590 
#    y 0.005760 1.817290 0.015540 
#    z -0.022590 0.015540 1.839060 
# 
# From -- ./inp_files/399925.got.cif
#   From: 2010.06.25/outbox.cif.g09.slc.cpg/sg2_200_cif.got.tgz:399925.got - 2010.06.27 13:26:56.
