data_PCOD8008425
_publ_section_title
;
Structure prediction by ZEFSAII (Michael W. Deem and Ramdas Pophale) SiO2 
 PCOD8008425
Probable space group: P -1
;
_chemical_formula_sum "Si O2"
_cell_formula_units_Z 16
_cell_length_a 9.640554
_cell_length_b 12.252862
_cell_length_c 15.829377
_cell_angle_alpha 36.719030
_cell_angle_beta 45.684044
_cell_angle_gamma 70.145670
_cell_volume 685.606200
_symmetry_space_group_name_H-M "P -1"
_symmetry_group_IT_number 2
_symmetry_cell_setting 'triclinic'
loop_
_space_group_symop_operation_xyz
x,y,z
-x,-y,-z
loop_
_atom_site_type_symbol
_atom_site_label
_atom_site_fract_x
_atom_site_fract_y
_atom_site_fract_z
Si Si1 0.740209 0.838890 0.729212
Si Si2 0.139087 0.043114 0.999010
Si Si3 0.961639 0.752095 0.821690
Si Si4 0.326323 0.504177 0.634125
Si Si5 0.710354 0.781172 0.589958
Si Si6 0.361307 0.863862 0.304256
Si Si7 0.985533 0.291483 0.596970
Si Si8 0.328428 0.657479 0.705204
O O1 0.751197 0.675437 0.892651
O O2 0.630025 0.725463 0.756822
O O3 0.625234 0.956609 0.749722
O O4 0.000000 0.000000 0.500000
O O5 0.156663 0.262764 0.887024
O O6 0.382242 0.071240 0.860807
O O7 0.010789 0.855280 0.237993
O O8 0.000000 0.000000 0.000000
O O9 0.189782 0.774113 0.670546
O O10 0.865288 0.585099 0.041278
O O11 0.054721 0.992490 0.663633
O O12 0.500000 0.500000 0.500000
O O13 0.218655 0.627790 0.555208
O O14 0.453172 0.647050 0.574357
O O15 0.505251 0.777042 0.630270
O O16 0.788135 0.627933 0.608168
O O17 0.240958 0.845909 0.277406
O O18 0.000000 0.500000 0.500000
#
# Coordination Sequence:
#
# PCOD8008425 Si02
#       8
#     2   2   2   2   2   2   2   2
#     4  10  20  43  67  95 132 175 225 276 347 402
#     4  11  26  46  66 101 136 180 231 283 342 408
#     4  10  22  44  64  96 135 172 225 280 340 404
#     4  10  23  41  67  93 133 173 224 277 337 399
#     4  11  24  42  70  95 134 177 227 282 336 413
#     4  11  23  44  73  95 137 184 223 286 344 405
#     4  12  26  43  69 102 137 179 232 277 345 417
#     4  11  24  40  67  98 131 178 225 282 338 403
#
# _framework density 23.337012000000001
#
# number of rings (size 3 to 8) (size 9 to 14) (size 15 to 20)
#    0.000    1.250    2.500    3.750    7.000    1.500 
#    4.500    0.000    0.000    0.000    0.000    0.000 
#    0.000    0.000    0.000    0.000    0.000    0.000 
#
# Total GULP energy -198235.196149 kJ/mol
# GULP energy per Si atom -12389.699759 kJ/mol
# Density = 2.328390 g / cm^3
# Si number density = 23.337012 Si / 1000 Ang^3
#
#
#
# Elastic Constant Matrix: (Units=GPa)
#
#
# Indices 1 2 3 4 5 6 
#
# 1 165.5847 72.0809 16.6257 4.7494 12.4242 7.7706
# 2 72.0809 159.0753 22.2380 15.5607 14.5878 6.3132
# 3 16.6257 22.2380 42.2729 -3.8537 16.7378 -0.9643
# 4 4.7494 15.5607 -3.8537 29.4391 -6.8983 3.8228
# 5 12.4242 14.5878 16.7378 -6.8983 36.4062 0.6737
# 6 7.7706 6.3132 -0.9643 3.8228 0.6737 40.5893
#
#
#
# Elastic Compliance Matrix: (Units=1/GPa)
#
#
# Indices 1 2 3 4 5 6 
#
# 1 0.007648 -0.003246 -0.000987 0.000299 -0.000781 -0.000998
# 2 -0.003246 0.008868 -0.003069 -0.004985 -0.001973 -0.000329
# 3 -0.000987 -0.003069 0.030715 0.002806 -0.012047 0.001332
# 4 0.000299 -0.004985 0.002806 0.039214 0.008092 -0.003043
# 5 -0.000781 -0.001973 -0.012047 0.008092 0.035619 -0.001183
# 6 -0.000998 -0.000329 0.001332 -0.003043 -0.001183 0.025217
#
#
# Mechanical properties :
#
#
# Convention : Reuss Voigt Hill
#
# Bulk Modulus (GPa) = 30.64935 65.42469 48.03702
# Shear Modulus (GPa) = 28.94204 38.35283 33.64743
#
# Velocity S-wave (km/s) = 3.52544 4.05833 3.80123
# Velocity P-wave (km/s) = 5.45284 7.07500 6.31621
#
# Compressibility (1/GPa) = 0.03262712
#
# Stress axis : x y z
#
# Youngs Moduli (GPa) = 130.75381 112.76952 32.55750
#
# Poissons Ratio (x) = 0.36600 0.03213
# Poissons Ratio (y) = 0.42437 0.09992
# Poissons Ratio (z) = 0.12905 0.34611
#
# Static dielectric constant tensor:
#      x y z
#    x 5.007500 -0.102770 0.603990 
#    y -0.102770 4.738620 -0.288510 
#    z 0.603990 -0.288510 4.408320 
# 
# 
# High freq. dielectric constant tensor:
#      x y z
#    x 1.930800 -0.001560 0.023660 
#    y -0.001560 1.938400 0.000250 
#    z 0.023660 0.000250 1.902540 
# 
# From -- ./inp_files/499851.got.cif
#   From: 2010.06.25/outbox.cif.g09.slc.cpg/sg2_250_cif.got.tgz:499851.got - 2010.06.27 13:26:56.
