data_PCOD8008707
_publ_section_title
;
Structure prediction by ZEFSAII (Michael W. Deem and Ramdas Pophale) SiO2 
 PCOD8008707
Probable space group: P -1
;
_chemical_formula_sum "Si O2"
_cell_formula_units_Z 14
_cell_length_a 9.251802
_cell_length_b 11.087841
_cell_length_c 8.988411
_cell_angle_alpha 77.739579
_cell_angle_beta 65.651747
_cell_angle_gamma 56.532430
_cell_volume 700.625672
_symmetry_space_group_name_H-M "P -1"
_symmetry_group_IT_number 2
_symmetry_cell_setting 'triclinic'
loop_
_space_group_symop_operation_xyz
x,y,z
-x,-y,-z
loop_
_atom_site_type_symbol
_atom_site_label
_atom_site_fract_x
_atom_site_fract_y
_atom_site_fract_z
Si Si1 0.424443 0.785304 0.136686
Si Si2 0.483988 0.490471 0.684142
Si Si3 0.397312 0.423985 0.132209
Si Si4 0.103381 0.050914 0.052449
Si Si5 0.062950 0.647548 0.841980
Si Si6 0.757761 0.765364 0.161968
Si Si7 0.008346 0.477725 0.675834
O O1 0.383673 0.673895 0.270457
O O2 0.228907 0.929344 0.151075
O O3 0.551516 0.818408 0.180206
O O4 0.523201 0.727215 0.948387
O O5 0.500000 0.500000 0.500000
O O6 0.546103 0.593383 0.711245
O O7 0.278665 0.531719 0.815310
O O8 0.174955 0.519358 0.188504
O O9 0.500000 0.500000 0.000000
O O10 0.964958 0.191889 0.175005
O O11 0.225058 0.092728 0.883383
O O12 0.000000 0.000000 0.000000
O O13 0.020977 0.610107 0.706061
O O14 0.918712 0.640388 0.019187
O O15 0.809977 0.680137 0.319573
O O16 0.000000 0.500000 0.500000
#
# Coordination Sequence:
#
# PCOD8008707 Si02
#       7
#     2   2   2   2   2   2   2
#     4  11  20  39  61  87 116 160 203 243 301 359
#     4  11  22  36  59  90 124 154 198 255 306 352
#     4  10  21  33  59  87 118 154 206 247 294 353
#     4  10  23  37  63  91 118 154 207 249 296 357
#     4  10  21  40  62  87 119 159 205 246 301 354
#     4  10  21  37  64  82 121 152 207 244 298 353
#     4  12  22  37  62  95 123 157 200 259 308 359
#
# _framework density 19.982139
#
# number of rings (size 3 to 8) (size 9 to 14) (size 15 to 20)
#    0.857    0.571    2.857    4.286    4.000    0.000 
#    0.000    0.714    3.143    1.714    0.000    0.000 
#    0.000    0.000    0.000    0.000    0.000    0.000 
#
# Total GULP energy -173459.331265 kJ/mol
# GULP energy per Si atom -12389.952233 kJ/mol
# Density = 1.993666 g / cm^3
# Si number density = 19.982139 Si / 1000 Ang^3
#
#
#
# Elastic Constant Matrix: (Units=GPa)
#
#
# Indices 1 2 3 4 5 6 
#
# 1 135.6686 33.9070 21.3083 -7.1078 22.9750 4.6018
# 2 33.9070 88.7998 30.4619 -20.0580 14.7101 -4.2602
# 3 21.3083 30.4619 58.7693 -17.9063 24.6338 1.9851
# 4 -7.1078 -20.0580 -17.9063 20.6915 -3.8385 5.6215
# 5 22.9750 14.7101 24.6338 -3.8385 37.8668 2.6238
# 6 4.6018 -4.2602 1.9851 5.6215 2.6238 37.6950
#
#
#
# Elastic Compliance Matrix: (Units=1/GPa)
#
#
# Indices 1 2 3 4 5 6 
#
# 1 0.008799 -0.002741 -0.000011 -0.000133 -0.004206 -0.001071
# 2 -0.002741 0.016336 -0.003451 0.011459 -0.001328 0.000746
# 3 -0.000011 -0.003451 0.033644 0.023667 -0.017832 -0.004449
# 4 -0.000133 0.011459 0.023667 0.080929 -0.010784 -0.011254
# 5 -0.004206 -0.001328 -0.017832 -0.010784 0.039975 0.000128
# 6 -0.001071 0.000746 -0.004449 -0.011254 0.000128 0.028647
#
#
# Mechanical properties :
#
#
# Convention : Reuss Voigt Hill
#
# Bulk Modulus (GPa) = 21.56370 50.51022 36.03696
# Shear Modulus (GPa) = 21.16902 32.42136 26.79519
#
# Velocity S-wave (km/s) = 3.25837 4.03242 3.66588
# Velocity P-wave (km/s) = 4.99709 6.85661 5.99933
#
# Compressibility (1/GPa) = 0.04637424
#
# Stress axis : x y z
#
# Youngs Moduli (GPa) = 113.64579 61.21588 29.72272
#
# Poissons Ratio (x) = 0.16778 0.00033
# Poissons Ratio (y) = 0.31147 0.10256
# Poissons Ratio (z) = 0.00127 0.21123
#
# Static dielectric constant tensor:
#      x y z
#    x 3.997540 0.098210 0.279070 
#    y 0.098210 3.447820 0.102710 
#    z 0.279070 0.102710 3.430830 
# 
# 
# High freq. dielectric constant tensor:
#      x y z
#    x 1.806170 0.003480 0.017200 
#    y 0.003480 1.755690 -0.004020 
#    z 0.017200 -0.004020 1.746260 
# 
# From -- ./inp_files/169300.got.cif
#   From: 2010.06.25/outbox.cif.g09.slc.cpg/sg2_85_cif.got.tgz:169300.got - 2010.06.27 13:26:56.
