data_PCOD8008725
_publ_section_title
;
Structure prediction by ZEFSAII (Michael W. Deem and Ramdas Pophale) SiO2 
 PCOD8008725
Probable space group: P -1
;
_chemical_formula_sum "Si O2"
_cell_formula_units_Z 14
_cell_length_a 15.074866
_cell_length_b 15.725050
_cell_length_c 10.103726
_cell_angle_alpha 66.698605
_cell_angle_beta 59.045819
_cell_angle_gamma 18.657312
_cell_volume 619.250986
_symmetry_space_group_name_H-M "P -1"
_symmetry_group_IT_number 2
_symmetry_cell_setting 'triclinic'
loop_
_space_group_symop_operation_xyz
x,y,z
-x,-y,-z
loop_
_atom_site_type_symbol
_atom_site_label
_atom_site_fract_x
_atom_site_fract_y
_atom_site_fract_z
Si Si1 0.375242 0.281052 0.092257
Si Si2 0.131958 0.819739 0.118538
Si Si3 0.122607 0.794457 0.503803
Si Si4 0.051430 0.505216 0.817491
Si Si5 0.034276 0.197703 0.895578
Si Si6 0.686792 0.000822 0.743585
Si Si7 0.223712 0.734304 0.748176
O O1 0.124947 0.408014 0.210438
O O2 0.199900 0.521047 0.123040
O O3 0.638118 0.040690 0.151048
O O4 0.522141 0.172114 0.901287
O O5 0.952558 0.871622 0.210223
O O6 0.500000 0.500000 0.000000
O O7 0.013619 0.973087 0.250321
O O8 0.000000 0.000000 0.000000
O O9 0.241529 0.664427 0.639314
O O10 0.413150 0.540425 0.331747
O O11 0.863851 0.936593 0.577403
O O12 0.000000 0.000000 0.500000
O O13 0.911419 0.726242 0.780006
O O14 0.430777 0.188814 0.711432
O O15 0.000000 0.500000 0.000000
O O16 0.879682 0.254892 0.076962
#
# Coordination Sequence:
#
# PCOD8008725 Si02
#       7
#     2   2   2   2   2   2   2
#     4  11  19  33  55  82 111 140 188 231 288 342
#     4  10  22  37  56  82 114 152 192 236 287 332
#     4  11  24  36  58  82 119 162 194 225 277 348
#     4  10  21  34  53  79 112 148 183 236 291 341
#     4  11  20  34  58  83 111 150 182 236 286 333
#     4  11  21  35  53  79 117 150 185 227 289 339
#     4  10  23  37  53  83 119 152 193 231 276 347
#
# _framework density 22.607958
#
# number of rings (size 3 to 8) (size 9 to 14) (size 15 to 20)
#    0.000    1.429    1.429    6.857    8.000    0.000 
#    0.000    0.000    0.000    0.000    0.000    6.000 
#    0.000    0.000    0.000    0.000    0.000    0.000 
#
# Total GULP energy -173443.475552 kJ/mol
# GULP energy per Si atom -12388.819682 kJ/mol
# Density = 2.255650 g / cm^3
# Si number density = 22.607958 Si / 1000 Ang^3
#
#
#
# Elastic Constant Matrix: (Units=GPa)
#
#
# Indices 1 2 3 4 5 6 
#
# 1 110.8616 18.9061 29.7795 11.5878 -21.5558 2.9014
# 2 18.9061 126.9242 19.7905 22.6183 -15.4901 11.9194
# 3 29.7795 19.7905 52.5471 20.3883 -16.1950 4.6106
# 4 11.5878 22.6183 20.3883 25.5308 2.0841 -8.9672
# 5 -21.5558 -15.4901 -16.1950 2.0841 42.8922 6.5567
# 6 2.9014 11.9194 4.6106 -8.9672 6.5567 50.8846
#
#
#
# Elastic Compliance Matrix: (Units=1/GPa)
#
#
# Indices 1 2 3 4 5 6 
#
# 1 0.011267 0.000237 -0.003465 -0.003526 0.004860 -0.001632
# 2 0.000237 0.012222 0.006419 -0.019654 0.009150 -0.008101
# 3 -0.003465 0.006419 0.046050 -0.048739 0.022934 -0.017023
# 4 -0.003526 -0.019654 -0.048739 0.112088 -0.037894 0.033857
# 5 0.004860 0.009150 0.022934 -0.037894 0.042100 -0.016601
# 6 -0.001632 -0.008101 -0.017023 0.033857 -0.016601 0.031291
#
#
# Mechanical properties :
#
#
# Convention : Reuss Voigt Hill
#
# Bulk Modulus (GPa) = 13.17174 47.47611 30.32392
# Shear Modulus (GPa) = 18.25201 38.65196 28.45198
#
# Velocity S-wave (km/s) = 2.84443 4.13929 3.55137
# Velocity P-wave (km/s) = 4.07756 6.62498 5.50076
#
# Compressibility (1/GPa) = 0.07592013
#
# Stress axis : x y z
#
# Youngs Moduli (GPa) = 88.75496 81.81765 21.71571
#
# Poissons Ratio (x) = -0.01937 0.07525
# Poissons Ratio (y) = -0.02101 -0.13939
# Poissons Ratio (z) = 0.30755 -0.52519
#
# Static dielectric constant tensor:
#      x y z
#    x 9.088410 -0.534090 4.210060 
#    y -0.534090 4.306070 0.003950 
#    z 4.210060 0.003950 8.909560 
# 
# 
# High freq. dielectric constant tensor:
#      x y z
#    x 1.905230 -0.007000 -0.010470 
#    y -0.007000 1.915700 0.007770 
#    z -0.010470 0.007770 1.840560 
# 
# From -- ./inp_files/127142.got.cif
#   From: 2010.06.25/outbox.cif.g09.slc.cpg/sg2_64_cif.got.tgz:127142.got - 2010.06.27 13:26:56.
