data_PCOD8008963
_publ_section_title
;
Structure prediction by ZEFSAII (Michael W. Deem and Ramdas Pophale) SiO2 
 PCOD8008963
Probable space group: P -1
;
_chemical_formula_sum "Si O2"
_cell_formula_units_Z 16
_cell_length_a 8.940482
_cell_length_b 16.756074
_cell_length_c 13.301462
_cell_angle_alpha 31.130641
_cell_angle_beta 113.048089
_cell_angle_gamma 94.285290
_cell_volume 793.327837
_symmetry_space_group_name_H-M "P -1"
_symmetry_group_IT_number 2
_symmetry_cell_setting 'triclinic'
loop_
_space_group_symop_operation_xyz
x,y,z
-x,-y,-z
loop_
_atom_site_type_symbol
_atom_site_label
_atom_site_fract_x
_atom_site_fract_y
_atom_site_fract_z
Si Si1 0.820478 0.226344 0.735647
Si Si2 0.348365 0.003516 0.822984
Si Si3 0.064787 0.645979 0.193223
Si Si4 0.454582 0.911007 0.724005
Si Si5 0.058624 0.856715 0.358926
Si Si6 0.434938 0.267950 0.660657
Si Si7 0.789647 0.514755 0.281316
Si Si8 0.758461 0.980947 0.645121
O O1 0.939638 0.205078 0.891811
O O2 0.948033 0.089984 0.821043
O O3 0.634080 0.217884 0.715625
O O4 0.745854 0.435628 0.454450
O O5 0.362715 0.984104 0.729145
O O6 0.339572 0.187433 0.652239
O O7 0.527547 0.825313 0.118433
O O8 0.156021 0.013501 0.794896
O O9 0.284912 0.487934 0.392435
O O10 0.951490 0.558790 0.303864
O O11 0.945997 0.770750 0.930830
O O12 0.281174 0.969907 0.536016
O O13 0.570950 0.003487 0.624090
O O14 0.592993 0.690644 0.998635
O O15 0.127928 0.642362 0.614305
O O16 0.209455 0.874601 0.445440
#
# Coordination Sequence:
#
# PCOD8008963 Si02
#       8
#     2   2   2   2   2   2   2   2
#     4  10  21  35  61  88 121 158 194 238 295 360
#     4  11  23  38  63  89 125 154 196 249 300 349
#     4  11  20  38  60  90 124 156 194 247 296 358
#     4  10  22  43  64  87 116 161 201 248 291 355
#     4  10  22  40  58  94 117 158 195 245 299 351
#     4  11  22  37  59  94 125 153 196 245 301 352
#     4   9  21  38  62  86 122 154 196 239 304 346
#     4  10  23  40  65  86 118 158 207 241 296 348
#
# _framework density 20.168206999999999
#
# number of rings (size 3 to 8) (size 9 to 14) (size 15 to 20)
#    0.750    1.000    1.250    3.000    0.000    9.000 
#    0.000    0.625    0.000    0.000    0.000    0.000 
#    0.000    0.000    0.000    0.000    0.000    0.000 
#
# Total GULP energy -198410.067346 kJ/mol
# GULP energy per Si atom -12400.629209 kJ/mol
# Density = 2.012230 g / cm^3
# Si number density = 20.168207 Si / 1000 Ang^3
#
#
#
# Elastic Constant Matrix: (Units=GPa)
#
#
# Indices 1 2 3 4 5 6 
#
# 1 92.1826 52.4889 22.2386 15.5366 0.9782 -0.9006
# 2 52.4889 146.4365 53.2469 17.3237 11.1007 -3.4150
# 3 22.2386 53.2469 69.3930 20.7423 13.5412 -13.1326
# 4 15.5366 17.3237 20.7423 34.5832 -0.3085 -1.3856
# 5 0.9782 11.1007 13.5412 -0.3085 26.0039 -1.6969
# 6 -0.9006 -3.4150 -13.1326 -1.3856 -1.6969 38.1431
#
#
#
# Elastic Compliance Matrix: (Units=1/GPa)
#
#
# Indices 1 2 3 4 5 6 
#
# 1 0.014198 -0.004709 -0.000069 -0.003973 0.001452 -0.000190
# 2 -0.004709 0.011151 -0.007502 0.000954 -0.000776 -0.001696
# 3 -0.000069 -0.007502 0.027511 -0.012492 -0.010756 0.007866
# 4 -0.003973 0.000954 -0.012492 0.037667 0.006521 -0.002651
# 5 0.001452 -0.000776 -0.010756 0.006521 0.044311 -0.001530
# 6 -0.000190 -0.001696 0.007866 -0.002651 -0.001530 0.028605
#
#
# Mechanical properties :
#
#
# Convention : Reuss Voigt Hill
#
# Bulk Modulus (GPa) = 35.33445 62.66233 48.99839
# Shear Modulus (GPa) = 25.32471 31.74856 28.53663
#
# Velocity S-wave (km/s) = 3.54739 3.97191 3.76564
# Velocity P-wave (km/s) = 5.85974 7.22302 6.57680
#
# Compressibility (1/GPa) = 0.02830099
#
# Stress axis : x y z
#
# Youngs Moduli (GPa) = 70.43175 89.67817 36.34915
#
# Poissons Ratio (x) = 0.42227 0.00250
# Poissons Ratio (y) = 0.33164 0.27270
# Poissons Ratio (z) = 0.00484 0.67278
#
# Static dielectric constant tensor:
#      x y z
#    x 3.548340 0.151980 -0.110930 
#    y 0.151980 3.586740 -0.040850 
#    z -0.110930 -0.040850 3.705300 
# 
# 
# High freq. dielectric constant tensor:
#      x y z
#    x 1.785450 0.014910 -0.006870 
#    y 0.014910 1.783550 -0.012860 
#    z -0.006870 -0.012860 1.791050 
# 
# From -- ./inp_files/398424.got.cif
#   From: 2010.06.25/outbox.cif.g09.slc.cpg/sg2_200_cif.got.tgz:398424.got - 2010.06.27 13:26:56.
