data_PCOD8008860
_publ_section_title
;
Structure prediction by ZEFSAII (Michael W. Deem and Ramdas Pophale) SiO2 
 PCOD8008860
Probable space group: P -1
;
_chemical_formula_sum "Si O2"
_cell_formula_units_Z 16
_cell_length_a 9.685659
_cell_length_b 10.971664
_cell_length_c 8.742075
_cell_angle_alpha 49.959836
_cell_angle_beta 77.086940
_cell_angle_gamma 67.848746
_cell_volume 658.503207
_symmetry_space_group_name_H-M "P -1"
_symmetry_group_IT_number 2
_symmetry_cell_setting 'triclinic'
loop_
_space_group_symop_operation_xyz
x,y,z
-x,-y,-z
loop_
_atom_site_type_symbol
_atom_site_label
_atom_site_fract_x
_atom_site_fract_y
_atom_site_fract_z
Si Si1 0.466179 0.971181 0.789382
Si Si2 0.855735 0.274903 0.349064
Si Si3 0.590676 0.777147 0.648764
Si Si4 0.188453 0.558205 0.078270
Si Si5 0.961102 0.077163 0.111625
Si Si6 0.922746 0.514612 0.343488
Si Si7 0.260395 0.122255 0.978542
Si Si8 0.833059 0.951180 0.526440
O O1 0.458448 0.839741 0.760134
O O2 0.616655 0.898147 0.906407
O O3 0.460723 0.148315 0.566359
O O4 0.325691 0.001423 0.913708
O O5 0.855473 0.361448 0.445691
O O6 0.020077 0.169573 0.327087
O O7 0.768970 0.135003 0.478011
O O8 0.787834 0.423459 0.123622
O O9 0.660140 0.576508 0.785355
O O10 0.708051 0.862307 0.622162
O O11 0.049008 0.491114 0.200811
O O12 0.156316 0.736154 0.027321
O O13 0.123485 0.081281 0.127954
O O14 0.892484 0.966544 0.326215
O O15 0.000000 0.000000 0.000000
O O16 0.000000 0.500000 0.500000
O O17 0.791093 0.688298 0.225580
#
# Coordination Sequence:
#
# PCOD8008860 Si02
#       8
#     2   2   2   2   2   2   2   2
#     4  10  23  38  60  85 118 172 206 253 279 355
#     4  10  21  35  55  93 124 154 185 246 335 362
#     4  11  21  39  65  89 118 154 221 252 288 362
#     4  10  21  36  60  92 119 159 200 259 314 355
#     4  10  22  38  63  96 127 156 190 263 332 370
#     4  11  21  33  61  92 124 154 198 265 308 356
#     4  10  22  40  59  87 122 163 209 236 310 372
#     4  10  22  35  61  95 125 156 192 254 329 361
#
# _framework density 24.297528
#
# number of rings (size 3 to 8) (size 9 to 14) (size 15 to 20)
#    0.000    1.750    1.250    2.625   10.500    0.000 
#    0.000    0.000    0.000   33.000    0.000    0.000 
#    0.000    0.000    0.000    0.000    0.000    0.000 
#
# Total GULP energy -198272.414938 kJ/mol
# GULP energy per Si atom -12392.025934 kJ/mol
# Density = 2.424223 g / cm^3
# Si number density = 24.297528 Si / 1000 Ang^3
#
#
#
# Elastic Constant Matrix: (Units=GPa)
#
#
# Indices 1 2 3 4 5 6 
#
# 1 23.4086 15.1376 12.3935 -4.6071 3.9112 -0.9945
# 2 15.1376 132.3316 44.8973 2.1942 4.9263 -9.9228
# 3 12.3935 44.8973 124.2318 -11.8190 28.7480 -13.5187
# 4 -4.6071 2.1942 -11.8190 42.6025 -11.1829 6.3663
# 5 3.9112 4.9263 28.7480 -11.1829 38.9975 -3.4151
# 6 -0.9945 -9.9228 -13.5187 6.3663 -3.4151 39.5881
#
#
#
# Elastic Compliance Matrix: (Units=1/GPa)
#
#
# Indices 1 2 3 4 5 6 
#
# 1 0.048228 -0.004819 -0.002542 0.004713 -0.001154 -0.001722
# 2 -0.004819 0.009280 -0.003171 -0.001771 0.001274 0.001517
# 3 -0.002542 -0.003171 0.011482 0.000793 -0.007380 0.002298
# 4 0.004713 -0.001771 0.000793 0.026550 0.006450 -0.003768
# 5 -0.001154 0.001274 -0.007380 0.006450 0.032850 -0.000433
# 6 -0.001722 0.001517 0.002298 -0.003768 -0.000433 0.026950
#
#
# Mechanical properties :
#
#
# Convention : Reuss Voigt Hill
#
# Bulk Modulus (GPa) = 20.86505 47.20321 34.03413
# Shear Modulus (GPa) = 25.99032 38.07387 32.03210
#
# Velocity S-wave (km/s) = 3.27413 3.96281 3.63482
# Velocity P-wave (km/s) = 4.78531 6.35672 5.62614
#
# Compressibility (1/GPa) = 0.04792703
#
# Stress axis : x y z
#
# Youngs Moduli (GPa) = 20.73467 107.76359 87.08918
#
# Poissons Ratio (x) = 0.51930 0.22136
# Poissons Ratio (y) = 0.09992 0.27617
# Poissons Ratio (z) = 0.05270 0.34173
#
# Static dielectric constant tensor:
#      x y z
#    x 4.450170 -0.259480 0.081090 
#    y -0.259480 4.502080 -0.048870 
#    z 0.081090 -0.048870 4.540940 
# 
# 
# High freq. dielectric constant tensor:
#      x y z
#    x 1.934350 -0.007990 0.019550 
#    y -0.007990 1.967840 0.002170 
#    z 0.019550 0.002170 1.973460 
# 
# From -- ./inp_files/261587.got.cif
#   From: 2010.06.25/outbox.cif.g09.slc.cpg/sg2_131_cif.got.tgz:261587.got - 2010.06.27 13:26:56.
