data_PCOD8008268
_publ_section_title
;
Structure prediction by ZEFSAII (Michael W. Deem and Ramdas Pophale) SiO2 
 PCOD8008268
Probable space group: P -1
;
_chemical_formula_sum "Si O2"
_cell_formula_units_Z 14
_cell_length_a 8.579267
_cell_length_b 7.398199
_cell_length_c 17.027854
_cell_angle_alpha 139.006169
_cell_angle_beta 79.195786
_cell_angle_gamma 100.030752
_cell_volume 695.501382
_symmetry_space_group_name_H-M "P -1"
_symmetry_group_IT_number 2
_symmetry_cell_setting 'triclinic'
loop_
_space_group_symop_operation_xyz
x,y,z
-x,-y,-z
loop_
_atom_site_type_symbol
_atom_site_label
_atom_site_fract_x
_atom_site_fract_y
_atom_site_fract_z
Si Si1 0.081480 0.866165 0.331548
Si Si2 0.566185 0.721429 0.371049
Si Si3 0.693455 0.606792 0.165461
Si Si4 0.641161 0.524204 0.812588
Si Si5 0.059172 0.996930 0.776859
Si Si6 0.142834 0.392428 0.602207
Si Si7 0.864534 0.052460 0.967637
O O1 0.245084 0.717910 0.256457
O O2 0.967645 0.673456 0.333859
O O3 0.114709 0.165284 0.463668
O O4 0.008249 0.898553 0.263994
O O5 0.682332 0.783850 0.305762
O O6 0.420707 0.515591 0.285861
O O7 0.670923 0.586072 0.384410
O O8 0.500000 0.000000 0.500000
O O9 0.512982 0.507651 0.124992
O O10 0.779875 0.809086 0.159311
O O11 0.796242 0.345085 0.087694
O O12 0.722552 0.823487 0.914800
O O13 0.098825 0.680213 0.663894
O O14 0.932955 0.048466 0.872637
O O15 0.000000 0.000000 0.000000
#
# Coordination Sequence:
#
# PCOD8008268 Si02
#       7
#     2   2   2   2   2   2   2
#     4  11  21  41  66 100 136 176 221 279 329 405
#     4  10  20  42  69  96 137 178 212 271 342 400
#     4  10  23  42  63  97 137 170 223 279 326 393
#     4  10  22  42  69  97 135 174 224 273 345 394
#     4  12  24  42  67 103 130 177 234 273 332 399
#     4  11  21  40  69  95 141 179 215 272 342 398
#     4  12  24  45  70  96 131 184 231 276 335 400
#
# _framework density 20.129363999999999
#
# number of rings (size 3 to 8) (size 9 to 14) (size 15 to 20)
#    0.857    0.286    4.286    3.000    0.000    0.000 
#    5.143    2.857    0.000    0.000    0.000    0.000 
#    0.000    0.000    0.000    0.000    0.000    0.000 
#
# Total GULP energy -173531.435287 kJ/mol
# GULP energy per Si atom -12395.102521 kJ/mol
# Density = 2.008355 g / cm^3
# Si number density = 20.129364 Si / 1000 Ang^3
#
#
#
# Elastic Constant Matrix: (Units=GPa)
#
#
# Indices 1 2 3 4 5 6 
#
# 1 113.9905 54.4843 33.8141 23.5468 -1.1125 -1.1902
# 2 54.4843 103.2504 39.7998 17.8644 -2.3327 6.3672
# 3 33.8141 39.7998 81.3483 26.9125 -9.9225 -3.5309
# 4 23.5468 17.8644 26.9125 29.6652 -5.2909 7.4434
# 5 -1.1125 -2.3327 -9.9225 -5.2909 46.7464 8.1225
# 6 -1.1902 6.3672 -3.5309 7.4434 8.1225 27.3357
#
#
#
# Elastic Compliance Matrix: (Units=1/GPa)
#
#
# Indices 1 2 3 4 5 6 
#
# 1 0.013424 -0.006008 0.000290 -0.008865 -0.001785 0.004966
# 2 -0.006008 0.015019 -0.005825 0.002455 0.000578 -0.005353
# 3 0.000290 -0.005825 0.021597 -0.018456 0.000649 0.008992
# 4 -0.008865 0.002455 -0.018456 0.062929 0.007038 -0.022568
# 5 -0.001785 0.000578 0.000649 0.007038 0.023902 -0.009147
# 6 0.004966 -0.005353 0.008992 -0.022568 -0.009147 0.048070
#
#
# Mechanical properties :
#
#
# Convention : Reuss Voigt Hill
#
# Bulk Modulus (GPa) = 37.09913 61.64283 49.37098
# Shear Modulus (GPa) = 23.04018 32.11554 27.57786
#
# Velocity S-wave (km/s) = 3.38687 3.99865 3.70541
# Velocity P-wave (km/s) = 5.81076 7.21171 6.54880
#
# Compressibility (1/GPa) = 0.02695481
#
# Stress axis : x y z
#
# Youngs Moduli (GPa) = 74.49358 66.58052 46.30202
#
# Poissons Ratio (x) = 0.40004 -0.01343
# Poissons Ratio (y) = 0.44758 0.26970
# Poissons Ratio (z) = -0.02161 0.38781
#
# Static dielectric constant tensor:
#      x y z
#    x 4.077590 0.107200 -0.049100 
#    y 0.107200 3.473300 0.045230 
#    z -0.049100 0.045230 3.709670 
# 
# 
# High freq. dielectric constant tensor:
#      x y z
#    x 1.804720 -0.000990 -0.005580 
#    y -0.000990 1.758930 0.009160 
#    z -0.005580 0.009160 1.796630 
# 
# From -- ./inp_files/551865.got.cif
#   From: 2010.06.25/outbox.cif.g09.slc.cpg/sg2_276_cif.got.tgz:551865.got - 2010.06.27 13:26:56.
