data_PCOD8008747
_publ_section_title
;
Structure prediction by ZEFSAII (Michael W. Deem and Ramdas Pophale) SiO2 
 PCOD8008747
Probable space group: P -1
;
_chemical_formula_sum "Si O2"
_cell_formula_units_Z 16
_cell_length_a 5.305180
_cell_length_b 15.176567
_cell_length_c 19.776659
_cell_angle_alpha 152.837120
_cell_angle_beta 73.897113
_cell_angle_gamma 107.405672
_cell_volume 693.406889
_symmetry_space_group_name_H-M "P -1"
_symmetry_group_IT_number 2
_symmetry_cell_setting 'triclinic'
loop_
_space_group_symop_operation_xyz
x,y,z
-x,-y,-z
loop_
_atom_site_type_symbol
_atom_site_label
_atom_site_fract_x
_atom_site_fract_y
_atom_site_fract_z
Si Si1 0.460799 0.884383 0.598734
Si Si2 0.234238 0.905412 0.488077
Si Si3 0.157980 0.475374 0.188088
Si Si4 0.922539 0.197193 0.762606
Si Si5 0.770217 0.589386 0.007332
Si Si6 0.582587 0.479186 0.276640
Si Si7 0.307253 0.315207 0.316224
Si Si8 0.729910 0.254714 0.341446
O O1 0.254899 0.872903 0.544983
O O2 0.637479 0.704925 0.451617
O O3 0.305531 0.858373 0.662534
O O4 0.629939 0.097526 0.735204
O O5 0.152419 0.699755 0.318527
O O6 0.500000 0.000000 0.500000
O O7 0.020468 0.058665 0.601908
O O8 0.239633 0.358586 0.036014
O O9 0.384733 0.454527 0.211285
O O10 0.862788 0.401701 0.186237
O O11 0.953421 0.414951 0.880162
O O12 0.104960 0.215847 0.829720
O O13 0.500000 0.500000 0.000000
O O14 0.444286 0.344276 0.253310
O O15 0.489917 0.189364 0.262557
O O16 0.270478 0.516137 0.492692
O O17 0.009483 0.204835 0.255701
#
# Coordination Sequence:
#
# PCOD8008747 Si02
#       8
#     2   2   2   2   2   2   2   2
#     4  10  21  34  55  90 120 155 202 245 299 356
#     4  11  23  37  59  87 125 158 200 253 310 357
#     4  11  23  38  62  88 122 160 204 247 304 354
#     4  11  23  40  62  79 122 158 209 251 302 353
#     4  11  26  42  58  83 118 165 213 251 298 356
#     4  10  21  36  59  90 124 155 198 249 299 370
#     4   9  17  32  51  83 120 157 186 232 306 357
#     4   9  18  29  54  80 122 157 187 235 295 365
#
# _framework density 23.074475
#
# number of rings (size 3 to 8) (size 9 to 14) (size 15 to 20)
#    0.000    1.750    1.250    3.000    8.750    4.000 
#    0.000    0.000    0.000    0.000    0.000    5.250 
#    0.000    0.000    0.000    0.000    0.000    0.000 
#
# Total GULP energy -198360.324997 kJ/mol
# GULP energy per Si atom -12397.520312 kJ/mol
# Density = 2.302196 g / cm^3
# Si number density = 23.074475 Si / 1000 Ang^3
#
#
#
# Elastic Constant Matrix: (Units=GPa)
#
#
# Indices 1 2 3 4 5 6 
#
# 1 116.5013 16.9155 3.6082 -16.2007 6.1067 21.2233
# 2 16.9155 85.9000 4.4900 -26.5784 -3.5312 12.2242
# 3 3.6082 4.4900 56.8875 -19.9366 11.4367 2.5870
# 4 -16.2007 -26.5784 -19.9366 30.0612 -0.8498 -3.4183
# 5 6.1067 -3.5312 11.4367 -0.8498 27.4958 -6.1642
# 6 21.2233 12.2242 2.5870 -3.4183 -6.1642 36.4093
#
#
#
# Elastic Compliance Matrix: (Units=1/GPa)
#
#
# Indices 1 2 3 4 5 6 
#
# 1 0.011023 0.000956 0.003406 0.008095 -0.005081 -0.007088
# 2 0.000956 0.017930 0.005817 0.019596 -0.000913 -0.005305
# 3 0.003406 0.005817 0.028313 0.024758 -0.012300 -0.005708
# 4 0.008095 0.019596 0.024758 0.070201 -0.009209 -0.008025
# 5 -0.005081 -0.000913 -0.012300 -0.009209 0.044641 0.010836
# 6 -0.007088 -0.005305 -0.005708 -0.008025 0.010836 0.034865
#
#
# Mechanical properties :
#
#
# Convention : Reuss Voigt Hill
#
# Bulk Modulus (GPa) = 12.88294 34.36846 23.62570
# Shear Modulus (GPa) = 23.53061 34.41160 28.97110
#
# Velocity S-wave (km/s) = 3.19684 3.86596 3.54721
# Velocity P-wave (km/s) = 4.38426 5.90377 5.19982
#
# Compressibility (1/GPa) = 0.07762202
#
# Stress axis : x y z
#
# Youngs Moduli (GPa) = 90.72268 55.77287 35.31989
#
# Poissons Ratio (x) = -0.05331 -0.12030
# Poissons Ratio (y) = -0.08671 -0.20544
# Poissons Ratio (z) = -0.30901 -0.32440
#
# Static dielectric constant tensor:
#      x y z
#    x 4.399430 -0.096660 0.034460 
#    y -0.096660 4.001730 -0.126070 
#    z 0.034460 -0.126070 4.107790 
# 
# 
# High freq. dielectric constant tensor:
#      x y z
#    x 1.920690 -0.002690 0.000820 
#    y -0.002690 1.904480 -0.021650 
#    z 0.000820 -0.021650 1.880800 
# 
# From -- ./inp_files/92929.got.cif
#   From: 2010.06.25/outbox.cif.g09.slc.cpg/sg2_47_cif.got.tgz:92929.got - 2010.06.27 13:26:56.
