data_PCOD8008045
_publ_section_title
;
Structure prediction by ZEFSAII (Michael W. Deem and Ramdas Pophale) SiO2 
 PCOD8008045
Probable space group: P -1
;
_chemical_formula_sum "Si O2"
_cell_formula_units_Z 16
_cell_length_a 9.308114
_cell_length_b 10.191890
_cell_length_c 22.251606
_cell_angle_alpha 143.889875
_cell_angle_beta 37.938603
_cell_angle_gamma 126.608510
_cell_volume 760.004729
_symmetry_space_group_name_H-M "P -1"
_symmetry_group_IT_number 2
_symmetry_cell_setting 'triclinic'
loop_
_space_group_symop_operation_xyz
x,y,z
-x,-y,-z
loop_
_atom_site_type_symbol
_atom_site_label
_atom_site_fract_x
_atom_site_fract_y
_atom_site_fract_z
Si Si1 0.376254 0.213333 0.850201
Si Si2 0.501786 0.808864 0.586033
Si Si3 0.096419 0.526367 0.638111
Si Si4 0.206400 0.429451 0.361962
Si Si5 0.421739 0.949257 0.860859
Si Si6 0.440594 0.253334 0.596843
Si Si7 0.951253 0.390906 0.113151
Si Si8 0.718352 0.590052 0.884142
O O1 0.525314 0.422924 0.877647
O O2 0.456851 0.075164 0.711436
O O3 0.438956 0.039034 0.820384
O O4 0.092359 0.303084 0.973088
O O5 0.266171 0.720080 0.655828
O O6 0.733114 0.707677 0.510037
O O7 0.542135 0.728772 0.474172
O O8 0.897533 0.573775 0.671164
O O9 0.953908 0.520977 0.744169
O O10 0.335061 0.190341 0.251240
O O11 0.378591 0.617655 0.378580
O O12 0.000000 0.500000 0.500000
O O13 0.209107 0.792767 0.877175
O O14 0.388862 0.151181 0.995388
O O15 0.189296 0.360799 0.746559
O O16 0.500000 0.000000 0.500000
O O17 0.191571 0.409190 0.077240
#
# Coordination Sequence:
#
# PCOD8008045 Si02
#       8
#     2   2   2   2   2   2   2   2
#     4  11  23  37  66  96 128 161 216 259 314 365
#     4  11  23  43  66  95 121 173 207 261 304 385
#     4  11  23  41  67  89 130 157 225 250 311 373
#     4  11  23  41  63  94 121 172 204 264 310 373
#     4  10  21  39  65  90 127 166 214 252 316 375
#     4  11  25  42  66  93 133 161 209 254 330 368
#     4  10  20  42  64  93 122 175 207 254 310 380
#     4  11  22  38  63  97 126 164 208 269 308 367
#
# _framework density 21.052500999999999
#
# number of rings (size 3 to 8) (size 9 to 14) (size 15 to 20)
#    0.000    1.250    2.500    5.250    5.250    4.000 
#    0.000    0.625    0.000    0.000    0.000    0.000 
#    0.000    0.000    0.000    0.000    0.000    0.000 
#
# Total GULP energy -198247.628716 kJ/mol
# GULP energy per Si atom -12390.476795 kJ/mol
# Density = 2.100458 g / cm^3
# Si number density = 21.052501 Si / 1000 Ang^3
#
#
#
# Elastic Constant Matrix: (Units=GPa)
#
#
# Indices 1 2 3 4 5 6 
#
# 1 69.9215 17.4102 42.6584 0.2526 -19.6057 8.6322
# 2 17.4102 88.7852 57.4857 11.0588 -15.3765 11.7140
# 3 42.6584 57.4857 179.4294 12.4718 -26.7721 14.4670
# 4 0.2526 11.0588 12.4718 37.3959 -0.1577 -2.2854
# 5 -19.6057 -15.3765 -26.7721 -0.1577 35.2845 0.6872
# 6 8.6322 11.7140 14.4670 -2.2854 0.6872 23.9667
#
#
#
# Elastic Compliance Matrix: (Units=1/GPa)
#
#
# Indices 1 2 3 4 5 6 
#
# 1 0.019115 0.000320 -0.002951 0.000463 0.008630 -0.005463
# 2 0.000320 0.015582 -0.003690 -0.003727 0.004268 -0.005982
# 3 -0.002951 -0.003690 0.008221 -0.001761 0.003028 -0.002351
# 4 0.000463 -0.003727 -0.001761 0.028754 -0.002683 0.005537
# 5 0.008630 0.004268 0.003028 -0.002683 0.037444 -0.008351
# 6 -0.005463 -0.005982 -0.002351 0.005537 -0.008351 0.048802
#
#
# Mechanical properties :
#
#
# Convention : Reuss Voigt Hill
#
# Bulk Modulus (GPa) = 33.02957 63.69384 48.36170
# Shear Modulus (GPa) = 27.67737 34.03488 30.85612
#
# Velocity S-wave (km/s) = 3.62979 4.02514 3.83257
# Velocity P-wave (km/s) = 5.76978 7.20575 6.52737
#
# Compressibility (1/GPa) = 0.03027590
#
# Stress axis : x y z
#
# Youngs Moduli (GPa) = 52.31469 64.17552 121.64316
#
# Poissons Ratio (x) = -0.02055 0.35898
# Poissons Ratio (y) = -0.01675 0.44888
# Poissons Ratio (z) = 0.15439 0.23682
#
# Static dielectric constant tensor:
#      x y z
#    x 3.528880 0.103870 -0.184350 
#    y 0.103870 3.639020 0.063670 
#    z -0.184350 0.063670 4.312520 
# 
# 
# High freq. dielectric constant tensor:
#      x y z
#    x 1.801650 0.014980 -0.005280 
#    y 0.014980 1.815900 -0.003310 
#    z -0.005280 -0.003310 1.858950 
# 
# From -- ./inp_files/406519.got.cif
#   From: 2010.06.25/outbox.cif.g09.slc.cpg/sg2_204_cif.got.tgz:406519.got - 2010.06.27 13:26:56.
