data_PCOD8008363
_publ_section_title
;
Structure prediction by ZEFSAII (Michael W. Deem and Ramdas Pophale) SiO2 
 PCOD8008363
Probable space group: P -1
;
_chemical_formula_sum "Si O2"
_cell_formula_units_Z 16
_cell_length_a 20.647032
_cell_length_b 17.763768
_cell_length_c 9.487101
_cell_angle_alpha 37.552732
_cell_angle_beta 37.789627
_cell_angle_gamma 19.724391
_cell_volume 699.194195
_symmetry_space_group_name_H-M "P -1"
_symmetry_group_IT_number 2
_symmetry_cell_setting 'triclinic'
loop_
_space_group_symop_operation_xyz
x,y,z
-x,-y,-z
loop_
_atom_site_type_symbol
_atom_site_label
_atom_site_fract_x
_atom_site_fract_y
_atom_site_fract_z
Si Si1 0.955807 0.774527 0.841542
Si Si2 0.464284 0.945711 0.273054
Si Si3 0.877170 0.449247 0.414622
Si Si4 0.554482 0.274340 0.824886
Si Si5 0.284943 0.622750 0.538559
Si Si6 0.429555 0.708574 0.690075
Si Si7 0.662335 0.461582 0.920473
Si Si8 0.086582 0.422055 0.311965
O O1 0.994887 0.694719 0.732116
O O2 0.057028 0.807144 0.655136
O O3 0.060470 0.583843 0.056876
O O4 0.721327 0.004244 0.930702
O O5 0.667331 0.716403 0.341857
O O6 0.360561 0.914510 0.456908
O O7 0.317455 0.160789 0.312387
O O8 0.500000 0.000000 0.000000
O O9 0.845964 0.351703 0.698673
O O10 0.986103 0.431728 0.358362
O O11 0.424538 0.395590 0.728501
O O12 0.685473 0.269227 0.615998
O O13 0.401781 0.410462 0.013721
O O14 0.358792 0.529685 0.390359
O O15 0.466828 0.665242 0.857688
O O16 0.283818 0.738370 0.851925
O O17 0.000000 0.500000 0.500000
#
# Coordination Sequence:
#
# PCOD8008363 Si02
#       8
#     2   2   2   2   2   2   2   2
#     4  12  24  43  66  96 130 174 219 270 322 394
#     4  11  22  44  71  95 130 180 215 268 325 394
#     4  11  25  46  69  92 130 178 221 267 336 395
#     4  10  24  37  69  98 134 168 212 269 322 388
#     4  10  20  43  64  99 132 171 213 258 332 393
#     4   9  18  36  69  92 125 171 213 258 320 390
#     4   9  19  41  63  96 129 167 212 264 325 386
#     4  12  30  45  63 101 130 165 230 281 324 393
#
# _framework density 22.883485
#
# number of rings (size 3 to 8) (size 9 to 14) (size 15 to 20)
#    0.000    1.500    3.750    0.750    7.000    1.500 
#    0.000    0.625    0.000    0.000    0.000    0.000 
#    0.000    0.000    0.000    0.000    0.000    0.000 
#
# Total GULP energy -198294.345902 kJ/mol
# GULP energy per Si atom -12393.396619 kJ/mol
# Density = 2.283140 g / cm^3
# Si number density = 22.883485 Si / 1000 Ang^3
#
#
#
# Elastic Constant Matrix: (Units=GPa)
#
#
# Indices 1 2 3 4 5 6 
#
# 1 71.1335 8.8773 21.0249 6.7661 19.5808 6.7073
# 2 8.8773 85.9778 15.7325 -3.5890 16.0034 14.4906
# 3 21.0249 15.7325 128.7078 3.7352 3.8663 16.3540
# 4 6.7661 -3.5890 3.7352 30.2292 8.9125 3.7747
# 5 19.5808 16.0034 3.8663 8.9125 27.5969 3.0515
# 6 6.7073 14.4906 16.3540 3.7747 3.0515 25.2715
#
#
#
# Elastic Compliance Matrix: (Units=1/GPa)
#
#
# Indices 1 2 3 4 5 6 
#
# 1 0.018539 0.001558 -0.002492 0.000696 -0.013639 -0.002658
# 2 0.001558 0.015258 -0.000931 0.005773 -0.010789 -0.008119
# 3 -0.002492 -0.000931 0.008846 -0.000587 0.001773 -0.004655
# 4 0.000696 0.005773 -0.000587 0.039174 -0.015628 -0.007079
# 5 -0.013639 -0.010789 0.001773 -0.015628 0.056508 0.004170
# 6 -0.002658 -0.008119 -0.004655 -0.007079 0.004170 0.048498
#
#
# Mechanical properties :
#
#
# Convention : Reuss Voigt Hill
#
# Bulk Modulus (GPa) = 25.69887 41.89870 33.79878
# Shear Modulus (GPa) = 24.56713 32.63181 28.59947
#
# Velocity S-wave (km/s) = 3.28010 3.78034 3.53907
# Velocity P-wave (km/s) = 5.05965 6.11587 5.61266
#
# Compressibility (1/GPa) = 0.03891222
#
# Stress axis : x y z
#
# Youngs Moduli (GPa) = 53.94056 65.53872 113.04950
#
# Poissons Ratio (x) = -0.10208 0.28166
# Poissons Ratio (y) = -0.08401 0.10528
# Poissons Ratio (z) = 0.13439 0.06103
#
# Static dielectric constant tensor:
#      x y z
#    x 4.054830 0.108800 -0.190820 
#    y 0.108800 3.982850 -0.098310 
#    z -0.190820 -0.098310 4.498920 
# 
# 
# High freq. dielectric constant tensor:
#      x y z
#    x 1.900650 0.009390 -0.003780 
#    y 0.009390 1.882780 0.003080 
#    z -0.003780 0.003080 1.914460 
# 
# From -- ./inp_files/307980.got.cif
#   From: 2010.06.25/outbox.cif.g09.slc.cpg/sg2_154_cif.got.tgz:307980.got - 2010.06.27 13:26:56.
