data_PCOD8008718
_publ_section_title
;
Structure prediction by ZEFSAII (Michael W. Deem and Ramdas Pophale) SiO2 
 PCOD8008718
Probable space group: P -1
;
_chemical_formula_sum "Si O2"
_cell_formula_units_Z 14
_cell_length_a 13.607355
_cell_length_b 12.540559
_cell_length_c 11.764148
_cell_angle_alpha 71.710506
_cell_angle_beta 21.596051
_cell_angle_gamma 71.597386
_cell_volume 699.905112
_symmetry_space_group_name_H-M "P -1"
_symmetry_group_IT_number 2
_symmetry_cell_setting 'triclinic'
loop_
_space_group_symop_operation_xyz
x,y,z
-x,-y,-z
loop_
_atom_site_type_symbol
_atom_site_label
_atom_site_fract_x
_atom_site_fract_y
_atom_site_fract_z
Si Si1 0.261233 0.422074 0.767628
Si Si2 0.311690 0.854671 0.277385
Si Si3 0.618599 0.768814 0.478644
Si Si4 0.335879 0.049765 0.805722
Si Si5 0.202353 0.231304 0.065330
Si Si6 0.922935 0.164394 0.878270
Si Si7 0.666316 0.926508 0.684829
O O1 0.500000 0.500000 0.500000
O O2 0.337546 0.341859 0.606587
O O3 0.208982 0.353769 0.961793
O O4 0.000000 0.500000 0.000000
O O5 0.053719 0.780704 0.573443
O O6 0.233097 0.980589 0.367063
O O7 0.526340 0.791520 0.150078
O O8 0.430033 0.862755 0.020557
O O9 0.530792 0.879960 0.460905
O O10 0.897626 0.784813 0.234458
O O11 0.362962 0.760742 0.841381
O O12 0.561570 0.978834 0.659909
O O13 0.167910 0.139376 0.035080
O O14 0.129237 0.967088 0.001932
O O15 0.085711 0.163645 0.583079
#
# Coordination Sequence:
#
# PCOD8008718 Si02
#       7
#     2   2   2   2   2   2   2
#     4  11  23  43  64  85 108 137 186 244 295 333
#     4  10  21  35  52  82 118 155 196 219 263 313
#     4  11  25  34  56  82 115 149 185 227 278 342
#     4  10  21  34  51  81 122 155 185 212 266 329
#     4  10  21  36  58  83 112 147 187 234 277 330
#     4  12  21  35  50  84 118 160 181 213 269 332
#     4  10  22  32  54  78 122 164 188 220 251 322
#
# _framework density 20.002711999999999
#
# number of rings (size 3 to 8) (size 9 to 14) (size 15 to 20)
#    0.000    1.429    2.857    2.571    4.000    4.000 
#    0.000    0.000    0.000    0.000    0.000   20.000 
#    0.000    0.000    0.000    0.000    0.000    0.000 
#
# Total GULP energy -173555.852151 kJ/mol
# GULP energy per Si atom -12396.846582 kJ/mol
# Density = 1.995718 g / cm^3
# Si number density = 20.002712 Si / 1000 Ang^3
#
#
#
# Elastic Constant Matrix: (Units=GPa)
#
#
# Indices 1 2 3 4 5 6 
#
# 1 36.0546 11.2628 9.5866 2.2856 -8.2228 13.8778
# 2 11.2628 80.5563 36.9318 -3.3703 -8.1189 12.0272
# 3 9.5866 36.9318 133.5741 1.9111 -3.2136 9.8889
# 4 2.2856 -3.3703 1.9111 27.0787 -0.4416 -3.3670
# 5 -8.2228 -8.1189 -3.2136 -0.4416 32.4671 -3.6152
# 6 13.8778 12.0272 9.8889 -3.3670 -3.6152 27.9264
#
#
#
# Elastic Compliance Matrix: (Units=1/GPa)
#
#
# Indices 1 2 3 4 5 6 
#
# 1 0.036968 -0.001857 -0.000633 -0.005321 0.006859 -0.017101
# 2 -0.001857 0.015312 -0.003787 0.001904 0.002591 -0.003766
# 3 -0.000633 -0.003787 0.008684 -0.001203 -0.000412 -0.001328
# 4 -0.005321 0.001904 -0.001203 0.038568 0.000307 0.006940
# 5 0.006859 0.002591 -0.000412 0.000307 0.033143 -0.000051
# 6 -0.017101 -0.003766 -0.001328 0.006940 -0.000051 0.047229
#
#
# Mechanical properties :
#
#
# Convention : Reuss Voigt Hill
#
# Bulk Modulus (GPa) = 20.65558 40.63861 30.64710
# Shear Modulus (GPa) = 23.96992 30.32137 27.14565
#
# Velocity S-wave (km/s) = 3.46545 3.89763 3.68788
# Velocity P-wave (km/s) = 5.13432 6.37307 5.78694
#
# Compressibility (1/GPa) = 0.04841307
#
# Stress axis : x y z
#
# Youngs Moduli (GPa) = 27.05041 65.30707 115.14822
#
# Poissons Ratio (x) = 0.12125 0.07285
# Poissons Ratio (y) = 0.05022 0.43601
# Poissons Ratio (z) = 0.01711 0.24729
#
# Static dielectric constant tensor:
#      x y z
#    x 3.532490 0.093470 0.116870 
#    y 0.093470 3.407750 0.038810 
#    z 0.116870 0.038810 3.959760 
# 
# 
# High freq. dielectric constant tensor:
#      x y z
#    x 1.771940 0.011530 -0.005040 
#    y 0.011530 1.732630 0.007200 
#    z -0.005040 0.007200 1.806860 
# 
# From -- ./inp_files/75041.got.cif
#   From: 2010.06.25/outbox.cif.g09.slc.cpg/sg2_38_cif.got.tgz:75041.got - 2010.06.27 13:26:56.
