data_PCOD8008293
_publ_section_title
;
Structure prediction by ZEFSAII (Michael W. Deem and Ramdas Pophale) SiO2 
 PCOD8008293
Probable space group: P -1
;
_chemical_formula_sum "Si O2"
_cell_formula_units_Z 14
_cell_length_a 8.651820
_cell_length_b 9.249383
_cell_length_c 12.200748
_cell_angle_alpha 118.865453
_cell_angle_beta 68.935017
_cell_angle_gamma 69.204557
_cell_volume 608.562839
_symmetry_space_group_name_H-M "P -1"
_symmetry_group_IT_number 2
_symmetry_cell_setting 'triclinic'
loop_
_space_group_symop_operation_xyz
x,y,z
-x,-y,-z
loop_
_atom_site_type_symbol
_atom_site_label
_atom_site_fract_x
_atom_site_fract_y
_atom_site_fract_z
Si Si1 0.253716 0.209990 0.535033
Si Si2 0.475311 0.342746 0.389661
Si Si3 0.540499 0.163302 0.950960
Si Si4 0.125949 0.500682 0.869487
Si Si5 0.587131 0.235669 0.726655
Si Si6 0.250883 0.045613 0.962341
Si Si7 0.787572 0.428341 0.670485
O O1 0.401197 0.258657 0.466593
O O2 0.185192 0.306925 0.708863
O O3 0.038470 0.313496 0.557697
O O4 0.388534 0.953909 0.411296
O O5 0.500000 0.500000 0.500000
O O6 0.293265 0.475411 0.393192
O O7 0.701123 0.138678 0.199320
O O8 0.628135 0.198587 0.833554
O O9 0.450557 0.043888 0.890958
O O10 0.337035 0.389780 0.137493
O O11 0.737117 0.017823 0.935765
O O12 0.340850 0.454987 0.843540
O O13 0.000000 0.500000 0.000000
O O14 0.983286 0.726990 0.922159
O O15 0.758239 0.253673 0.640042
#
# Coordination Sequence:
#
# PCOD8008293 Si02
#       7
#     2   2   2   2   2   2   2
#     4  12  24  43  67  96 137 186 221 276 343 403
#     4  11  24  45  69 101 136 175 227 285 338 402
#     4  10  20  42  70  98 135 178 228 273 330 408
#     4  12  23  41  67 100 133 181 222 278 340 399
#     4  12  24  42  67 106 139 175 224 287 335 394
#     4  10  21  42  71  98 135 179 226 272 339 405
#     4  11  24  42  68 100 138 178 231 275 334 406
#
# _framework density 23.005019999999998
#
# number of rings (size 3 to 8) (size 9 to 14) (size 15 to 20)
#    0.000    0.857    4.286    2.571    0.000    2.286 
#    0.000    9.286    0.000    0.000    0.000    0.000 
#    0.000    0.000    0.000    0.000    0.000    0.000 
#
# Total GULP energy -173656.160705 kJ/mol
# GULP energy per Si atom -12404.011479 kJ/mol
# Density = 2.295266 g / cm^3
# Si number density = 23.005020 Si / 1000 Ang^3
#
#
#
# Elastic Constant Matrix: (Units=GPa)
#
#
# Indices 1 2 3 4 5 6 
#
# 1 72.4582 31.2869 29.0256 11.3327 7.8670 -4.8035
# 2 31.2869 118.8731 40.6411 11.5204 0.6539 -12.7417
# 3 29.0256 40.6411 108.6664 8.7787 24.9524 -12.6363
# 4 11.3327 11.5204 8.7787 35.5533 0.1548 0.4286
# 5 7.8670 0.6539 24.9524 0.1548 33.7297 10.7162
# 6 -4.8035 -12.7417 -12.6363 0.4286 10.7162 43.7592
#
#
#
# Elastic Compliance Matrix: (Units=1/GPa)
#
#
# Indices 1 2 3 4 5 6 
#
# 1 0.017056 -0.003192 -0.002401 -0.003809 -0.002400 0.000874
# 2 -0.003192 0.010722 -0.003555 -0.001604 0.002835 0.001067
# 3 -0.002401 -0.003555 0.014821 -0.001761 -0.012232 0.005994
# 4 -0.003809 -0.001604 -0.001761 0.030312 0.002842 -0.002387
# 5 -0.002400 0.002835 -0.012232 0.002842 0.043527 -0.013657
# 6 0.000874 0.001067 0.005994 -0.002387 -0.013657 0.028358
#
#
# Mechanical properties :
#
#
# Convention : Reuss Voigt Hill
#
# Bulk Modulus (GPa) = 41.14734 55.76723 48.45728
# Shear Modulus (GPa) = 29.20682 35.87803 32.54243
#
# Velocity S-wave (km/s) = 3.56699 3.95343 3.76517
# Velocity P-wave (km/s) = 5.90674 6.71814 6.32547
#
# Compressibility (1/GPa) = 0.02430291
#
# Stress axis : x y z
#
# Youngs Moduli (GPa) = 58.63187 93.26667 67.47002
#
# Poissons Ratio (x) = 0.29769 0.16202
# Poissons Ratio (y) = 0.18714 0.23984
# Poissons Ratio (z) = 0.14080 0.33154
#
# Static dielectric constant tensor:
#      x y z
#    x 4.061910 -0.136090 0.219110 
#    y -0.136090 4.289750 0.141900 
#    z 0.219110 0.141900 4.269530 
# 
# 
# High freq. dielectric constant tensor:
#      x y z
#    x 1.897950 -0.008450 0.013480 
#    y -0.008450 1.918810 0.002830 
#    z 0.013480 0.002830 1.913830 
# 
# From -- ./inp_files/151577.got.cif
#   From: 2010.06.25/outbox.cif.g09.slc.cpg/sg2_76_cif.got.tgz:151577.got - 2010.06.27 13:26:56.
