data_PCOD8008295
_publ_section_title
;
Structure prediction by ZEFSAII (Michael W. Deem and Ramdas Pophale) SiO2 
 PCOD8008295
Probable space group: P -1
;
_chemical_formula_sum "Si O2"
_cell_formula_units_Z 12
_cell_length_a 8.435488
_cell_length_b 8.567821
_cell_length_c 12.032608
_cell_angle_alpha 115.402438
_cell_angle_beta 42.742234
_cell_angle_gamma 100.095147
_cell_volume 519.123537
_symmetry_space_group_name_H-M "P -1"
_symmetry_group_IT_number 2
_symmetry_cell_setting 'triclinic'
loop_
_space_group_symop_operation_xyz
x,y,z
-x,-y,-z
loop_
_atom_site_type_symbol
_atom_site_label
_atom_site_fract_x
_atom_site_fract_y
_atom_site_fract_z
Si Si1 0.317109 0.237823 0.263267
Si Si2 0.292703 0.174794 0.645525
Si Si3 0.386621 0.535079 0.687779
Si Si4 0.979169 0.200305 0.600904
Si Si5 0.486346 0.176381 0.919135
Si Si6 0.067467 0.177009 0.979417
O O1 0.487131 0.353133 0.261885
O O2 0.053659 0.294492 0.477987
O O3 0.417819 0.031159 0.172064
O O4 0.322160 0.266894 0.136225
O O5 0.392518 0.345232 0.682311
O O6 0.080211 0.159921 0.834239
O O7 0.182822 0.207823 0.589418
O O8 0.500000 0.000000 0.500000
O O9 0.500000 0.500000 0.500000
O O10 0.119141 0.645880 0.835891
O O11 0.706696 0.274223 0.809236
O O12 0.000000 0.000000 0.500000
O O13 0.321462 0.197270 0.902217
O O14 0.000000 0.000000 0.000000
#
# Coordination Sequence:
#
# PCOD8008295 Si02
#       6
#     2   2   2   2   2   2
#     4  10  20  42  70  99 141 187 223 292 347 416
#     4  12  25  45  72 103 138 188 240 291 349 418
#     4  12  24  46  69 103 145 179 241 292 344 421
#     4  10  21  39  68 101 139 181 229 284 352 411
#     4  10  22  42  70 102 141 182 234 282 359 420
#     4  12  25  44  71 104 138 185 235 288 356 420
#
# _framework density 23.115887000000001
#
# number of rings (size 3 to 8) (size 9 to 14) (size 15 to 20)
#    0.000    1.000    3.333    4.500    4.667    0.000 
#    3.000    5.833    0.000    0.000    0.000    0.000 
#    0.000    0.000    0.000    0.000    0.000    0.000 
#
# Total GULP energy -148741.695029 kJ/mol
# GULP energy per Si atom -12395.141252 kJ/mol
# Density = 2.306327 g / cm^3
# Si number density = 23.115887 Si / 1000 Ang^3
#
#
#
# Elastic Constant Matrix: (Units=GPa)
#
#
# Indices 1 2 3 4 5 6 
#
# 1 81.9526 15.3243 31.9077 -11.3362 0.8435 17.6934
# 2 15.3243 102.9683 51.9216 -23.6146 -5.1291 5.6272
# 3 31.9077 51.9216 163.6951 -29.8306 4.5063 -7.1489
# 4 -11.3362 -23.6146 -29.8306 40.6655 -6.6654 -4.1318
# 5 0.8435 -5.1291 4.5063 -6.6654 43.1951 -3.5577
# 6 17.6934 5.6272 -7.1489 -4.1318 -3.5577 28.5876
#
#
#
# Elastic Compliance Matrix: (Units=1/GPa)
#
#
# Indices 1 2 3 4 5 6 
#
# 1 0.015959 0.000091 -0.003450 0.000765 -0.000707 -0.010735
# 2 0.000091 0.012809 -0.003302 0.005209 0.002475 -0.002343
# 3 -0.003450 -0.003302 0.008831 0.004141 -0.000148 0.005573
# 4 0.000765 0.005209 0.004141 0.032274 0.005555 0.004893
# 5 -0.000707 0.002475 -0.000148 0.005555 0.024643 0.003783
# 6 -0.010735 -0.002343 0.005573 0.004893 0.003783 0.044657
#
#
# Mechanical properties :
#
#
# Convention : Reuss Voigt Hill
#
# Bulk Modulus (GPa) = 41.18923 60.76927 50.97925
# Shear Modulus (GPa) = 31.13593 39.12047 35.12820
#
# Velocity S-wave (km/s) = 3.67406 4.11830 3.90251
# Velocity P-wave (km/s) = 5.98795 6.99713 6.51212
#
# Compressibility (1/GPa) = 0.02427819
#
# Stress axis : x y z
#
# Youngs Moduli (GPa) = 62.66032 78.07011 113.24146
#
# Poissons Ratio (x) = -0.00712 0.39065
# Poissons Ratio (y) = -0.00572 0.37389
# Poissons Ratio (z) = 0.21616 0.25777
#
# Static dielectric constant tensor:
#      x y z
#    x 4.021830 0.118170 0.246370 
#    y 0.118170 4.253410 -0.283290 
#    z 0.246370 -0.283290 5.215200 
# 
# 
# High freq. dielectric constant tensor:
#      x y z
#    x 1.900720 0.015000 0.015230 
#    y 0.015000 1.912680 -0.018740 
#    z 0.015230 -0.018740 1.932820 
# 
# From -- ./inp_files/152569.got.cif
#   From: 2010.06.25/outbox.cif.g09.slc.cpg/sg2_77_cif.got.tgz:152569.got - 2010.06.27 13:26:56.
