data_PCOD8008020
_publ_section_title
;
Structure prediction by ZEFSAII (Michael W. Deem and Ramdas Pophale) SiO2 
 PCOD8008020
Probable space group: P -1
;
_chemical_formula_sum "Si O2"
_cell_formula_units_Z 14
_cell_length_a 20.288630
_cell_length_b 11.119641
_cell_length_c 14.740295
_cell_angle_alpha 137.208509
_cell_angle_beta 22.006903
_cell_angle_gamma 148.385029
_cell_volume 626.395687
_symmetry_space_group_name_H-M "P -1"
_symmetry_group_IT_number 2
_symmetry_cell_setting 'triclinic'
loop_
_space_group_symop_operation_xyz
x,y,z
-x,-y,-z
loop_
_atom_site_type_symbol
_atom_site_label
_atom_site_fract_x
_atom_site_fract_y
_atom_site_fract_z
Si Si1 0.991796 0.767350 0.813891
Si Si2 0.448521 0.574721 0.260615
Si Si3 0.955797 0.393358 0.735059
Si Si4 0.882320 0.542596 0.098124
Si Si5 0.198949 0.077593 0.358759
Si Si6 0.042925 0.029692 0.203198
Si Si7 0.601004 0.766290 0.362337
O O1 0.943520 0.523913 0.740007
O O2 0.025956 0.866586 0.724289
O O3 0.234983 0.956618 0.665651
O O4 0.770306 0.708327 0.115594
O O5 0.427838 0.353485 0.196210
O O6 0.489863 0.721063 0.379263
O O7 0.217782 0.484098 0.451928
O O8 0.681275 0.753221 0.999008
O O9 0.761809 0.106909 0.804881
O O10 0.894100 0.448715 0.936997
O O11 0.607748 0.397407 0.389256
O O12 0.019705 0.821842 0.071208
O O13 0.000000 0.500000 0.000000
O O14 0.000000 0.000000 0.500000
O O15 0.124583 0.072527 0.553229
#
# Coordination Sequence:
#
# PCOD8008020 Si02
#       7
#     2   2   2   2   2   2   2
#     4  10  24  40  61  99 130 178 207 262 334 385
#     4  10  21  42  69  93 130 171 217 274 316 374
#     4  11  23  39  63  98 134 162 224 270 314 387
#     4  12  22  38  70 102 122 170 223 273 318 375
#     4  10  22  45  65  93 131 169 218 272 318 380
#     4  11  24  43  69  91 134 174 212 260 338 382
#     4  10  20  42  63  94 135 162 216 263 325 376
#
# _framework density 22.350089000000001
#
# number of rings (size 3 to 8) (size 9 to 14) (size 15 to 20)
#    0.000    1.429    2.857    3.429    2.000    6.286 
#    2.571    2.857    0.000    0.000    0.000    0.000 
#    0.000    0.000    0.000    0.000    0.000    0.000 
#
# Total GULP energy -173572.333323 kJ/mol
# GULP energy per Si atom -12398.023809 kJ/mol
# Density = 2.229922 g / cm^3
# Si number density = 22.350089 Si / 1000 Ang^3
#
#
#
# Elastic Constant Matrix: (Units=GPa)
#
#
# Indices 1 2 3 4 5 6 
#
# 1 72.8962 16.5570 10.7554 14.4144 0.8557 -18.1987
# 2 16.5570 116.9191 47.1028 12.8516 9.9925 -22.8131
# 3 10.7554 47.1028 75.3956 -13.7225 2.3503 -8.3423
# 4 14.4144 12.8516 -13.7225 35.5607 2.6975 -0.8501
# 5 0.8557 9.9925 2.3503 2.6975 26.0701 3.6204
# 6 -18.1987 -22.8131 -8.3423 -0.8501 3.6204 39.0980
#
#
#
# Elastic Compliance Matrix: (Units=1/GPa)
#
#
# Indices 1 2 3 4 5 6 
#
# 1 0.017948 0.002152 -0.004665 -0.009559 -0.001187 0.008516
# 2 0.002152 0.015851 -0.011011 -0.010258 -0.005225 0.008162
# 3 -0.004665 -0.011011 0.023036 0.014580 0.001271 -0.003481
# 4 -0.009559 -0.010258 0.014580 0.041211 -0.000446 -0.006387
# 5 -0.001187 -0.005225 0.001271 -0.000446 0.041327 -0.007167
# 6 0.008516 0.008162 -0.003481 -0.006387 -0.007167 0.034085
#
#
# Mechanical properties :
#
#
# Convention : Reuss Voigt Hill
#
# Bulk Modulus (GPa) = 33.57162 46.00457 39.78809
# Shear Modulus (GPa) = 23.76037 32.86548 28.31292
#
# Velocity S-wave (km/s) = 3.26406 3.83885 3.56306
# Velocity P-wave (km/s) = 5.40914 6.34644 5.89645
#
# Compressibility (1/GPa) = 0.02978706
#
# Stress axis : x y z
#
# Youngs Moduli (GPa) = 55.71638 63.08894 43.40943
#
# Poissons Ratio (x) = -0.13575 0.20251
# Poissons Ratio (y) = -0.11988 0.47796
# Poissons Ratio (z) = 0.25993 0.69464
#
# Static dielectric constant tensor:
#      x y z
#    x 3.971820 -0.055830 -0.053750 
#    y -0.055830 4.780300 -0.145640 
#    z -0.053750 -0.145640 3.892900 
# 
# 
# High freq. dielectric constant tensor:
#      x y z
#    x 1.872760 -0.004800 0.002030 
#    y -0.004800 1.896040 -0.012650 
#    z 0.002030 -0.012650 1.859130 
# 
# From -- ./inp_files/255948.got.cif
#   From: 2010.06.25/outbox.cif.g09.slc.cpg/sg2_128_cif.got.tgz:255948.got - 2010.06.27 13:26:56.
