data_PCOD8008968
_publ_section_title
;
Structure prediction by ZEFSAII (Michael W. Deem and Ramdas Pophale) SiO2 
 PCOD8008968
Probable space group: P -1
;
_chemical_formula_sum "Si O2"
_cell_formula_units_Z 14
_cell_length_a 14.741094
_cell_length_b 10.816989
_cell_length_c 15.608253
_cell_angle_alpha 40.915681
_cell_angle_beta 152.231055
_cell_angle_gamma 120.889687
_cell_volume 653.792382
_symmetry_space_group_name_H-M "P -1"
_symmetry_group_IT_number 2
_symmetry_cell_setting 'triclinic'
loop_
_space_group_symop_operation_xyz
x,y,z
-x,-y,-z
loop_
_atom_site_type_symbol
_atom_site_label
_atom_site_fract_x
_atom_site_fract_y
_atom_site_fract_z
Si Si1 0.674548 0.469645 0.736858
Si Si2 0.750534 0.822366 0.271939
Si Si3 0.828496 0.772276 0.785453
Si Si4 0.550841 0.257401 0.251789
Si Si5 0.245429 0.780364 0.905658
Si Si6 0.428986 0.338565 0.920448
Si Si7 0.907171 0.498259 0.155834
O O1 0.500000 0.500000 0.500000
O O2 0.678333 0.690180 0.651188
O O3 0.603726 0.373605 0.808456
O O4 0.934020 0.292990 0.024784
O O5 0.757079 0.722427 0.235456
O O6 0.863165 0.612701 0.539234
O O7 0.881409 0.960959 0.308355
O O8 0.500000 0.000000 0.000000
O O9 0.685696 0.034320 0.533963
O O10 0.883329 0.686006 0.974048
O O11 0.673865 0.401156 0.286755
O O12 0.538473 0.205727 0.168750
O O13 0.300819 0.402898 0.004558
O O14 0.067222 0.704678 0.773813
O O15 0.395193 0.742385 0.967696
#
# Coordination Sequence:
#
# PCOD8008968 Si02
#       7
#     2   2   2   2   2   2   2
#     4  10  23  38  62  93 121 155 209 250 303 371
#     4  10  21  35  61  89 119 153 201 254 302 347
#     4  10  23  41  64  87 127 162 199 255 308 356
#     4  10  21  41  60  85 124 166 199 242 306 363
#     4   9  20  37  60  88 117 155 198 252 309 348
#     4   9  21  37  61  87 121 154 208 247 290 368
#     4  10  21  39  61  87 123 163 200 243 303 371
#
# _framework density 21.413526000000001
#
# number of rings (size 3 to 8) (size 9 to 14) (size 15 to 20)
#    0.000    2.286    0.000    0.857    6.000    9.714 
#    2.571    0.714    0.000    0.000    0.000    0.000 
#    0.000    0.000    0.000    0.000    0.000    0.000 
#
# Total GULP energy -173453.600342 kJ/mol
# GULP energy per Si atom -12389.542882 kJ/mol
# Density = 2.136479 g / cm^3
# Si number density = 21.413526 Si / 1000 Ang^3
#
#
#
# Elastic Constant Matrix: (Units=GPa)
#
#
# Indices 1 2 3 4 5 6 
#
# 1 87.6645 32.6340 35.1409 0.5728 -22.5156 -5.9655
# 2 32.6340 119.2553 64.0291 -8.7996 -21.0453 -17.5154
# 3 35.1409 64.0291 134.1277 -10.0783 -23.9389 -8.5572
# 4 0.5728 -8.7996 -10.0783 33.5367 -0.6844 -9.7790
# 5 -22.5156 -21.0453 -23.9389 -0.6844 36.2471 3.2852
# 6 -5.9655 -17.5154 -8.5572 -9.7790 3.2852 28.1208
#
#
#
# Elastic Compliance Matrix: (Units=1/GPa)
#
#
# Indices 1 2 3 4 5 6 
#
# 1 0.014578 -0.001893 -0.001781 -0.001083 0.006741 0.000208
# 2 -0.001893 0.013308 -0.004497 0.004488 0.002965 0.007734
# 3 -0.001781 -0.004497 0.010902 0.002359 0.003477 0.000553
# 4 -0.001083 0.004488 0.002359 0.036326 0.002764 0.015593
# 5 0.006741 0.002965 0.003477 0.002764 0.035744 0.001120
# 6 0.000208 0.007734 0.000553 0.015593 0.001120 0.045882
#
#
# Mechanical properties :
#
#
# Convention : Reuss Voigt Hill
#
# Bulk Modulus (GPa) = 44.55028 67.18393 55.86711
# Shear Modulus (GPa) = 27.69086 33.53050 30.61068
#
# Velocity S-wave (km/s) = 3.59994 3.96138 3.78498
# Velocity P-wave (km/s) = 6.17489 7.23644 6.72664
#
# Compressibility (1/GPa) = 0.02244655
#
# Stress axis : x y z
#
# Youngs Moduli (GPa) = 68.59557 75.14158 91.72528
#
# Poissons Ratio (x) = 0.14224 0.16334
# Poissons Ratio (y) = 0.12985 0.41251
# Poissons Ratio (z) = 0.12215 0.33793
#
# Static dielectric constant tensor:
#      x y z
#    x 3.803330 0.029040 -0.298370 
#    y 0.029040 6.171480 0.188330 
#    z -0.298370 0.188330 3.615310 
# 
# 
# High freq. dielectric constant tensor:
#      x y z
#    x 1.834660 -0.005160 -0.023600 
#    y -0.005160 1.850420 -0.002710 
#    z -0.023600 -0.002710 1.823880 
# 
# From -- ./inp_files/305736.got.cif
#   From: 2010.06.25/outbox.cif.g09.slc.cpg/sg2_153_cif.got.tgz:305736.got - 2010.06.27 13:26:56.
