data_PCOD8008083
_publ_section_title
;
Structure prediction by ZEFSAII (Michael W. Deem and Ramdas Pophale) SiO2 
 PCOD8008083
Probable space group: P -1
;
_chemical_formula_sum "Si O2"
_cell_formula_units_Z 16
_cell_length_a 8.877686
_cell_length_b 12.368601
_cell_length_c 12.099674
_cell_angle_alpha 35.720716
_cell_angle_beta 103.973095
_cell_angle_gamma 100.328578
_cell_volume 752.400551
_symmetry_space_group_name_H-M "P -1"
_symmetry_group_IT_number 2
_symmetry_cell_setting 'triclinic'
loop_
_space_group_symop_operation_xyz
x,y,z
-x,-y,-z
loop_
_atom_site_type_symbol
_atom_site_label
_atom_site_fract_x
_atom_site_fract_y
_atom_site_fract_z
Si Si1 0.688608 0.820480 0.873784
Si Si2 0.831503 0.919958 0.040854
Si Si3 0.680454 0.454906 0.066182
Si Si4 0.159106 0.087458 0.588271
Si Si5 0.374055 0.722509 0.246496
Si Si6 0.281384 0.331805 0.582416
Si Si7 0.797895 0.077200 0.499745
Si Si8 0.644661 0.244941 0.033426
O O1 0.508588 0.813914 0.879438
O O2 0.700066 0.996755 0.649693
O O3 0.796747 0.832811 0.989035
O O4 0.759473 0.639386 0.971834
O O5 0.820832 0.761272 0.263387
O O6 0.707272 0.082023 0.909248
O O7 0.000000 0.000000 0.000000
O O8 0.729314 0.282380 0.295683
O O9 0.725797 0.405039 0.988333
O O10 0.500000 0.500000 0.000000
O O11 0.216324 0.278543 0.493655
O O12 0.974789 0.085269 0.562558
O O13 0.218913 0.055386 0.500411
O O14 0.231655 0.925538 0.814299
O O15 0.271393 0.554382 0.412954
O O16 0.538508 0.732970 0.327386
O O17 0.402931 0.682160 0.155473
#
# Coordination Sequence:
#
# PCOD8008083 Si02
#       8
#     2   2   2   2   2   2   2   2
#     4  11  23  40  65  93 129 169 207 262 320 372
#     4  12  25  42  65  94 133 169 210 265 321 378
#     4   9  22  40  62  95 125 161 208 258 311 371
#     4  10  21  41  66  90 131 165 213 260 318 377
#     4  11  24  42  66  96 125 168 224 262 309 382
#     4  11  23  42  68  96 122 173 215 264 317 373
#     4  10  23  42  61  97 128 166 209 262 313 382
#     4  10  20  42  65  92 128 164 215 264 309 379
#
# _framework density 21.265267999999999
#
# number of rings (size 3 to 8) (size 9 to 14) (size 15 to 20)
#    0.000    1.500    2.500    1.875    1.750    7.000 
#    4.500    1.875    0.000    0.000    0.000    0.000 
#    0.000    0.000    0.000    0.000    0.000    0.000 
#
# Total GULP energy -198403.267411 kJ/mol
# GULP energy per Si atom -12400.204213 kJ/mol
# Density = 2.121687 g / cm^3
# Si number density = 21.265268 Si / 1000 Ang^3
#
#
#
# Elastic Constant Matrix: (Units=GPa)
#
#
# Indices 1 2 3 4 5 6 
#
# 1 74.5886 24.6787 35.1429 3.2566 -5.9482 13.8897
# 2 24.6787 133.2115 26.8018 6.9268 -2.7230 23.7818
# 3 35.1429 26.8018 90.6111 4.0855 -8.3731 5.4309
# 4 3.2566 6.9268 4.0855 29.6759 0.9207 4.2295
# 5 -5.9482 -2.7230 -8.3731 0.9207 29.6751 2.0367
# 6 13.8897 23.7818 5.4309 4.2295 2.0367 27.8244
#
#
#
# Elastic Compliance Matrix: (Units=1/GPa)
#
#
# Indices 1 2 3 4 5 6 
#
# 1 0.018109 -0.000757 -0.006143 0.000013 0.002332 -0.007367
# 2 -0.000757 0.009379 -0.001950 -0.000835 0.000677 -0.007180
# 3 -0.006143 -0.001950 0.014161 -0.001178 0.002487 0.001966
# 4 0.000013 -0.000835 -0.001178 0.034696 -0.001191 -0.004249
# 5 0.002332 0.000677 0.002487 -0.001191 0.035284 -0.004630
# 6 -0.007367 -0.007180 0.001966 -0.004249 -0.004630 0.046355
#
#
# Mechanical properties :
#
#
# Convention : Reuss Voigt Hill
#
# Bulk Modulus (GPa) = 41.75649 52.40644 47.08147
# Shear Modulus (GPa) = 27.22342 31.55427 29.38884
#
# Velocity S-wave (km/s) = 3.58185 3.85624 3.72157
# Velocity P-wave (km/s) = 6.06505 6.67272 6.37612
#
# Compressibility (1/GPa) = 0.02394837
#
# Stress axis : x y z
#
# Youngs Moduli (GPa) = 55.22171 106.62679 70.61869
#
# Poissons Ratio (x) = 0.08068 0.43382
# Poissons Ratio (y) = 0.04179 0.13770
# Poissons Ratio (z) = 0.33923 0.20792
#
# Static dielectric constant tensor:
#      x y z
#    x 3.604730 0.144440 0.084090 
#    y 0.144440 4.426440 -0.034250 
#    z 0.084090 -0.034250 3.861780 
# 
# 
# High freq. dielectric constant tensor:
#      x y z
#    x 1.817470 0.010000 0.008750 
#    y 0.010000 1.855770 0.005190 
#    z 0.008750 0.005190 1.830350 
# 
# From -- ./inp_files/388869.got.cif
#   From: 2010.06.25/outbox.cif.g09.slc.cpg/sg2_195_cif.got.tgz:388869.got - 2010.06.27 13:26:56.
