data_PCOD8008844
_publ_section_title
;
Structure prediction by ZEFSAII (Michael W. Deem and Ramdas Pophale) SiO2 
 PCOD8008844
Probable space group: P -1
;
_chemical_formula_sum "Si O2"
_cell_formula_units_Z 16
_cell_length_a 23.254848
_cell_length_b 8.892725
_cell_length_c 22.376142
_cell_angle_alpha 43.705477
_cell_angle_beta 20.922185
_cell_angle_gamma 32.949006
_cell_volume 853.381615
_symmetry_space_group_name_H-M "P -1"
_symmetry_group_IT_number 2
_symmetry_cell_setting 'triclinic'
loop_
_space_group_symop_operation_xyz
x,y,z
-x,-y,-z
loop_
_atom_site_type_symbol
_atom_site_label
_atom_site_fract_x
_atom_site_fract_y
_atom_site_fract_z
Si Si1 0.310962 0.609618 0.277691
Si Si2 0.621118 0.931953 0.640569
Si Si3 0.086918 0.257097 0.701690
Si Si4 0.512515 0.180674 0.482847
Si Si5 0.971559 0.202637 0.384939
Si Si6 0.324649 0.661087 0.914200
Si Si7 0.387270 0.673238 0.379917
Si Si8 0.250138 0.232492 0.826317
O O1 0.346143 0.344318 0.288674
O O2 0.163023 0.710589 0.449822
O O3 0.536916 0.503325 0.112626
O O4 0.201416 0.873485 0.261343
O O5 0.800396 0.829382 0.446943
O O6 0.651993 0.053388 0.633531
O O7 0.381797 0.174586 0.775155
O O8 0.988350 0.577048 0.726288
O O9 0.252742 0.027983 0.656163
O O10 0.902477 0.244324 0.880857
O O11 0.481040 0.440708 0.408221
O O12 0.329486 0.313293 0.672268
O O13 0.500000 0.000000 0.500000
O O14 0.838841 0.224072 0.452153
O O15 0.442107 0.452812 0.802789
O O16 0.299091 0.939694 0.845775
O O17 0.000000 0.500000 0.000000
#
# Coordination Sequence:
#
# PCOD8008844 Si02
#       8
#     2   2   2   2   2   2   2   2
#     4   8  17  37  58  75 107 141 181 223 261 319
#     4   9  21  37  53  81 109 139 179 221 267 319
#     4  10  21  35  55  81 109 141 181 215 265 323
#     4  11  20  37  54  77 114 144 176 219 260 319
#     4   9  17  35  59  78 102 147 180 215 271 318
#     4  10  21  36  54  82 108 139 183 223 261 316
#     4  11  21  35  56  81 110 143 178 218 268 316
#     4  10  22  37  54  77 108 148 182 213 264 319
#
# _framework density 18.748939
#
# number of rings (size 3 to 8) (size 9 to 14) (size 15 to 20)
#    0.000    2.250    2.500    1.500    3.500    3.500 
#    0.000    0.000    0.000    1.500    0.000    0.000 
#    0.000    0.000    0.000    0.000    0.000    0.000 
#
# Total GULP energy -198415.758039 kJ/mol
# GULP energy per Si atom -12400.984877 kJ/mol
# Density = 1.870627 g / cm^3
# Si number density = 18.748939 Si / 1000 Ang^3
#
#
#
# Elastic Constant Matrix: (Units=GPa)
#
#
# Indices 1 2 3 4 5 6 
#
# 1 80.3472 52.7053 26.0283 4.2924 -14.5500 11.2383
# 2 52.7053 108.7773 31.2689 10.0513 -9.2751 -4.0117
# 3 26.0283 31.2689 93.9865 4.8114 -21.4141 -7.2642
# 4 4.2924 10.0513 4.8114 24.5293 1.5151 -4.9600
# 5 -14.5500 -9.2751 -21.4141 1.5151 20.3526 0.5624
# 6 11.2383 -4.0117 -7.2642 -4.9600 0.5624 37.9117
#
#
#
# Elastic Compliance Matrix: (Units=1/GPa)
#
#
# Indices 1 2 3 4 5 6 
#
# 1 0.022422 -0.009757 -0.001016 -0.002079 0.010898 -0.008307
# 2 -0.009757 0.014792 -0.002381 -0.002987 -0.002617 0.003649
# 3 -0.001016 -0.002381 0.015295 -0.002235 0.014380 0.002474
# 4 -0.002079 -0.002987 -0.002235 0.044507 -0.008673 0.005824
# 5 0.010898 -0.002617 0.014380 -0.008673 0.071589 -0.002949
# 6 -0.008307 0.003649 0.002474 0.005824 -0.002949 0.030506
#
#
# Mechanical properties :
#
#
# Convention : Reuss Voigt Hill
#
# Bulk Modulus (GPa) = 38.16424 55.90178 47.03301
# Shear Modulus (GPa) = 21.35360 28.09928 24.72644
#
# Velocity S-wave (km/s) = 3.37845 3.87552 3.63549
# Velocity P-wave (km/s) = 5.96810 7.06448 6.53931
#
# Compressibility (1/GPa) = 0.02620254
#
# Stress axis : x y z
#
# Youngs Moduli (GPa) = 44.59895 67.60227 65.38034
#
# Poissons Ratio (x) = 0.65959 0.06642
# Poissons Ratio (y) = 0.43515 0.15565
# Poissons Ratio (z) = 0.04531 0.16094
#
# Static dielectric constant tensor:
#      x y z
#    x 3.436000 -0.151880 -0.204810 
#    y -0.151880 3.795580 0.087690 
#    z -0.204810 0.087690 3.283220 
# 
# 
# High freq. dielectric constant tensor:
#      x y z
#    x 1.720890 0.002040 -0.018350 
#    y 0.002040 1.734770 0.003180 
#    z -0.018350 0.003180 1.712770 
# 
# From -- ./inp_files/176141.got.cif
#   From: 2010.06.25/outbox.cif.g09.slc.cpg/sg2_89_cif.got.tgz:176141.got - 2010.06.27 13:26:56.
