data_PCOD8008390
_publ_section_title
;
Structure prediction by ZEFSAII (Michael W. Deem and Ramdas Pophale) SiO2 
 PCOD8008390
Probable space group: P -1
;
_chemical_formula_sum "Si O2"
_cell_formula_units_Z 16
_cell_length_a 17.445416
_cell_length_b 19.435243
_cell_length_c 8.255550
_cell_angle_alpha 122.183643
_cell_angle_beta 130.646908
_cell_angle_gamma 20.174119
_cell_volume 698.438641
_symmetry_space_group_name_H-M "P -1"
_symmetry_group_IT_number 2
_symmetry_cell_setting 'triclinic'
loop_
_space_group_symop_operation_xyz
x,y,z
-x,-y,-z
loop_
_atom_site_type_symbol
_atom_site_label
_atom_site_fract_x
_atom_site_fract_y
_atom_site_fract_z
Si Si1 0.561929 0.104282 0.936941
Si Si2 0.937475 0.336406 0.334744
Si Si3 0.796782 0.717534 0.543988
Si Si4 0.930729 0.487421 0.025875
Si Si5 0.029684 0.710198 0.302145
Si Si6 0.338762 0.627359 0.704380
Si Si7 0.890453 0.196007 0.036755
Si Si8 0.365441 0.783899 0.992958
O O1 0.493632 0.095735 0.677754
O O2 0.299675 0.305348 0.928083
O O3 0.660772 0.119499 0.037841
O O4 0.763022 0.913598 0.093828
O O5 0.017425 0.266082 0.542738
O O6 0.981112 0.220567 0.150730
O O7 0.130245 0.255001 0.414245
O O8 0.633173 0.588276 0.218475
O O9 0.000000 0.500000 0.500000
O O10 0.817661 0.712508 0.761160
O O11 0.832476 0.474107 0.801898
O O12 0.000000 0.500000 0.000000
O O13 0.193149 0.671848 0.441084
O O14 0.173396 0.758230 0.804678
O O15 0.357368 0.707973 0.773645
O O16 0.621594 0.376569 0.800023
O O17 0.122527 0.963248 0.010816
#
# Coordination Sequence:
#
# PCOD8008390 Si02
#       8
#     2   2   2   2   2   2   2   2
#     4  11  26  43  64  99 135 171 225 266 317 398
#     4  10  21  41  67  94 135 168 219 274 316 391
#     4  10  20  43  66  90 130 171 211 269 322 382
#     4  11  25  44  69  95 134 174 214 270 336 381
#     4  11  25  42  64 100 135 171 217 272 329 378
#     4   9  21  41  61  97 138 163 215 280 318 384
#     4   9  20  38  67  98 124 173 221 267 327 385
#     4  11  21  39  71  94 127 178 223 261 326 391
#
# _framework density 22.908238999999998
#
# number of rings (size 3 to 8) (size 9 to 14) (size 15 to 20)
#    0.000    1.750    2.500    2.625    1.750    6.000 
#    0.000    1.250    0.000    0.000    0.000    0.000 
#    0.000    0.000    0.000    0.000    0.000    0.000 
#
# Total GULP energy -198302.427922 kJ/mol
# GULP energy per Si atom -12393.901745 kJ/mol
# Density = 2.285610 g / cm^3
# Si number density = 22.908239 Si / 1000 Ang^3
#
#
#
# Elastic Constant Matrix: (Units=GPa)
#
#
# Indices 1 2 3 4 5 6 
#
# 1 109.7036 0.8711 54.0194 -2.5249 10.8558 8.1423
# 2 0.8711 73.2823 38.7438 -11.4514 4.6771 6.0965
# 3 54.0194 38.7438 153.0487 1.8469 7.6178 10.6496
# 4 -2.5249 -11.4514 1.8469 27.5519 11.1011 0.3005
# 5 10.8558 4.6771 7.6178 11.1011 41.2451 1.4325
# 6 8.1423 6.0965 10.6496 0.3005 1.4325 23.4892
#
#
#
# Elastic Compliance Matrix: (Units=1/GPa)
#
#
# Indices 1 2 3 4 5 6 
#
# 1 0.012183 0.003622 -0.004888 0.004525 -0.003836 -0.002771
# 2 0.003622 0.018843 -0.005702 0.010494 -0.004743 -0.003406
# 3 -0.004888 -0.005702 0.009778 -0.003958 0.001237 -0.001284
# 4 0.004525 0.010494 -0.003958 0.047103 -0.014250 -0.002232
# 5 -0.003836 -0.004743 0.001237 -0.014250 0.029386 0.000390
# 6 -0.002771 -0.003406 -0.001284 -0.002232 0.000390 0.045004
#
#
# Mechanical properties :
#
#
# Convention : Reuss Voigt Hill
#
# Bulk Modulus (GPa) = 37.21847 58.14479 47.68163
# Shear Modulus (GPa) = 26.99937 34.61727 30.80832
#
# Velocity S-wave (km/s) = 3.43678 3.89154 3.67121
# Velocity P-wave (km/s) = 5.65956 6.75491 6.23135
#
# Compressibility (1/GPa) = 0.02686838
#
# Stress axis : x y z
#
# Youngs Moduli (GPa) = 82.08202 53.06909 102.27054
#
# Poissons Ratio (x) = -0.19221 0.49987
# Poissons Ratio (y) = -0.29728 0.58315
# Poissons Ratio (z) = 0.40119 0.30260
#
# Static dielectric constant tensor:
#      x y z
#    x 4.416380 0.225400 -0.108190 
#    y 0.225400 3.964000 -0.157060 
#    z -0.108190 -0.157060 4.616660 
# 
# 
# High freq. dielectric constant tensor:
#      x y z
#    x 1.908610 0.017310 0.018800 
#    y 0.017310 1.902650 0.003290 
#    z 0.018800 0.003290 1.905040 
# 
# From -- ./inp_files/337762.got.cif
#   From: 2010.06.25/outbox.cif.g09.slc.cpg/sg2_169_cif.got.tgz:337762.got - 2010.06.27 13:26:56.
