data_PCOD8008297
_publ_section_title
;
Structure prediction by ZEFSAII (Michael W. Deem and Ramdas Pophale) SiO2 
 PCOD8008297
Probable space group: P -1
;
_chemical_formula_sum "Si O2"
_cell_formula_units_Z 14
_cell_length_a 28.108875
_cell_length_b 28.389943
_cell_length_c 8.565216
_cell_angle_alpha 32.276412
_cell_angle_beta 32.606542
_cell_angle_gamma 9.760163
_cell_volume 615.594747
_symmetry_space_group_name_H-M "P -1"
_symmetry_group_IT_number 2
_symmetry_cell_setting 'triclinic'
loop_
_space_group_symop_operation_xyz
x,y,z
-x,-y,-z
loop_
_atom_site_type_symbol
_atom_site_label
_atom_site_fract_x
_atom_site_fract_y
_atom_site_fract_z
Si Si1 0.348241 0.620866 0.419667
Si Si2 0.847421 0.375631 0.956462
Si Si3 0.127338 0.648357 0.413570
Si Si4 0.415199 0.901585 0.827771
Si Si5 0.599625 0.082786 0.807542
Si Si6 0.273427 0.226832 0.617951
Si Si7 0.867372 0.163386 0.068229
O O1 0.500000 0.500000 0.500000
O O2 0.145312 0.727799 0.696190
O O3 0.583645 0.382879 0.298765
O O4 0.125827 0.909982 0.186913
O O5 0.858089 0.358158 0.792239
O O6 0.545619 0.697566 0.943928
O O7 0.090338 0.212943 0.798878
O O8 0.290848 0.404774 0.699884
O O9 0.236692 0.636209 0.219759
O O10 0.808595 0.947516 0.516625
O O11 0.615726 0.795230 0.525303
O O12 0.404190 0.896555 0.056232
O O13 0.706160 0.882132 0.031034
O O14 0.000000 0.500000 0.500000
O O15 0.500000 0.000000 0.500000
O O16 0.000000 0.000000 0.000000
#
# Coordination Sequence:
#
# PCOD8008297 Si02
#       7
#     2   2   2   2   2   2   2
#     4  12  26  48  70  95 135 189 230 273 348 410
#     4  12  26  43  67  99 140 179 227 281 339 407
#     4  12  26  44  65 100 144 176 221 283 356 394
#     4  11  24  43  71 102 131 177 234 279 326 414
#     4  11  24  43  71  99 134 179 223 282 341 404
#     4  10  20  42  71 103 136 174 226 279 338 401
#     4  12  28  46  70 101 136 175 235 294 336 401
#
# _framework density 22.742234
#
# number of rings (size 3 to 8) (size 9 to 14) (size 15 to 20)
#    0.000    0.571    1.429    7.714    8.000    0.000 
#    0.000    4.286    0.000    0.000    0.000    0.000 
#    0.000    0.000    0.000    0.000    0.000    0.000 
#
# Total GULP energy -173450.660967 kJ/mol
# GULP energy per Si atom -12389.332926 kJ/mol
# Density = 2.269047 g / cm^3
# Si number density = 22.742234 Si / 1000 Ang^3
#
#
#
# Elastic Constant Matrix: (Units=GPa)
#
#
# Indices 1 2 3 4 5 6 
#
# 1 87.0780 27.5522 52.6954 16.5505 -6.3445 6.7342
# 2 27.5522 126.7176 39.4587 0.5826 1.8767 -1.5673
# 3 52.6954 39.4587 117.9959 -0.4357 -4.4728 3.9641
# 4 16.5505 0.5826 -0.4357 46.2705 5.2377 4.7951
# 5 -6.3445 1.8767 -4.4728 5.2377 32.0174 10.2633
# 6 6.7342 -1.5673 3.9641 4.7951 10.2633 44.3437
#
#
#
# Elastic Compliance Matrix: (Units=1/GPa)
#
#
# Indices 1 2 3 4 5 6 
#
# 1 0.018337 -0.001762 -0.007365 -0.006870 0.004640 -0.002520
# 2 -0.001762 0.009037 -0.002333 0.000566 -0.001656 0.001118
# 3 -0.007365 -0.002333 0.012573 0.002813 0.000107 -0.000417
# 4 -0.006870 0.000566 0.002813 0.024710 -0.004804 -0.000748
# 5 0.004640 -0.001656 0.000107 -0.004804 0.035787 -0.008536
# 6 -0.002520 0.001118 -0.000417 -0.000748 -0.008536 0.025067
#
#
# Mechanical properties :
#
#
# Convention : Reuss Voigt Hill
#
# Bulk Modulus (GPa) = 58.73216 63.46714 61.09965
# Shear Modulus (GPa) = 32.44524 38.66532 35.55528
#
# Velocity S-wave (km/s) = 3.78120 4.12777 3.95828
# Velocity P-wave (km/s) = 6.70407 7.11939 6.91485
#
# Compressibility (1/GPa) = 0.01702645
#
# Stress axis : x y z
#
# Youngs Moduli (GPa) = 54.53488 110.65611 79.53811
#
# Poissons Ratio (x) = 0.19498 0.58577
# Poissons Ratio (y) = 0.09609 0.18559
# Poissons Ratio (z) = 0.40163 0.25820
#
# Static dielectric constant tensor:
#      x y z
#    x 3.161230 0.565420 0.325920 
#    y 0.565420 3.785320 -0.045990 
#    z 0.325920 -0.045990 3.671110 
# 
# 
# High freq. dielectric constant tensor:
#      x y z
#    x 1.879730 0.006720 -0.004950 
#    y 0.006720 1.923040 0.005250 
#    z -0.004950 0.005250 1.902810 
# 
# From -- ./inp_files/328250.got.cif
#   From: 2010.06.25/outbox.cif.g09.slc.cpg/sg2_165_cif.got.tgz:328250.got - 2010.06.27 13:26:56.
