data_PCOD8008925
_publ_section_title
;
Structure prediction by ZEFSAII (Michael W. Deem and Ramdas Pophale) SiO2 
 PCOD8008925
Probable space group: P -1
;
_chemical_formula_sum "Si O2"
_cell_formula_units_Z 16
_cell_length_a 20.061203
_cell_length_b 7.288499
_cell_length_c 5.369416
_cell_angle_alpha 124.661644
_cell_angle_beta 104.196581
_cell_angle_gamma 67.585110
_cell_volume 596.554812
_symmetry_space_group_name_H-M "P -1"
_symmetry_group_IT_number 2
_symmetry_cell_setting 'triclinic'
loop_
_space_group_symop_operation_xyz
x,y,z
-x,-y,-z
loop_
_atom_site_type_symbol
_atom_site_label
_atom_site_fract_x
_atom_site_fract_y
_atom_site_fract_z
Si Si1 0.055700 0.844734 0.620550
Si Si2 0.821707 0.274975 0.685272
Si Si3 0.081269 0.162152 0.297055
Si Si4 0.200838 0.377796 0.601407
Si Si5 0.546730 0.734849 0.345593
Si Si6 0.421193 0.500576 0.307856
Si Si7 0.300689 0.933057 0.620961
Si Si8 0.319731 0.277322 0.281198
O O1 0.127757 0.650845 0.424962
O O2 0.088590 0.014949 0.939249
O O3 0.000000 0.000000 0.500000
O O4 0.004899 0.722157 0.636196
O O5 0.875982 0.016999 0.590940
O O6 0.746413 0.241642 0.499788
O O7 0.806438 0.440602 0.041486
O O8 0.121395 0.359703 0.459547
O O9 0.238863 0.436177 0.422384
O O10 0.259480 0.128740 0.534492
O O11 0.526910 0.600788 0.473526
O O12 0.628257 0.747160 0.450638
O O13 0.500000 0.000000 0.500000
O O14 0.537384 0.591390 0.982654
O O15 0.381153 0.780881 0.482330
O O16 0.354568 0.390227 0.179589
O O17 0.312254 0.036352 0.979795
#
# Coordination Sequence:
#
# PCOD8008925 Si02
#       8
#     2   2   2   2   2   2   2   2
#     4   9  18  38  58  81 118 164 210 268 324 392
#     4  10  21  35  59  88 125 162 217 264 337 381
#     4   9  20  37  59  84 121 163 212 266 329 392
#     4  11  23  38  61  92 129 164 219 269 328 392
#     4  10  22  45  71  99 134 175 217 267 323 387
#     4  10  24  42  70  96 133 175 215 270 324 384
#     4  11  22  39  61  95 127 171 217 269 324 387
#     4  10  23  37  65  91 133 166 217 267 322 386
#
# _framework density 26.820668000000001
#
# number of rings (size 3 to 8) (size 9 to 14) (size 15 to 20)
#    0.750    1.250    0.000    3.375    1.750    3.500 
#    0.000    6.875    0.000    0.000    0.000    0.000 
#    0.000    0.000    0.000    0.000    0.000    0.000 
#
# Total GULP energy -198270.982443 kJ/mol
# GULP energy per Si atom -12391.936403 kJ/mol
# Density = 2.675962 g / cm^3
# Si number density = 26.820668 Si / 1000 Ang^3
#
#
#
# Elastic Constant Matrix: (Units=GPa)
#
#
# Indices 1 2 3 4 5 6 
#
# 1 113.8088 39.9234 70.8930 -4.2826 -12.0161 -0.4128
# 2 39.9234 77.5505 15.0299 7.3754 -14.1168 -9.6204
# 3 70.8930 15.0299 184.3982 -16.4423 -12.9256 10.8262
# 4 -4.2826 7.3754 -16.4423 23.0890 -9.7783 -5.6895
# 5 -12.0161 -14.1168 -12.9256 -9.7783 62.8223 3.7256
# 6 -0.4128 -9.6204 10.8262 -5.6895 3.7256 56.6981
#
#
#
# Elastic Compliance Matrix: (Units=1/GPa)
#
#
# Indices 1 2 3 4 5 6 
#
# 1 0.014078 -0.006376 -0.004723 0.001515 0.000522 0.000040
# 2 -0.006376 0.017125 0.000626 -0.004892 0.001870 0.002126
# 3 -0.004723 0.000626 0.007806 0.004937 0.001673 -0.001033
# 4 0.001515 -0.004892 0.004937 0.052910 0.008264 0.003005
# 5 0.000522 0.001870 0.001673 0.008264 0.018089 -0.000358
# 6 0.000040 0.002126 -0.001033 0.003005 -0.000358 0.018521
#
#
# Mechanical properties :
#
#
# Convention : Reuss Voigt Hill
#
# Bulk Modulus (GPa) = 55.36612 69.71670 62.54141
# Shear Modulus (GPa) = 32.15481 45.18265 38.66873
#
# Velocity S-wave (km/s) = 3.46624 4.10887 3.80116
# Velocity P-wave (km/s) = 6.05869 6.96853 6.52948
#
# Compressibility (1/GPa) = 0.01806159
#
# Stress axis : x y z
#
# Youngs Moduli (GPa) = 71.03390 58.39274 128.10487
#
# Poissons Ratio (x) = 0.37232 0.60508
# Poissons Ratio (y) = 0.45292 -0.08013
# Poissons Ratio (z) = 0.33551 -0.03653
#
# Static dielectric constant tensor:
#      x y z
#    x 5.967260 0.030780 -0.166390 
#    y 0.030780 4.688880 0.000330 
#    z -0.166390 0.000330 4.503450 
# 
# 
# High freq. dielectric constant tensor:
#      x y z
#    x 2.126200 -0.007980 0.000290 
#    y -0.007980 2.096030 -0.002070 
#    z 0.000290 -0.002070 2.066960 
# 
# From -- ./inp_files/116485.got.cif
#   From: 2010.06.25/outbox.cif.g09.slc.cpg/sg2_59_cif.got.tgz:116485.got - 2010.06.27 13:26:56.
