data_PCOD8008159
_publ_section_title
;
Structure prediction by ZEFSAII (Michael W. Deem and Ramdas Pophale) SiO2 
 PCOD8008159
Probable space group: P -1
;
_chemical_formula_sum "Si O2"
_cell_formula_units_Z 14
_cell_length_a 4.955023
_cell_length_b 15.577428
_cell_length_c 10.996921
_cell_angle_alpha 132.101025
_cell_angle_beta 70.198000
_cell_angle_gamma 87.498878
_cell_volume 546.162394
_symmetry_space_group_name_H-M "P -1"
_symmetry_group_IT_number 2
_symmetry_cell_setting 'triclinic'
loop_
_space_group_symop_operation_xyz
x,y,z
-x,-y,-z
loop_
_atom_site_type_symbol
_atom_site_label
_atom_site_fract_x
_atom_site_fract_y
_atom_site_fract_z
Si Si1 0.431341 0.153747 0.271216
Si Si2 0.701034 0.011021 0.622582
Si Si3 0.182006 0.474473 0.321430
Si Si4 0.688555 0.787135 0.303746
Si Si5 0.343871 0.125498 0.993263
Si Si6 0.111532 0.674022 0.920880
Si Si7 0.261397 0.725808 0.479499
O O1 0.569571 0.245579 0.401602
O O2 0.085622 0.170536 0.386524
O O3 0.679735 0.009635 0.106376
O O4 0.378563 0.194443 0.175508
O O5 0.708914 0.868207 0.497648
O O6 0.417438 0.103933 0.676431
O O7 0.665081 0.082340 0.824683
O O8 0.000000 0.000000 0.500000
O O9 0.970816 0.441924 0.223622
O O10 0.240879 0.592755 0.375031
O O11 0.000000 0.500000 0.500000
O O12 0.481105 0.641122 0.830313
O O13 0.457018 0.721320 0.320378
O O14 0.000347 0.693243 0.099376
O O15 0.046982 0.212286 0.042600
#
# Coordination Sequence:
#
# PCOD8008159 Si02
#       7
#     2   2   2   2   2   2   2
#     4  11  25  44  71 110 145 193 231 301 365 430
#     4  10  20  42  67 104 148 191 230 286 363 444
#     4  12  28  51  74 102 143 197 247 299 356 425
#     4  10  24  41  70 107 143 189 236 295 362 427
#     4  10  23  43  71 109 148 183 239 292 364 429
#     4  11  27  46  77 108 140 191 245 300 354 432
#     4  12  26  48  72 104 150 193 244 297 359 427
#
# _framework density 25.633402
#
# number of rings (size 3 to 8) (size 9 to 14) (size 15 to 20)
#    0.000    1.143    1.429    3.000    4.000    8.000 
#    5.143    0.000    0.000    0.000    0.000    0.000 
#    0.000    0.000    0.000    0.000    0.000    0.000 
#
# Total GULP energy -173433.378785 kJ/mol
# GULP energy per Si atom -12388.098485 kJ/mol
# Density = 2.557506 g / cm^3
# Si number density = 25.633402 Si / 1000 Ang^3
#
#
#
# Elastic Constant Matrix: (Units=GPa)
#
#
# Indices 1 2 3 4 5 6 
#
# 1 84.8041 -2.3325 33.5159 -15.7750 -13.1173 2.7299
# 2 -2.3325 106.9652 33.8428 -9.3285 -14.9466 6.0187
# 3 33.5159 33.8428 145.0421 -24.7102 -16.1975 -4.2503
# 4 -15.7750 -9.3285 -24.7102 38.8233 0.3875 -4.0997
# 5 -13.1173 -14.9466 -16.1975 0.3875 35.8311 -11.0328
# 6 2.7299 6.0187 -4.2503 -4.0997 -11.0328 29.0294
#
#
#
# Elastic Compliance Matrix: (Units=1/GPa)
#
#
# Indices 1 2 3 4 5 6 
#
# 1 0.014520 0.002219 -0.002442 0.004878 0.005237 0.000496
# 2 0.002219 0.010911 -0.002322 0.001897 0.003976 -0.001032
# 3 -0.002442 -0.002322 0.009336 0.004791 0.003572 0.004112
# 4 0.004878 0.001897 0.004791 0.031901 0.006499 0.006825
# 5 0.005237 0.003976 0.003572 0.006499 0.037450 0.014357
# 6 0.000496 -0.001032 0.004112 0.006825 0.014357 0.041637
#
#
# Mechanical properties :
#
#
# Convention : Reuss Voigt Hill
#
# Bulk Modulus (GPa) = 33.69704 51.87376 42.78540
# Shear Modulus (GPa) = 31.10669 38.85577 34.98123
#
# Velocity S-wave (km/s) = 3.48734 3.89758 3.69816
# Velocity P-wave (km/s) = 5.42123 6.36676 5.91292
#
# Compressibility (1/GPa) = 0.02967619
#
# Stress axis : x y z
#
# Youngs Moduli (GPa) = 68.87197 91.65245 107.10971
#
# Poissons Ratio (x) = -0.20335 0.26160
# Poissons Ratio (y) = -0.15280 0.24866
# Poissons Ratio (z) = 0.16821 0.21278
#
# Static dielectric constant tensor:
#      x y z
#    x 4.408670 -0.372460 0.110840 
#    y -0.372460 3.867170 -0.272990 
#    z 0.110840 -0.272990 5.192560 
# 
# 
# High freq. dielectric constant tensor:
#      x y z
#    x 2.010890 -0.001850 0.000930 
#    y -0.001850 2.030750 -0.013240 
#    z 0.000930 -0.013240 2.045310 
# 
# From -- ./inp_files/369062.got.cif
#   From: 2010.06.25/outbox.cif.g09.slc.cpg/sg2_185_cif.got.tgz:369062.got - 2010.06.27 13:26:56.
