data_PCOD8008643
_publ_section_title
;
Structure prediction by ZEFSAII (Michael W. Deem and Ramdas Pophale) SiO2 
 PCOD8008643
Probable space group: P -1
;
_chemical_formula_sum "Si O2"
_cell_formula_units_Z 16
_cell_length_a 8.577971
_cell_length_b 19.248019
_cell_length_c 12.901486
_cell_angle_alpha 28.520830
_cell_angle_beta 56.460464
_cell_angle_gamma 44.731613
_cell_volume 699.344814
_symmetry_space_group_name_H-M "P -1"
_symmetry_group_IT_number 2
_symmetry_cell_setting 'triclinic'
loop_
_space_group_symop_operation_xyz
x,y,z
-x,-y,-z
loop_
_atom_site_type_symbol
_atom_site_label
_atom_site_fract_x
_atom_site_fract_y
_atom_site_fract_z
Si Si1 0.247102 0.324475 0.647266
Si Si2 0.082278 0.187084 0.730556
Si Si3 0.753009 0.513253 0.285066
Si Si4 0.392766 0.632467 0.633615
Si Si5 0.309521 0.724355 0.908984
Si Si6 0.839679 0.771480 0.980292
Si Si7 0.729141 0.154115 0.011437
Si Si8 0.253193 0.904906 0.496316
O O1 0.266919 0.203755 0.701893
O O2 0.432643 0.370123 0.508094
O O3 0.000000 0.500000 0.500000
O O4 0.284199 0.229135 0.868602
O O5 0.878111 0.374409 0.513753
O O6 0.960975 0.137044 0.924170
O O7 0.228971 0.030184 0.799600
O O8 0.776825 0.399081 0.325727
O O9 0.486657 0.673269 0.192128
O O10 0.880291 0.613946 0.096466
O O11 0.260301 0.813846 0.505545
O O12 0.517388 0.483289 0.869920
O O13 0.397296 0.778011 0.706485
O O14 0.068048 0.755085 0.943182
O O15 0.309107 0.828170 0.874106
O O16 0.680250 0.956881 0.734096
O O17 0.000000 0.000000 0.500000
#
# Coordination Sequence:
#
# PCOD8008643 Si02
#       8
#     2   2   2   2   2   2   2   2
#     4  12  21  40  66  97 134 169 214 267 332 406
#     4  11  22  38  63  93 139 174 205 270 335 395
#     4  11  24  39  63  99 133 167 216 271 330 393
#     4  11  24  40  70  99 125 176 218 265 339 389
#     4  10  20  46  68  88 131 175 221 266 321 392
#     4  11  23  41  65  98 133 168 212 276 326 386
#     4  10  23  38  62  98 132 170 221 263 333 385
#     4  10  25  43  67  91 129 174 226 271 314 390
#
# _framework density 22.878557000000001
#
# number of rings (size 3 to 8) (size 9 to 14) (size 15 to 20)
#    0.000    1.250    3.750    1.500    7.000    0.500 
#    0.000    5.000    2.750    0.000    0.000    0.000 
#    0.000    0.000    0.000    0.000    0.000    0.000 
#
# Total GULP energy -198291.232534 kJ/mol
# GULP energy per Si atom -12393.202033 kJ/mol
# Density = 2.282648 g / cm^3
# Si number density = 22.878557 Si / 1000 Ang^3
#
#
#
# Elastic Constant Matrix: (Units=GPa)
#
#
# Indices 1 2 3 4 5 6 
#
# 1 92.2530 28.4930 43.0617 -0.4386 -6.2339 32.0022
# 2 28.4930 91.2877 39.1859 -9.7244 -13.3272 24.9808
# 3 43.0617 39.1859 166.1711 11.4523 -6.9933 24.3743
# 4 -0.4386 -9.7244 11.4523 34.0221 15.0216 -2.4169
# 5 -6.2339 -13.3272 -6.9933 15.0216 23.5198 -12.5531
# 6 32.0022 24.9808 24.3743 -2.4169 -12.5531 36.6898
#
#
#
# Elastic Compliance Matrix: (Units=1/GPa)
#
#
# Indices 1 2 3 4 5 6 
#
# 1 0.016847 -0.000891 -0.002471 0.002407 -0.005958 -0.014326
# 2 -0.000891 0.014805 -0.002466 0.004084 0.001057 -0.007035
# 3 -0.002471 -0.002466 0.007780 -0.004685 0.002908 -0.000648
# 4 0.002407 0.004084 -0.004685 0.046166 -0.033334 -0.010131
# 5 -0.005958 0.001057 0.002908 -0.033334 0.078149 0.027087
# 6 -0.014326 -0.007035 -0.000648 -0.010131 0.027087 0.053572
#
#
# Mechanical properties :
#
#
# Convention : Reuss Voigt Hill
#
# Bulk Modulus (GPa) = 35.99993 63.46589 49.73291
# Shear Modulus (GPa) = 20.98793 34.77778 27.88285
#
# Velocity S-wave (km/s) = 3.03209 3.90308 3.49482
# Velocity P-wave (km/s) = 5.29409 6.93633 6.17009
#
# Compressibility (1/GPa) = 0.02777783
#
# Stress axis : x y z
#
# Youngs Moduli (GPa) = 59.35845 67.54417 128.53463
#
# Poissons Ratio (x) = 0.06015 0.31760
# Poissons Ratio (y) = 0.05286 0.31691
# Poissons Ratio (z) = 0.14667 0.16653
#
# Static dielectric constant tensor:
#      x y z
#    x 4.207740 0.349880 0.068570 
#    y 0.349880 3.924100 -0.072900 
#    z 0.068570 -0.072900 5.184340 
# 
# 
# High freq. dielectric constant tensor:
#      x y z
#    x 1.899690 0.021430 -0.000340 
#    y 0.021430 1.884670 -0.018910 
#    z -0.000340 -0.018910 1.913900 
# 
# From -- ./inp_files/318185.got.cif
#   From: 2010.06.25/outbox.cif.g09.slc.cpg/sg2_160_cif.got.tgz:318185.got - 2010.06.27 13:26:56.
