data_PCOD8008920
_publ_section_title
;
Structure prediction by ZEFSAII (Michael W. Deem and Ramdas Pophale) SiO2 
 PCOD8008920
Probable space group: P -1
;
_chemical_formula_sum "Si O2"
_cell_formula_units_Z 12
_cell_length_a 13.381638
_cell_length_b 9.632619
_cell_length_c 9.680594
_cell_angle_alpha 135.198133
_cell_angle_beta 147.043614
_cell_angle_gamma 46.499943
_cell_volume 464.050077
_symmetry_space_group_name_H-M "P -1"
_symmetry_group_IT_number 2
_symmetry_cell_setting 'triclinic'
loop_
_space_group_symop_operation_xyz
x,y,z
-x,-y,-z
loop_
_atom_site_type_symbol
_atom_site_label
_atom_site_fract_x
_atom_site_fract_y
_atom_site_fract_z
Si Si1 0.088865 0.121579 0.039439
Si Si2 0.613477 0.997158 0.490901
Si Si3 0.893439 0.293907 0.372576
Si Si4 0.668167 0.381914 0.712497
Si Si5 0.288616 0.386094 0.825613
Si Si6 0.808624 0.521731 0.708890
O O1 0.889275 0.282127 0.927423
O O2 0.837391 0.952710 0.771339
O O3 0.095471 0.941577 0.811177
O O4 0.239108 0.251458 0.251448
O O5 0.577452 0.816690 0.226667
O O6 0.500000 0.000000 0.500000
O O7 0.559857 0.203098 0.484261
O O8 0.741909 0.433355 0.193678
O O9 0.829546 0.347635 0.494079
O O10 0.095751 0.338526 0.618270
O O11 0.645364 0.483551 0.602096
O O12 0.600984 0.552476 0.872429
O O13 0.000000 0.500000 0.000000
#
# Coordination Sequence:
#
# PCOD8008920 Si02
#       6
#     2   2   2   2   2   2
#     4  11  20  38  63  88 121 154 195 245 296 353
#     4  12  25  40  60  88 120 161 205 245 290 353
#     4  11  19  33  65  93 118 155 192 246 304 347
#     4  11  22  39  63  95 118 151 199 254 294 348
#     4  11  20  35  62  89 117 155 200 242 293 349
#     4  10  21  35  58  98 125 146 189 253 308 342
#
# _framework density 25.859279999999998
#
# number of rings (size 3 to 8) (size 9 to 14) (size 15 to 20)
#    0.000    1.000    8.333    1.500    0.000    4.667 
#    0.000    0.833    0.000    2.000    0.000    0.000 
#    0.000    0.000    0.000    0.000    0.000    0.000 
#
# Total GULP energy -148843.958749 kJ/mol
# GULP energy per Si atom -12403.663229 kJ/mol
# Density = 2.580042 g / cm^3
# Si number density = 25.859280 Si / 1000 Ang^3
#
#
#
# Elastic Constant Matrix: (Units=GPa)
#
#
# Indices 1 2 3 4 5 6 
#
# 1 108.8704 29.4655 27.7670 9.3445 -32.4306 9.5374
# 2 29.4655 140.1268 62.2755 16.3294 -18.3041 24.9845
# 3 27.7670 62.2755 154.5768 31.9798 -63.1801 -12.7938
# 4 9.3445 16.3294 31.9798 54.8907 -5.1479 -3.2230
# 5 -32.4306 -18.3041 -63.1801 -5.1479 51.7132 -5.2335
# 6 9.5374 24.9845 -12.7938 -3.2230 -5.2335 24.9850
#
#
#
# Elastic Compliance Matrix: (Units=1/GPa)
#
#
# Indices 1 2 3 4 5 6 
#
# 1 0.012868 -0.004301 0.006541 -0.003015 0.014790 0.005446
# 2 -0.004301 0.018839 -0.018834 0.002211 -0.021973 -0.031159
# 3 0.006541 -0.018834 0.038224 -0.010706 0.047572 0.044494
# 4 -0.003015 0.002211 -0.010706 0.022768 -0.012553 -0.006234
# 5 0.014790 -0.021973 0.047572 -0.012553 0.083428 0.056543
# 6 0.005446 -0.031159 0.044494 -0.006234 0.056543 0.102926
#
#
# Mechanical properties :
#
#
# Convention : Reuss Voigt Hill
#
# Bulk Modulus (GPa) = 27.21651 71.39889 49.30770
# Shear Modulus (GPa) = 15.40882 45.25553 30.33218
#
# Velocity S-wave (km/s) = 2.44370 4.18792 3.42858
# Velocity P-wave (km/s) = 4.30231 7.14531 5.89768
#
# Compressibility (1/GPa) = 0.03674240
#
# Stress axis : x y z
#
# Youngs Moduli (GPa) = 77.71048 53.08171 26.16156
#
# Poissons Ratio (x) = 0.22828 -0.17111
# Poissons Ratio (y) = 0.33420 0.49274
# Poissons Ratio (z) = -0.50827 0.99977
#
# Static dielectric constant tensor:
#      x y z
#    x 5.482690 0.374860 0.267320 
#    y 0.374860 5.622140 -0.111840 
#    z 0.267320 -0.111840 5.038110 
# 
# 
# High freq. dielectric constant tensor:
#      x y z
#    x 2.059720 -0.002330 0.010000 
#    y -0.002330 2.045050 0.001710 
#    z 0.010000 0.001710 2.037670 
# 
# From -- ./inp_files/236267.got.cif
#   From: 2010.06.25/outbox.cif.g09.slc.cpg/sg2_119_cif.got.tgz:236267.got - 2010.06.27 13:26:56.
