data_PCOD8008107
_publ_section_title
;
Structure prediction by ZEFSAII (Michael W. Deem and Ramdas Pophale) SiO2 
 PCOD8008107
Probable space group: P -1
;
_chemical_formula_sum "Si O2"
_cell_formula_units_Z 14
_cell_length_a 9.235354
_cell_length_b 11.774558
_cell_length_c 11.239178
_cell_angle_alpha 142.000160
_cell_angle_beta 97.610916
_cell_angle_gamma 69.165865
_cell_volume 679.640363
_symmetry_space_group_name_H-M "P -1"
_symmetry_group_IT_number 2
_symmetry_cell_setting 'triclinic'
loop_
_space_group_symop_operation_xyz
x,y,z
-x,-y,-z
loop_
_atom_site_type_symbol
_atom_site_label
_atom_site_fract_x
_atom_site_fract_y
_atom_site_fract_z
Si Si1 0.096257 0.128723 0.149956
Si Si2 0.668575 0.822802 0.215922
Si Si3 0.934704 0.647172 0.909172
Si Si4 0.992819 0.772067 0.528191
Si Si5 0.672849 0.097641 0.826924
Si Si6 0.178507 0.876568 0.460758
Si Si7 0.753028 0.402745 0.975852
O O1 0.113936 0.248851 0.138232
O O2 0.997317 0.278679 0.371186
O O3 0.272808 0.977538 0.093777
O O4 0.000000 0.000000 0.000000
O O5 0.484729 0.935676 0.248427
O O6 0.715366 0.993946 0.418998
O O7 0.775114 0.717847 0.027048
O O8 0.687305 0.646115 0.167139
O O9 0.010960 0.407516 0.701162
O O10 0.064566 0.699687 0.038617
O O11 0.821550 0.965734 0.645004
O O12 0.148648 0.812012 0.538564
O O13 0.646319 0.332029 0.996187
O O14 0.261374 0.678346 0.224128
O O15 0.000000 0.000000 0.500000
#
# Coordination Sequence:
#
# PCOD8008107 Si02
#       7
#     2   2   2   2   2   2   2
#     4  10  20  42  66  89 122 165 216 252 306 377
#     4  12  25  39  64  96 131 164 202 265 317 363
#     4  12  21  40  70  92 121 168 215 257 301 378
#     4  10  22  40  64  94 120 165 217 249 308 375
#     4  10  24  42  60  95 130 164 200 264 320 358
#     4  12  20  41  63  91 127 165 213 250 305 377
#     4  12  23  41  64  95 127 169 209 250 312 386
#
# _framework density 20.599129999999999
#
# number of rings (size 3 to 8) (size 9 to 14) (size 15 to 20)
#    0.857    0.000    5.714    3.000    0.000    1.143 
#    2.571    0.000    0.000    1.714    0.000    0.000 
#    0.000    0.000    0.000    0.000    0.000    0.000 
#
# Total GULP energy -173509.326351 kJ/mol
# GULP energy per Si atom -12393.523311 kJ/mol
# Density = 2.055225 g / cm^3
# Si number density = 20.599130 Si / 1000 Ang^3
#
#
#
# Elastic Constant Matrix: (Units=GPa)
#
#
# Indices 1 2 3 4 5 6 
#
# 1 105.5143 30.6302 37.6520 1.2960 33.2133 -13.4994
# 2 30.6302 106.3391 23.9008 -3.0199 17.7228 1.6186
# 3 37.6520 23.9008 106.7289 0.3514 19.4500 2.2282
# 4 1.2960 -3.0199 0.3514 26.4772 6.4330 5.3960
# 5 33.2133 17.7228 19.4500 6.4330 32.7701 -1.3091
# 6 -13.4994 1.6186 2.2282 5.3960 -1.3091 26.3700
#
#
#
# Elastic Compliance Matrix: (Units=1/GPa)
#
#
# Indices 1 2 3 4 5 6 
#
# 1 0.016408 -0.001869 -0.003055 0.000716 -0.013630 0.007950
# 2 -0.001869 0.010966 -0.001013 0.002821 -0.004081 -0.002324
# 3 -0.003055 -0.001013 0.011364 0.001320 -0.003476 -0.002904
# 4 0.000716 0.002821 0.001320 0.042793 -0.011805 -0.009261
# 5 -0.013630 -0.004081 -0.003476 -0.011805 0.050858 -0.001493
# 6 0.007950 -0.002324 -0.002904 -0.009261 -0.001493 0.044200
#
#
# Mechanical properties :
#
#
# Convention : Reuss Voigt Hill
#
# Bulk Modulus (GPa) = 37.22416 55.88315 46.55365
# Shear Modulus (GPa) = 25.32705 32.21674 28.77190
#
# Velocity S-wave (km/s) = 3.51026 3.95902 3.74137
# Velocity P-wave (km/s) = 5.87700 6.93442 6.42749
#
# Compressibility (1/GPa) = 0.02686427
#
# Stress axis : x y z
#
# Youngs Moduli (GPa) = 60.94415 91.19359 87.99900
#
# Poissons Ratio (x) = 0.17043 0.26880
# Poissons Ratio (y) = 0.11390 0.08917
# Poissons Ratio (z) = 0.18616 0.09241
#
# Static dielectric constant tensor:
#      x y z
#    x 3.631670 0.364750 0.097600 
#    y 0.364750 4.554410 -0.128800 
#    z 0.097600 -0.128800 3.692840 
# 
# 
# High freq. dielectric constant tensor:
#      x y z
#    x 1.786410 0.018360 0.014130 
#    y 0.018360 1.804150 0.003040 
#    z 0.014130 0.003040 1.806570 
# 
# From -- ./inp_files/388612.got.cif
#   From: 2010.06.25/outbox.cif.g09.slc.cpg/sg2_195_cif.got.tgz:388612.got - 2010.06.27 13:26:56.
