data_PCOD8008721
_publ_section_title
;
Structure prediction by ZEFSAII (Michael W. Deem and Ramdas Pophale) SiO2 
 PCOD8008721
Probable space group: P -1
;
_chemical_formula_sum "Si O2"
_cell_formula_units_Z 14
_cell_length_a 8.495845
_cell_length_b 7.515768
_cell_length_c 15.326101
_cell_angle_alpha 46.052005
_cell_angle_beta 92.367871
_cell_angle_gamma 98.042080
_cell_volume 695.505440
_symmetry_space_group_name_H-M "P -1"
_symmetry_group_IT_number 2
_symmetry_cell_setting 'triclinic'
loop_
_space_group_symop_operation_xyz
x,y,z
-x,-y,-z
loop_
_atom_site_type_symbol
_atom_site_label
_atom_site_fract_x
_atom_site_fract_y
_atom_site_fract_z
Si Si1 0.180498 0.000804 0.752576
Si Si2 0.935484 0.159645 0.369909
Si Si3 0.668128 0.915265 0.997841
Si Si4 0.805217 0.624510 0.236338
Si Si5 0.080319 0.622242 0.128083
Si Si6 0.881721 0.718911 0.930541
Si Si7 0.383740 0.682837 0.970875
O O1 0.165895 0.022902 0.640620
O O2 0.002686 0.908678 0.814105
O O3 0.224894 0.274679 0.702460
O O4 0.315189 0.833320 0.839320
O O5 0.807746 0.328405 0.347119
O O6 0.083598 0.346271 0.264836
O O7 0.000000 0.000000 0.500000
O O8 0.758819 0.866190 0.927848
O O9 0.750975 0.190472 0.943598
O O10 0.669403 0.696782 0.143906
O O11 0.478954 0.885429 0.973919
O O12 0.970344 0.759323 0.146557
O O13 0.975575 0.569139 0.053949
O O14 0.773272 0.512460 0.932269
O O15 0.500000 0.500000 0.000000
#
# Coordination Sequence:
#
# PCOD8008721 Si02
#       7
#     2   2   2   2   2   2   2
#     4  12  19  34  59  76 107 150 178 219 267 325
#     4  10  22  35  52  80 107 139 190 233 259 300
#     4  10  16  33  50  83 122 135 161 222 279 326
#     4   9  19  33  54  79 107 145 172 217 269 323
#     4   9  16  34  54  75 115 136 169 225 268 315
#     4  10  16  31  53  81 107 143 177 208 272 328
#     4  10  21  28  47  86 121 138 165 215 279 334
#
# _framework density 20.129245000000001
#
# number of rings (size 3 to 8) (size 9 to 14) (size 15 to 20)
#    0.857    1.143    4.286    2.143    0.000    1.143 
#    0.000    0.000    0.000    0.857    0.000   12.000 
#    0.000    0.000    0.000    0.000    0.000    0.000 
#
# Total GULP energy -173435.470917 kJ/mol
# GULP energy per Si atom -12388.247923 kJ/mol
# Density = 2.008343 g / cm^3
# Si number density = 20.129245 Si / 1000 Ang^3
#
#
#
# Elastic Constant Matrix: (Units=GPa)
#
#
# Indices 1 2 3 4 5 6 
#
# 1 91.1118 35.9867 26.8962 6.4744 20.5372 9.4063
# 2 35.9867 146.5157 51.9277 30.1934 16.3354 -0.5797
# 3 26.8962 51.9277 133.7458 11.9415 23.2713 -1.0109
# 4 6.4744 30.1934 11.9415 29.2883 5.1592 6.0821
# 5 20.5372 16.3354 23.2713 5.1592 18.8487 1.7528
# 6 9.4063 -0.5797 -1.0109 6.0821 1.7528 30.5962
#
#
#
# Elastic Compliance Matrix: (Units=1/GPa)
#
#
# Indices 1 2 3 4 5 6 
#
# 1 0.015780 -0.002922 0.000350 0.003072 -0.015504 -0.004617
# 2 -0.002922 0.010492 -0.002527 -0.009682 -0.000414 0.002962
# 3 0.000350 -0.002527 0.010300 0.000102 -0.011010 0.000795
# 4 0.003072 -0.009682 0.000102 0.046704 -0.006935 -0.010011
# 5 -0.015504 -0.000414 -0.011010 -0.006935 0.085717 0.000863
# 6 -0.004617 0.002962 0.000795 -0.010011 0.000863 0.036126
#
#
# Mechanical properties :
#
#
# Convention : Reuss Voigt Hill
#
# Bulk Modulus (GPa) = 37.91849 66.77719 52.34784
# Shear Modulus (GPa) = 22.31057 32.85082 27.58069
#
# Velocity S-wave (km/s) = 3.33282 4.04418 3.70561
# Velocity P-wave (km/s) = 5.80420 7.41980 6.66116
#
# Compressibility (1/GPa) = 0.02637236
#
# Stress axis : x y z
#
# Youngs Moduli (GPa) = 63.37292 95.31390 97.08550
#
# Poissons Ratio (x) = 0.27855 -0.03396
# Poissons Ratio (y) = 0.18521 0.24532
# Poissons Ratio (z) = -0.02217 0.24085
#
# Static dielectric constant tensor:
#      x y z
#    x 3.910450 -0.217270 0.160440 
#    y -0.217270 4.378610 0.402800 
#    z 0.160440 0.402800 3.079350 
# 
# 
# High freq. dielectric constant tensor:
#      x y z
#    x 1.793020 -0.029650 0.021840 
#    y -0.029650 1.830270 0.029170 
#    z 0.021840 0.029170 1.715450 
# 
# From -- ./inp_files/490485.got.cif
#   From: 2010.06.25/outbox.cif.g09.slc.cpg/sg2_246_cif.got.tgz:490485.got - 2010.06.27 13:26:56.
