data_PCOD8008016
_publ_section_title
;
Structure prediction by ZEFSAII (Michael W. Deem and Ramdas Pophale) SiO2 
 PCOD8008016
Probable space group: P -1
;
_chemical_formula_sum "Si O2"
_cell_formula_units_Z 14
_cell_length_a 14.350683
_cell_length_b 6.460356
_cell_length_c 8.037688
_cell_angle_alpha 61.827429
_cell_angle_beta 93.310294
_cell_angle_gamma 114.730014
_cell_volume 587.491304
_symmetry_space_group_name_H-M "P -1"
_symmetry_group_IT_number 2
_symmetry_cell_setting 'triclinic'
loop_
_space_group_symop_operation_xyz
x,y,z
-x,-y,-z
loop_
_atom_site_type_symbol
_atom_site_label
_atom_site_fract_x
_atom_site_fract_y
_atom_site_fract_z
Si Si1 0.197743 0.766530 0.211239
Si Si2 0.282366 0.944294 0.660714
Si Si3 0.062331 0.980213 0.272915
Si Si4 0.160592 0.236733 0.534210
Si Si5 0.889097 0.483304 0.039366
Si Si6 0.375211 0.214454 0.223391
Si Si7 0.437078 0.789021 0.935684
O O1 0.092352 0.769640 0.268695
O O2 0.214914 0.547885 0.400293
O O3 0.296144 0.048810 0.132388
O O4 0.189113 0.688478 0.048687
O O5 0.170937 0.675545 0.740611
O O6 0.361741 0.892045 0.803623
O O7 0.247953 0.160743 0.649987
O O8 0.333973 0.047830 0.449427
O O9 0.938229 0.850924 0.322486
O O10 0.121303 0.079851 0.415650
O O11 0.099685 0.225831 0.058131
O O12 0.000000 0.500000 0.000000
O O13 0.489150 0.240060 0.187134
O O14 0.376170 0.500736 0.124630
O O15 0.500000 0.000000 0.000000
#
# Coordination Sequence:
#
# PCOD8008016 Si02
#       7
#     2   2   2   2   2   2   2
#     4  11  23  42  70  97 144 187 237 291 346 409
#     4  12  24  46  72 105 142 182 236 293 346 423
#     4  10  20  42  63  93 145 192 234 287 339 398
#     4  10  22  38  66 100 136 187 236 285 342 409
#     4  11  24  42  65 103 148 191 236 284 342 410
#     4  11  26  49  75 107 133 185 236 292 360 423
#     4  11  27  52  78 102 141 177 230 302 366 423
#
# _framework density 23.830141999999999
#
# number of rings (size 3 to 8) (size 9 to 14) (size 15 to 20)
#    0.000    1.143    2.857    2.571    4.000    2.286 
#   10.286    0.000    0.000    0.000    0.000    0.000 
#    0.000    0.000    0.000    0.000    0.000    0.000 
#
# Total GULP energy -173550.337628 kJ/mol
# GULP energy per Si atom -12396.452688 kJ/mol
# Density = 2.377590 g / cm^3
# Si number density = 23.830142 Si / 1000 Ang^3
#
#
#
# Elastic Constant Matrix: (Units=GPa)
#
#
# Indices 1 2 3 4 5 6 
#
# 1 150.0584 23.3603 58.5674 -16.0115 11.4443 -20.9562
# 2 23.3603 97.8212 34.9466 -30.7431 8.4163 3.0894
# 3 58.5674 34.9466 145.5979 -34.6243 -4.4425 -1.9832
# 4 -16.0115 -30.7431 -34.6243 32.8386 -7.0322 0.5709
# 5 11.4443 8.4163 -4.4425 -7.0322 46.3303 -8.3647
# 6 -20.9562 3.0894 -1.9832 0.5709 -8.3647 40.5777
#
#
#
# Elastic Compliance Matrix: (Units=1/GPa)
#
#
# Indices 1 2 3 4 5 6 
#
# 1 0.008807 -0.001112 -0.003471 -0.000840 -0.001689 0.004127
# 2 -0.001112 0.014749 -0.000029 0.013102 -0.000788 -0.002046
# 3 -0.003471 -0.000029 0.010850 0.010453 0.003361 -0.000714
# 4 -0.000840 0.013102 0.010453 0.054857 0.007115 -0.000225
# 5 -0.001689 -0.000788 0.003361 0.007115 0.024317 0.004265
# 6 0.004127 -0.002046 -0.000714 -0.000225 0.004265 0.027779
#
#
# Mechanical properties :
#
#
# Convention : Reuss Voigt Hill
#
# Bulk Modulus (GPa) = 39.71124 69.69178 54.70151
# Shear Modulus (GPa) = 31.45130 42.38952 36.92041
#
# Velocity S-wave (km/s) = 3.63686 4.22218 3.94040
# Velocity P-wave (km/s) = 5.85971 7.28545 6.61113
#
# Compressibility (1/GPa) = 0.02518178
#
# Stress axis : x y z
#
# Youngs Moduli (GPa) = 113.53969 67.80310 92.16723
#
# Poissons Ratio (x) = 0.07542 0.31991
# Poissons Ratio (y) = 0.12630 0.00265
# Poissons Ratio (z) = 0.39409 0.00195
#
# Static dielectric constant tensor:
#      x y z
#    x 4.623020 -0.138340 -0.089740 
#    y -0.138340 4.212420 -0.317370 
#    z -0.089740 -0.317370 4.444200 
# 
# 
# High freq. dielectric constant tensor:
#      x y z
#    x 1.960270 -0.016810 -0.008560 
#    y -0.016810 1.930120 -0.022560 
#    z -0.008560 -0.022560 1.951400 
# 
# From -- ./inp_files/288372.got.cif
#   From: 2010.06.25/outbox.cif.g09.slc.cpg/sg2_145_cif.got.tgz:288372.got - 2010.06.27 13:26:56.
