data_PCOD8008046
_publ_section_title
;
Structure prediction by ZEFSAII (Michael W. Deem and Ramdas Pophale) SiO2 
 PCOD8008046
Probable space group: P -1
;
_chemical_formula_sum "Si O2"
_cell_formula_units_Z 14
_cell_length_a 12.635903
_cell_length_b 11.819679
_cell_length_c 6.965605
_cell_angle_alpha 111.749798
_cell_angle_beta 51.693343
_cell_angle_gamma 125.123915
_cell_volume 667.544346
_symmetry_space_group_name_H-M "P -1"
_symmetry_group_IT_number 2
_symmetry_cell_setting 'triclinic'
loop_
_space_group_symop_operation_xyz
x,y,z
-x,-y,-z
loop_
_atom_site_type_symbol
_atom_site_label
_atom_site_fract_x
_atom_site_fract_y
_atom_site_fract_z
Si Si1 0.056057 0.839678 0.474792
Si Si2 0.485632 0.559667 0.255740
Si Si3 0.227111 0.137048 0.310545
Si Si4 0.253781 0.866880 0.632485
Si Si5 0.268559 0.362148 0.666360
Si Si6 0.545619 0.842769 0.230943
Si Si7 0.039410 0.657826 0.041479
O O1 0.121464 0.840832 0.612340
O O2 0.886555 0.827561 0.670363
O O3 0.159922 0.975977 0.322246
O O4 0.057875 0.715275 0.273900
O O5 0.324942 0.458219 0.472691
O O6 0.622812 0.564866 0.232065
O O7 0.496198 0.709906 0.336916
O O8 0.500000 0.500000 0.000000
O O9 0.258971 0.215339 0.528127
O O10 0.389650 0.188856 0.056425
O O11 0.395651 0.859157 0.365297
O O12 0.187353 0.752255 0.804103
O O13 0.317994 0.020760 0.741376
O O14 0.101959 0.335962 0.898916
O O15 0.000000 0.500000 0.000000
#
# Coordination Sequence:
#
# PCOD8008046 Si02
#       7
#     2   2   2   2   2   2   2
#     4  10  23  41  65  92 122 162 208 254 308 366
#     4  11  22  39  62  94 126 159 204 254 306 366
#     4  10  20  42  64  93 124 158 210 260 300 361
#     4  11  25  42  63  91 125 166 206 251 315 365
#     4  10  23  39  63  93 122 165 205 255 307 355
#     4  11  23  41  62  93 126 162 205 258 304 368
#     4  11  24  43  62  90 127 161 207 255 305 376
#
# _framework density 20.972390000000001
#
# number of rings (size 3 to 8) (size 9 to 14) (size 15 to 20)
#    0.000    1.429    2.857    1.714    2.000    2.857 
#    2.571    0.000    0.000    0.000    0.000    0.000 
#    0.000    0.000    0.000    0.000    0.000    0.000 
#
# Total GULP energy -173613.312153 kJ/mol
# GULP energy per Si atom -12400.950868 kJ/mol
# Density = 2.092466 g / cm^3
# Si number density = 20.972390 Si / 1000 Ang^3
#
#
#
# Elastic Constant Matrix: (Units=GPa)
#
#
# Indices 1 2 3 4 5 6 
#
# 1 76.5390 21.1012 46.2652 8.0024 8.0379 9.4337
# 2 21.1012 134.1859 29.2582 18.4312 0.6222 -4.0691
# 3 46.2652 29.2582 96.3295 11.3963 -11.4861 0.2720
# 4 8.0024 18.4312 11.3963 30.6483 4.1996 -3.2346
# 5 8.0379 0.6222 -11.4861 4.1996 33.4851 0.1562
# 6 9.4337 -4.0691 0.2720 -3.2346 0.1562 29.8280
#
#
#
# Elastic Compliance Matrix: (Units=1/GPa)
#
#
# Indices 1 2 3 4 5 6 
#
# 1 0.022033 -0.001128 -0.011252 -0.000391 -0.009046 -0.007015
# 2 -0.001128 0.008577 -0.001560 -0.004182 0.000096 0.001087
# 3 -0.011252 -0.001560 0.017800 -0.003728 0.009290 0.002731
# 4 -0.000391 -0.004182 -0.003728 0.037828 -0.005869 0.003720
# 5 -0.009046 0.000096 0.009290 -0.005869 0.035947 0.001965
# 6 -0.007015 0.001087 0.002731 0.003720 0.001965 0.036261
#
#
# Mechanical properties :
#
#
# Convention : Reuss Voigt Hill
#
# Bulk Modulus (GPa) = 48.71088 55.58930 52.15009
# Shear Modulus (GPa) = 25.88396 32.82092 29.35244
#
# Velocity S-wave (km/s) = 3.51692 3.96025 3.74515
# Velocity P-wave (km/s) = 6.30621 6.89020 6.60466
#
# Compressibility (1/GPa) = 0.02052929
#
# Stress axis : x y z
#
# Youngs Moduli (GPa) = 45.38608 116.59315 56.17982
#
# Poissons Ratio (x) = 0.13157 0.63213
# Poissons Ratio (y) = 0.05122 0.08764
# Poissons Ratio (z) = 0.51068 0.18189
#
# Static dielectric constant tensor:
#      x y z
#    x 3.593830 0.128950 -0.131790 
#    y 0.128950 4.050880 -0.015030 
#    z -0.131790 -0.015030 3.647790 
# 
# 
# High freq. dielectric constant tensor:
#      x y z
#    x 1.805740 0.011670 -0.010330 
#    y 0.011670 1.841750 0.003040 
#    z -0.010330 0.003040 1.818690 
# 
# From -- ./inp_files/68336.got.cif
#   From: 2010.06.25/outbox.cif.g09.slc.cpg/sg2_35_cif.got.tgz:68336.got - 2010.06.27 13:26:56.
