data_PCOD8008177
_publ_section_title
;
Structure prediction by ZEFSAII (Michael W. Deem and Ramdas Pophale) SiO2 
 PCOD8008177
Probable space group: P -1
;
_chemical_formula_sum "Si O2"
_cell_formula_units_Z 16
_cell_length_a 15.874243
_cell_length_b 19.204710
_cell_length_c 8.910073
_cell_angle_alpha 141.829392
_cell_angle_beta 39.771099
_cell_angle_gamma 152.135453
_cell_volume 758.709889
_symmetry_space_group_name_H-M "P -1"
_symmetry_group_IT_number 2
_symmetry_cell_setting 'triclinic'
loop_
_space_group_symop_operation_xyz
x,y,z
-x,-y,-z
loop_
_atom_site_type_symbol
_atom_site_label
_atom_site_fract_x
_atom_site_fract_y
_atom_site_fract_z
Si Si1 0.933706 0.623859 0.047506
Si Si2 0.810700 0.963398 0.299603
Si Si3 0.203074 0.253506 0.367254
Si Si4 0.274209 0.726451 0.221272
Si Si5 0.696684 0.646665 0.912676
Si Si6 0.299050 0.881569 0.146071
Si Si7 0.689199 0.919477 0.056730
Si Si8 0.022940 0.727343 0.772784
O O1 0.848968 0.689434 0.337778
O O2 0.147892 0.738495 0.996550
O O3 0.810622 0.448572 0.986556
O O4 0.924537 0.617788 0.869797
O O5 0.736687 0.958204 0.232041
O O6 0.738200 0.009166 0.596720
O O7 0.737445 0.797852 0.167183
O O8 0.034974 0.101211 0.236063
O O9 0.329490 0.384186 0.284376
O O10 0.301822 0.204581 0.225220
O O11 0.276060 0.797821 0.187552
O O12 0.485246 0.845939 0.190522
O O13 0.150025 0.711087 0.491424
O O14 0.858621 0.662042 0.774084
O O15 0.500000 0.500000 0.000000
O O16 0.500000 0.000000 0.000000
O O17 0.844367 0.088420 0.045021
#
# Coordination Sequence:
#
# PCOD8008177 Si02
#       8
#     2   2   2   2   2   2   2   2
#     4  11  27  42  65  97 137 170 212 274 331 374
#     4  10  20  42  67  92 127 174 217 265 319 383
#     4  10  21  46  65  91 132 174 215 270 323 377
#     4  12  26  43  67  96 134 179 209 271 326 384
#     4  11  23  40  69  98 126 171 218 269 325 381
#     4  11  24  44  67  95 127 176 221 264 328 390
#     4  11  21  40  72  92 126 173 223 263 316 390
#     4  12  23  44  65  98 133 170 224 259 321 397
#
# _framework density 21.088429000000001
#
# number of rings (size 3 to 8) (size 9 to 14) (size 15 to 20)
#    0.000    1.000    3.750    3.375    5.250    3.000 
#    2.250    0.000    0.000    0.000    0.000    0.000 
#    0.000    0.000    0.000    0.000    0.000    0.000 
#
# Total GULP energy -198434.343710 kJ/mol
# GULP energy per Si atom -12402.146482 kJ/mol
# Density = 2.104043 g / cm^3
# Si number density = 21.088429 Si / 1000 Ang^3
#
#
#
# Elastic Constant Matrix: (Units=GPa)
#
#
# Indices 1 2 3 4 5 6 
#
# 1 65.8423 9.1372 29.7979 0.0483 -13.7592 -4.7013
# 2 9.1372 103.4669 35.2774 -8.8818 -7.7982 -5.4857
# 3 29.7979 35.2774 86.5555 -2.2320 -9.6598 -11.5610
# 4 0.0483 -8.8818 -2.2320 29.6135 0.5399 -1.5100
# 5 -13.7592 -7.7982 -9.6598 0.5399 32.0889 -8.9003
# 6 -4.7013 -5.4857 -11.5610 -1.5100 -8.9003 34.4257
#
#
#
# Elastic Compliance Matrix: (Units=1/GPa)
#
#
# Indices 1 2 3 4 5 6 
#
# 1 0.019512 0.000997 -0.005905 -0.000174 0.007611 0.002801
# 2 0.000997 0.011643 -0.004619 0.003161 0.002127 0.001129
# 3 -0.005905 -0.004619 0.016372 0.000047 0.002554 0.004618
# 4 -0.000174 0.003161 0.000047 0.034820 0.000736 0.002213
# 5 0.007611 0.002127 0.002554 0.000736 0.039136 0.012386
# 6 0.002801 0.001129 0.004618 0.002213 0.012386 0.034461
#
#
# Mechanical properties :
#
#
# Convention : Reuss Voigt Hill
#
# Bulk Modulus (GPa) = 35.11965 44.92108 40.02037
# Shear Modulus (GPa) = 27.10199 31.33576 29.21887
#
# Velocity S-wave (km/s) = 3.58880 3.85895 3.72632
# Velocity P-wave (km/s) = 5.81913 6.41894 6.12638
#
# Compressibility (1/GPa) = 0.02847409
#
# Stress axis : x y z
#
# Youngs Moduli (GPa) = 51.24959 85.88664 61.08066
#
# Poissons Ratio (x) = -0.08566 0.36067
# Poissons Ratio (y) = -0.05111 0.28214
# Poissons Ratio (z) = 0.30262 0.39673
#
# Static dielectric constant tensor:
#      x y z
#    x 3.853590 -0.025750 -0.242070 
#    y -0.025750 3.907020 0.047020 
#    z -0.242070 0.047020 3.948340 
# 
# 
# High freq. dielectric constant tensor:
#      x y z
#    x 1.826740 -0.001550 -0.015480 
#    y -0.001550 1.831780 -0.002190 
#    z -0.015480 -0.002190 1.831850 
# 
# From -- ./inp_files/189242.got.cif
#   From: 2010.06.25/outbox.cif.g09.slc.cpg/sg2_95_cif.got.tgz:189242.got - 2010.06.27 13:26:56.
