data_PCOD8008597
_publ_section_title
;
Structure prediction by ZEFSAII (Michael W. Deem and Ramdas Pophale) SiO2 
 PCOD8008597
Probable space group: P -1
;
_chemical_formula_sum "Si O2"
_cell_formula_units_Z 10
_cell_length_a 9.020002
_cell_length_b 9.475953
_cell_length_c 9.101446
_cell_angle_alpha 59.622811
_cell_angle_beta 44.916848
_cell_angle_gamma 46.210018
_cell_volume 396.327910
_symmetry_space_group_name_H-M "P -1"
_symmetry_group_IT_number 2
_symmetry_cell_setting 'triclinic'
loop_
_space_group_symop_operation_xyz
x,y,z
-x,-y,-z
loop_
_atom_site_type_symbol
_atom_site_label
_atom_site_fract_x
_atom_site_fract_y
_atom_site_fract_z
Si Si1 0.722867 0.586783 0.307982
Si Si2 0.025400 0.656807 0.488088
Si Si3 0.754270 0.445983 0.053327
Si Si4 0.477622 0.010677 0.185371
Si Si5 0.712036 0.221019 0.968443
O O1 0.729142 0.473950 0.510545
O O2 0.680670 0.479200 0.259268
O O3 0.506293 0.816741 0.333857
O O4 0.986192 0.569163 0.131572
O O5 0.075356 0.787758 0.277180
O O6 0.000000 0.500000 0.500000
O O7 0.787048 0.804713 0.675383
O O8 0.562373 0.619608 0.987778
O O9 0.758817 0.258938 0.084142
O O10 0.710944 0.023669 0.073193
O O11 0.500000 0.000000 0.000000
#
# Coordination Sequence:
#
# PCOD8008597 Si02
#       5
#     2   2   2   2   2
#     4  11  22  44  75  97 142 188 228 283 357 407
#     4  12  25  47  70 105 144 181 230 297 343 411
#     4  10  20  44  70 100 136 194 218 278 358 418
#     4  12  25  47  70 105 144 181 230 297 343 411
#     4  11  22  44  75  97 142 188 228 283 357 407
#
# _framework density 25.231634
#
# number of rings (size 3 to 8) (size 9 to 14) (size 15 to 20)
#    0.000    0.800    6.000    2.400    0.000    3.200 
#    3.600    0.000    0.000    0.000    0.000    0.000 
#    0.000    0.000    0.000    0.000    0.000    0.000 
#
# Total GULP energy -123933.331090 kJ/mol
# GULP energy per Si atom -12393.333109 kJ/mol
# Density = 2.517421 g / cm^3
# Si number density = 25.231634 Si / 1000 Ang^3
#
#
#
# Elastic Constant Matrix: (Units=GPa)
#
#
# Indices 1 2 3 4 5 6 
#
# 1 168.5515 57.2449 30.6051 6.2167 23.2631 39.2695
# 2 57.2449 108.9621 68.0808 15.3025 23.3031 19.4693
# 3 30.6051 68.0808 62.6813 1.4194 10.9146 21.3316
# 4 6.2167 15.3025 1.4194 38.8788 -1.4170 2.3512
# 5 23.2631 23.3031 10.9146 -1.4170 50.1128 1.7868
# 6 39.2695 19.4693 21.3316 2.3512 1.7868 56.6485
#
#
#
# Elastic Compliance Matrix: (Units=1/GPa)
#
#
# Indices 1 2 3 4 5 6 
#
# 1 0.008780 -0.006489 0.005018 0.001244 -0.001912 -0.005737
# 2 -0.006489 0.042077 -0.043292 -0.014662 -0.007796 0.007193
# 3 0.005018 -0.043292 0.063930 0.014890 0.004778 -0.013442
# 4 0.001244 -0.014662 0.014890 0.031066 0.003977 -0.002845
# 5 -0.001912 -0.007796 0.004778 0.003977 0.023493 0.001299
# 6 -0.005737 0.007193 -0.013442 -0.002845 0.001299 0.024297
#
#
# Mechanical properties :
#
#
# Convention : Reuss Voigt Hill
#
# Bulk Modulus (GPa) = 39.58525 72.45071 56.01798
# Shear Modulus (GPa) = 17.14745 41.41229 29.27987
#
# Velocity S-wave (km/s) = 2.60974 4.05567 3.41022
# Velocity P-wave (km/s) = 4.98034 7.12095 6.14458
#
# Compressibility (1/GPa) = 0.02526194
#
# Stress axis : x y z
#
# Youngs Moduli (GPa) = 113.89242 23.76607 15.64216
#
# Poissons Ratio (x) = 0.15421 -0.07849
# Poissons Ratio (y) = 0.73903 0.67717
# Poissons Ratio (z) = -0.57151 1.02887
#
# Static dielectric constant tensor:
#      x y z
#    x 5.112800 0.322680 0.160550 
#    y 0.322680 4.842220 -0.079060 
#    z 0.160550 -0.079060 4.547310 
# 
# 
# High freq. dielectric constant tensor:
#      x y z
#    x 2.035360 0.012520 -0.005200 
#    y 0.012520 1.995100 0.001450 
#    z -0.005200 0.001450 1.999130 
# 
# From -- ./inp_files/144289.got.cif
#   From: 2010.06.25/outbox.cif.g09.slc.cpg/sg2_73_cif.got.tgz:144289.got - 2010.06.27 13:26:56.
