data_PCOD8008841
_publ_section_title
;
Structure prediction by ZEFSAII (Michael W. Deem and Ramdas Pophale) SiO2 
 PCOD8008841
Probable space group: P -1
;
_chemical_formula_sum "Si O2"
_cell_formula_units_Z 12
_cell_length_a 9.585403
_cell_length_b 8.698982
_cell_length_c 14.717330
_cell_angle_alpha 54.936173
_cell_angle_beta 43.442213
_cell_angle_gamma 47.667420
_cell_volume 614.910503
_symmetry_space_group_name_H-M "P -1"
_symmetry_group_IT_number 2
_symmetry_cell_setting 'triclinic'
loop_
_space_group_symop_operation_xyz
x,y,z
-x,-y,-z
loop_
_atom_site_type_symbol
_atom_site_label
_atom_site_fract_x
_atom_site_fract_y
_atom_site_fract_z
Si Si1 0.753132 0.337149 0.466178
Si Si2 0.971964 0.602406 0.204151
Si Si3 0.850271 0.725587 0.033202
Si Si4 0.628452 0.782505 0.937824
Si Si5 0.876793 0.109133 0.854854
Si Si6 0.130744 0.954478 0.323298
O O1 0.500000 0.500000 0.500000
O O2 0.759901 0.248127 0.593893
O O3 0.895004 0.470963 0.352635
O O4 0.876862 0.131974 0.412150
O O5 0.201318 0.456474 0.090230
O O6 0.999181 0.777248 0.190467
O O7 0.784506 0.716567 0.173019
O O8 0.634726 0.826046 0.030358
O O9 0.000000 0.500000 0.000000
O O10 0.993460 0.860473 0.910311
O O11 0.701558 0.937198 0.795068
O O12 0.383480 0.808303 0.016404
O O13 0.895525 0.138608 0.728850
#
# Coordination Sequence:
#
# PCOD8008841 Si02
#       6
#     2   2   2   2   2   2
#     4  10  22  38  61  78 108 158 196 234 267 341
#     4  10  21  35  54  87 116 140 186 232 286 330
#     4   9  18  33  53  79 110 144 182 220 266 341
#     4   9  19  35  59  82 110 150 180 224 285 343
#     4  11  20  34  58  85 117 142 172 243 294 327
#     4   9  20  39  57  83 111 146 201 228 273 342
#
# _framework density 19.515034
#
# number of rings (size 3 to 8) (size 9 to 14) (size 15 to 20)
#    0.000    2.333    0.000    4.000    4.667    0.667 
#    0.000    0.833    0.000    0.000    0.000    0.000 
#    0.000    0.000    0.000    0.000    0.000    0.000 
#
# Total GULP energy -148697.733133 kJ/mol
# GULP energy per Si atom -12391.477761 kJ/mol
# Density = 1.947062 g / cm^3
# Si number density = 19.515034 Si / 1000 Ang^3
#
#
#
# Elastic Constant Matrix: (Units=GPa)
#
#
# Indices 1 2 3 4 5 6 
#
# 1 101.8521 60.5984 45.1078 -16.2126 11.8125 6.1626
# 2 60.5984 107.5905 47.0876 -17.8768 4.4433 -1.3722
# 3 45.1078 47.0876 82.5878 -14.5258 20.4716 -5.0535
# 4 -16.2126 -17.8768 -14.5258 36.9902 -6.1230 -2.1007
# 5 11.8125 4.4433 20.4716 -6.1230 34.2170 -5.7901
# 6 6.1626 -1.3722 -5.0535 -2.1007 -5.7901 38.2438
#
#
#
# Elastic Compliance Matrix: (Units=1/GPa)
#
#
# Indices 1 2 3 4 5 6 
#
# 1 0.016866 -0.007272 -0.004384 0.001499 -0.002643 -0.003876
# 2 -0.007272 0.016313 -0.005817 0.003312 0.004786 0.001895
# 3 -0.004384 -0.005817 0.020600 0.001910 -0.009392 0.001903
# 4 0.001499 0.003312 0.001910 0.030812 0.003830 0.002402
# 5 -0.002643 0.004786 -0.009392 0.003830 0.036687 0.005121
# 6 -0.003876 0.001895 0.001903 0.002402 0.005121 0.027999
#
#
# Mechanical properties :
#
#
# Convention : Reuss Voigt Hill
#
# Bulk Modulus (GPa) = 53.09906 66.40201 59.75053
# Shear Modulus (GPa) = 26.24661 31.17262 28.70962
#
# Velocity S-wave (km/s) = 3.67133 4.00104 3.83972
# Velocity P-wave (km/s) = 6.72606 7.44610 7.09522
#
# Compressibility (1/GPa) = 0.01883273
#
# Stress axis : x y z
#
# Youngs Moduli (GPa) = 59.29108 61.30121 48.54431
#
# Poissons Ratio (x) = 0.44578 0.21283
# Poissons Ratio (y) = 0.43116 0.28237
# Poissons Ratio (z) = 0.25994 0.35657
#
# Static dielectric constant tensor:
#      x y z
#    x 3.659080 -0.254380 0.361240 
#    y -0.254380 3.902320 -0.181670 
#    z 0.361240 -0.181670 3.682310 
# 
# 
# High freq. dielectric constant tensor:
#      x y z
#    x 1.738820 -0.005680 0.019660 
#    y -0.005680 1.777950 -0.010810 
#    z 0.019660 -0.010810 1.752790 
# 
# From -- ./inp_files/160919.got.cif
#   From: 2010.06.25/outbox.cif.g09.slc.cpg/sg2_81_cif.got.tgz:160919.got - 2010.06.27 13:26:56.
