data_PCOD8008773
_publ_section_title
;
Structure prediction by ZEFSAII (Michael W. Deem and Ramdas Pophale) SiO2 
 PCOD8008773
Probable space group: P -1
;
_chemical_formula_sum "Si O2"
_cell_formula_units_Z 12
_cell_length_a 20.554005
_cell_length_b 14.159195
_cell_length_c 11.447599
_cell_angle_alpha 150.700727
_cell_angle_beta 29.046315
_cell_angle_gamma 157.768742
_cell_volume 575.070774
_symmetry_space_group_name_H-M "P -1"
_symmetry_group_IT_number 2
_symmetry_cell_setting 'triclinic'
loop_
_space_group_symop_operation_xyz
x,y,z
-x,-y,-z
loop_
_atom_site_type_symbol
_atom_site_label
_atom_site_fract_x
_atom_site_fract_y
_atom_site_fract_z
Si Si1 0.309594 0.294987 0.506942
Si Si2 0.109319 0.846344 0.612997
Si Si3 0.801286 0.651950 0.044942
Si Si4 0.948926 0.292827 0.700377
Si Si5 0.546342 0.076171 0.870632
Si Si6 0.217221 0.523078 0.728682
O O1 0.500000 0.500000 0.500000
O O2 0.154927 0.246469 0.780021
O O3 0.296521 0.399582 0.520070
O O4 0.246771 0.008860 0.283391
O O5 0.998799 0.703706 0.510745
O O6 0.264143 0.840457 0.368415
O O7 0.205785 0.153285 0.805380
O O8 0.961432 0.674729 0.764659
O O9 0.596819 0.345664 0.041043
O O10 0.113644 0.375003 0.611099
O O11 0.917961 0.490747 0.985855
O O12 0.391836 0.834507 0.768650
O O13 0.500000 0.000000 0.000000
#
# Coordination Sequence:
#
# PCOD8008773 Si02
#       6
#     2   2   2   2   2   2
#     4  11  20  35  60  84 109 144 196 238 275 329
#     4  10  21  38  56  81 113 149 189 233 284 338
#     4  10  21  34  58  83 110 146 188 238 284 329
#     4  10  21  35  54  79 119 148 182 230 287 342
#     4  12  20  34  58  85 111 143 196 239 274 329
#     4  11  21  34  53  86 113 146 184 235 288 331
#
# _framework density 20.866997000000001
#
# number of rings (size 3 to 8) (size 9 to 14) (size 15 to 20)
#    0.000    1.333    3.333    4.000    0.000    0.000 
#    0.000    0.833    0.000   18.000    0.000    0.000 
#    0.000    0.000    0.000    0.000    0.000    0.000 
#
# Total GULP energy -148657.137865 kJ/mol
# GULP energy per Si atom -12388.094822 kJ/mol
# Density = 2.081950 g / cm^3
# Si number density = 20.866997 Si / 1000 Ang^3
#
#
#
# Elastic Constant Matrix: (Units=GPa)
#
#
# Indices 1 2 3 4 5 6 
#
# 1 79.8276 30.8609 13.3402 2.7196 -6.2173 22.1242
# 2 30.8609 103.9708 -1.4318 10.1788 14.3189 2.4235
# 3 13.3402 -1.4318 57.3408 1.4243 12.9409 -0.6531
# 4 2.7196 10.1788 1.4243 29.9382 -7.6252 1.5283
# 5 -6.2173 14.3189 12.9409 -7.6252 27.6682 3.3098
# 6 22.1242 2.4235 -0.6531 1.5283 3.3098 38.2486
#
#
#
# Elastic Compliance Matrix: (Units=1/GPa)
#
#
# Indices 1 2 3 4 5 6 
#
# 1 0.023743 -0.010263 -0.010540 0.007576 0.019489 -0.015253
# 2 -0.010263 0.015916 0.007002 -0.009568 -0.017284 0.006925
# 3 -0.010540 0.007002 0.025117 -0.008398 -0.021040 0.008238
# 4 0.007576 -0.009568 -0.008398 0.042680 0.023258 -0.007638
# 5 0.019489 -0.017284 -0.021040 0.023258 0.067791 -0.017333
# 6 -0.015253 0.006925 0.008238 -0.007638 -0.017333 0.036474
#
#
# Mechanical properties :
#
#
# Convention : Reuss Voigt Hill
#
# Bulk Modulus (GPa) = 26.89986 36.29754 31.59870
# Shear Modulus (GPa) = 19.86370 32.39565 26.12968
#
# Velocity S-wave (km/s) = 3.08867 3.94443 3.54248
# Velocity P-wave (km/s) = 5.06349 6.17877 5.64872
#
# Compressibility (1/GPa) = 0.03717492
#
# Stress axis : x y z
#
# Youngs Moduli (GPa) = 42.11762 62.82844 39.81299
#
# Poissons Ratio (x) = 0.64480 0.41964
# Poissons Ratio (y) = 0.43225 -0.27878
# Poissons Ratio (z) = 0.44393 -0.43994
#
# Static dielectric constant tensor:
#      x y z
#    x 3.878320 -0.185730 0.224460 
#    y -0.185730 3.985410 0.030510 
#    z 0.224460 0.030510 4.471030 
# 
# 
# High freq. dielectric constant tensor:
#      x y z
#    x 1.775210 -0.008790 -0.020210 
#    y -0.008790 1.816430 0.013340 
#    z -0.020210 0.013340 1.835190 
# 
# From -- ./inp_files/255533.got.cif
#   From: 2010.06.25/outbox.cif.g09.slc.cpg/sg2_128_cif.got.tgz:255533.got - 2010.06.27 13:26:56.
