data_PCOD8008616
_publ_section_title
;
Structure prediction by ZEFSAII (Michael W. Deem and Ramdas Pophale) SiO2 
 PCOD8008616
Probable space group: P -1
;
_chemical_formula_sum "Si O2"
_cell_formula_units_Z 16
_cell_length_a 9.837119
_cell_length_b 13.654795
_cell_length_c 11.861650
_cell_angle_alpha 150.050997
_cell_angle_beta 69.079610
_cell_angle_gamma 99.659234
_cell_volume 707.902697
_symmetry_space_group_name_H-M "P -1"
_symmetry_group_IT_number 2
_symmetry_cell_setting 'triclinic'
loop_
_space_group_symop_operation_xyz
x,y,z
-x,-y,-z
loop_
_atom_site_type_symbol
_atom_site_label
_atom_site_fract_x
_atom_site_fract_y
_atom_site_fract_z
Si Si1 0.905616 0.715924 0.927070
Si Si2 0.148206 0.831301 0.538614
Si Si3 0.436935 0.276818 0.997441
Si Si4 0.904453 0.234781 0.268960
Si Si5 0.510968 0.222332 0.682839
Si Si6 0.564529 0.391092 0.486491
Si Si7 0.372718 0.180986 0.466302
Si Si8 0.024382 0.393141 0.765284
O O1 0.005471 0.639952 0.707513
O O2 0.972809 0.566743 0.860334
O O3 0.730123 0.750693 0.982177
O O4 0.928527 0.929883 0.175128
O O5 0.120246 0.697329 0.523030
O O6 0.326521 0.786793 0.423978
O O7 0.076428 0.762014 0.379070
O O8 0.468574 0.360616 0.946882
O O9 0.565112 0.063450 0.776367
O O10 0.453110 0.439254 0.243806
O O11 0.740297 0.261007 0.287800
O O12 0.000000 0.000000 0.000000
O O13 0.389168 0.301551 0.697231
O O14 0.500000 0.000000 0.500000
O O15 0.500000 0.500000 0.500000
O O16 0.469982 0.236628 0.392514
O O17 0.197132 0.253426 0.555631
O O18 0.000000 0.500000 0.000000
#
# Coordination Sequence:
#
# PCOD8008616 Si02
#       8
#     2   2   2   2   2   2   2   2
#     4  11  23  46  72 101 137 181 236 284 342 410
#     4  11  23  46  74  98 135 184 231 281 344 409
#     4  11  25  43  74 101 130 188 235 279 339 414
#     4  10  22  44  73  99 132 181 235 281 336 407
#     4  10  20  44  75  99 129 180 235 280 336 413
#     4  12  26  43  67 103 139 183 229 277 348 409
#     4  11  24  46  65 101 143 174 226 290 341 401
#     4  12  29  41  64 109 145 180 225 282 352 410
#
# _framework density 22.601976000000001
#
# number of rings (size 3 to 8) (size 9 to 14) (size 15 to 20)
#    0.000    1.000    3.750    3.000    3.500    7.500 
#    0.000    0.000    0.000    0.000    0.000    0.000 
#    0.000    0.000    0.000    0.000    0.000    0.000 
#
# Total GULP energy -198388.247312 kJ/mol
# GULP energy per Si atom -12399.265457 kJ/mol
# Density = 2.255053 g / cm^3
# Si number density = 22.601976 Si / 1000 Ang^3
#
#
#
# Elastic Constant Matrix: (Units=GPa)
#
#
# Indices 1 2 3 4 5 6 
#
# 1 115.1351 21.9828 38.5129 -3.3446 -12.5358 -9.7849
# 2 21.9828 103.6288 25.1754 -24.1637 -5.1975 -2.9393
# 3 38.5129 25.1754 87.0262 -10.8777 -0.0155 -3.3887
# 4 -3.3446 -24.1637 -10.8777 35.1862 -6.3201 -11.6874
# 5 -12.5358 -5.1975 -0.0155 -6.3201 43.9874 -3.4062
# 6 -9.7849 -2.9393 -3.3887 -11.6874 -3.4062 38.1783
#
#
#
# Elastic Compliance Matrix: (Units=1/GPa)
#
#
# Indices 1 2 3 4 5 6 
#
# 1 0.010944 -0.000857 -0.004406 0.000630 0.003326 0.002837
# 2 -0.000857 0.012908 -0.001946 0.010035 0.003027 0.003943
# 3 -0.004406 -0.001946 0.014377 0.002753 -0.001027 0.000748
# 4 0.000630 0.010035 0.002753 0.042780 0.008678 0.015049
# 5 0.003326 0.003027 -0.001027 0.008678 0.025747 0.005948
# 6 0.002837 0.003943 0.000748 0.015049 0.005948 0.032428
#
#
# Mechanical properties :
#
#
# Convention : Reuss Voigt Hill
#
# Bulk Modulus (GPa) = 41.99801 53.01470 47.50635
# Shear Modulus (GPa) = 30.95241 38.14498 34.54870
#
# Velocity S-wave (km/s) = 3.70463 4.11260 3.91393
# Velocity P-wave (km/s) = 6.07626 6.78660 6.44123
#
# Compressibility (1/GPa) = 0.02381065
#
# Stress axis : x y z
#
# Youngs Moduli (GPa) = 91.37081 77.47082 69.55745
#
# Poissons Ratio (x) = 0.06641 0.30644
# Poissons Ratio (y) = 0.07832 0.13539
# Poissons Ratio (z) = 0.40255 0.15079
#
# Static dielectric constant tensor:
#      x y z
#    x 4.136560 -0.079230 0.041220 
#    y -0.079230 4.524290 -0.243590 
#    z 0.041220 -0.243590 4.405260 
# 
# 
# High freq. dielectric constant tensor:
#      x y z
#    x 1.890280 0.001970 -0.004960 
#    y 0.001970 1.908870 -0.002680 
#    z -0.004960 -0.002680 1.901170 
# 
# From -- ./inp_files/399950.got.cif
#   From: 2010.06.25/outbox.cif.g09.slc.cpg/sg2_200_cif.got.tgz:399950.got - 2010.06.27 13:26:56.
