data_PCOD8008404
_publ_section_title
;
Structure prediction by ZEFSAII (Michael W. Deem and Ramdas Pophale) SiO2 
 PCOD8008404
Probable space group: P -1
;
_chemical_formula_sum "Si O2"
_cell_formula_units_Z 16
_cell_length_a 22.551532
_cell_length_b 14.315558
_cell_length_c 8.750266
_cell_angle_alpha 122.681664
_cell_angle_beta 31.861033
_cell_angle_gamma 145.700307
_cell_volume 705.371580
_symmetry_space_group_name_H-M "P -1"
_symmetry_group_IT_number 2
_symmetry_cell_setting 'triclinic'
loop_
_space_group_symop_operation_xyz
x,y,z
-x,-y,-z
loop_
_atom_site_type_symbol
_atom_site_label
_atom_site_fract_x
_atom_site_fract_y
_atom_site_fract_z
Si Si1 0.349554 0.792007 0.716657
Si Si2 0.890507 0.746751 0.244312
Si Si3 0.684257 0.156369 0.843487
Si Si4 0.687057 0.424043 0.612914
Si Si5 0.983193 0.229809 0.327803
Si Si6 0.912833 0.498157 0.441315
Si Si7 0.812201 0.812218 0.037204
Si Si8 0.460324 0.416101 0.276774
O O1 0.394696 0.707343 0.473465
O O2 0.500000 0.000000 0.500000
O O3 0.374224 0.808467 0.860347
O O4 0.129944 0.657031 0.036105
O O5 0.865634 0.652537 0.368508
O O6 0.671478 0.619403 0.581831
O O7 0.938511 0.707090 0.961023
O O8 0.068906 0.980558 0.090964
O O9 0.756456 0.095224 0.698865
O O10 0.865115 0.352489 0.520595
O O11 0.500000 0.000000 0.000000
O O12 0.765490 0.393972 0.530075
O O13 0.511381 0.345929 0.012949
O O14 0.112240 0.415271 0.317764
O O15 0.011634 0.130433 0.249693
O O16 0.666144 0.648132 0.078317
O O17 0.672789 0.725957 0.411060
#
# Coordination Sequence:
#
# PCOD8008404 Si02
#       8
#     2   2   2   2   2   2   2   2
#     4  11  25  44  66 100 135 174 223 287 338 406
#     4  11  24  41  69  99 137 177 228 286 336 402
#     4  11  24  43  70 100 132 176 231 271 334 415
#     4  12  24  44  65  98 140 174 216 281 351 392
#     4  10  20  43  66  95 127 176 221 275 334 399
#     4  11  23  43  68  91 134 179 223 274 329 415
#     4  10  22  43  70  97 134 177 237 277 335 407
#     4  10  22  43  65 101 133 180 229 283 332 414
#
# _framework density 22.683081000000001
#
# number of rings (size 3 to 8) (size 9 to 14) (size 15 to 20)
#    0.000    1.250    1.250    6.000    0.000    7.500 
#    4.500    0.000    0.000    0.000    0.000    0.000 
#    0.000    0.000    0.000    0.000    0.000    0.000 
#
# Total GULP energy -198354.971358 kJ/mol
# GULP energy per Si atom -12397.185710 kJ/mol
# Density = 2.263145 g / cm^3
# Si number density = 22.683081 Si / 1000 Ang^3
#
#
#
# Elastic Constant Matrix: (Units=GPa)
#
#
# Indices 1 2 3 4 5 6 
#
# 1 86.0155 41.7029 34.0737 -1.1099 -2.3195 12.4151
# 2 41.7029 122.7269 72.5345 9.4538 1.4270 0.0928
# 3 34.0737 72.5345 118.6935 18.4143 -0.4892 8.5561
# 4 -1.1099 9.4538 18.4143 45.2976 -0.6275 8.3341
# 5 -2.3195 1.4270 -0.4892 -0.6275 25.8995 -10.9927
# 6 12.4151 0.0928 8.5561 8.3341 -10.9927 41.1318
#
#
#
# Elastic Compliance Matrix: (Units=1/GPa)
#
#
# Indices 1 2 3 4 5 6 
#
# 1 0.015160 -0.004282 -0.001835 0.002905 -0.000447 -0.004893
# 2 -0.004282 0.014075 -0.007500 -0.000529 -0.000080 0.002907
# 3 -0.001835 -0.007500 0.014272 -0.003978 -0.000286 -0.001668
# 4 0.002905 -0.000529 -0.003978 0.024864 -0.001514 -0.005491
# 5 -0.000447 -0.000080 -0.000286 -0.001514 0.043703 0.012181
# 6 -0.004893 0.002907 -0.001668 -0.005491 0.012181 0.030497
#
#
# Mechanical properties :
#
#
# Convention : Reuss Voigt Hill
#
# Bulk Modulus (GPa) = 61.45179 69.33980 65.39579
# Shear Modulus (GPa) = 28.53373 34.40742 31.47058
#
# Velocity S-wave (km/s) = 3.55058 3.89893 3.72883
# Velocity P-wave (km/s) = 6.63017 7.13472 6.88706
#
# Compressibility (1/GPa) = 0.01627292
#
# Stress axis : x y z
#
# Youngs Moduli (GPa) = 65.96141 71.04622 70.06896
#
# Poissons Ratio (x) = 0.30419 0.12861
# Poissons Ratio (y) = 0.28242 0.52553
# Poissons Ratio (z) = 0.12107 0.53286
#
# Static dielectric constant tensor:
#      x y z
#    x 4.028780 0.188410 0.080450 
#    y 0.188410 3.717410 0.286330 
#    z 0.080450 0.286330 4.294980 
# 
# 
# High freq. dielectric constant tensor:
#      x y z
#    x 1.887220 0.007060 0.005890 
#    y 0.007060 1.893670 0.013480 
#    z 0.005890 0.013480 1.900810 
# 
# From -- ./inp_files/187349.got.cif
#   From: 2010.06.25/outbox.cif.g09.slc.cpg/sg2_94_cif.got.tgz:187349.got - 2010.06.27 13:26:56.
