data_PCOD8008827
_publ_section_title
;
Structure prediction by ZEFSAII (Michael W. Deem and Ramdas Pophale) SiO2 
 PCOD8008827
Probable space group: P -1
;
_chemical_formula_sum "Si O2"
_cell_formula_units_Z 14
_cell_length_a 31.654412
_cell_length_b 18.374542
_cell_length_c 16.417857
_cell_angle_alpha 158.652326
_cell_angle_beta 14.366819
_cell_angle_gamma 164.557290
_cell_volume 630.516185
_symmetry_space_group_name_H-M "P -1"
_symmetry_group_IT_number 2
_symmetry_cell_setting 'triclinic'
loop_
_space_group_symop_operation_xyz
x,y,z
-x,-y,-z
loop_
_atom_site_type_symbol
_atom_site_label
_atom_site_fract_x
_atom_site_fract_y
_atom_site_fract_z
Si Si1 0.211582 0.280901 0.680673
Si Si2 0.443347 0.099753 0.326518
Si Si3 0.634809 0.019144 0.344312
Si Si4 0.049084 0.044080 0.569321
Si Si5 0.821351 0.115366 0.559726
Si Si6 0.685988 0.566052 0.658630
Si Si7 0.818052 0.292840 0.448174
O O1 0.453821 0.592328 0.536520
O O2 0.149937 0.093630 0.522458
O O3 0.219708 0.139383 0.594444
O O4 0.013769 0.281837 0.068189
O O5 0.217634 0.928004 0.510038
O O6 0.377658 0.948222 0.376965
O O7 0.636842 0.114962 0.942774
O O8 0.711893 0.238801 0.499131
O O9 0.500000 0.000000 0.500000
O O10 0.427647 0.725798 0.468221
O O11 0.860495 0.074804 0.951196
O O12 0.263884 0.260044 0.332960
O O13 0.923133 0.742574 0.454946
O O14 0.078995 0.411747 0.405472
O O15 0.500000 0.500000 0.000000
#
# Coordination Sequence:
#
# PCOD8008827 Si02
#       7
#     2   2   2   2   2   2   2
#     4  10  21  37  60  85 115 150 192 232 287 345
#     4  10  21  40  58  85 120 148 187 240 289 341
#     4  10  21  35  53  80 112 146 187 228 283 335
#     4   9  19  36  54  78 110 145 184 236 275 331
#     4  10  22  38  60  87 115 150 191 236 288 346
#     4   9  18  35  54  75 107 146 183 227 275 329
#     4  10  22  39  58  85 119 149 192 241 282 341
#
# _framework density 22.204029999999999
#
# number of rings (size 3 to 8) (size 9 to 14) (size 15 to 20)
#    0.000    2.286    0.000    1.714    2.000    2.286 
#    7.714    0.000    0.000    0.000    0.000    0.000 
#    0.000    0.000    0.000    0.000    0.000    0.000 
#
# Total GULP energy -173446.050319 kJ/mol
# GULP energy per Si atom -12389.003594 kJ/mol
# Density = 2.215349 g / cm^3
# Si number density = 22.204030 Si / 1000 Ang^3
#
#
#
# Elastic Constant Matrix: (Units=GPa)
#
#
# Indices 1 2 3 4 5 6 
#
# 1 118.3713 18.7769 22.6941 -8.1616 -8.6508 4.7747
# 2 18.7769 120.1193 12.5827 -18.3599 -4.6743 2.3729
# 3 22.6941 12.5827 20.6166 -8.5104 -2.3445 -2.6436
# 4 -8.1616 -18.3599 -8.5104 24.8331 -7.3819 3.6718
# 5 -8.6508 -4.6743 -2.3445 -7.3819 28.8417 -5.1950
# 6 4.7747 2.3729 -2.6436 3.6718 -5.1950 43.3325
#
#
#
# Elastic Compliance Matrix: (Units=1/GPa)
#
#
# Indices 1 2 3 4 5 6 
#
# 1 0.010994 -0.000345 -0.011812 0.000159 0.002019 -0.001685
# 2 -0.000345 0.009900 -0.002363 0.007437 0.003048 -0.000913
# 3 -0.011812 -0.002363 0.073325 0.021239 0.008392 0.005111
# 4 0.000159 0.007437 0.021239 0.058632 0.017629 -0.001984
# 5 0.002019 0.003048 0.008392 0.017629 0.041617 0.003618
# 6 -0.001685 -0.000913 0.005111 -0.001984 0.003618 0.024227
#
#
# Mechanical properties :
#
#
# Convention : Reuss Voigt Hill
#
# Bulk Modulus (GPa) = 15.34207 40.80160 28.07184
# Shear Modulus (GPa) = 18.55559 33.07168 25.81364
#
# Velocity S-wave (km/s) = 2.89396 3.86352 3.41334
# Velocity P-wave (km/s) = 4.25338 6.19016 5.31080
#
# Compressibility (1/GPa) = 0.06518024
#
# Stress axis : x y z
#
# Youngs Moduli (GPa) = 90.96116 101.01117 13.63786
#
# Poissons Ratio (x) = 0.03485 0.16108
# Poissons Ratio (y) = 0.03139 0.03222
# Poissons Ratio (z) = 1.07439 0.23866
#
# Static dielectric constant tensor:
#      x y z
#    x 4.191780 0.374150 0.036860 
#    y 0.374150 5.197080 -0.253920 
#    z 0.036860 -0.253920 3.625870 
# 
# 
# High freq. dielectric constant tensor:
#      x y z
#    x 1.884350 0.015490 0.009590 
#    y 0.015490 1.885780 -0.020700 
#    z 0.009590 -0.020700 1.837900 
# 
# From -- ./inp_files/50960.got.cif
#   From: 2010.06.25/outbox.cif.g09.slc.cpg/sg2_26_cif.got.tgz:50960.got - 2010.06.27 13:26:56.
