data_PCOD8008211
_publ_section_title
;
Structure prediction by ZEFSAII (Michael W. Deem and Ramdas Pophale) SiO2 
 PCOD8008211
Probable space group: P -1
;
_chemical_formula_sum "Si O2"
_cell_formula_units_Z 16
_cell_length_a 9.016964
_cell_length_b 12.714416
_cell_length_c 15.446016
_cell_angle_alpha 26.931391
_cell_angle_beta 69.669736
_cell_angle_gamma 87.185297
_cell_volume 593.794107
_symmetry_space_group_name_H-M "P -1"
_symmetry_group_IT_number 2
_symmetry_cell_setting 'triclinic'
loop_
_space_group_symop_operation_xyz
x,y,z
-x,-y,-z
loop_
_atom_site_type_symbol
_atom_site_label
_atom_site_fract_x
_atom_site_fract_y
_atom_site_fract_z
Si Si1 0.795322 0.772946 0.760234
Si Si2 0.385235 0.514667 0.692914
Si Si3 0.630712 0.061480 0.511135
Si Si4 0.247182 0.413911 0.608992
Si Si5 0.965340 0.954975 0.774673
Si Si6 0.853061 0.186792 0.949437
Si Si7 0.306706 0.585483 0.289988
Si Si8 0.914541 0.407848 0.960942
O O1 0.823017 0.869794 0.783613
O O2 0.752294 0.454223 0.994519
O O3 0.618909 0.778903 0.752059
O O4 0.000000 0.000000 0.500000
O O5 0.445649 0.829492 0.478602
O O6 0.398224 0.522127 0.579934
O O7 0.530801 0.451986 0.749609
O O8 0.162876 0.247638 0.967067
O O9 0.863171 0.319813 0.253158
O O10 0.500000 0.000000 0.500000
O O11 0.330526 0.649718 0.341314
O O12 0.044727 0.347214 0.731295
O O13 0.214573 0.132712 0.776494
O O14 0.083175 0.292241 0.527232
O O15 0.122397 0.882401 0.777948
O O16 0.676084 0.153519 0.954406
O O17 0.898729 0.387206 0.875679
#
# Coordination Sequence:
#
# PCOD8008211 Si02
#       8
#     2   2   2   2   2   2   2   2
#     4  10  22  39  71  99 134 185 239 276 351 425
#     4  11  26  46  68 102 148 177 238 291 347 420
#     4  10  22  41  65  96 141 180 219 297 342 405
#     4  11  22  47  67 103 144 181 232 300 349 406
#     4  11  22  45  71 102 141 190 227 295 355 403
#     4  11  22  43  74 105 140 181 242 283 355 423
#     4  12  25  42  78 102 135 197 234 283 357 422
#     4  10  20  42  68 101 136 184 230 289 340 424
#
# _framework density 26.945364999999999
#
# number of rings (size 3 to 8) (size 9 to 14) (size 15 to 20)
#    0.000    1.250    3.750    3.375    5.250    0.500 
#    2.250    2.500    0.000    0.000    0.000    0.000 
#    0.000    0.000    0.000    0.000    0.000    0.000 
#
# Total GULP energy -198412.784029 kJ/mol
# GULP energy per Si atom -12400.799002 kJ/mol
# Density = 2.688404 g / cm^3
# Si number density = 26.945365 Si / 1000 Ang^3
#
#
#
# Elastic Constant Matrix: (Units=GPa)
#
#
# Indices 1 2 3 4 5 6 
#
# 1 176.2529 49.5924 10.8593 -3.6269 40.2814 -0.1988
# 2 49.5924 121.3949 7.3991 -12.5904 2.5433 21.2036
# 3 10.8593 7.3991 21.0528 -1.0104 18.6387 8.3425
# 4 -3.6269 -12.5904 -1.0104 33.5888 -0.8844 8.7363
# 5 40.2814 2.5433 18.6387 -0.8844 35.7368 1.9920
# 6 -0.1988 21.2036 8.3425 8.7363 1.9920 46.3419
#
#
#
# Elastic Compliance Matrix: (Units=1/GPa)
#
#
# Indices 1 2 3 4 5 6 
#
# 1 0.010203 -0.004809 0.010868 -0.001139 -0.016923 0.001230
# 2 -0.004809 0.011999 -0.006807 0.005478 0.008569 -0.005686
# 3 0.010868 -0.006807 0.111270 0.003968 -0.068884 -0.014657
# 4 -0.001139 0.005478 0.003968 0.034353 0.000216 -0.009711
# 5 -0.016923 0.008569 -0.068884 0.000216 0.082110 0.004837
# 6 0.001230 -0.005686 -0.014657 -0.009711 0.004837 0.028447
#
#
# Mechanical properties :
#
#
# Convention : Reuss Voigt Hill
#
# Bulk Modulus (GPa) = 7.57719 50.48912 29.03316
# Shear Modulus (GPa) = 15.43834 39.85683 27.64758
#
# Velocity S-wave (km/s) = 2.39623 3.85017 3.20669
# Velocity P-wave (km/s) = 3.23637 6.20833 4.95063
#
# Compressibility (1/GPa) = 0.13197501
#
# Stress axis : x y z
#
# Youngs Moduli (GPa) = 98.01344 83.34139 8.98718
#
# Poissons Ratio (x) = 0.40078 -0.09767
# Poissons Ratio (y) = 0.47133 0.06118
# Poissons Ratio (z) = -1.06518 0.56730
#
# Static dielectric constant tensor:
#      x y z
#    x 5.199380 -0.317450 0.393200 
#    y -0.317450 4.987800 -0.294640 
#    z 0.393200 -0.294640 4.728570 
# 
# 
# High freq. dielectric constant tensor:
#      x y z
#    x 2.103730 -0.003070 0.014390 
#    y -0.003070 2.084430 -0.004250 
#    z 0.014390 -0.004250 2.065830 
# 
# From -- ./inp_files/499669.got.cif
#   From: 2010.06.25/outbox.cif.g09.slc.cpg/sg2_250_cif.got.tgz:499669.got - 2010.06.27 13:26:56.
