data_PCOD8008181
_publ_section_title
;
Structure prediction by ZEFSAII (Michael W. Deem and Ramdas Pophale) SiO2 
 PCOD8008181
Probable space group: P -1
;
_chemical_formula_sum "Si O2"
_cell_formula_units_Z 14
_cell_length_a 10.608504
_cell_length_b 11.843803
_cell_length_c 8.978159
_cell_angle_alpha 64.827154
_cell_angle_beta 139.273882
_cell_angle_gamma 106.002361
_cell_volume 664.014348
_symmetry_space_group_name_H-M "P -1"
_symmetry_group_IT_number 2
_symmetry_cell_setting 'triclinic'
loop_
_space_group_symop_operation_xyz
x,y,z
-x,-y,-z
loop_
_atom_site_type_symbol
_atom_site_label
_atom_site_fract_x
_atom_site_fract_y
_atom_site_fract_z
Si Si1 0.778705 0.152599 0.371201
Si Si2 0.421452 0.591113 0.007336
Si Si3 0.333350 0.310148 0.570346
Si Si4 0.061458 0.779206 0.817254
Si Si5 0.506524 0.040378 0.813309
Si Si6 0.062906 0.997670 0.889445
Si Si7 0.781408 0.475403 0.856373
O O1 0.824687 0.138594 0.243523
O O2 0.973293 0.123793 0.658128
O O3 0.636122 0.047738 0.350601
O O4 0.697790 0.295003 0.249017
O O5 0.590346 0.652537 0.219599
O O6 0.284393 0.512422 0.035537
O O7 0.500000 0.500000 0.000000
O O8 0.445295 0.188025 0.666262
O O9 0.361376 0.431473 0.422392
O O10 0.105833 0.286289 0.385665
O O11 0.220471 0.674910 0.090352
O O12 0.974414 0.873881 0.811087
O O13 0.500000 0.000000 0.000000
O O14 0.708231 0.013168 0.924230
O O15 0.000000 0.000000 0.000000
O O16 0.000000 0.500000 0.000000
#
# Coordination Sequence:
#
# PCOD8008181 Si02
#       7
#     2   2   2   2   2   2   2
#     4  11  23  43  68  91 132 171 218 253 315 399
#     4  11  24  41  64  97 127 164 215 269 319 369
#     4  11  21  39  70  93 124 173 218 261 311 384
#     4  10  20  42  67  93 126 173 219 256 308 396
#     4  12  21  41  72  95 121 177 219 252 314 390
#     4  12  26  40  62 102 135 161 209 275 327 363
#     4   9  21  41  63  89 124 172 214 254 313 381
#
# _framework density 21.083881000000002
#
# number of rings (size 3 to 8) (size 9 to 14) (size 15 to 20)
#    0.000    1.143    4.286    2.571    0.000    2.857 
#    5.143    6.429    0.000    0.000    0.000    0.000 
#    0.000    0.000    0.000    0.000    0.000    0.000 
#
# Total GULP energy -173467.555985 kJ/mol
# GULP energy per Si atom -12390.539713 kJ/mol
# Density = 2.103589 g / cm^3
# Si number density = 21.083881 Si / 1000 Ang^3
#
#
#
# Elastic Constant Matrix: (Units=GPa)
#
#
# Indices 1 2 3 4 5 6 
#
# 1 143.7371 67.7332 47.8105 -11.3570 5.9144 -13.8016
# 2 67.7332 110.0937 58.8755 -14.3141 1.7784 -8.5695
# 3 47.8105 58.8755 142.1107 -49.5284 -0.6949 -11.2823
# 4 -11.3570 -14.3141 -49.5284 38.8546 5.8815 7.2958
# 5 5.9144 1.7784 -0.6949 5.8815 27.4426 -0.6175
# 6 -13.8016 -8.5695 -11.2823 7.2958 -0.6175 44.4975
#
#
#
# Elastic Compliance Matrix: (Units=1/GPa)
#
#
# Indices 1 2 3 4 5 6 
#
# 1 0.010157 -0.005499 -0.001268 -0.000775 -0.001657 0.001874
# 2 -0.005499 0.014972 -0.005439 -0.003205 0.000772 0.000335
# 3 -0.001268 -0.005439 0.016244 0.018875 -0.003018 -0.000459
# 4 -0.000775 -0.003205 0.018875 0.050776 -0.010132 -0.004538
# 5 -0.001657 0.000772 -0.003018 -0.010132 0.038866 0.001070
# 6 0.001874 0.000335 -0.000459 -0.004538 0.001070 0.023761
#
#
# Mechanical properties :
#
#
# Convention : Reuss Voigt Hill
#
# Bulk Modulus (GPa) = 58.96278 82.75333 70.85805
# Shear Modulus (GPa) = 27.04999 36.92710 31.98855
#
# Velocity S-wave (km/s) = 3.58574 4.18956 3.89936
# Velocity P-wave (km/s) = 6.72086 7.92073 7.34534
#
# Compressibility (1/GPa) = 0.01695985
#
# Stress axis : x y z
#
# Youngs Moduli (GPa) = 98.45310 66.79140 61.56041
#
# Poissons Ratio (x) = 0.36727 0.07809
# Poissons Ratio (y) = 0.54137 0.33486
# Poissons Ratio (z) = 0.12489 0.36331
#
# Static dielectric constant tensor:
#      x y z
#    x 3.750540 0.375310 0.117000 
#    y 0.375310 4.046040 -0.457760 
#    z 0.117000 -0.457760 4.352760 
# 
# 
# High freq. dielectric constant tensor:
#      x y z
#    x 1.813910 0.025250 0.020830 
#    y 0.025250 1.820090 -0.023710 
#    z 0.020830 -0.023710 1.842150 
# 
# From -- ./inp_files/185471.got.cif
#   From: 2010.06.25/outbox.cif.g09.slc.cpg/sg2_93_cif.got.tgz:185471.got - 2010.06.27 13:26:56.
