data_PCOD8008409
_publ_section_title
;
Structure prediction by ZEFSAII (Michael W. Deem and Ramdas Pophale) SiO2 
 PCOD8008409
Probable space group: P -1
;
_chemical_formula_sum "Si O2"
_cell_formula_units_Z 16
_cell_length_a 13.788535
_cell_length_b 15.297004
_cell_length_c 8.647822
_cell_angle_alpha 77.590457
_cell_angle_beta 85.337032
_cell_angle_gamma 150.726302
_cell_volume 720.053250
_symmetry_space_group_name_H-M "P -1"
_symmetry_group_IT_number 2
_symmetry_cell_setting 'triclinic'
loop_
_space_group_symop_operation_xyz
x,y,z
-x,-y,-z
loop_
_atom_site_type_symbol
_atom_site_label
_atom_site_fract_x
_atom_site_fract_y
_atom_site_fract_z
Si Si1 0.751995 0.262889 0.705498
Si Si2 0.533998 0.780161 0.718350
Si Si3 0.030821 0.819956 0.671524
Si Si4 0.571161 0.924107 0.954257
Si Si5 0.432627 0.543533 0.316434
Si Si6 0.142823 0.970414 0.937177
Si Si7 0.652993 0.542737 0.294579
Si Si8 0.561995 0.958183 0.437938
O O1 0.535249 0.123770 0.690469
O O2 0.000000 0.500000 0.500000
O O3 0.727139 0.134162 0.770689
O O4 0.686630 0.253065 0.884094
O O5 0.514152 0.796168 0.890784
O O6 0.386867 0.565374 0.792421
O O7 0.423882 0.765242 0.627565
O O8 0.810985 0.994786 0.549631
O O9 0.052056 0.891065 0.802275
O O10 0.761969 0.585871 0.733224
O O11 0.151121 0.821956 0.678853
O O12 0.732615 0.018088 0.034047
O O13 0.458665 0.458324 0.332825
O O14 0.363144 0.513919 0.511071
O O15 0.679852 0.798349 0.145194
O O16 0.919152 0.804305 0.139395
O O17 0.500000 0.000000 0.500000
#
# Coordination Sequence:
#
# PCOD8008409 Si02
#       8
#     2   2   2   2   2   2   2   2
#     4  11  24  44  69  99 140 191 237 287 351 412
#     4  10  22  44  67 105 139 184 234 290 354 417
#     4  10  23  44  74  97 146 186 229 298 354 414
#     4  11  24  42  69  99 142 185 235 287 344 426
#     4  11  25  51  72 101 141 190 234 299 362 410
#     4  12  25  45  70 105 142 180 243 289 352 427
#     4  11  26  46  75 103 139 183 241 295 354 433
#     4  10  20  43  66  98 142 176 235 284 342 419
#
# _framework density 22.220578
#
# number of rings (size 3 to 8) (size 9 to 14) (size 15 to 20)
#    0.750    0.500    3.750    1.125    3.500    3.000 
#    2.250    0.625    0.000    0.000    0.000    0.000 
#    0.000    0.000    0.000    0.000    0.000    0.000 
#
# Total GULP energy -198299.992174 kJ/mol
# GULP energy per Si atom -12393.749511 kJ/mol
# Density = 2.217000 g / cm^3
# Si number density = 22.220578 Si / 1000 Ang^3
#
#
#
# Elastic Constant Matrix: (Units=GPa)
#
#
# Indices 1 2 3 4 5 6 
#
# 1 101.3921 52.9316 25.5884 0.2089 -2.4910 -0.5637
# 2 52.9316 133.4313 47.4571 1.1989 -0.3364 -6.1355
# 3 25.5884 47.4571 107.0679 -10.6698 -0.2646 -8.0184
# 4 0.2089 1.1989 -10.6698 34.1152 -1.5680 -0.0148
# 5 -2.4910 -0.3364 -0.2646 -1.5680 24.9413 3.5801
# 6 -0.5637 -6.1355 -8.0184 -0.0148 3.5801 31.7873
#
#
#
# Elastic Compliance Matrix: (Units=1/GPa)
#
#
# Indices 1 2 3 4 5 6 
#
# 1 0.012589 -0.004672 -0.001034 -0.000176 0.001329 -0.001089
# 2 -0.004672 0.010731 -0.003711 -0.001537 -0.000619 0.001121
# 3 -0.001034 -0.003711 0.011780 0.003817 -0.000112 0.002251
# 4 -0.000176 -0.001537 0.003817 0.030647 0.001862 0.000468
# 5 0.001329 -0.000619 -0.000112 0.001862 0.041015 -0.004743
# 6 -0.001089 0.001121 0.002251 0.000468 -0.004743 0.032758
#
#
# Mechanical properties :
#
#
# Convention : Reuss Voigt Hill
#
# Bulk Modulus (GPa) = 61.46826 65.98284 63.72555
# Shear Modulus (GPa) = 30.52928 32.56307 31.54617
#
# Velocity S-wave (km/s) = 3.71066 3.83227 3.77196
# Velocity P-wave (km/s) = 6.78834 7.02429 6.90732
#
# Compressibility (1/GPa) = 0.01626856
#
# Stress axis : x y z
#
# Youngs Moduli (GPa) = 79.43217 93.18522 84.88620
#
# Poissons Ratio (x) = 0.43532 0.08776
# Poissons Ratio (y) = 0.37107 0.31500
# Poissons Ratio (z) = 0.08212 0.34580
#
# Static dielectric constant tensor:
#      x y z
#    x 3.766210 -0.300200 -0.146600 
#    y -0.300200 2.557470 -0.492710 
#    z -0.146600 -0.492710 3.659850 
# 
# 
# High freq. dielectric constant tensor:
#      x y z
#    x 1.871660 -0.003390 -0.001460 
#    y -0.003390 1.857580 0.014650 
#    z -0.001460 0.014650 1.881460 
# 
# From -- ./inp_files/315087.got.cif
#   From: 2010.06.25/outbox.cif.g09.slc.cpg/sg2_158_cif.got.tgz:315087.got - 2010.06.27 13:26:56.
