data_PCOD8008097
_publ_section_title
;
Structure prediction by ZEFSAII (Michael W. Deem and Ramdas Pophale) SiO2 
 PCOD8008097
Probable space group: P -1
;
_chemical_formula_sum "Si O2"
_cell_formula_units_Z 16
_cell_length_a 13.423401
_cell_length_b 13.825308
_cell_length_c 9.463852
_cell_angle_alpha 48.447467
_cell_angle_beta 82.921804
_cell_angle_gamma 44.452601
_cell_volume 684.690689
_symmetry_space_group_name_H-M "P -1"
_symmetry_group_IT_number 2
_symmetry_cell_setting 'triclinic'
loop_
_space_group_symop_operation_xyz
x,y,z
-x,-y,-z
loop_
_atom_site_type_symbol
_atom_site_label
_atom_site_fract_x
_atom_site_fract_y
_atom_site_fract_z
Si Si1 0.675887 0.568195 0.547688
Si Si2 0.136877 0.006855 0.594617
Si Si3 0.026233 0.415075 0.234072
Si Si4 0.368647 0.679163 0.142364
Si Si5 0.402098 0.111160 0.562575
Si Si6 0.066336 0.050230 0.031179
Si Si7 0.782328 0.232522 0.447955
Si Si8 0.372523 0.224396 0.909627
O O1 0.601193 0.505416 0.647555
O O2 0.562096 0.792125 0.453583
O O3 0.665941 0.606092 0.343012
O O4 0.900686 0.337891 0.772281
O O5 0.140751 0.155661 0.451510
O O6 0.914476 0.210943 0.413142
O O7 0.257640 0.817470 0.628060
O O8 0.232727 0.839392 0.876425
O O9 0.829208 0.620432 0.157589
O O10 0.174361 0.341496 0.366556
O O11 0.000000 0.500000 0.000000
O O12 0.576743 0.514547 0.252959
O O13 0.267844 0.871732 0.099020
O O14 0.500000 0.000000 0.500000
O O15 0.503169 0.889953 0.857756
O O16 0.105290 0.976605 0.256871
O O17 0.000000 0.000000 0.000000
O O18 0.500000 0.000000 0.000000
#
# Coordination Sequence:
#
# PCOD8008097 Si02
#       8
#     2   2   2   2   2   2   2   2
#     4  10  23  44  73 100 148 176 228 295 342 422
#     4  11  26  45  66 103 142 172 237 287 336 424
#     4  12  27  46  74 101 141 188 237 293 350 410
#     4  11  23  45  70 104 139 180 228 279 355 415
#     4  11  25  47  72 102 137 191 238 287 351 408
#     4  10  20  42  65  99 137 174 224 276 341 415
#     4  11  24  42  70  98 137 186 219 284 357 403
#     4  10  24  47  68 104 141 179 240 289 339 416
#
# _framework density 23.368217000000001
#
# number of rings (size 3 to 8) (size 9 to 14) (size 15 to 20)
#    0.000    1.250    3.750    1.500    5.250    3.000 
#    4.500    0.000    0.000    0.000    0.000    0.000 
#    0.000    0.000    0.000    0.000    0.000    0.000 
#
# Total GULP energy -198304.790035 kJ/mol
# GULP energy per Si atom -12394.049377 kJ/mol
# Density = 2.331503 g / cm^3
# Si number density = 23.368217 Si / 1000 Ang^3
#
#
#
# Elastic Constant Matrix: (Units=GPa)
#
#
# Indices 1 2 3 4 5 6 
#
# 1 42.0112 16.6561 28.6109 4.2413 6.3059 -7.4144
# 2 16.6561 102.5200 31.2764 12.8568 -6.7325 -18.4231
# 3 28.6109 31.2764 111.3022 16.4842 -6.6023 -11.2784
# 4 4.2413 12.8568 16.4842 48.7664 -8.0394 9.8637
# 5 6.3059 -6.7325 -6.6023 -8.0394 31.0317 -7.7698
# 6 -7.4144 -18.4231 -11.2784 9.8637 -7.7698 32.2667
#
#
#
# Elastic Compliance Matrix: (Units=1/GPa)
#
#
# Indices 1 2 3 4 5 6 
#
# 1 0.031788 -0.003102 -0.007547 -0.001061 -0.008734 0.001117
# 2 -0.003102 0.012874 -0.001161 -0.003721 0.004318 0.008409
# 3 -0.007547 -0.001161 0.012385 -0.003354 0.004031 0.003928
# 4 -0.001061 -0.003721 -0.003354 0.025293 0.002581 -0.010651
# 5 -0.008734 0.004318 0.004031 0.002581 0.039090 0.010492
# 6 0.001117 0.008409 0.003928 -0.010651 0.010492 0.043205
#
#
# Mechanical properties :
#
#
# Convention : Reuss Voigt Hill
#
# Bulk Modulus (GPa) = 29.91667 45.43559 37.67613
# Shear Modulus (GPa) = 25.07577 34.36563 29.72070
#
# Velocity S-wave (km/s) = 3.27933 3.83902 3.57016
# Velocity P-wave (km/s) = 5.21237 6.25590 5.75782
#
# Compressibility (1/GPa) = 0.03342618
#
# Stress axis : x y z
#
# Youngs Moduli (GPa) = 31.45836 77.67835 80.74469
#
# Poissons Ratio (x) = 0.24094 0.60941
# Poissons Ratio (y) = 0.09758 0.09374
# Poissons Ratio (z) = 0.23743 0.09018
#
# Static dielectric constant tensor:
#      x y z
#    x 3.878530 -0.271030 0.142640 
#    y -0.271030 4.680060 -0.124680 
#    z 0.142640 -0.124680 4.816500 
# 
# 
# High freq. dielectric constant tensor:
#      x y z
#    x 1.896200 -0.008690 0.011230 
#    y -0.008690 1.940140 0.002430 
#    z 0.011230 0.002430 1.945790 
# 
# From -- ./inp_files/314651.got.cif
#   From: 2010.06.25/outbox.cif.g09.slc.cpg/sg2_158_cif.got.tgz:314651.got - 2010.06.27 13:26:56.
