data_PCOD8008791
_publ_section_title
;
Structure prediction by ZEFSAII (Michael W. Deem and Ramdas Pophale) SiO2 
 PCOD8008791
Probable space group: P -1
;
_chemical_formula_sum "Si O2"
_cell_formula_units_Z 16
_cell_length_a 8.158001
_cell_length_b 12.150153
_cell_length_c 11.953089
_cell_angle_alpha 55.753462
_cell_angle_beta 68.461701
_cell_angle_gamma 50.020483
_cell_volume 750.448837
_symmetry_space_group_name_H-M "P -1"
_symmetry_group_IT_number 2
_symmetry_cell_setting 'triclinic'
loop_
_space_group_symop_operation_xyz
x,y,z
-x,-y,-z
loop_
_atom_site_type_symbol
_atom_site_label
_atom_site_fract_x
_atom_site_fract_y
_atom_site_fract_z
Si Si1 0.495432 0.845736 0.062446
Si Si2 0.744785 0.292932 0.453486
Si Si3 0.826492 0.023401 0.114666
Si Si4 0.129004 0.967137 0.255548
Si Si5 0.986826 0.289731 0.192298
Si Si6 0.278473 0.471170 0.506745
Si Si7 0.006625 0.433789 0.890639
Si Si8 0.016710 0.329362 0.713287
O O1 0.333989 0.847532 0.193356
O O2 0.732351 0.682705 0.104746
O O3 0.500000 0.000000 0.000000
O O4 0.405914 0.848742 0.957073
O O5 0.892093 0.130203 0.582552
O O6 0.818727 0.278529 0.315232
O O7 0.512292 0.327787 0.491425
O O8 0.731126 0.446098 0.421901
O O9 0.833844 0.861769 0.214181
O O10 0.897582 0.059241 0.194873
O O11 0.000000 0.000000 0.000000
O O12 0.160353 0.104498 0.217041
O O13 0.075794 0.376949 0.192672
O O14 0.897237 0.398032 0.039748
O O15 0.157565 0.386557 0.597599
O O16 0.181100 0.607990 0.356446
O O17 0.921862 0.403162 0.816728
#
# Coordination Sequence:
#
# PCOD8008791 Si02
#       8
#     2   2   2   2   2   2   2   2
#     4  11  20  37  66  94 116 153 216 253 290 356
#     4  11  22  40  61  89 123 162 208 244 301 370
#     4  10  21  34  59  94 123 151 197 256 303 346
#     4  11  22  40  61  89 124 164 196 252 305 362
#     4  11  24  40  60  88 130 163 199 241 316 369
#     4  10  23  36  65  94 116 156 210 259 295 352
#     4  11  22  39  64  92 119 164 200 254 302 366
#     4  11  19  40  63  93 123 151 204 262 303 345
#
# _framework density 21.320574000000001
#
# number of rings (size 3 to 8) (size 9 to 14) (size 15 to 20)
#    0.000    1.250    5.000    1.875    1.750    0.000 
#    0.000    3.750    0.000    2.250    0.000    0.000 
#    0.000    0.000    0.000    0.000    0.000    0.000 
#
# Total GULP energy -198240.946397 kJ/mol
# GULP energy per Si atom -12390.059150 kJ/mol
# Density = 2.127205 g / cm^3
# Si number density = 21.320574 Si / 1000 Ang^3
#
#
#
# Elastic Constant Matrix: (Units=GPa)
#
#
# Indices 1 2 3 4 5 6 
#
# 1 57.7585 10.7205 22.8845 2.7387 11.7033 -0.2216
# 2 10.7205 78.3570 26.5537 -0.9191 -0.3915 12.1598
# 3 22.8845 26.5537 123.6652 11.3709 -4.3877 -3.5623
# 4 2.7387 -0.9191 11.3709 35.3528 7.9628 -4.1741
# 5 11.7033 -0.3915 -4.3877 7.9628 27.8063 -8.4425
# 6 -0.2216 12.1598 -3.5623 -4.1741 -8.4425 20.0005
#
#
#
# Elastic Compliance Matrix: (Units=1/GPa)
#
#
# Indices 1 2 3 4 5 6 
#
# 1 0.021525 -0.000706 -0.004557 0.001871 -0.011756 -0.004716
# 2 -0.000706 0.016026 -0.003912 0.001239 -0.004064 -0.011905
# 3 -0.004557 -0.003912 0.010533 -0.003876 0.006498 0.006138
# 4 0.001871 0.001239 -0.003876 0.031829 -0.010222 0.000905
# 5 -0.011756 -0.004064 0.006498 -0.010222 0.051868 0.023259
# 6 -0.004716 -0.011905 0.006138 0.000905 0.023259 0.068284
#
#
# Mechanical properties :
#
#
# Convention : Reuss Voigt Hill
#
# Bulk Modulus (GPa) = 33.62907 42.23312 37.93109
# Shear Modulus (GPa) = 21.89853 29.94005 25.91929
#
# Velocity S-wave (km/s) = 3.20833 3.75144 3.49046
# Velocity P-wave (km/s) = 5.43432 6.21418 5.83729
#
# Compressibility (1/GPa) = 0.02973617
#
# Stress axis : x y z
#
# Youngs Moduli (GPa) = 46.45728 62.39918 94.93784
#
# Poissons Ratio (x) = 0.04404 0.43261
# Poissons Ratio (y) = 0.03279 0.37136
# Poissons Ratio (z) = 0.21169 0.24408
#
# Static dielectric constant tensor:
#      x y z
#    x 4.103020 0.152720 0.309810 
#    y 0.152720 3.703720 0.004530 
#    z 0.309810 0.004530 4.252470 
# 
# 
# High freq. dielectric constant tensor:
#      x y z
#    x 1.816970 0.023130 -0.003970 
#    y 0.023130 1.811760 -0.007980 
#    z -0.003970 -0.007980 1.858180 
# 
# From -- ./inp_files/274717.got.cif
#   From: 2010.06.25/outbox.cif.g09.slc.cpg/sg2_138_cif.got.tgz:274717.got - 2010.06.27 13:26:56.
