data_PCOD8008776
_publ_section_title
;
Structure prediction by ZEFSAII (Michael W. Deem and Ramdas Pophale) SiO2 
 PCOD8008776
Probable space group: P -1
;
_chemical_formula_sum "Si O2"
_cell_formula_units_Z 16
_cell_length_a 13.573961
_cell_length_b 19.425690
_cell_length_c 11.063400
_cell_angle_alpha 146.648230
_cell_angle_beta 30.846829
_cell_angle_gamma 147.720737
_cell_volume 732.235935
_symmetry_space_group_name_H-M "P -1"
_symmetry_group_IT_number 2
_symmetry_cell_setting 'triclinic'
loop_
_space_group_symop_operation_xyz
x,y,z
-x,-y,-z
loop_
_atom_site_type_symbol
_atom_site_label
_atom_site_fract_x
_atom_site_fract_y
_atom_site_fract_z
Si Si1 0.823874 0.870185 0.567189
Si Si2 0.550591 0.014733 0.111664
Si Si3 0.882874 0.192854 0.659552
Si Si4 0.286062 0.379510 0.415412
Si Si5 0.293579 0.604900 0.915122
Si Si6 0.133976 0.526248 0.230234
Si Si7 0.298005 0.681310 0.514434
Si Si8 0.580749 0.617408 0.280629
O O1 0.647912 0.746847 0.490937
O O2 0.951615 0.800570 0.401453
O O3 0.687487 0.930974 0.878485
O O4 0.000000 0.000000 0.500000
O O5 0.326246 0.959648 0.345401
O O6 0.692521 0.174396 0.236880
O O7 0.500000 0.000000 0.000000
O O8 0.047232 0.245136 0.445711
O O9 0.769466 0.294072 0.950878
O O10 0.226602 0.462636 0.703708
O O11 0.450833 0.326019 0.220729
O O12 0.388971 0.475142 0.331006
O O13 0.159165 0.572533 0.133302
O O14 0.258433 0.663806 0.386471
O O15 0.884408 0.448463 0.411040
O O16 0.221180 0.413387 0.003023
O O17 0.511284 0.665176 0.300334
#
# Coordination Sequence:
#
# PCOD8008776 Si02
#       8
#     2   2   2   2   2   2   2   2
#     4  12  23  36  57  91 122 159 197 249 311 360
#     4  12  24  38  60  88 125 160 196 252 304 362
#     4  12  22  36  58  85 123 157 197 246 310 357
#     4  10  21  34  58  91 121 154 199 255 306 357
#     4  10  21  37  58  88 121 158 203 251 298 354
#     4  10  23  40  65  88 120 164 202 248 293 367
#     4  11  23  41  61  90 123 162 204 243 304 358
#     4  11  21  38  63  92 125 152 202 256 307 355
#
# _framework density 21.850883
#
# number of rings (size 3 to 8) (size 9 to 14) (size 15 to 20)
#    0.000    1.000    2.500    6.000    1.750    0.000 
#    0.000    0.625    0.000    3.750    0.000    0.000 
#    0.000    0.000    0.000    0.000    0.000    0.000 
#
# Total GULP energy -198259.216421 kJ/mol
# GULP energy per Si atom -12391.201026 kJ/mol
# Density = 2.180115 g / cm^3
# Si number density = 21.850883 Si / 1000 Ang^3
#
#
#
# Elastic Constant Matrix: (Units=GPa)
#
#
# Indices 1 2 3 4 5 6 
#
# 1 78.4274 16.2502 31.7988 14.1408 -15.3375 -4.3610
# 2 16.2502 86.7585 8.1132 -3.8280 -8.3009 7.1635
# 3 31.7988 8.1132 69.1320 12.1041 -13.3878 -1.2293
# 4 14.1408 -3.8280 12.1041 38.6850 0.8440 -2.5274
# 5 -15.3375 -8.3009 -13.3878 0.8440 42.2873 4.1095
# 6 -4.3610 7.1635 -1.2293 -2.5274 4.1095 24.1100
#
#
#
# Elastic Compliance Matrix: (Units=1/GPa)
#
#
# Indices 1 2 3 4 5 6 
#
# 1 0.017531 -0.002770 -0.006157 -0.004670 0.003710 0.002558
# 2 -0.002770 0.012695 -0.000307 0.002040 0.001775 -0.004377
# 3 -0.006157 -0.000307 0.018716 -0.003792 0.003816 -0.001116
# 4 -0.004670 0.002040 -0.003792 0.029145 -0.003267 0.001968
# 5 0.003710 0.001775 0.003816 -0.003267 0.027064 -0.004617
# 6 0.002558 -0.004377 -0.001116 0.001968 -0.004617 0.044176
#
#
# Mechanical properties :
#
#
# Convention : Reuss Voigt Hill
#
# Bulk Modulus (GPa) = 32.81518 38.51581 35.66550
# Shear Modulus (GPa) = 28.09728 32.89351 30.49539
#
# Velocity S-wave (km/s) = 3.58979 3.88411 3.73984
# Velocity P-wave (km/s) = 5.67736 6.14654 5.91661
#
# Compressibility (1/GPa) = 0.03047370
#
# Stress axis : x y z
#
# Youngs Moduli (GPa) = 57.04270 78.77080 53.42945
#
# Poissons Ratio (x) = 0.21820 0.32897
# Poissons Ratio (y) = 0.15801 0.01641
# Poissons Ratio (z) = 0.35121 0.02419
#
# Static dielectric constant tensor:
#      x y z
#    x 3.939820 -0.017820 -0.442110 
#    y -0.017820 4.239220 -0.243320 
#    z -0.442110 -0.243320 3.992800 
# 
# 
# High freq. dielectric constant tensor:
#      x y z
#    x 1.841080 -0.004360 -0.044910 
#    y -0.004360 1.868210 -0.018880 
#    z -0.044910 -0.018880 1.847420 
# 
# From -- ./inp_files/457710.got.cif
#   From: 2010.06.25/outbox.cif.g09.slc.cpg/sg2_229_cif.got.tgz:457710.got - 2010.06.27 13:26:56.
