data_PCOD8008013
_publ_section_title
;
Structure prediction by ZEFSAII (Michael W. Deem and Ramdas Pophale) SiO2 
 PCOD8008013
Probable space group: P -1
;
_chemical_formula_sum "Si O2"
_cell_formula_units_Z 16
_cell_length_a 14.324847
_cell_length_b 8.832357
_cell_length_c 13.253729
_cell_angle_alpha 89.412302
_cell_angle_beta 127.381156
_cell_angle_gamma 47.118474
_cell_volume 670.278795
_symmetry_space_group_name_H-M "P -1"
_symmetry_group_IT_number 2
_symmetry_cell_setting 'triclinic'
loop_
_space_group_symop_operation_xyz
x,y,z
-x,-y,-z
loop_
_atom_site_type_symbol
_atom_site_label
_atom_site_fract_x
_atom_site_fract_y
_atom_site_fract_z
Si Si1 0.593841 0.257237 0.362891
Si Si2 0.950857 0.649739 0.367746
Si Si3 0.139918 0.416604 0.183103
Si Si4 0.543896 0.963860 0.318843
Si Si5 0.783003 0.165144 0.303147
Si Si6 0.210386 0.338614 0.919646
Si Si7 0.855496 0.233566 0.815211
Si Si8 0.932952 0.183699 0.226331
O O1 0.558581 0.125308 0.306422
O O2 0.569817 0.392717 0.244671
O O3 0.414909 0.501018 0.333495
O O4 0.862063 0.968633 0.573856
O O5 0.000000 0.500000 0.500000
O O6 0.768438 0.756877 0.177561
O O7 0.211547 0.391549 0.498179
O O8 0.831416 0.939975 0.306733
O O9 0.409960 0.082062 0.335808
O O10 0.091436 0.648642 0.158350
O O11 0.051591 0.427826 0.223920
O O12 0.000000 0.500000 0.000000
O O13 0.405474 0.056520 0.127212
O O14 0.745613 0.301398 0.173655
O O15 0.000000 0.000000 0.500000
O O16 0.213627 0.517850 0.923175
O O17 0.936506 0.070071 0.765148
O O18 0.000000 0.000000 0.000000
#
# Coordination Sequence:
#
# PCOD8008013 Si02
#       8
#     2   2   2   2   2   2   2   2
#     4  10  20  42  63  92 129 166 214 260 320 385
#     4  12  22  42  68  90 128 169 215 264 315 381
#     4   9  20  40  61  93 130 161 213 262 315 382
#     4  10  21  41  66  96 123 166 214 264 321 374
#     4  10  22  42  65  93 129 168 211 266 321 381
#     4  11  23  42  68  94 132 167 211 269 313 382
#     4  11  22  39  64  93 130 170 210 267 319 378
#     4  11  21  41  65  96 129 170 214 260 323 379
#
# _framework density 23.870664000000001
#
# number of rings (size 3 to 8) (size 9 to 14) (size 15 to 20)
#    0.000    1.500    2.500    4.125    0.000    1.000 
#   15.750    2.500    0.000    0.000    0.000    0.000 
#    0.000    0.000    0.000    0.000    0.000    0.000 
#
# Total GULP energy -198246.768471 kJ/mol
# GULP energy per Si atom -12390.423029 kJ/mol
# Density = 2.381633 g / cm^3
# Si number density = 23.870664 Si / 1000 Ang^3
#
#
#
# Elastic Constant Matrix: (Units=GPa)
#
#
# Indices 1 2 3 4 5 6 
#
# 1 133.7336 22.2983 -10.6215 6.9333 -0.4806 0.5600
# 2 22.2983 105.4113 5.9843 21.4696 1.3549 6.9509
# 3 -10.6215 5.9843 44.1870 12.9095 -2.3445 0.2552
# 4 6.9333 21.4696 12.9095 32.8628 -1.8529 -4.4849
# 5 -0.4806 1.3549 -2.3445 -1.8529 33.0282 0.3881
# 6 0.5600 6.9509 0.2552 -4.4849 0.3881 31.0884
#
#
#
# Elastic Compliance Matrix: (Units=1/GPa)
#
#
# Indices 1 2 3 4 5 6 
#
# 1 0.008030 -0.001488 0.002662 -0.001766 0.000269 -0.000092
# 2 -0.001488 0.011670 0.000379 -0.008018 -0.000879 -0.003731
# 3 0.002662 0.000379 0.026655 -0.011484 0.001295 -0.002024
# 4 -0.001766 -0.008018 -0.011484 0.041730 0.001736 0.007917
# 5 0.000269 -0.000879 0.001295 0.001736 0.030506 0.000051
# 6 -0.000092 -0.003731 -0.002024 0.007917 0.000051 0.034160
#
#
# Mechanical properties :
#
#
# Convention : Reuss Voigt Hill
#
# Bulk Modulus (GPa) = 20.21697 35.40602 27.81150
# Shear Modulus (GPa) = 30.09672 37.10727 33.60200
#
# Velocity S-wave (km/s) = 3.55466 3.94701 3.75596
# Velocity P-wave (km/s) = 5.03341 5.96963 5.52140
#
# Compressibility (1/GPa) = 0.04946339
#
# Stress axis : x y z
#
# Youngs Moduli (GPa) = 124.53438 85.68796 37.51634
#
# Poissons Ratio (x) = 0.12747 -0.09988
# Poissons Ratio (y) = 0.18525 -0.01423
# Poissons Ratio (z) = -0.33154 -0.03251
#
# Static dielectric constant tensor:
#      x y z
#    x 5.680900 -0.685690 0.500130 
#    y -0.685690 4.512200 0.060690 
#    z 0.500130 0.060690 4.397230 
# 
# 
# High freq. dielectric constant tensor:
#      x y z
#    x 1.966200 -0.016680 0.010890 
#    y -0.016680 1.939590 0.021220 
#    z 0.010890 0.021220 1.935990 
# 
# From -- ./inp_files/529789.got.cif
#   From: 2010.06.25/outbox.cif.g09.slc.cpg/sg2_265_cif.got.tgz:529789.got - 2010.06.27 13:26:56.
