data_PCOD8008467
_publ_section_title
;
Structure prediction by ZEFSAII (Michael W. Deem and Ramdas Pophale) SiO2 
 PCOD8008467
Probable space group: P -1
;
_chemical_formula_sum "Si O2"
_cell_formula_units_Z 16
_cell_length_a 14.737944
_cell_length_b 8.374164
_cell_length_c 15.550454
_cell_angle_alpha 75.199157
_cell_angle_beta 152.146497
_cell_angle_gamma 89.164438
_cell_volume 733.898635
_symmetry_space_group_name_H-M "P -1"
_symmetry_group_IT_number 2
_symmetry_cell_setting 'triclinic'
loop_
_space_group_symop_operation_xyz
x,y,z
-x,-y,-z
loop_
_atom_site_type_symbol
_atom_site_label
_atom_site_fract_x
_atom_site_fract_y
_atom_site_fract_z
Si Si1 0.309297 0.390717 0.684282
Si Si2 0.243994 0.592458 0.958544
Si Si3 0.754036 0.821731 0.720717
Si Si4 0.482260 0.977978 0.805184
Si Si5 0.381211 0.382497 0.935650
Si Si6 0.982514 0.277248 0.720391
Si Si7 0.842976 0.985177 0.615050
Si Si8 0.997686 0.442980 0.881642
O O1 0.263025 0.381201 0.747853
O O2 0.072578 0.566580 0.422459
O O3 0.361818 0.193252 0.711386
O O4 0.507132 0.436068 0.822500
O O5 0.214535 0.490593 0.862692
O O6 0.061164 0.823053 0.765876
O O7 0.187141 0.494864 0.003839
O O8 0.867337 0.908055 0.743174
O O9 0.781311 0.632499 0.720109
O O10 0.500000 0.000000 0.500000
O O11 0.886681 0.743123 0.932688
O O12 0.384822 0.976377 0.629558
O O13 0.442386 0.842494 0.856320
O O14 0.751472 0.889904 0.032501
O O15 0.500000 0.500000 0.000000
O O16 0.897099 0.388377 0.724432
O O17 0.833857 0.184817 0.585389
#
# Coordination Sequence:
#
# PCOD8008467 Si02
#       8
#     2   2   2   2   2   2   2   2
#     4  11  24  42  65 100 132 176 227 268 328 387
#     4  10  20  43  69  94 135 178 220 271 329 392
#     4  10  22  40  70  95 130 169 215 269 332 388
#     4  12  24  45  68  97 136 175 223 272 329 389
#     4  10  22  41  67  98 134 173 222 275 322 388
#     4  12  25  43  71  98 132 179 222 266 331 391
#     4  11  24  44  69  98 132 177 220 272 330 394
#     4  10  22  42  64  97 132 170 214 272 325 389
#
# _framework density 21.801376000000001
#
# number of rings (size 3 to 8) (size 9 to 14) (size 15 to 20)
#    0.000    1.250    2.500    4.125    1.750    1.000 
#    2.250    2.500    0.000    0.000    0.000    0.000 
#    0.000    0.000    0.000    0.000    0.000    0.000 
#
# Total GULP energy -198336.253287 kJ/mol
# GULP energy per Si atom -12396.015830 kJ/mol
# Density = 2.175176 g / cm^3
# Si number density = 21.801376 Si / 1000 Ang^3
#
#
#
# Elastic Constant Matrix: (Units=GPa)
#
#
# Indices 1 2 3 4 5 6 
#
# 1 100.5005 40.0626 44.4594 -5.2032 -28.1390 -8.0220
# 2 40.0626 138.4830 44.1762 -6.8267 -18.3914 -6.5468
# 3 44.4594 44.1762 104.6762 -14.0407 -19.9228 -4.5873
# 4 -5.2032 -6.8267 -14.0407 40.5668 1.6858 -2.2496
# 5 -28.1390 -18.3914 -19.9228 1.6858 42.0087 -2.8142
# 6 -8.0220 -6.5468 -4.5873 -2.2496 -2.8142 32.4496
#
#
#
# Elastic Compliance Matrix: (Units=1/GPa)
#
#
# Indices 1 2 3 4 5 6 
#
# 1 0.014789 -0.001877 -0.003909 0.000106 0.007453 0.003379
# 2 -0.001877 0.008845 -0.002560 0.000362 0.001461 0.001110
# 3 -0.003909 -0.002560 0.013287 0.003612 0.002475 0.000861
# 4 0.000106 0.000362 0.003612 0.026070 0.001064 0.002510
# 5 0.007453 0.001461 0.002475 0.001064 0.030919 0.005242
# 6 0.003379 0.001110 0.000861 0.002510 0.005242 0.032627
#
#
# Mechanical properties :
#
#
# Convention : Reuss Voigt Hill
#
# Bulk Modulus (GPa) = 49.43167 66.78401 58.10784
# Shear Modulus (GPa) = 33.33935 37.33579 35.33757
#
# Velocity S-wave (km/s) = 3.91478 4.14278 4.03039
# Velocity P-wave (km/s) = 6.56939 7.32003 6.95485
#
# Compressibility (1/GPa) = 0.02022994
#
# Stress axis : x y z
#
# Youngs Moduli (GPa) = 67.61559 113.05543 75.26035
#
# Poissons Ratio (x) = 0.21219 0.29417
# Poissons Ratio (y) = 0.12691 0.19270
# Poissons Ratio (z) = 0.26429 0.28947
#
# Static dielectric constant tensor:
#      x y z
#    x 4.340400 -0.207150 -0.250790 
#    y -0.207150 4.153140 -0.183980 
#    z -0.250790 -0.183980 3.846180 
# 
# 
# High freq. dielectric constant tensor:
#      x y z
#    x 1.856000 -0.009150 -0.014110 
#    y -0.009150 1.871960 -0.015860 
#    z -0.014110 -0.015860 1.851030 
# 
# From -- ./inp_files/348889.got.cif
#   From: 2010.06.25/outbox.cif.g09.slc.cpg/sg2_175_cif.got.tgz:348889.got - 2010.06.27 13:26:56.
