data_PCOD8008846
_publ_section_title
;
Structure prediction by ZEFSAII (Michael W. Deem and Ramdas Pophale) SiO2 
 PCOD8008846
Probable space group: P -1
;
_chemical_formula_sum "Si O2"
_cell_formula_units_Z 12
_cell_length_a 12.143161
_cell_length_b 11.210278
_cell_length_c 15.153410
_cell_angle_alpha 131.225999
_cell_angle_beta 153.145406
_cell_angle_gamma 63.449544
_cell_volume 637.664186
_symmetry_space_group_name_H-M "P -1"
_symmetry_group_IT_number 2
_symmetry_cell_setting 'triclinic'
loop_
_space_group_symop_operation_xyz
x,y,z
-x,-y,-z
loop_
_atom_site_type_symbol
_atom_site_label
_atom_site_fract_x
_atom_site_fract_y
_atom_site_fract_z
Si Si1 0.803505 0.176580 0.429752
Si Si2 0.224874 0.085040 0.996665
Si Si3 0.007690 0.790516 0.821099
Si Si4 0.247537 0.169788 0.858313
Si Si5 0.771101 0.046646 0.769800
Si Si6 0.829669 0.431158 0.432246
O O1 0.543832 0.202830 0.293226
O O2 0.913220 0.293772 0.477286
O O3 0.031228 0.232486 0.693820
O O4 0.709429 0.973006 0.240791
O O5 0.143679 0.080657 0.834769
O O6 0.035392 0.154606 0.950678
O O7 0.166631 0.889925 0.894867
O O8 0.874527 0.586403 0.608658
O O9 0.780698 0.862952 0.716501
O O10 0.211046 0.837590 0.073811
O O11 0.518986 0.342948 0.141295
O O12 0.500000 0.000000 0.500000
O O13 0.000000 0.500000 0.500000
#
# Coordination Sequence:
#
# PCOD8008846 Si02
#       6
#     2   2   2   2   2   2
#     4  10  21  36  54  81 116 149 190 219 276 337
#     4   9  18  35  59  78 108 145 184 231 273 321
#     4   9  20  35  58  85 112 142 185 238 274 320
#     4  10  21  35  55  82 112 155 185 220 274 343
#     4   9  20  36  59  86 107 147 193 230 274 326
#     4  11  21  37  57  84 119 143 180 235 283 328
#
# _framework density 18.818683
#
# number of rings (size 3 to 8) (size 9 to 14) (size 15 to 20)
#    1.000    1.333    0.000    4.000    2.333    2.000 
#    0.000    3.333    0.000    6.000    0.000    0.000 
#    0.000    0.000    0.000    0.000    0.000    0.000 
#
# Total GULP energy -148687.297147 kJ/mol
# GULP energy per Si atom -12390.608096 kJ/mol
# Density = 1.877585 g / cm^3
# Si number density = 18.818683 Si / 1000 Ang^3
#
#
#
# Elastic Constant Matrix: (Units=GPa)
#
#
# Indices 1 2 3 4 5 6 
#
# 1 95.1033 32.4993 61.3369 -14.0526 6.8614 14.6601
# 2 32.4993 76.6107 69.5648 -20.4993 -0.7946 11.0320
# 3 61.3369 69.5648 149.0349 -21.5096 -15.1983 10.9741
# 4 -14.0526 -20.4993 -21.5096 43.2472 1.5797 -9.3586
# 5 6.8614 -0.7946 -15.1983 1.5797 30.3688 4.2021
# 6 14.6601 11.0320 10.9741 -9.3586 4.2021 29.4712
#
#
#
# Elastic Compliance Matrix: (Units=1/GPa)
#
#
# Indices 1 2 3 4 5 6 
#
# 1 0.016258 0.000401 -0.007061 0.001286 -0.006675 -0.004248
# 2 0.000401 0.025128 -0.011340 0.005987 -0.005037 -0.002764
# 3 -0.007061 -0.011340 0.015794 -0.000025 0.009126 0.000567
# 4 0.001286 0.005987 -0.000025 0.027823 -0.002467 0.006316
# 5 -0.006675 -0.005037 0.009126 -0.002467 0.039641 -0.004627
# 6 -0.004248 -0.002764 0.000567 0.006316 -0.004627 0.039533
#
#
# Mechanical properties :
#
#
# Convention : Reuss Voigt Hill
#
# Bulk Modulus (GPa) = 47.21332 71.95011 59.58172
# Shear Modulus (GPa) = 24.12704 31.10731 27.61717
#
# Velocity S-wave (km/s) = 3.58450 4.07012 3.83500
# Velocity P-wave (km/s) = 6.50188 7.77201 7.16515
#
# Compressibility (1/GPa) = 0.02118046
#
# Stress axis : x y z
#
# Youngs Moduli (GPa) = 61.50766 39.79701 63.31435
#
# Poissons Ratio (x) = -0.01596 0.44705
# Poissons Ratio (y) = -0.02466 0.71798
# Poissons Ratio (z) = 0.43429 0.45130
#
# Static dielectric constant tensor:
#      x y z
#    x 3.371380 0.184620 -0.041340 
#    y 0.184620 3.349930 -0.128400 
#    z -0.041340 -0.128400 3.322800 
# 
# 
# High freq. dielectric constant tensor:
#      x y z
#    x 1.727060 0.018550 -0.003420 
#    y 0.018550 1.713690 -0.013920 
#    z -0.003420 -0.013920 1.722630 
# 
# From -- ./inp_files/401977.got.cif
#   From: 2010.06.25/outbox.cif.g09.slc.cpg/sg2_201_cif.got.tgz:401977.got - 2010.06.27 13:26:56.
