data_PCOD8008724
_publ_section_title
;
Structure prediction by ZEFSAII (Michael W. Deem and Ramdas Pophale) SiO2 
 PCOD8008724
Probable space group: P -1
;
_chemical_formula_sum "Si O2"
_cell_formula_units_Z 16
_cell_length_a 22.224097
_cell_length_b 18.593796
_cell_length_c 10.051287
_cell_angle_alpha 56.951030
_cell_angle_beta 47.434725
_cell_angle_gamma 17.067918
_cell_volume 793.206252
_symmetry_space_group_name_H-M "P -1"
_symmetry_group_IT_number 2
_symmetry_cell_setting 'triclinic'
loop_
_space_group_symop_operation_xyz
x,y,z
-x,-y,-z
loop_
_atom_site_type_symbol
_atom_site_label
_atom_site_fract_x
_atom_site_fract_y
_atom_site_fract_z
Si Si1 0.743109 0.153735 0.069471
Si Si2 0.301370 0.601045 0.072745
Si Si3 0.093062 0.382536 0.725761
Si Si4 0.678124 0.680105 0.929965
Si Si5 0.280035 0.098867 0.315391
Si Si6 0.497916 0.004873 0.703431
Si Si7 0.311403 0.523250 0.853181
Si Si8 0.748639 0.066140 0.430221
O O1 0.529875 0.338381 0.092700
O O2 0.750681 0.247344 0.983073
O O3 0.660293 0.193239 0.293045
O O4 0.030759 0.838646 0.902313
O O5 0.395600 0.493092 0.888033
O O6 0.032575 0.820507 0.292970
O O7 0.198463 0.286666 0.816614
O O8 0.888944 0.508573 0.891752
O O9 0.979951 0.584795 0.633816
O O10 0.341350 0.108793 0.539114
O O11 0.651792 0.762461 0.752946
O O12 0.747014 0.513467 0.965855
O O13 0.391124 0.971089 0.132229
O O14 0.500060 0.932799 0.237267
O O15 0.219157 0.068234 0.504288
O O16 0.530598 0.307684 0.626037
#
# Coordination Sequence:
#
# PCOD8008724 Si02
#       8
#     2   2   2   2   2   2   2   2
#     4  10  23  41  62  89 119 153 192 237 293 355
#     4  10  23  41  62  89 119 153 192 237 293 355
#     4  10  21  34  53  79 108 148 189 227 276 329
#     4  10  21  36  54  78 110 146 186 232 277 329
#     4  10  21  36  54  78 110 146 186 232 277 329
#     4  10  21  34  53  79 108 148 189 227 276 329
#     4  10  22  39  62  90 119 154 195 241 292 345
#     4  10  22  39  62  90 119 154 195 241 292 345
#
# _framework density 20.171296999999999
#
# number of rings (size 3 to 8) (size 9 to 14) (size 15 to 20)
#    0.000    2.000    0.000    4.500    7.000    7.000 
#    0.000    7.500    0.000    0.000    0.000    0.000 
#    0.000    0.000    0.000    0.000    0.000    0.000 
#
# Total GULP energy -198323.494152 kJ/mol
# GULP energy per Si atom -12395.218385 kJ/mol
# Density = 2.012539 g / cm^3
# Si number density = 20.171297 Si / 1000 Ang^3
#
#
#
# Elastic Constant Matrix: (Units=GPa)
#
#
# Indices 1 2 3 4 5 6 
#
# 1 55.2462 58.4456 -4.3074 -6.4684 -5.6073 -12.5930
# 2 58.4456 106.6682 3.5378 -5.1828 -2.2712 -26.3086
# 3 -4.3074 3.5378 42.4524 2.0822 3.3437 -13.2502
# 4 -6.4684 -5.1828 2.0822 27.2217 8.2388 1.7828
# 5 -5.6073 -2.2712 3.3437 8.2388 32.1399 -2.9807
# 6 -12.5930 -26.3086 -13.2502 1.7828 -2.9807 40.4467
#
#
#
# Elastic Compliance Matrix: (Units=1/GPa)
#
#
# Indices 1 2 3 4 5 6 
#
# 1 0.046267 -0.025197 0.006293 0.004324 0.004549 0.000221
# 2 -0.025197 0.025072 -0.002066 -0.001138 -0.001400 0.007733
# 3 0.006293 -0.002066 0.027496 -0.001437 -0.000646 0.009639
# 4 0.004324 -0.001138 -0.001437 0.040795 -0.009856 -0.002389
# 5 0.004549 -0.001400 -0.000646 -0.009856 0.034707 0.003286
# 6 0.000221 0.007733 0.009639 -0.002389 0.003286 0.033328
#
#
# Mechanical properties :
#
#
# Convention : Reuss Voigt Hill
#
# Bulk Modulus (GPa) = 17.57688 35.52430 26.55059
# Shear Modulus (GPa) = 18.61709 29.74105 24.17907
#
# Velocity S-wave (km/s) = 3.04130 3.84399 3.46596
# Velocity P-wave (km/s) = 4.58971 6.11156 5.40447
#
# Compressibility (1/GPa) = 0.05689291
#
# Stress axis : x y z
#
# Youngs Moduli (GPa) = 21.61390 39.88570 36.36853
#
# Poissons Ratio (x) = 1.00502 -0.22887
# Poissons Ratio (y) = 0.54462 0.07515
# Poissons Ratio (z) = -0.13602 0.08242
#
# Static dielectric constant tensor:
#      x y z
#    x 3.764510 -0.034530 -0.028510 
#    y -0.034530 3.754710 -0.058410 
#    z -0.028510 -0.058410 3.586030 
# 
# 
# High freq. dielectric constant tensor:
#      x y z
#    x 1.788550 0.003420 0.001530 
#    y 0.003420 1.788860 0.003350 
#    z 0.001530 0.003350 1.789290 
# 
# From -- ./inp_files/348406.got.cif
#   From: 2010.06.25/outbox.cif.g09.slc.cpg/sg2_175_cif.got.tgz:348406.got - 2010.06.27 13:26:56.
