data_PCOD8008242
_publ_section_title
;
Structure prediction by ZEFSAII (Michael W. Deem and Ramdas Pophale) SiO2 
 PCOD8008242
Probable space group: P -1
;
_chemical_formula_sum "Si O2"
_cell_formula_units_Z 12
_cell_length_a 19.081912
_cell_length_b 11.973812
_cell_length_c 12.626967
_cell_angle_alpha 144.639208
_cell_angle_beta 156.567926
_cell_angle_gamma 28.991256
_cell_volume 554.796767
_symmetry_space_group_name_H-M "P -1"
_symmetry_group_IT_number 2
_symmetry_cell_setting 'triclinic'
loop_
_space_group_symop_operation_xyz
x,y,z
-x,-y,-z
loop_
_atom_site_type_symbol
_atom_site_label
_atom_site_fract_x
_atom_site_fract_y
_atom_site_fract_z
Si Si1 0.407444 0.791241 0.001483
Si Si2 0.113347 0.030102 0.083118
Si Si3 0.993201 0.551232 0.857456
Si Si4 0.343775 0.023729 0.891079
Si Si5 0.460081 0.322928 0.675311
Si Si6 0.965972 0.095448 0.707010
O O1 0.497654 0.527778 0.895906
O O2 0.471672 0.903242 0.083998
O O3 0.495567 0.807805 0.250326
O O4 0.152273 0.940471 0.762595
O O5 0.048544 0.295388 0.188275
O O6 0.367951 0.857739 0.310539
O O7 0.036964 0.966834 0.820598
O O8 0.000000 0.000000 0.000000
O O9 0.774696 0.584278 0.617296
O O10 0.164992 0.289436 0.867123
O O11 0.070128 0.649995 0.134680
O O12 0.245932 0.878987 0.605701
O O13 0.500000 0.000000 0.000000
#
# Coordination Sequence:
#
# PCOD8008242 Si02
#       6
#     2   2   2   2   2   2
#     4  10  22  40  69  92 130 166 216 266 308 388
#     4   9  21  39  64  96 134 160 208 269 318 371
#     4  10  23  42  67  92 130 166 220 256 320 386
#     4  12  26  44  62  96 132 172 213 263 329 377
#     4  10  20  42  68  98 123 170 218 260 318 379
#     4   9  22  43  62  94 125 167 219 255 313 385
#
# _framework density 21.629543999999999
#
# number of rings (size 3 to 8) (size 9 to 14) (size 15 to 20)
#    1.000    1.000    1.667    1.000    2.333    2.667 
#    0.000    1.667    0.000    0.000    0.000    0.000 
#    0.000    0.000    0.000    0.000    0.000    0.000 
#
# Total GULP energy -148735.400037 kJ/mol
# GULP energy per Si atom -12394.616670 kJ/mol
# Density = 2.158031 g / cm^3
# Si number density = 21.629544 Si / 1000 Ang^3
#
#
#
# Elastic Constant Matrix: (Units=GPa)
#
#
# Indices 1 2 3 4 5 6 
#
# 1 138.6826 51.9910 15.4408 -9.9157 7.9240 3.2208
# 2 51.9910 125.1211 33.9561 -3.4353 8.3249 -7.9507
# 3 15.4408 33.9561 74.7147 2.9325 11.0714 -13.8441
# 4 -9.9157 -3.4353 2.9325 25.8222 -0.0504 1.1767
# 5 7.9240 8.3249 11.0714 -0.0504 18.9977 -1.4685
# 6 3.2208 -7.9507 -13.8441 1.1767 -1.4685 22.8750
#
#
#
# Elastic Compliance Matrix: (Units=1/GPa)
#
#
# Indices 1 2 3 4 5 6 
#
# 1 0.009040 -0.003553 -0.000669 0.003217 -0.002063 -0.003210
# 2 -0.003553 0.010647 -0.003625 0.000374 -0.000921 0.001928
# 3 -0.000669 -0.003625 0.018257 -0.003263 -0.008044 0.009535
# 4 0.003217 0.000374 -0.003263 0.040582 0.000165 -0.004374
# 5 -0.002063 -0.000921 -0.008044 0.000165 0.058501 -0.001151
# 6 -0.003210 0.001928 0.009535 -0.004374 -0.001151 0.050760
#
#
# Mechanical properties :
#
#
# Convention : Reuss Voigt Hill
#
# Bulk Modulus (GPa) = 44.94634 60.14381 52.54508
# Shear Modulus (GPa) = 23.70839 29.34769 26.52804
#
# Velocity S-wave (km/s) = 3.31435 3.68752 3.50590
# Velocity P-wave (km/s) = 5.95581 6.78211 6.38235
#
# Compressibility (1/GPa) = 0.02224875
#
# Stress axis : x y z
#
# Youngs Moduli (GPa) = 110.62370 93.92691 54.77425
#
# Poissons Ratio (x) = 0.33373 0.03663
# Poissons Ratio (y) = 0.39306 0.19857
# Poissons Ratio (z) = 0.07397 0.34051
#
# Static dielectric constant tensor:
#      x y z
#    x 3.830930 0.125630 -0.091780 
#    y 0.125630 3.874330 -0.014760 
#    z -0.091780 -0.014760 3.689350 
# 
# 
# High freq. dielectric constant tensor:
#      x y z
#    x 1.834970 0.006810 -0.003180 
#    y 0.006810 1.854860 0.003140 
#    z -0.003180 0.003140 1.830520 
# 
# From -- ./inp_files/155292.got.cif
#   From: 2010.06.25/outbox.cif.g09.slc.cpg/sg2_78_cif.got.tgz:155292.got - 2010.06.27 13:26:56.
