data_PCOD8008026
_publ_section_title
;
Structure prediction by ZEFSAII (Michael W. Deem and Ramdas Pophale) SiO2 
 PCOD8008026
Probable space group: P -1
;
_chemical_formula_sum "Si O2"
_cell_formula_units_Z 16
_cell_length_a 14.874642
_cell_length_b 14.606174
_cell_length_c 12.111606
_cell_angle_alpha 28.239353
_cell_angle_beta 107.949989
_cell_angle_gamma 128.166603
_cell_volume 756.217524
_symmetry_space_group_name_H-M "P -1"
_symmetry_group_IT_number 2
_symmetry_cell_setting 'triclinic'
loop_
_space_group_symop_operation_xyz
x,y,z
-x,-y,-z
loop_
_atom_site_type_symbol
_atom_site_label
_atom_site_fract_x
_atom_site_fract_y
_atom_site_fract_z
Si Si1 0.023960 0.380445 0.488758
Si Si2 0.176633 0.785005 0.775051
Si Si3 0.730597 0.504349 0.528096
Si Si4 0.899715 0.966344 0.416997
Si Si5 0.147529 0.607778 0.723687
Si Si6 0.209779 0.972696 0.043018
Si Si7 0.673375 0.308477 0.941590
Si Si8 0.350740 0.855750 0.336000
O O1 0.104262 0.304166 0.573732
O O2 0.152549 0.746543 0.162588
O O3 0.914461 0.281042 0.457650
O O4 0.935601 0.202907 0.756101
O O5 0.240160 0.805657 0.660035
O O6 0.206578 0.054973 0.530431
O O7 0.244645 0.762202 0.922764
O O8 0.000000 0.500000 0.000000
O O9 0.626812 0.249174 0.856754
O O10 0.696698 0.374541 0.530358
O O11 0.715062 0.711822 0.305591
O O12 0.786258 0.659241 0.633075
O O13 0.000000 0.000000 0.500000
O O14 0.009589 0.248404 0.074796
O O15 0.252369 0.671632 0.604679
O O16 0.329018 0.040366 0.088082
O O17 0.521347 0.090201 0.184613
#
# Coordination Sequence:
#
# PCOD8008026 Si02
#       8
#     2   2   2   2   2   2   2   2
#     4   9  18  33  57  89 120 157 200 255 302 352
#     4  10  21  41  63  91 120 155 202 258 307 356
#     4  11  21  36  62  89 121 169 209 248 300 363
#     4  11  22  40  65  95 114 154 209 254 302 363
#     4  10  20  42  64  87 131 158 200 260 303 361
#     4   9  19  36  54  86 125 157 206 248 300 358
#     4  12  24  40  64  90 127 164 206 253 306 361
#     4  10  25  42  57  92 130 167 201 246 310 373
#
# _framework density 21.157931999999999
#
# number of rings (size 3 to 8) (size 9 to 14) (size 15 to 20)
#    0.000    1.750    2.500    3.750    0.000    4.000 
#    2.250    0.625    0.000    0.000    0.000    0.000 
#    0.000    0.000    0.000    0.000    0.000    0.000 
#
# Total GULP energy -198291.840880 kJ/mol
# GULP energy per Si atom -12393.240055 kJ/mol
# Density = 2.110978 g / cm^3
# Si number density = 21.157932 Si / 1000 Ang^3
#
#
#
# Elastic Constant Matrix: (Units=GPa)
#
#
# Indices 1 2 3 4 5 6 
#
# 1 103.7997 37.7227 41.4660 -3.9512 5.7519 3.1288
# 2 37.7227 83.8447 37.6026 12.6513 -0.3884 -11.3100
# 3 41.4660 37.6026 69.1727 11.5594 2.0333 3.5001
# 4 -3.9512 12.6513 11.5594 23.8422 2.8136 -2.6712
# 5 5.7519 -0.3884 2.0333 2.8136 40.3857 4.0832
# 6 3.1288 -11.3100 3.5001 -2.6712 4.0832 36.8136
#
#
#
# Elastic Compliance Matrix: (Units=1/GPa)
#
#
# Indices 1 2 3 4 5 6 
#
# 1 0.014956 -0.004758 -0.007744 0.008906 -0.002296 -0.001096
# 2 -0.004758 0.018942 -0.006611 -0.007062 0.001055 0.006223
# 3 -0.007744 -0.006611 0.024623 -0.010342 0.000983 -0.004573
# 4 0.008906 -0.007062 -0.010342 0.053013 -0.004755 0.002431
# 5 -0.002296 0.001055 0.000983 -0.004755 0.025660 -0.002765
# 6 -0.001096 0.006223 -0.004573 0.002431 -0.002765 0.030087
#
#
# Mechanical properties :
#
#
# Convention : Reuss Voigt Hill
#
# Bulk Modulus (GPa) = 49.27190 54.48885 51.88038
# Shear Modulus (GPa) = 23.55464 29.54335 26.54900
#
# Velocity S-wave (km/s) = 3.34020 3.74080 3.54616
# Velocity P-wave (km/s) = 6.18176 6.66839 6.42968
#
# Compressibility (1/GPa) = 0.02029554
#
# Stress axis : x y z
#
# Youngs Moduli (GPa) = 66.86244 52.79248 40.61186
#
# Poissons Ratio (x) = 0.25119 0.31452
# Poissons Ratio (y) = 0.31813 0.26847
# Poissons Ratio (z) = 0.51781 0.34899
#
# Static dielectric constant tensor:
#      x y z
#    x 4.180670 -0.234010 0.104460 
#    y -0.234010 3.977280 0.070410 
#    z 0.104460 0.070410 3.908680 
# 
# 
# High freq. dielectric constant tensor:
#      x y z
#    x 1.838610 -0.002940 0.007310 
#    y -0.002940 1.824090 0.020530 
#    z 0.007310 0.020530 1.800390 
# 
# From -- ./inp_files/454379.got.cif
#   From: 2010.06.25/outbox.cif.g09.slc.cpg/sg2_228_cif.got.tgz:454379.got - 2010.06.27 13:26:56.
