data_PCOD8008840
_publ_section_title
;
Structure prediction by ZEFSAII (Michael W. Deem and Ramdas Pophale) SiO2 
 PCOD8008840
Probable space group: P -1
;
_chemical_formula_sum "Si O2"
_cell_formula_units_Z 16
_cell_length_a 15.109843
_cell_length_b 17.328252
_cell_length_c 11.618217
_cell_angle_alpha 127.000686
_cell_angle_beta 152.586053
_cell_angle_gamma 37.278679
_cell_volume 786.477377
_symmetry_space_group_name_H-M "P -1"
_symmetry_group_IT_number 2
_symmetry_cell_setting 'triclinic'
loop_
_space_group_symop_operation_xyz
x,y,z
-x,-y,-z
loop_
_atom_site_type_symbol
_atom_site_label
_atom_site_fract_x
_atom_site_fract_y
_atom_site_fract_z
Si Si1 0.736264 0.036835 0.269555
Si Si2 0.108768 0.658228 0.648995
Si Si3 0.621300 0.965419 0.293108
Si Si4 0.622183 0.389832 0.641154
Si Si5 0.783709 0.756432 0.826391
Si Si6 0.318074 0.320247 0.142082
Si Si7 0.991959 0.507852 0.730235
Si Si8 0.614834 0.502317 0.956565
O O1 0.488603 0.200657 0.136981
O O2 0.785492 0.968711 0.389630
O O3 0.646864 0.988468 0.030639
O O4 0.000000 0.000000 0.500000
O O5 0.124785 0.544758 0.511966
O O6 0.170362 0.628455 0.828663
O O7 0.821435 0.814648 0.443726
O O8 0.348934 0.631598 0.837765
O O9 0.496266 0.079844 0.351689
O O10 0.500000 0.500000 0.500000
O O11 0.520840 0.317527 0.443476
O O12 0.516116 0.464565 0.709286
O O13 0.951014 0.272985 0.917601
O O14 0.821398 0.703025 0.951493
O O15 0.771880 0.674290 0.642607
O O16 0.083811 0.458375 0.924426
O O17 0.247616 0.452379 0.899346
#
# Coordination Sequence:
#
# PCOD8008840 Si02
#       8
#     2   2   2   2   2   2   2   2
#     4  10  21  35  54  86 122 153 190 238 291 358
#     4  11  23  41  62  83 121 159 199 240 287 352
#     4  10  22  37  57  83 120 157 191 238 297 346
#     4  11  21  35  59  87 120 148 193 246 294 344
#     4  10  22  36  54  89 119 149 189 240 297 349
#     4  11  20  33  57  88 114 153 185 240 302 339
#     4  11  21  37  61  85 116 152 195 241 291 344
#     4  10  24  39  59  89 116 157 202 243 286 348
#
# _framework density 20.343879000000001
#
# number of rings (size 3 to 8) (size 9 to 14) (size 15 to 20)
#    0.000    1.500    3.750    2.250    3.500    0.000 
#    0.000    2.500    0.000   12.000    0.000    0.000 
#    0.000    0.000    0.000    0.000    0.000    0.000 
#
# Total GULP energy -198379.312499 kJ/mol
# GULP energy per Si atom -12398.707031 kJ/mol
# Density = 2.029758 g / cm^3
# Si number density = 20.343879 Si / 1000 Ang^3
#
#
#
# Elastic Constant Matrix: (Units=GPa)
#
#
# Indices 1 2 3 4 5 6 
#
# 1 53.5013 13.4239 18.7627 7.2004 -2.9523 -4.3185
# 2 13.4239 104.4257 32.9975 -2.6211 -2.2594 -17.0314
# 3 18.7627 32.9975 59.0099 -0.5169 -9.5706 -2.4392
# 4 7.2004 -2.6211 -0.5169 26.5914 2.1679 6.9308
# 5 -2.9523 -2.2594 -9.5706 2.1679 34.5964 2.4315
# 6 -4.3185 -17.0314 -2.4392 6.9308 2.4315 26.6147
#
#
#
# Elastic Compliance Matrix: (Units=1/GPa)
#
#
# Indices 1 2 3 4 5 6 
#
# 1 0.022579 -0.000081 -0.006977 -0.007552 0.000118 0.004928
# 2 -0.000081 0.013148 -0.007271 -0.000796 -0.001679 0.008095
# 3 -0.006977 -0.007271 0.023988 0.002405 0.005748 -0.004738
# 4 -0.007552 -0.000796 0.002405 0.043042 -0.001846 -0.012555
# 5 0.000118 -0.001679 0.005748 -0.001846 0.030712 -0.002853
# 6 0.004928 0.008095 -0.004738 -0.012555 -0.002853 0.046649
#
#
# Mechanical properties :
#
#
# Convention : Reuss Voigt Hill
#
# Bulk Modulus (GPa) = 32.19924 38.58945 35.39435
# Shear Modulus (GPa) = 22.81765 27.67734 25.24750
#
# Velocity S-wave (km/s) = 3.35266 3.69246 3.52666
# Velocity P-wave (km/s) = 5.55418 6.09826 5.83257
#
# Compressibility (1/GPa) = 0.03105664
#
# Stress axis : x y z
#
# Youngs Moduli (GPa) = 44.28902 76.05612 41.68724
#
# Poissons Ratio (x) = 0.00616 0.29086
# Poissons Ratio (y) = 0.00359 0.30311
# Poissons Ratio (z) = 0.30901 0.55302
#
# Static dielectric constant tensor:
#      x y z
#    x 3.788070 -0.117780 0.161480 
#    y -0.117780 3.912680 0.032150 
#    z 0.161480 0.032150 3.518640 
# 
# 
# High freq. dielectric constant tensor:
#      x y z
#    x 1.802130 -0.005420 0.017460 
#    y -0.005420 1.794090 0.011440 
#    z 0.017460 0.011440 1.768130 
# 
# From -- ./inp_files/438739.got.cif
#   From: 2010.06.25/outbox.cif.g09.slc.cpg/sg2_220_cif.got.tgz:438739.got - 2010.06.27 13:26:56.
