data_PCOD8008255
_publ_section_title
;
Structure prediction by ZEFSAII (Michael W. Deem and Ramdas Pophale) SiO2 
 PCOD8008255
Probable space group: P -1
;
_chemical_formula_sum "Si O2"
_cell_formula_units_Z 14
_cell_length_a 14.286128
_cell_length_b 7.493254
_cell_length_c 7.969782
_cell_angle_alpha 69.780411
_cell_angle_beta 123.319086
_cell_angle_gamma 73.419568
_cell_volume 532.138966
_symmetry_space_group_name_H-M "P -1"
_symmetry_group_IT_number 2
_symmetry_cell_setting 'triclinic'
loop_
_space_group_symop_operation_xyz
x,y,z
-x,-y,-z
loop_
_atom_site_type_symbol
_atom_site_label
_atom_site_fract_x
_atom_site_fract_y
_atom_site_fract_z
Si Si1 0.307290 0.043119 0.760297
Si Si2 0.288379 0.778926 0.563542
Si Si3 0.026968 0.260873 0.037696
Si Si4 0.421926 0.369277 0.230089
Si Si5 0.107287 0.743226 0.765450
Si Si6 0.869462 0.443829 0.486969
Si Si7 0.503328 0.914102 0.287284
O O1 0.175629 0.291993 0.621758
O O2 0.358312 0.121270 0.629680
O O3 0.262578 0.885566 0.693062
O O4 0.425414 0.890799 0.065569
O O5 0.452077 0.634175 0.722228
O O6 0.253879 0.589950 0.598018
O O7 0.186793 0.015184 0.271291
O O8 0.936428 0.236960 0.091133
O O9 0.982920 0.276109 0.796259
O O10 0.000000 0.500000 0.000000
O O11 0.452968 0.302529 0.478147
O O12 0.406328 0.175409 0.193526
O O13 0.273246 0.628235 0.974836
O O14 0.083857 0.600777 0.648536
O O15 0.000000 0.000000 0.500000
#
# Coordination Sequence:
#
# PCOD8008255 Si02
#       7
#     2   2   2   2   2   2   2
#     4  10  20  42  69 107 144 195 245 303 376 443
#     4  11  25  46  73 111 144 198 251 305 373 453
#     4  12  27  50  77 108 153 202 253 310 382 452
#     4  10  22  43  73 107 148 195 247 309 379 437
#     4  12  27  49  75 112 155 197 253 314 374 462
#     4  12  25  49  77 104 157 199 245 314 380 443
#     4   9  19  39  69 105 149 186 244 309 370 443
#
# _framework density 26.308918999999999
#
# number of rings (size 3 to 8) (size 9 to 14) (size 15 to 20)
#    0.000    1.143    4.286    1.286    4.000    1.143 
#    5.143    1.429    0.000    0.000    0.000    0.000 
#    0.000    0.000    0.000    0.000    0.000    0.000 
#
# Total GULP energy -173453.814878 kJ/mol
# GULP energy per Si atom -12389.558206 kJ/mol
# Density = 2.624904 g / cm^3
# Si number density = 26.308919 Si / 1000 Ang^3
#
#
#
# Elastic Constant Matrix: (Units=GPa)
#
#
# Indices 1 2 3 4 5 6 
#
# 1 65.5092 20.5393 44.0722 -6.1324 4.3619 1.0174
# 2 20.5393 54.1648 34.9086 2.2755 9.5411 -6.2826
# 3 44.0722 34.9086 127.9299 -2.7727 14.5419 -4.0628
# 4 -6.1324 2.2755 -2.7727 59.0469 -10.4597 1.9323
# 5 4.3619 9.5411 14.5419 -10.4597 45.4179 -0.2065
# 6 1.0174 -6.2826 -4.0628 1.9323 -0.2065 36.6616
#
#
#
# Elastic Compliance Matrix: (Units=1/GPa)
#
#
# Indices 1 2 3 4 5 6 
#
# 1 0.021020 -0.004607 -0.006168 0.002402 0.001467 -0.002175
# 2 -0.004607 0.024367 -0.004563 -0.002425 -0.003756 0.003904
# 3 -0.006168 -0.004563 0.011450 -0.000337 -0.002189 0.000663
# 4 0.002402 -0.002425 -0.000337 0.018117 0.004552 -0.001449
# 5 0.001467 -0.003756 -0.002189 0.004552 0.024411 -0.001029
# 6 -0.002175 0.003904 0.000663 -0.001449 -0.001029 0.028150
#
#
# Mechanical properties :
#
#
# Convention : Reuss Voigt Hill
#
# Bulk Modulus (GPa) = 38.22784 49.62713 43.92749
# Shear Modulus (GPa) = 29.95613 38.09753 34.02683
#
# Velocity S-wave (km/s) = 3.37802 3.80950 3.60023
# Velocity P-wave (km/s) = 5.45680 6.18497 5.83226
#
# Compressibility (1/GPa) = 0.02615894
#
# Stress axis : x y z
#
# Youngs Moduli (GPa) = 47.57336 41.03965 87.33930
#
# Poissons Ratio (x) = 0.18908 0.53872
# Poissons Ratio (y) = 0.21918 0.39857
# Poissons Ratio (z) = 0.29344 0.18728
#
# Static dielectric constant tensor:
#      x y z
#    x 4.281030 -0.105670 0.134220 
#    y -0.105670 5.186980 0.221020 
#    z 0.134220 0.221020 4.921550 
# 
# 
# High freq. dielectric constant tensor:
#      x y z
#    x 2.039100 -0.006060 -0.008490 
#    y -0.006060 2.056460 0.004040 
#    z -0.008490 0.004040 2.073400 
# 
# From -- ./inp_files/289980.got.cif
#   From: 2010.06.25/outbox.cif.g09.slc.cpg/sg2_145_cif.got.tgz:289980.got - 2010.06.27 13:26:56.
