data_PCOD8008450
_publ_section_title
;
Structure prediction by ZEFSAII (Michael W. Deem and Ramdas Pophale) SiO2 
 PCOD8008450
Probable space group: P -1
;
_chemical_formula_sum "Si O2"
_cell_formula_units_Z 12
_cell_length_a 8.853509
_cell_length_b 14.723368
_cell_length_c 7.080532
_cell_angle_alpha 58.314374
_cell_angle_beta 75.567161
_cell_angle_gamma 116.098606
_cell_volume 548.580346
_symmetry_space_group_name_H-M "P -1"
_symmetry_group_IT_number 2
_symmetry_cell_setting 'triclinic'
loop_
_space_group_symop_operation_xyz
x,y,z
-x,-y,-z
loop_
_atom_site_type_symbol
_atom_site_label
_atom_site_fract_x
_atom_site_fract_y
_atom_site_fract_z
Si Si1 0.536334 0.693504 0.286626
Si Si2 0.054656 0.728774 0.698197
Si Si3 0.569772 0.529341 0.160175
Si Si4 0.611409 0.160821 0.232872
Si Si5 0.150641 0.653362 0.390737
Si Si6 0.794898 0.960538 0.688176
O O1 0.507687 0.608932 0.198110
O O2 0.566663 0.631082 0.525015
O O3 0.330720 0.668776 0.421191
O O4 0.737380 0.869994 0.999022
O O5 0.216654 0.731607 0.771402
O O6 0.019201 0.656724 0.585459
O O7 0.158135 0.893688 0.446369
O O8 0.827593 0.631837 0.983729
O O9 0.500000 0.500000 0.000000
O O10 0.413699 0.150744 0.268678
O O11 0.500000 0.000000 0.500000
O O12 0.744132 0.214314 0.936716
O O13 0.000000 0.500000 0.500000
O O14 0.000000 0.000000 0.500000
#
# Coordination Sequence:
#
# PCOD8008450 Si02
#       6
#     2   2   2   2   2   2
#     4  10  23  40  63  90 133 164 216 269 320 375
#     4  11  23  42  69  95 132 172 217 264 330 386
#     4  11  23  41  63  94 130 174 215 264 322 387
#     4   9  22  40  67  94 133 167 211 270 323 382
#     4  11  23  41  65  98 129 169 219 267 322 390
#     4  10  20  43  68  97 129 171 216 269 323 389
#
# _framework density 21.874642999999999
#
# number of rings (size 3 to 8) (size 9 to 14) (size 15 to 20)
#    0.000    1.667    1.667    2.000    0.000   12.667 
#    0.000    2.500    0.000    0.000    0.000    0.000 
#    0.000    0.000    0.000    0.000    0.000    0.000 
#
# Total GULP energy -148713.548614 kJ/mol
# GULP energy per Si atom -12392.795718 kJ/mol
# Density = 2.182486 g / cm^3
# Si number density = 21.874643 Si / 1000 Ang^3
#
#
#
# Elastic Constant Matrix: (Units=GPa)
#
#
# Indices 1 2 3 4 5 6 
#
# 1 85.5975 28.7531 44.4856 -1.8495 -1.4329 2.1778
# 2 28.7531 79.5871 30.0055 12.5980 8.1704 -1.4665
# 3 44.4856 30.0055 132.9440 -5.7632 17.8150 -2.0235
# 4 -1.8495 12.5980 -5.7632 36.7305 0.7038 -2.2322
# 5 -1.4329 8.1704 17.8150 0.7038 38.9561 -1.3514
# 6 2.1778 -1.4665 -2.0235 -2.2322 -1.3514 36.4498
#
#
#
# Elastic Compliance Matrix: (Units=1/GPa)
#
#
# Indices 1 2 3 4 5 6 
#
# 1 0.015771 -0.004558 -0.004686 0.001482 0.003612 -0.001161
# 2 -0.004558 0.016205 -0.002053 -0.006041 -0.002506 0.000347
# 3 -0.004686 -0.002053 0.010256 0.002207 -0.004446 0.000737
# 4 0.001482 -0.006041 0.002207 0.029819 -0.000171 0.001611
# 5 0.003612 -0.002506 -0.004446 -0.000171 0.028381 0.000478
# 6 -0.001161 0.000347 0.000737 0.001611 0.000478 0.027676
#
#
# Mechanical properties :
#
#
# Convention : Reuss Voigt Hill
#
# Bulk Modulus (GPa) = 50.92022 56.06856 53.49439
# Shear Modulus (GPa) = 31.79664 35.41956 33.60810
#
# Velocity S-wave (km/s) = 3.81673 4.02830 3.92394
# Velocity P-wave (km/s) = 6.53850 6.87922 6.71102
#
# Compressibility (1/GPa) = 0.01963856
#
# Stress axis : x y z
#
# Youngs Moduli (GPa) = 63.40759 61.70748 97.50281
#
# Poissons Ratio (x) = 0.28126 0.45690
# Poissons Ratio (y) = 0.28900 0.20019
# Poissons Ratio (z) = 0.29713 0.12670
#
# Static dielectric constant tensor:
#      x y z
#    x 4.130440 0.119420 0.321370 
#    y 0.119420 3.664470 -0.278180 
#    z 0.321370 -0.278180 4.075390 
# 
# 
# High freq. dielectric constant tensor:
#      x y z
#    x 1.865950 -0.000810 0.003350 
#    y -0.000810 1.827200 -0.015640 
#    z 0.003350 -0.015640 1.885700 
# 
# From -- ./inp_files/22979.got.cif
#   From: 2010.06.25/outbox.cif.g09.slc.cpg/sg2_12_cif.got.tgz:22979.got - 2010.06.27 13:26:56.
