data_PCOD8008987
_publ_section_title
;
Structure prediction by ZEFSAII (Michael W. Deem and Ramdas Pophale) SiO2 
 PCOD8008987
Probable space group: P -1
;
_chemical_formula_sum "Si O2"
_cell_formula_units_Z 16
_cell_length_a 23.709391
_cell_length_b 8.008247
_cell_length_c 6.410135
_cell_angle_alpha 118.037044
_cell_angle_beta 40.997981
_cell_angle_gamma 116.417391
_cell_volume 696.157587
_symmetry_space_group_name_H-M "P -1"
_symmetry_group_IT_number 2
_symmetry_cell_setting 'triclinic'
loop_
_space_group_symop_operation_xyz
x,y,z
-x,-y,-z
loop_
_atom_site_type_symbol
_atom_site_label
_atom_site_fract_x
_atom_site_fract_y
_atom_site_fract_z
Si Si1 0.263283 0.625809 0.004513
Si Si2 0.884756 0.141405 0.874948
Si Si3 0.951795 0.915933 0.885232
Si Si4 0.664514 0.664177 0.662261
Si Si5 0.713658 0.980248 0.035261
Si Si6 0.900052 0.500918 0.818322
Si Si7 0.606249 0.408973 0.052559
Si Si8 0.572614 0.765596 0.600741
O O1 0.278842 0.440506 0.716753
O O2 0.305120 0.821145 0.890650
O O3 0.301521 0.639228 0.142286
O O4 0.157393 0.596978 0.276947
O O5 0.869909 0.364487 0.025202
O O6 0.976207 0.128274 0.503720
O O7 0.893413 0.068361 0.044768
O O8 0.805013 0.000090 0.912419
O O9 0.887238 0.721161 0.014546
O O10 0.000000 0.000000 0.000000
O O11 0.599176 0.775714 0.776653
O O12 0.613585 0.502693 0.859822
O O13 0.720746 0.823282 0.744569
O O14 0.633969 0.919834 0.381764
O O15 0.000000 0.500000 0.500000
O O16 0.579393 0.549644 0.385807
O O17 0.530746 0.220074 0.133315
#
# Coordination Sequence:
#
# PCOD8008987 Si02
#       8
#     2   2   2   2   2   2   2   2
#     4  10  22  39  60  88 120 155 204 245 300 363
#     4   9  21  39  54  85 119 149 195 245 294 355
#     4  10  21  35  62  85 111 154 196 240 298 360
#     4  10  21  36  61  87 113 163 199 244 301 360
#     4  10  22  38  59  86 123 157 195 253 299 352
#     4   9  20  40  59  83 123 155 189 252 299 348
#     4   9  19  37  59  88 118 157 202 249 296 355
#     4   9  19  36  59  86 122 158 197 249 300 353
#
# _framework density 22.983302999999999
#
# number of rings (size 3 to 8) (size 9 to 14) (size 15 to 20)
#    0.000    2.500    0.000    0.375    7.000    3.000 
#    0.000    7.500    0.000    0.000    0.000    0.000 
#    0.000    0.000    0.000    0.000    0.000    0.000 
#
# Total GULP energy -198213.241424 kJ/mol
# GULP energy per Si atom -12388.327589 kJ/mol
# Density = 2.293099 g / cm^3
# Si number density = 22.983303 Si / 1000 Ang^3
#
#
#
# Elastic Constant Matrix: (Units=GPa)
#
#
# Indices 1 2 3 4 5 6 
#
# 1 166.5909 67.6413 29.3513 -27.5329 6.9034 -2.2815
# 2 67.6413 146.7343 17.8585 -33.6177 4.2523 -2.6148
# 3 29.3513 17.8585 36.6157 -10.8318 4.2201 5.8345
# 4 -27.5329 -33.6177 -10.8318 23.5391 4.1900 -6.1441
# 5 6.9034 4.2523 4.2201 4.1900 33.4297 -9.4194
# 6 -2.2815 -2.6148 5.8345 -6.1441 -9.4194 36.4623
#
#
#
# Elastic Compliance Matrix: (Units=1/GPa)
#
#
# Indices 1 2 3 4 5 6 
#
# 1 0.008641 -0.002044 -0.004334 0.005870 -0.001216 0.001762
# 2 -0.002044 0.011229 0.000417 0.014896 -0.002207 0.002550
# 3 -0.004334 0.000417 0.035725 0.011669 -0.006746 -0.005734
# 4 0.005870 0.014896 0.011669 0.080740 -0.011851 0.010112
# 5 -0.001216 -0.002207 -0.006746 -0.011851 0.035006 0.007891
# 6 0.001762 0.002550 -0.005734 0.010112 0.007891 0.032379
#
#
# Mechanical properties :
#
#
# Convention : Reuss Voigt Hill
#
# Bulk Modulus (GPa) = 22.89817 64.40478 43.65147
# Shear Modulus (GPa) = 21.72024 34.35887 28.03956
#
# Velocity S-wave (km/s) = 3.07749 3.87065 3.49663
# Velocity P-wave (km/s) = 4.75526 6.93247 5.94440
#
# Compressibility (1/GPa) = 0.04367162
#
# Stress axis : x y z
#
# Youngs Moduli (GPa) = 115.72693 89.05601 27.99174
#
# Poissons Ratio (x) = 0.18207 0.12131
# Poissons Ratio (y) = 0.23660 -0.01166
# Poissons Ratio (z) = 0.50154 -0.03711
#
# Static dielectric constant tensor:
#      x y z
#    x 4.735910 -0.138510 -0.178020 
#    y -0.138510 4.839600 -0.330710 
#    z -0.178020 -0.330710 3.553920 
# 
# 
# High freq. dielectric constant tensor:
#      x y z
#    x 1.928850 0.003410 -0.008070 
#    y 0.003410 1.916200 -0.021460 
#    z -0.008070 -0.021460 1.861080 
# 
# From -- ./inp_files/52963.got.cif
#   From: 2010.06.25/outbox.cif.g09.slc.cpg/sg2_27_cif.got.tgz:52963.got - 2010.06.27 13:26:56.
