data_PCOD8008283
_publ_section_title
;
Structure prediction by ZEFSAII (Michael W. Deem and Ramdas Pophale) SiO2 
 PCOD8008283
Probable space group: P -1
;
_chemical_formula_sum "Si O2"
_cell_formula_units_Z 16
_cell_length_a 15.569369
_cell_length_b 10.085944
_cell_length_c 14.324187
_cell_angle_alpha 59.954522
_cell_angle_beta 150.009487
_cell_angle_gamma 137.636205
_cell_volume 689.836814
_symmetry_space_group_name_H-M "P -1"
_symmetry_group_IT_number 2
_symmetry_cell_setting 'triclinic'
loop_
_space_group_symop_operation_xyz
x,y,z
-x,-y,-z
loop_
_atom_site_type_symbol
_atom_site_label
_atom_site_fract_x
_atom_site_fract_y
_atom_site_fract_z
Si Si1 0.041127 0.396114 0.920100
Si Si2 0.765318 0.036627 0.485584
Si Si3 0.582989 0.169119 0.123748
Si Si4 0.885149 0.253471 0.215526
Si Si5 0.494019 0.423749 0.621801
Si Si6 0.610952 0.455996 0.342414
Si Si7 0.230081 0.406361 0.895976
Si Si8 0.546139 0.987325 0.652599
O O1 0.985668 0.543435 0.804163
O O2 0.082119 0.354325 0.869495
O O3 0.269671 0.527520 0.155390
O O4 0.837129 0.179479 0.864772
O O5 0.724521 0.134291 0.331171
O O6 0.577856 0.965280 0.415414
O O7 0.039822 0.201100 0.722989
O O8 0.722165 0.835814 0.480375
O O9 0.673320 0.207983 0.088335
O O10 0.673005 0.396746 0.149552
O O11 0.285418 0.976264 0.919718
O O12 0.098245 0.322536 0.459616
O O13 0.500000 0.500000 0.500000
O O14 0.481728 0.553393 0.639138
O O15 0.561081 0.247670 0.344657
O O16 0.470034 0.460541 0.128413
O O17 0.500000 0.000000 0.500000
#
# Coordination Sequence:
#
# PCOD8008283 Si02
#       8
#     2   2   2   2   2   2   2   2
#     4  10  21  41  66  92 128 179 217 253 325 403
#     4  12  24  44  68  99 130 172 222 268 322 387
#     4  10  22  43  69  93 127 176 219 272 318 387
#     4  10  20  42  70  93 126 173 227 258 322 393
#     4  11  26  41  62  99 140 168 208 278 332 374
#     4  11  25  43  66  99 130 176 216 264 333 392
#     4  10  23  41  65  94 133 171 212 268 333 381
#     4  12  22  40  70  94 128 173 221 258 315 400
#
# _framework density 23.19389
#
# number of rings (size 3 to 8) (size 9 to 14) (size 15 to 20)
#    0.000    1.250    3.750    1.875    3.500    3.000 
#    0.000    1.250    0.000    0.000    0.000    0.000 
#    0.000    0.000    0.000    0.000    0.000    0.000 
#
# Total GULP energy -198253.352459 kJ/mol
# GULP energy per Si atom -12390.834529 kJ/mol
# Density = 2.314110 g / cm^3
# Si number density = 23.193890 Si / 1000 Ang^3
#
#
#
# Elastic Constant Matrix: (Units=GPa)
#
#
# Indices 1 2 3 4 5 6 
#
# 1 28.2521 2.5588 -3.7117 5.1615 1.0715 -0.2150
# 2 2.5588 98.9235 47.2425 7.9400 -6.0667 0.7640
# 3 -3.7117 47.2425 178.1260 21.4126 -5.1029 0.9418
# 4 5.1615 7.9400 21.4126 48.3310 3.5111 -4.9161
# 5 1.0715 -6.0667 -5.1029 3.5111 31.3443 0.0331
# 6 -0.2150 0.7640 0.9418 -4.9161 0.0331 23.8809
#
#
#
# Elastic Compliance Matrix: (Units=1/GPa)
#
#
# Indices 1 2 3 4 5 6 
#
# 1 0.036571 -0.001423 0.001651 -0.004409 -0.000762 -0.000597
# 2 -0.001423 0.011756 -0.003016 -0.000622 0.001903 -0.000401
# 3 0.001651 -0.003016 0.006815 -0.002833 0.000787 -0.000742
# 4 -0.004409 -0.000622 -0.002833 0.023236 -0.003039 0.004880
# 5 -0.000762 0.001903 0.000787 -0.003039 0.032768 -0.000770
# 6 -0.000597 -0.000401 -0.000742 0.004880 -0.000770 0.042917
#
#
# Mechanical properties :
#
#
# Convention : Reuss Voigt Hill
#
# Bulk Modulus (GPa) = 20.17505 44.16453 32.16979
# Shear Modulus (GPa) = 28.38324 37.99205 33.18765
#
# Velocity S-wave (km/s) = 3.50199 4.05164 3.78680
# Velocity P-wave (km/s) = 5.00692 6.40082 5.74629
#
# Compressibility (1/GPa) = 0.04956616
#
# Stress axis : x y z
#
# Youngs Moduli (GPa) = 27.34401 85.06496 146.72779
#
# Poissons Ratio (x) = 0.12101 -0.24219
# Poissons Ratio (y) = 0.03890 0.44254
# Poissons Ratio (z) = -0.04513 0.25656
#
# Static dielectric constant tensor:
#      x y z
#    x 8.887920 -0.104060 0.616920 
#    y -0.104060 3.543670 -0.122590 
#    z 0.616920 -0.122590 4.452970 
# 
# 
# High freq. dielectric constant tensor:
#      x y z
#    x 1.887970 0.000160 -0.009290 
#    y 0.000160 1.918610 0.011620 
#    z -0.009290 0.011620 1.935370 
# 
# From -- ./inp_files/538427.got.cif
#   From: 2010.06.25/outbox.cif.g09.slc.cpg/sg2_270_cif.got.tgz:538427.got - 2010.06.27 13:26:56.
