data_PCOD8008502
_publ_section_title
;
Structure prediction by ZEFSAII (Michael W. Deem and Ramdas Pophale) SiO2 
 PCOD8008502
Probable space group: P -1
;
_chemical_formula_sum "Si O2"
_cell_formula_units_Z 16
_cell_length_a 15.754819
_cell_length_b 7.631419
_cell_length_c 8.814946
_cell_angle_alpha 112.532680
_cell_angle_beta 79.662112
_cell_angle_gamma 141.343485
_cell_volume 598.161431
_symmetry_space_group_name_H-M "P -1"
_symmetry_group_IT_number 2
_symmetry_cell_setting 'triclinic'
loop_
_space_group_symop_operation_xyz
x,y,z
-x,-y,-z
loop_
_atom_site_type_symbol
_atom_site_label
_atom_site_fract_x
_atom_site_fract_y
_atom_site_fract_z
Si Si1 0.586065 0.964688 0.807779
Si Si2 0.911353 0.523270 0.596133
Si Si3 0.615926 0.867818 0.455975
Si Si4 0.059036 0.138386 0.782049
Si Si5 0.673397 0.617255 0.147846
Si Si6 0.540242 0.277267 0.800274
Si Si7 0.751745 0.205789 0.127402
Si Si8 0.964246 0.281567 0.064214
O O1 0.583304 0.793103 0.622707
O O2 0.441641 0.736915 0.873546
O O3 0.613570 0.203045 0.781582
O O4 0.713974 0.146942 0.941116
O O5 0.000000 0.500000 0.500000
O O6 0.750038 0.234828 0.508973
O O7 0.969677 0.827831 0.614891
O O8 0.921912 0.538021 0.780705
O O9 0.661882 0.752489 0.325797
O O10 0.470464 0.688640 0.363324
O O11 0.174153 0.209206 0.857925
O O12 0.956590 0.065087 0.910861
O O13 0.136470 0.432322 0.753704
O O14 0.617147 0.568310 0.977673
O O15 0.376042 0.987045 0.787559
O O16 0.817066 0.109879 0.121106
O O17 0.000000 0.500000 0.000000
#
# Coordination Sequence:
#
# PCOD8008502 Si02
#       8
#     2   2   2   2   2   2   2   2
#     4  11  22  43  70  96 129 174 216 285 334 380
#     4  12  25  43  66  97 142 179 210 276 334 386
#     4  12  25  41  62 102 139 167 221 272 336 387
#     4  11  21  43  69  99 131 178 224 261 331 400
#     4  11  22  43  70  94 132 176 221 268 330 399
#     4  11  22  42  70  98 124 177 219 277 328 394
#     4  10  20  43  71  97 130 170 232 267 325 399
#     4  10  23  42  69  96 129 178 227 268 315 401
#
# _framework density 26.748629999999999
#
# number of rings (size 3 to 8) (size 9 to 14) (size 15 to 20)
#    0.000    1.000    3.750    4.500    0.000    0.000 
#    0.000   11.875    0.000    0.000    0.000    0.000 
#    0.000    0.000    0.000    0.000    0.000    0.000 
#
# Total GULP energy -198284.342623 kJ/mol
# GULP energy per Si atom -12392.771414 kJ/mol
# Density = 2.668775 g / cm^3
# Si number density = 26.748630 Si / 1000 Ang^3
#
#
#
# Elastic Constant Matrix: (Units=GPa)
#
#
# Indices 1 2 3 4 5 6 
#
# 1 130.7781 -7.7849 21.3375 11.6662 -9.7257 -5.7814
# 2 -7.7849 44.9492 13.2886 19.0918 3.1253 4.5812
# 3 21.3375 13.2886 127.0979 17.0896 -3.7876 -1.4076
# 4 11.6662 19.0918 17.0896 35.4465 0.3120 -4.2171
# 5 -9.7257 3.1253 -3.7876 0.3120 39.3214 3.2603
# 6 -5.7814 4.5812 -1.4076 -4.2171 3.2603 31.1970
#
#
#
# Elastic Compliance Matrix: (Units=1/GPa)
#
#
# Indices 1 2 3 4 5 6 
#
# 1 0.008547 0.003401 -0.001191 -0.004050 0.001736 0.000302
# 2 0.003401 0.031783 -0.001546 -0.018250 -0.001154 -0.006453
# 3 -0.001191 -0.001546 0.008647 -0.002960 0.000691 -0.000076
# 4 -0.004050 -0.018250 -0.002960 0.041702 -0.000790 0.007516
# 5 0.001736 -0.001154 0.000691 -0.000790 0.026218 -0.002324
# 6 0.000302 -0.006453 -0.000076 0.007516 -0.002324 0.034313
#
#
# Mechanical properties :
#
#
# Convention : Reuss Voigt Hill
#
# Bulk Modulus (GPa) = 19.87831 39.61194 29.74513
# Shear Modulus (GPa) = 30.00280 39.59192 34.79736
#
# Velocity S-wave (km/s) = 3.35275 3.85144 3.61072
# Velocity P-wave (km/s) = 4.73662 5.88381 5.34111
#
# Compressibility (1/GPa) = 0.05030608
#
# Stress axis : x y z
#
# Youngs Moduli (GPa) = 116.99943 31.46326 115.64447
#
# Poissons Ratio (x) = -0.10701 0.13771
# Poissons Ratio (y) = -0.39793 0.17878
# Poissons Ratio (z) = 0.13933 0.04864
#
# Static dielectric constant tensor:
#      x y z
#    x 5.441690 0.258780 -0.076350 
#    y 0.258780 5.272760 0.037520 
#    z -0.076350 0.037520 5.098300 
# 
# 
# High freq. dielectric constant tensor:
#      x y z
#    x 2.074210 0.000040 -0.008980 
#    y 0.000040 2.078340 0.006490 
#    z -0.008980 0.006490 2.081340 
# 
# From -- ./inp_files/329428.got.cif
#   From: 2010.06.25/outbox.cif.g09.slc.cpg/sg2_165_cif.got.tgz:329428.got - 2010.06.27 13:26:56.
