data_PCOD8008321
_publ_section_title
;
Structure prediction by ZEFSAII (Michael W. Deem and Ramdas Pophale) SiO2 
 PCOD8008321
Probable space group: P -1
;
_chemical_formula_sum "Si O2"
_cell_formula_units_Z 14
_cell_length_a 5.310079
_cell_length_b 6.413341
_cell_length_c 22.534617
_cell_angle_alpha 54.647157
_cell_angle_beta 126.686366
_cell_angle_gamma 112.758863
_cell_volume 500.936503
_symmetry_space_group_name_H-M "P -1"
_symmetry_group_IT_number 2
_symmetry_cell_setting 'triclinic'
loop_
_space_group_symop_operation_xyz
x,y,z
-x,-y,-z
loop_
_atom_site_type_symbol
_atom_site_label
_atom_site_fract_x
_atom_site_fract_y
_atom_site_fract_z
Si Si1 0.610862 0.595304 0.655774
Si Si2 0.133564 0.008115 0.941676
Si Si3 0.851170 0.740030 0.219154
Si Si4 0.347426 0.312869 0.221587
Si Si5 0.184723 0.090854 0.693086
Si Si6 0.874453 0.556678 0.041773
Si Si7 0.710218 0.331846 0.513725
O O1 0.721989 0.740916 0.708876
O O2 0.337305 0.380411 0.668217
O O3 0.491550 0.770247 0.555887
O O4 0.915329 0.472112 0.692752
O O5 0.027007 0.131187 0.845364
O O6 0.014216 0.193133 0.944689
O O7 0.998281 0.701772 0.972701
O O8 0.500000 0.000000 0.000000
O O9 0.508152 0.599388 0.187706
O O10 0.879470 0.965626 0.236360
O O11 0.040166 0.319126 0.134677
O O12 0.576335 0.100510 0.267774
O O13 0.858390 0.092660 0.608621
O O14 0.500000 0.500000 0.000000
O O15 0.500000 0.500000 0.500000
O O16 0.000000 0.500000 0.500000
#
# Coordination Sequence:
#
# PCOD8008321 Si02
#       7
#     2   2   2   2   2   2   2
#     4  10  22  43  73 100 156 205 247 319 393 468
#     4  11  24  49  74 103 152 202 256 327 406 463
#     4  11  22  46  72 103 150 203 249 323 395 467
#     4  11  24  47  70 110 148 197 263 327 396 473
#     4  10  24  42  74 108 150 202 256 320 391 473
#     4  11  26  49  75 109 149 201 268 336 392 479
#     4  10  20  42  73 113 155 204 263 316 396 479
#
# _framework density 27.947652000000001
#
# number of rings (size 3 to 8) (size 9 to 14) (size 15 to 20)
#    0.000    1.429    4.286    0.000    0.000    3.429 
#    5.143    1.429    0.000    0.000    0.000    0.000 
#    0.000    0.000    0.000    0.000    0.000    0.000 
#
# Total GULP energy -173534.702976 kJ/mol
# GULP energy per Si atom -12395.335927 kJ/mol
# Density = 2.788404 g / cm^3
# Si number density = 27.947652 Si / 1000 Ang^3
#
#
#
# Elastic Constant Matrix: (Units=GPa)
#
#
# Indices 1 2 3 4 5 6 
#
# 1 126.4689 10.0600 83.3965 -1.0782 6.5041 -14.7385
# 2 10.0600 90.4653 59.8084 3.3552 -3.4766 -12.6818
# 3 83.3965 59.8084 255.5479 -0.8409 6.0786 -15.9247
# 4 -1.0782 3.3552 -0.8409 45.2013 -6.9691 2.4560
# 5 6.5041 -3.4766 6.0786 -6.9691 55.3934 -9.8137
# 6 -14.7385 -12.6818 -15.9247 2.4560 -9.8137 50.9101
#
#
#
# Elastic Compliance Matrix: (Units=1/GPa)
#
#
# Indices 1 2 3 4 5 6 
#
# 1 0.010449 0.001534 -0.003623 -0.000107 -0.000355 0.002210
# 2 0.001534 0.013772 -0.003570 -0.000989 0.001500 0.003095
# 3 -0.003623 -0.003570 0.005931 0.000229 -0.000453 -0.000181
# 4 -0.000107 -0.000989 0.000229 0.022648 0.002635 -0.000790
# 5 -0.000355 0.001500 -0.000453 0.002635 0.019227 0.003708
# 6 0.002210 0.003095 -0.000181 -0.000790 0.003708 0.021750
#
#
# Mechanical properties :
#
#
# Convention : Reuss Voigt Hill
#
# Bulk Modulus (GPa) = 53.09682 86.55688 69.82685
# Shear Modulus (GPa) = 44.89461 51.58210 48.23835
#
# Velocity S-wave (km/s) = 4.01232 4.30079 4.15905
# Velocity P-wave (km/s) = 6.36434 7.46329 6.93561
#
# Compressibility (1/GPa) = 0.01883352
#
# Stress axis : x y z
#
# Youngs Moduli (GPa) = 95.70114 72.61365 168.59985
#
# Poissons Ratio (x) = -0.11135 0.61085
# Poissons Ratio (y) = -0.14676 0.60184
# Poissons Ratio (z) = 0.34673 0.25920
#
# Static dielectric constant tensor:
#      x y z
#    x 5.244690 -0.365410 -0.492720 
#    y -0.365410 6.309970 0.546660 
#    z -0.492720 0.546660 5.976360 
# 
# 
# High freq. dielectric constant tensor:
#      x y z
#    x 2.139960 0.006920 -0.014600 
#    y 0.006920 2.160030 0.011710 
#    z -0.014600 0.011710 2.156700 
# 
# From -- ./inp_files/7513.got.cif
#   From: 2010.06.25/outbox.cif.g09.slc.cpg/sg2_4_cif.got.tgz:7513.got - 2010.06.27 13:26:56.
