data_PCOD8008405
_publ_section_title
;
Structure prediction by ZEFSAII (Michael W. Deem and Ramdas Pophale) SiO2 
 PCOD8008405
Probable space group: P -1
;
_chemical_formula_sum "Si O2"
_cell_formula_units_Z 14
_cell_length_a 13.962454
_cell_length_b 7.647016
_cell_length_c 9.347841
_cell_angle_alpha 101.531898
_cell_angle_beta 117.184741
_cell_angle_gamma 117.390197
_cell_volume 673.710032
_symmetry_space_group_name_H-M "P -1"
_symmetry_group_IT_number 2
_symmetry_cell_setting 'triclinic'
loop_
_space_group_symop_operation_xyz
x,y,z
-x,-y,-z
loop_
_atom_site_type_symbol
_atom_site_label
_atom_site_fract_x
_atom_site_fract_y
_atom_site_fract_z
Si Si1 0.490291 0.167940 0.616210
Si Si2 0.115146 0.368096 0.330080
Si Si3 0.822271 0.179156 0.611466
Si Si4 0.705016 0.639911 0.739352
Si Si5 0.240543 0.558342 0.014189
Si Si6 0.048166 0.250692 0.586049
Si Si7 0.850882 0.138667 0.936686
O O1 0.546052 0.399703 0.600565
O O2 0.500000 0.000000 0.500000
O O3 0.336126 0.056470 0.543502
O O4 0.589922 0.248087 0.836995
O O5 0.188528 0.619891 0.358429
O O6 0.221621 0.318183 0.358508
O O7 0.092216 0.369577 0.482320
O O8 0.968879 0.178967 0.122601
O O9 0.896348 0.189669 0.809237
O O10 0.914694 0.217967 0.547010
O O11 0.717767 0.865129 0.818593
O O12 0.798149 0.615808 0.909917
O O13 0.182686 0.412816 0.805248
O O14 0.180592 0.694252 0.009186
O O15 0.000000 0.000000 0.500000
#
# Coordination Sequence:
#
# PCOD8008405 Si02
#       7
#     2   2   2   2   2   2   2
#     4  10  20  43  66  95 134 162 211 272 319 380
#     4  12  22  39  64  96 132 163 219 269 318 380
#     4  12  22  41  67  94 132 170 209 268 329 375
#     4  10  22  39  67  96 129 160 221 265 321 377
#     4  10  22  43  65  95 128 167 212 270 318 373
#     4  12  26  43  64  94 133 174 220 263 318 384
#     4  12  21  37  69  99 122 167 218 272 321 371
#
# _framework density 20.780453999999999
#
# number of rings (size 3 to 8) (size 9 to 14) (size 15 to 20)
#    0.857    0.000    5.714    3.857    0.000    0.571 
#    0.000    1.429    3.143    0.000    0.000    0.000 
#    0.000    0.000    0.000    0.000    0.000    0.000 
#
# Total GULP energy -173498.119890 kJ/mol
# GULP energy per Si atom -12392.722849 kJ/mol
# Density = 2.073316 g / cm^3
# Si number density = 20.780454 Si / 1000 Ang^3
#
#
#
# Elastic Constant Matrix: (Units=GPa)
#
#
# Indices 1 2 3 4 5 6 
#
# 1 45.3188 10.2849 36.0843 4.1502 -5.7708 10.2017
# 2 10.2849 103.6100 38.3554 13.3001 -19.6482 -3.9682
# 3 36.0843 38.3554 128.6875 13.7206 -9.2779 24.0640
# 4 4.1502 13.3001 13.7206 34.0307 0.5154 -7.8632
# 5 -5.7708 -19.6482 -9.2779 0.5154 23.0787 11.4635
# 6 10.2017 -3.9682 24.0640 -7.8632 11.4635 42.4069
#
#
#
# Elastic Compliance Matrix: (Units=1/GPa)
#
#
# Indices 1 2 3 4 5 6 
#
# 1 0.029918 0.001390 -0.006600 -0.003152 0.009265 -0.006411
# 2 0.001390 0.013233 -0.002724 -0.004764 0.011374 -0.001508
# 3 -0.006600 -0.002724 0.013034 -0.005460 0.005668 -0.008608
# 4 -0.003152 -0.004764 -0.005460 0.037389 -0.015030 0.014407
# 5 0.009265 0.011374 0.005668 -0.015030 0.071044 -0.026373
# 6 -0.006411 -0.001508 -0.008608 0.014407 -0.026373 0.039667
#
#
# Mechanical properties :
#
#
# Convention : Reuss Voigt Hill
#
# Bulk Modulus (GPa) = 24.80442 49.67395 37.23918
# Shear Modulus (GPa) = 21.40495 32.76272 27.08384
#
# Velocity S-wave (km/s) = 3.21292 3.97497 3.61409
# Velocity P-wave (km/s) = 5.07210 6.70993 5.94766
#
# Compressibility (1/GPa) = 0.04031540
#
# Stress axis : x y z
#
# Youngs Moduli (GPa) = 33.42522 75.57148 76.72417
#
# Poissons Ratio (x) = -0.10502 0.50640
# Poissons Ratio (y) = -0.04645 0.20897
# Poissons Ratio (z) = 0.22061 0.20583
#
# Static dielectric constant tensor:
#      x y z
#    x 3.729280 0.018700 -0.266430 
#    y 0.018700 3.953660 0.008020 
#    z -0.266430 0.008020 4.122110 
# 
# 
# High freq. dielectric constant tensor:
#      x y z
#    x 1.793360 -0.017520 0.004000 
#    y -0.017520 1.821620 0.017290 
#    z 0.004000 0.017290 1.811070 
# 
# From -- ./inp_files/295843.got.cif
#   From: 2010.06.25/outbox.cif.g09.slc.cpg/sg2_148_cif.got.tgz:295843.got - 2010.06.27 13:26:56.
