data_PCOD8008809
_publ_section_title
;
Structure prediction by ZEFSAII (Michael W. Deem and Ramdas Pophale) SiO2 
 PCOD8008809
Probable space group: P -1
;
_chemical_formula_sum "Si O2"
_cell_formula_units_Z 14
_cell_length_a 9.592033
_cell_length_b 11.242801
_cell_length_c 10.277810
_cell_angle_alpha 78.202778
_cell_angle_beta 43.471666
_cell_angle_gamma 100.163887
_cell_volume 653.878553
_symmetry_space_group_name_H-M "P -1"
_symmetry_group_IT_number 2
_symmetry_cell_setting 'triclinic'
loop_
_space_group_symop_operation_xyz
x,y,z
-x,-y,-z
loop_
_atom_site_type_symbol
_atom_site_label
_atom_site_fract_x
_atom_site_fract_y
_atom_site_fract_z
Si Si1 0.672975 0.456452 0.652345
Si Si2 0.703062 0.482278 0.169244
Si Si3 0.370146 0.145730 0.002965
Si Si4 0.443699 0.925054 0.859010
Si Si5 0.080681 0.426325 0.279039
Si Si6 0.151227 0.732805 0.880123
Si Si7 0.895179 0.130173 0.370435
O O1 0.549965 0.531562 0.641954
O O2 0.891039 0.476926 0.416140
O O3 0.744558 0.525100 0.730019
O O4 0.482784 0.296451 0.829836
O O5 0.694900 0.339781 0.252565
O O6 0.779638 0.507831 0.960709
O O7 0.886716 0.611106 0.102022
O O8 0.523205 0.150761 0.021589
O O9 0.107598 0.098126 0.230501
O O10 0.367637 0.038164 0.923325
O O11 0.235708 0.808494 0.943085
O O12 0.679388 0.993636 0.602174
O O13 0.954409 0.259507 0.396502
O O14 0.172381 0.842864 0.733077
#
# Coordination Sequence:
#
# PCOD8008809 Si02
#       7
#     2   2   2   2   2   2   2
#     4  11  20  38  62  91 121 155 197 251 305 346
#     4  10  21  41  60  89 121 157 200 248 293 362
#     4  11  23  40  63  88 119 161 202 248 301 347
#     4  11  24  41  60  89 124 156 203 252 287 366
#     4  10  21  34  63  91 119 154 199 249 299 354
#     4  10  22  40  65  88 123 162 200 241 306 353
#     4  11  22  42  60  89 123 159 201 247 297 360
#
# _framework density 21.410703000000002
#
# number of rings (size 3 to 8) (size 9 to 14) (size 15 to 20)
#    0.000    1.429    4.286    2.143    2.000    0.571 
#    0.000    7.857    0.000    0.000    0.000    0.000 
#    0.000    0.000    0.000    0.000    0.000    0.000 
#
# Total GULP energy -173665.471910 kJ/mol
# GULP energy per Si atom -12404.676565 kJ/mol
# Density = 2.136197 g / cm^3
# Si number density = 21.410703 Si / 1000 Ang^3
#
#
#
# Elastic Constant Matrix: (Units=GPa)
#
#
# Indices 1 2 3 4 5 6 
#
# 1 92.7796 53.3695 20.2385 9.5476 -32.3317 10.2452
# 2 53.3695 81.6346 22.5842 7.2496 -21.8817 23.8444
# 3 20.2385 22.5842 48.4132 15.7308 -21.5575 6.5577
# 4 9.5476 7.2496 15.7308 24.1904 -10.4538 -6.7830
# 5 -32.3317 -21.8817 -21.5575 -10.4538 36.3929 2.3582
# 6 10.2452 23.8444 6.5577 -6.7830 2.3582 37.3289
#
#
#
# Elastic Compliance Matrix: (Units=1/GPa)
#
#
# Indices 1 2 3 4 5 6 
#
# 1 0.021368 -0.010744 0.002677 -0.001138 0.013818 -0.000551
# 2 -0.010744 0.025427 -0.002393 -0.003938 0.004092 -0.013847
# 3 0.002677 -0.002393 0.035959 -0.019017 0.017430 -0.010080
# 4 -0.001138 -0.003938 -0.019017 0.060886 0.001737 0.017122
# 5 0.013818 0.004092 0.017430 0.001737 0.053851 -0.012554
# 6 -0.000551 -0.013847 -0.010080 0.017122 -0.012554 0.041460
#
#
# Mechanical properties :
#
#
# Convention : Reuss Voigt Hill
#
# Bulk Modulus (GPa) = 16.17274 46.13464 31.15369
# Shear Modulus (GPa) = 17.82648 28.02478 22.92563
#
# Velocity S-wave (km/s) = 2.88861 3.62182 3.27579
# Velocity P-wave (km/s) = 4.32381 6.25175 5.37493
#
# Compressibility (1/GPa) = 0.06183245
#
# Stress axis : x y z
#
# Youngs Moduli (GPa) = 46.79939 39.32896 27.80974
#
# Poissons Ratio (x) = 0.42255 -0.07443
# Poissons Ratio (y) = 0.50281 0.06654
# Poissons Ratio (z) = -0.12526 0.09410
#
# Static dielectric constant tensor:
#      x y z
#    x 4.008530 -0.057290 -0.187290 
#    y -0.057290 3.964050 0.106330 
#    z -0.187290 0.106330 3.617830 
# 
# 
# High freq. dielectric constant tensor:
#      x y z
#    x 1.849220 -0.001190 -0.013580 
#    y -0.001190 1.844210 0.005290 
#    z -0.013580 0.005290 1.823520 
# 
# From -- ./inp_files/180293.got.cif
#   From: 2010.06.25/outbox.cif.g09.slc.cpg/sg2_91_cif.got.tgz:180293.got - 2010.06.27 13:26:56.
