data_PCOD8008564
_publ_section_title
;
Structure prediction by ZEFSAII (Michael W. Deem and Ramdas Pophale) SiO2 
 PCOD8008564
Probable space group: P -1
;
_chemical_formula_sum "Si O2"
_cell_formula_units_Z 14
_cell_length_a 13.854377
_cell_length_b 11.118008
_cell_length_c 9.039147
_cell_angle_alpha 69.449294
_cell_angle_beta 109.860131
_cell_angle_gamma 51.114390
_cell_volume 649.395657
_symmetry_space_group_name_H-M "P -1"
_symmetry_group_IT_number 2
_symmetry_cell_setting 'triclinic'
loop_
_space_group_symop_operation_xyz
x,y,z
-x,-y,-z
loop_
_atom_site_type_symbol
_atom_site_label
_atom_site_fract_x
_atom_site_fract_y
_atom_site_fract_z
Si Si1 0.094824 0.876397 0.758046
Si Si2 0.500710 0.650651 0.792921
Si Si3 0.832846 0.981769 0.735631
Si Si4 0.390636 0.933199 0.889227
Si Si5 0.531337 0.105387 0.532574
Si Si6 0.313289 0.300229 0.627531
Si Si7 0.920245 0.870179 0.159108
O O1 0.028664 0.809389 0.823321
O O2 0.023488 0.065346 0.745261
O O3 0.327783 0.631558 0.962017
O O4 0.000000 0.000000 0.500000
O O5 0.409984 0.804365 0.829578
O O6 0.593114 0.669272 0.736526
O O7 0.335759 0.759307 0.554952
O O8 0.759633 0.909506 0.724066
O O9 0.854230 0.996335 0.911675
O O10 0.297966 0.161634 0.674865
O O11 0.251410 0.027894 0.902146
O O12 0.600501 0.743668 0.151361
O O13 0.459484 0.193973 0.623741
O O14 0.500000 0.000000 0.500000
O O15 0.103555 0.581725 0.366327
#
# Coordination Sequence:
#
# PCOD8008564 Si02
#       7
#     2   2   2   2   2   2   2
#     4  12  26  44  65  96 132 171 222 266 319 383
#     4  10  23  42  67  92 133 165 221 262 323 380
#     4  10  24  44  64  95 127 169 221 262 324 381
#     4  11  22  41  65  97 130 171 214 269 323 383
#     4  10  20  44  67  94 128 168 211 264 323 385
#     4  11  22  41  66  95 133 166 218 265 326 383
#     4  12  25  41  67  95 133 173 216 265 322 384
#
# _framework density 21.558506000000001
#
# number of rings (size 3 to 8) (size 9 to 14) (size 15 to 20)
#    0.857    0.286    2.857    3.429    0.000    4.000 
#    0.000    7.857    0.000    0.000    0.000    0.000 
#    0.000    0.000    0.000    0.000    0.000    0.000 
#
# Total GULP energy -173470.810684 kJ/mol
# GULP energy per Si atom -12390.772192 kJ/mol
# Density = 2.150944 g / cm^3
# Si number density = 21.558506 Si / 1000 Ang^3
#
#
#
# Elastic Constant Matrix: (Units=GPa)
#
#
# Indices 1 2 3 4 5 6 
#
# 1 85.1822 32.8493 12.8534 3.1210 8.2611 -12.0261
# 2 32.8493 105.2960 63.6411 9.5069 -2.4003 -5.7959
# 3 12.8534 63.6411 137.3890 8.6920 3.2122 -4.7075
# 4 3.1210 9.5069 8.6920 38.5371 -3.6852 -2.1171
# 5 8.2611 -2.4003 3.2122 -3.6852 27.9395 5.3668
# 6 -12.0261 -5.7959 -4.7075 -2.1171 5.3668 33.2646
#
#
#
# Elastic Compliance Matrix: (Units=1/GPa)
#
#
# Indices 1 2 3 4 5 6 
#
# 1 0.015001 -0.005333 0.001439 -0.000507 -0.006214 0.005668
# 2 -0.005333 0.015338 -0.006622 -0.001560 0.003618 -0.000876
# 3 0.001439 -0.006622 0.010375 -0.001002 -0.002546 0.001182
# 4 -0.000507 -0.001560 -0.001002 0.026973 0.003585 0.000542
# 5 -0.006214 0.003618 -0.002546 0.003585 0.040290 -0.008249
# 6 0.005668 -0.000876 0.001182 0.000542 -0.008249 0.033491
#
#
# Mechanical properties :
#
#
# Convention : Reuss Voigt Hill
#
# Bulk Modulus (GPa) = 50.81131 60.72830 55.76980
# Shear Modulus (GPa) = 29.57508 34.51647 32.04578
#
# Velocity S-wave (km/s) = 3.70787 4.00567 3.85964
# Velocity P-wave (km/s) = 6.47698 7.04443 6.76666
#
# Compressibility (1/GPa) = 0.01968066
#
# Stress axis : x y z
#
# Youngs Moduli (GPa) = 66.66407 65.19625 96.38757
#
# Poissons Ratio (x) = 0.34770 -0.13866
# Poissons Ratio (y) = 0.35553 0.63827
# Poissons Ratio (z) = -0.09590 0.43172
#
# Static dielectric constant tensor:
#      x y z
#    x 4.123030 -0.223900 -0.157640 
#    y -0.223900 3.646820 0.251500 
#    z -0.157640 0.251500 4.025320 
# 
# 
# High freq. dielectric constant tensor:
#      x y z
#    x 1.863240 -0.012800 -0.004960 
#    y -0.012800 1.823730 0.024260 
#    z -0.004960 0.024260 1.852100 
# 
# From -- ./inp_files/307086.got.cif
#   From: 2010.06.25/outbox.cif.g09.slc.cpg/sg2_154_cif.got.tgz:307086.got - 2010.06.27 13:26:56.
