data_PCOD8008281
_publ_section_title
;
Structure prediction by ZEFSAII (Michael W. Deem and Ramdas Pophale) SiO2 
 PCOD8008281
Probable space group: P -1
;
_chemical_formula_sum "Si O2"
_cell_formula_units_Z 16
_cell_length_a 6.344944
_cell_length_b 11.098671
_cell_length_c 11.488921
_cell_angle_alpha 120.986835
_cell_angle_beta 88.146449
_cell_angle_gamma 90.862648
_cell_volume 693.227051
_symmetry_space_group_name_H-M "P -1"
_symmetry_group_IT_number 2
_symmetry_cell_setting 'triclinic'
loop_
_space_group_symop_operation_xyz
x,y,z
-x,-y,-z
loop_
_atom_site_type_symbol
_atom_site_label
_atom_site_fract_x
_atom_site_fract_y
_atom_site_fract_z
Si Si1 0.425435 0.312206 0.304983
Si Si2 0.681365 0.004116 0.593589
Si Si3 0.754728 0.317894 0.105118
Si Si4 0.671048 0.624559 0.212507
Si Si5 0.629261 0.370126 0.563071
Si Si6 0.862482 0.858696 0.942277
Si Si7 0.004674 0.782639 0.416744
Si Si8 0.470059 0.160941 0.869839
O O1 0.641088 0.323505 0.234276
O O2 0.492656 0.288340 0.426195
O O3 0.319603 0.466931 0.381568
O O4 0.276218 0.188168 0.192519
O O5 0.555868 0.031397 0.728395
O O6 0.850161 0.122933 0.620627
O O7 0.500000 0.000000 0.500000
O O8 0.816664 0.861966 0.527882
O O9 0.712460 0.460910 0.105642
O O10 0.997933 0.279770 0.102999
O O11 0.662639 0.195458 0.967062
O O12 0.488357 0.650871 0.323032
O O13 0.898020 0.675088 0.276970
O O14 0.603975 0.705176 0.137454
O O15 0.857311 0.296198 0.528058
O O16 0.720351 0.891725 0.073170
O O17 0.000000 0.000000 0.000000
#
# Coordination Sequence:
#
# PCOD8008281 Si02
#       8
#     2   2   2   2   2   2   2   2
#     4   9  22  44  70  97 137 176 227 289 330 399
#     4  11  23  44  60  97 147 173 218 270 340 409
#     4  10  24  45  69  97 135 180 229 275 336 405
#     4  11  22  42  70 108 136 164 222 291 346 396
#     4  10  20  42  70 104 136 172 222 284 350 395
#     4  11  26  49  66  96 134 188 238 272 327 410
#     4  11  22  38  67 100 138 176 216 272 340 418
#     4  11  24  44  69  98 137 178 221 281 342 395
#
# _framework density 23.080461
#
# number of rings (size 3 to 8) (size 9 to 14) (size 15 to 20)
#    0.000    1.500    2.500    1.125    1.750    3.500 
#   13.500    3.750    0.000    0.000    0.000    0.000 
#    0.000    0.000    0.000    0.000    0.000    0.000 
#
# Total GULP energy -198360.253566 kJ/mol
# GULP energy per Si atom -12397.515848 kJ/mol
# Density = 2.302793 g / cm^3
# Si number density = 23.080461 Si / 1000 Ang^3
#
#
#
# Elastic Constant Matrix: (Units=GPa)
#
#
# Indices 1 2 3 4 5 6 
#
# 1 133.7380 36.9917 51.0248 7.2135 -7.0649 -16.0780
# 2 36.9917 49.0146 31.0384 1.4990 -2.3882 -4.7527
# 3 51.0248 31.0384 127.4395 2.9420 -13.4578 -1.7597
# 4 7.2135 1.4990 2.9420 33.1324 -2.8687 5.0962
# 5 -7.0649 -2.3882 -13.4578 -2.8687 32.6360 6.6359
# 6 -16.0780 -4.7527 -1.7597 5.0962 6.6359 45.9689
#
#
#
# Elastic Compliance Matrix: (Units=1/GPa)
#
#
# Indices 1 2 3 4 5 6 
#
# 1 0.010682 -0.005939 -0.002745 -0.002331 -0.000129 0.003294
# 2 -0.005939 0.027746 -0.004506 0.000210 -0.001253 0.000776
# 3 -0.002745 -0.004506 0.010405 0.000450 0.003735 -0.001617
# 4 -0.002331 0.000210 0.000450 0.031675 0.003454 -0.004787
# 5 -0.000129 -0.001253 0.003735 0.003454 0.033431 -0.005240
# 6 0.003294 0.000776 -0.001617 -0.004787 -0.005240 0.024211
#
#
# Mechanical properties :
#
#
# Convention : Reuss Voigt Hill
#
# Bulk Modulus (GPa) = 44.53797 60.92242 52.73020
# Shear Modulus (GPa) = 29.06719 35.08995 32.07857
#
# Velocity S-wave (km/s) = 3.55263 3.90337 3.73212
# Velocity P-wave (km/s) = 6.01390 6.83872 6.43953
#
# Compressibility (1/GPa) = 0.02245275
#
# Stress axis : x y z
#
# Youngs Moduli (GPa) = 93.61284 36.04141 96.10793
#
# Poissons Ratio (x) = 0.21407 0.26379
# Poissons Ratio (y) = 0.55601 0.43306
# Poissons Ratio (z) = 0.25694 0.16240
#
# Static dielectric constant tensor:
#      x y z
#    x 4.427200 0.027580 -0.223310 
#    y 0.027580 4.192930 -0.009980 
#    z -0.223310 -0.009980 4.487230 
# 
# 
# High freq. dielectric constant tensor:
#      x y z
#    x 1.921810 -0.005970 0.003130 
#    y -0.005970 1.912320 0.009560 
#    z 0.003130 0.009560 1.913550 
# 
# From -- ./inp_files/83243.got.cif
#   From: 2010.06.25/outbox.cif.g09.slc.cpg/sg2_42_cif.got.tgz:83243.got - 2010.06.27 13:26:56.
