data_PCOD8008345
_publ_section_title
;
Structure prediction by ZEFSAII (Michael W. Deem and Ramdas Pophale) SiO2 
 PCOD8008345
Probable space group: P -1
;
_chemical_formula_sum "Si O2"
_cell_formula_units_Z 14
_cell_length_a 18.448669
_cell_length_b 20.794958
_cell_length_c 7.593338
_cell_angle_alpha 136.909257
_cell_angle_beta 128.784318
_cell_angle_gamma 19.959705
_cell_volume 656.456747
_symmetry_space_group_name_H-M "P -1"
_symmetry_group_IT_number 2
_symmetry_cell_setting 'triclinic'
loop_
_space_group_symop_operation_xyz
x,y,z
-x,-y,-z
loop_
_atom_site_type_symbol
_atom_site_label
_atom_site_fract_x
_atom_site_fract_y
_atom_site_fract_z
Si Si1 0.700594 0.609824 0.084225
Si Si2 0.114974 0.341750 0.200453
Si Si3 0.740759 0.598884 0.530925
Si Si4 0.398347 0.923727 0.938450
Si Si5 0.310051 0.588998 0.238763
Si Si6 0.194190 0.845763 0.853165
Si Si7 0.029917 0.166747 0.047195
O O1 0.653764 0.676164 0.351177
O O2 0.936930 0.434215 0.028244
O O3 0.515894 0.825947 0.112024
O O4 0.697932 0.499385 0.834510
O O5 0.195534 0.352393 0.216396
O O6 0.000000 0.500000 0.500000
O O7 0.324606 0.093300 0.095876
O O8 0.553998 0.733753 0.649039
O O9 0.949452 0.338797 0.354690
O O10 0.189386 0.046822 0.887669
O O11 0.189111 0.781516 0.549344
O O12 0.559682 0.386933 0.158241
O O13 0.179220 0.697833 0.075126
O O14 0.157028 0.987813 0.024206
O O15 0.000000 0.000000 0.000000
#
# Coordination Sequence:
#
# PCOD8008345 Si02
#       7
#     2   2   2   2   2   2   2
#     4  10  22  42  65  94 130 169 215 263 311 379
#     4  10  20  43  62  96 135 164 216 268 300 376
#     4  10  24  41  64  97 132 168 220 256 313 381
#     4  12  22  41  68  89 133 176 205 263 319 366
#     4  10  22  43  61  92 128 157 210 265 310 380
#     4  11  25  40  68  94 120 162 212 259 323 386
#     4  11  23  44  62  93 129 166 207 265 315 375
#
# _framework density 21.326615
#
# number of rings (size 3 to 8) (size 9 to 14) (size 15 to 20)
#    0.000    1.429    5.714    0.857    2.000    5.714 
#    2.571    0.000    0.000    0.000    0.000    0.000 
#    0.000    0.000    0.000    0.000    0.000    0.000 
#
# Total GULP energy -173558.220759 kJ/mol
# GULP energy per Si atom -12397.015769 kJ/mol
# Density = 2.127807 g / cm^3
# Si number density = 21.326615 Si / 1000 Ang^3
#
#
#
# Elastic Constant Matrix: (Units=GPa)
#
#
# Indices 1 2 3 4 5 6 
#
# 1 106.8655 23.7634 57.9711 21.5264 -1.8924 -19.5950
# 2 23.7634 86.7380 34.9526 15.8383 -3.1296 -6.0633
# 3 57.9711 34.9526 72.9099 20.3214 -0.1754 -7.1860
# 4 21.5264 15.8383 20.3214 31.8684 -5.3186 -0.2533
# 5 -1.8924 -3.1296 -0.1754 -5.3186 39.3623 8.8825
# 6 -19.5950 -6.0633 -7.1860 -0.2533 8.8825 34.4781
#
#
#
# Elastic Compliance Matrix: (Units=1/GPa)
#
#
# Indices 1 2 3 4 5 6 
#
# 1 0.018960 0.001796 -0.013636 -0.005213 -0.001660 0.008639
# 2 0.001796 0.014819 -0.007245 -0.003901 0.000248 0.002024
# 3 -0.013636 -0.007245 0.029520 -0.006261 -0.001367 -0.002565
# 4 -0.005213 -0.003901 -0.006261 0.041865 0.006494 -0.006319
# 5 -0.001660 0.000248 -0.001367 0.006494 0.028107 -0.008378
# 6 0.008639 0.002024 -0.002565 -0.006319 -0.008378 0.035847
#
#
# Mechanical properties :
#
#
# Convention : Reuss Voigt Hill
#
# Bulk Modulus (GPa) = 39.79405 55.54305 47.66855
# Shear Modulus (GPa) = 23.18433 31.13020 27.15726
#
# Velocity S-wave (km/s) = 3.30071 3.82473 3.57234
# Velocity P-wave (km/s) = 5.76421 6.75317 6.27819
#
# Compressibility (1/GPa) = 0.02512938
#
# Stress axis : x y z
#
# Youngs Moduli (GPa) = 52.74325 67.48028 33.87583
#
# Poissons Ratio (x) = -0.12121 0.46192
# Poissons Ratio (y) = -0.09474 0.24543
# Poissons Ratio (z) = 0.71919 0.48890
#
# Static dielectric constant tensor:
#      x y z
#    x 4.267680 -0.381360 0.579470 
#    y -0.381360 4.041080 0.117130 
#    z 0.579470 0.117130 4.109260 
# 
# 
# High freq. dielectric constant tensor:
#      x y z
#    x 1.834730 -0.014190 0.019560 
#    y -0.014190 1.838160 0.018660 
#    z 0.019560 0.018660 1.822830 
# 
# From -- ./inp_files/313492.got.cif
#   From: 2010.06.25/outbox.cif.g09.slc.cpg/sg2_157_cif.got.tgz:313492.got - 2010.06.27 13:26:56.
