data_PCOD8008571
_publ_section_title
;
Structure prediction by ZEFSAII (Michael W. Deem and Ramdas Pophale) SiO2 
 PCOD8008571
Probable space group: P -1
;
_chemical_formula_sum "Si O2"
_cell_formula_units_Z 16
_cell_length_a 9.054563
_cell_length_b 11.602268
_cell_length_c 15.985742
_cell_angle_alpha 113.658833
_cell_angle_beta 49.378195
_cell_angle_gamma 142.731556
_cell_volume 746.525769
_symmetry_space_group_name_H-M "P -1"
_symmetry_group_IT_number 2
_symmetry_cell_setting 'triclinic'
loop_
_space_group_symop_operation_xyz
x,y,z
-x,-y,-z
loop_
_atom_site_type_symbol
_atom_site_label
_atom_site_fract_x
_atom_site_fract_y
_atom_site_fract_z
Si Si1 0.845181 0.057133 0.821934
Si Si2 0.314436 0.642388 0.473153
Si Si3 0.887440 0.062842 0.320743
Si Si4 0.032827 0.460362 0.770491
Si Si5 0.907702 0.163956 0.640130
Si Si6 0.662530 0.636872 0.610155
Si Si7 0.189289 0.705678 0.029227
Si Si8 0.728519 0.214120 0.315506
O O1 0.925111 0.105235 0.707294
O O2 0.975720 0.238881 0.882144
O O3 0.978278 0.994044 0.790364
O O4 0.483374 0.872831 0.913534
O O5 0.431438 0.556718 0.400506
O O6 0.284944 0.670005 0.587208
O O7 0.000000 0.500000 0.500000
O O8 0.543085 0.858968 0.412626
O O9 0.894357 0.178520 0.285275
O O10 0.086953 0.200943 0.366849
O O11 0.361609 0.570652 0.713655
O O12 0.063758 0.625047 0.788680
O O13 0.923143 0.322396 0.692037
O O14 0.767694 0.315409 0.896097
O O15 0.192382 0.263693 0.506253
O O16 0.602207 0.983707 0.651821
O O17 0.000000 0.500000 0.000000
#
# Coordination Sequence:
#
# PCOD8008571 Si02
#       8
#     2   2   2   2   2   2   2   2
#     4  10  24  41  67  93 119 158 208 260 309 368
#     4  12  23  39  57  88 130 178 209 245 299 368
#     4  12  25  40  60  93 128 172 208 243 307 375
#     4  11  25  39  64  96 122 163 209 262 308 365
#     4  11  22  40  59  93 127 163 204 256 307 362
#     4  12  23  39  62  92 133 167 209 251 302 367
#     4  10  20  44  68  90 118 154 208 264 314 358
#     4  12  24  38  59  88 132 171 204 249 308 368
#
# _framework density 21.432615999999999
#
# number of rings (size 3 to 8) (size 9 to 14) (size 15 to 20)
#    0.000    0.750    3.750    5.250    1.750    1.000 
#    0.000    0.625    0.000   10.500    0.000    0.000 
#    0.000    0.000    0.000    0.000    0.000    0.000 
#
# Total GULP energy -198281.478343 kJ/mol
# GULP energy per Si atom -12392.592396 kJ/mol
# Density = 2.138383 g / cm^3
# Si number density = 21.432616 Si / 1000 Ang^3
#
#
#
# Elastic Constant Matrix: (Units=GPa)
#
#
# Indices 1 2 3 4 5 6 
#
# 1 91.4495 53.4237 27.1680 4.5629 3.1003 -24.7646
# 2 53.4237 153.4078 24.4197 12.4468 4.5111 -8.8516
# 3 27.1680 24.4197 67.3503 -0.1928 8.7420 -12.6842
# 4 4.5629 12.4468 -0.1928 37.0579 -10.6638 5.5450
# 5 3.1003 4.5111 8.7420 -10.6638 13.1237 0.2593
# 6 -24.7646 -8.8516 -12.6842 5.5450 0.2593 53.6833
#
#
#
# Elastic Compliance Matrix: (Units=1/GPa)
#
#
# Indices 1 2 3 4 5 6 
#
# 1 0.016546 -0.004628 -0.003631 -0.001877 -0.001547 0.006213
# 2 -0.004628 0.008632 -0.000843 -0.003430 -0.004089 -0.000537
# 3 -0.003631 -0.000843 0.019133 -0.003918 -0.014844 0.003183
# 4 -0.001877 -0.003430 -0.003918 0.039938 0.036816 -0.006660
# 5 -0.001547 -0.004089 -0.014844 0.036816 0.117955 -0.009268
# 6 0.006213 -0.000537 0.003183 -0.006660 -0.009268 0.022890
#
#
# Mechanical properties :
#
#
# Convention : Reuss Voigt Hill
#
# Bulk Modulus (GPa) = 38.30352 58.02560 48.16456
# Shear Modulus (GPa) = 19.84124 34.58607 27.21366
#
# Velocity S-wave (km/s) = 3.04591 4.02146 3.56719
# Velocity P-wave (km/s) = 5.50277 6.97819 6.28393
#
# Compressibility (1/GPa) = 0.02610726
#
# Stress axis : x y z
#
# Youngs Moduli (GPa) = 60.43854 115.84838 52.26564
#
# Poissons Ratio (x) = 0.53612 0.18976
# Poissons Ratio (y) = 0.27970 0.04407
# Poissons Ratio (z) = 0.21944 0.09768
#
# Static dielectric constant tensor:
#      x y z
#    x 3.722800 -0.330170 0.148040 
#    y -0.330170 4.487670 0.010150 
#    z 0.148040 0.010150 4.198450 
# 
# 
# High freq. dielectric constant tensor:
#      x y z
#    x 1.812180 -0.017960 0.012280 
#    y -0.017960 1.880680 -0.001640 
#    z 0.012280 -0.001640 1.828120 
# 
# From -- ./inp_files/353742.got.cif
#   From: 2010.06.25/outbox.cif.g09.slc.cpg/sg2_177_cif.got.tgz:353742.got - 2010.06.27 13:26:56.
