data_PCOD8008253
_publ_section_title
;
Structure prediction by ZEFSAII (Michael W. Deem and Ramdas Pophale) SiO2 
 PCOD8008253
Probable space group: P -1
;
_chemical_formula_sum "Si O2"
_cell_formula_units_Z 14
_cell_length_a 8.801549
_cell_length_b 13.081171
_cell_length_c 7.111617
_cell_angle_alpha 101.935727
_cell_angle_beta 89.690011
_cell_angle_gamma 128.966832
_cell_volume 614.437369
_symmetry_space_group_name_H-M "P -1"
_symmetry_group_IT_number 2
_symmetry_cell_setting 'triclinic'
loop_
_space_group_symop_operation_xyz
x,y,z
-x,-y,-z
loop_
_atom_site_type_symbol
_atom_site_label
_atom_site_fract_x
_atom_site_fract_y
_atom_site_fract_z
Si Si1 0.853194 0.063177 0.930253
Si Si2 0.652283 0.123515 0.681597
Si Si3 0.579533 0.778396 0.285197
Si Si4 0.367979 0.512443 0.374624
Si Si5 0.960210 0.044103 0.306405
Si Si6 0.259945 0.339194 0.954647
Si Si7 0.928296 0.692338 0.430354
O O1 0.686204 0.061453 0.834773
O O2 0.051243 0.218666 0.999864
O O3 0.810400 0.017619 0.130589
O O4 0.881135 0.968877 0.776933
O O5 0.561282 0.191974 0.779631
O O6 0.851827 0.240452 0.610276
O O7 0.500000 0.000000 0.500000
O O8 0.464737 0.670337 0.417786
O O9 0.615414 0.712744 0.090245
O O10 0.799513 0.919430 0.403719
O O11 0.500000 0.500000 0.500000
O O12 0.150720 0.417673 0.441475
O O13 0.368202 0.465645 0.144518
O O14 0.075816 0.188916 0.458445
O O15 0.226221 0.381096 0.769715
#
# Coordination Sequence:
#
# PCOD8008253 Si02
#       7
#     2   2   2   2   2   2   2
#     4   9  21  38  68  99 137 170 233 275 337 396
#     4  11  24  42  62 103 144 178 216 278 345 403
#     4  11  24  41  65 101 138 173 225 276 339 396
#     4  12  25  45  72 100 132 178 233 282 330 398
#     4  10  20  42  69 103 123 180 230 288 326 387
#     4  10  22  43  70  99 131 174 231 281 326 396
#     4  11  23  43  73  95 139 177 225 281 336 396
#
# _framework density 22.785070999999999
#
# number of rings (size 3 to 8) (size 9 to 14) (size 15 to 20)
#    0.000    1.429    4.286    0.429    2.000    2.857 
#    0.000    2.857    0.000    0.000    0.000    0.000 
#    0.000    0.000    0.000    0.000    0.000    0.000 
#
# Total GULP energy -173540.010125 kJ/mol
# GULP energy per Si atom -12395.715009 kJ/mol
# Density = 2.273321 g / cm^3
# Si number density = 22.785071 Si / 1000 Ang^3
#
#
#
# Elastic Constant Matrix: (Units=GPa)
#
#
# Indices 1 2 3 4 5 6 
#
# 1 87.9762 5.6633 13.3309 -1.7795 5.8762 -10.0486
# 2 5.6633 108.5762 21.8141 -6.5501 -0.1571 14.5732
# 3 13.3309 21.8141 105.4139 -6.4656 5.9770 3.6526
# 4 -1.7795 -6.5501 -6.4656 35.9641 3.6277 8.0606
# 5 5.8762 -0.1571 5.9770 3.6277 26.3550 -7.5831
# 6 -10.0486 14.5732 3.6526 8.0606 -7.5831 31.1714
#
#
#
# Elastic Compliance Matrix: (Units=1/GPa)
#
#
# Indices 1 2 3 4 5 6 
#
# 1 0.012225 -0.000995 -0.001488 -0.000762 -0.000983 0.004538
# 2 -0.000995 0.010614 -0.001565 0.003181 -0.001615 -0.006315
# 3 -0.001488 -0.001565 0.010392 0.002330 -0.003018 -0.002302
# 4 -0.000762 0.003181 0.002330 0.032394 -0.008372 -0.012419
# 5 -0.000983 -0.001615 -0.003018 -0.008372 0.043914 0.013639
# 6 0.004538 -0.006315 -0.002302 -0.012419 0.013639 0.043295
#
#
# Mechanical properties :
#
#
# Convention : Reuss Voigt Hill
#
# Bulk Modulus (GPa) = 39.78707 42.62031 41.20369
# Shear Modulus (GPa) = 29.53177 36.10863 32.82020
#
# Velocity S-wave (km/s) = 3.60405 3.98521 3.79941
# Velocity P-wave (km/s) = 5.90074 6.31837 6.11312
#
# Compressibility (1/GPa) = 0.02513380
#
# Stress axis : x y z
#
# Youngs Moduli (GPa) = 81.80004 94.21901 96.22527
#
# Poissons Ratio (x) = 0.09376 0.14321
# Poissons Ratio (y) = 0.08140 0.15060
# Poissons Ratio (z) = 0.12174 0.14746
#
# Static dielectric constant tensor:
#      x y z
#    x 4.133930 0.243960 -0.050520 
#    y 0.243960 4.658920 -0.355540 
#    z -0.050520 -0.355540 4.203560 
# 
# 
# High freq. dielectric constant tensor:
#      x y z
#    x 1.879270 0.017700 0.004540 
#    y 0.017700 1.914730 -0.008910 
#    z 0.004540 -0.008910 1.893010 
# 
# From -- ./inp_files/165067.got.cif
#   From: 2010.06.25/outbox.cif.g09.slc.cpg/sg2_83_cif.got.tgz:165067.got - 2010.06.27 13:26:56.
