data_PCOD8008260
_publ_section_title
;
Structure prediction by ZEFSAII (Michael W. Deem and Ramdas Pophale) SiO2 
 PCOD8008260
Probable space group: P -1
;
_chemical_formula_sum "Si O2"
_cell_formula_units_Z 16
_cell_length_a 15.568025
_cell_length_b 11.727807
_cell_length_c 11.920399
_cell_angle_alpha 93.955985
_cell_angle_beta 62.653278
_cell_angle_gamma 149.348960
_cell_volume 683.577074
_symmetry_space_group_name_H-M "P -1"
_symmetry_group_IT_number 2
_symmetry_cell_setting 'triclinic'
loop_
_space_group_symop_operation_xyz
x,y,z
-x,-y,-z
loop_
_atom_site_type_symbol
_atom_site_label
_atom_site_fract_x
_atom_site_fract_y
_atom_site_fract_z
Si Si1 0.484957 0.749320 0.712099
Si Si2 0.866232 0.463049 0.215798
Si Si3 0.987495 0.123208 0.103459
Si Si4 0.649390 0.544962 0.901538
Si Si5 0.252091 0.915580 0.804674
Si Si6 0.791433 0.642121 0.574237
Si Si7 0.190639 0.911723 0.253851
Si Si8 0.551242 0.581483 0.602299
O O1 0.392119 0.741859 0.677448
O O2 0.644031 0.816783 0.567975
O O3 0.670687 0.007717 0.720134
O O4 0.219430 0.387430 0.889119
O O5 0.756782 0.213354 0.264566
O O6 0.966218 0.597426 0.292511
O O7 0.112279 0.750801 0.999984
O O8 0.086891 0.168415 0.157848
O O9 0.903094 0.161742 0.182626
O O10 0.727330 0.765055 0.186737
O O11 0.766690 0.642557 0.718522
O O12 0.500000 0.500000 0.000000
O O13 0.433675 0.210635 0.044545
O O14 0.562654 0.297071 0.655652
O O15 0.786688 0.758989 0.521097
O O16 0.073444 0.896515 0.382100
O O17 0.500000 0.500000 0.500000
#
# Coordination Sequence:
#
# PCOD8008260 Si02
#       8
#     2   2   2   2   2   2   2   2
#     4  10  22  39  60  93 124 164 213 254 315 378
#     4  10  20  42  69  91 126 167 216 262 317 372
#     4   9  21  39  60  87 123 166 205 258 313 374
#     4  11  24  39  63  94 129 169 207 255 319 376
#     4   9  20  42  67  91 122 169 212 263 314 376
#     4  11  23  41  63  93 131 161 211 260 315 378
#     4  11  24  41  63  96 128 167 212 261 315 377
#     4  11  23  37  60  91 123 165 205 259 316 373
#
# _framework density 23.406285
#
# number of rings (size 3 to 8) (size 9 to 14) (size 15 to 20)
#    0.000    1.750    1.250    2.625    5.250    1.500 
#    2.250    3.125    0.000    0.000    0.000    0.000 
#    0.000    0.000    0.000    0.000    0.000    0.000 
#
# Total GULP energy -198300.792233 kJ/mol
# GULP energy per Si atom -12393.799515 kJ/mol
# Density = 2.335301 g / cm^3
# Si number density = 23.406285 Si / 1000 Ang^3
#
#
#
# Elastic Constant Matrix: (Units=GPa)
#
#
# Indices 1 2 3 4 5 6 
#
# 1 122.0312 59.6634 5.6461 5.3224 -22.1088 -1.1714
# 2 59.6634 119.8983 18.0457 17.2973 -12.7149 3.8615
# 3 5.6461 18.0457 61.1365 6.6676 -5.6140 2.8474
# 4 5.3224 17.2973 6.6676 33.3103 1.0170 -4.6328
# 5 -22.1088 -12.7149 -5.6140 1.0170 30.0556 4.1034
# 6 -1.1714 3.8615 2.8474 -4.6328 4.1034 42.0874
#
#
#
# Elastic Compliance Matrix: (Units=1/GPa)
#
#
# Indices 1 2 3 4 5 6 
#
# 1 0.012033 -0.005527 0.001063 0.000556 0.006669 0.000181
# 2 -0.005527 0.012407 -0.002372 -0.005376 0.001173 -0.001838
# 3 0.001063 -0.002372 0.017648 -0.002794 0.003386 -0.001584
# 4 0.000556 -0.005376 -0.002794 0.034087 -0.004204 0.004860
# 5 0.006669 0.001173 0.003386 -0.004204 0.040065 -0.004520
# 6 0.000181 -0.001838 -0.001584 0.004860 -0.004520 0.025017
#
#
# Mechanical properties :
#
#
# Convention : Reuss Voigt Hill
#
# Bulk Modulus (GPa) = 35.18995 52.19738 43.69367
# Shear Modulus (GPa) = 30.41344 35.73803 33.07573
#
# Velocity S-wave (km/s) = 3.60859 3.91174 3.76322
# Velocity P-wave (km/s) = 5.69470 6.53845 6.13110
#
# Compressibility (1/GPa) = 0.02841720
#
# Stress axis : x y z
#
# Youngs Moduli (GPa) = 83.10281 80.60069 56.66264
#
# Poissons Ratio (x) = 0.44547 -0.06025
# Poissons Ratio (y) = 0.45930 0.13441
# Poissons Ratio (z) = -0.08837 0.19119
#
# Static dielectric constant tensor:
#      x y z
#    x 4.097550 0.134540 -0.205350 
#    y 0.134540 4.228890 -0.244450 
#    z -0.205350 -0.244450 4.345540 
# 
# 
# High freq. dielectric constant tensor:
#      x y z
#    x 1.916370 0.011990 -0.009640 
#    y 0.011990 1.924360 -0.005820 
#    z -0.009640 -0.005820 1.934040 
# 
# From -- ./inp_files/208298.got.cif
#   From: 2010.06.25/outbox.cif.g09.slc.cpg/sg2_105_cif.got.tgz:208298.got - 2010.06.27 13:26:56.
