data_PCOD8008215
_publ_section_title
;
Structure prediction by ZEFSAII (Michael W. Deem and Ramdas Pophale) SiO2 
 PCOD8008215
Probable space group: P -1
;
_chemical_formula_sum "Si O2"
_cell_formula_units_Z 14
_cell_length_a 9.731295
_cell_length_b 8.561544
_cell_length_c 21.087492
_cell_angle_alpha 30.899876
_cell_angle_beta 120.473695
_cell_angle_gamma 122.689520
_cell_volume 755.438941
_symmetry_space_group_name_H-M "P -1"
_symmetry_group_IT_number 2
_symmetry_cell_setting 'triclinic'
loop_
_space_group_symop_operation_xyz
x,y,z
-x,-y,-z
loop_
_atom_site_type_symbol
_atom_site_label
_atom_site_fract_x
_atom_site_fract_y
_atom_site_fract_z
Si Si1 0.443905 0.154278 0.871310
Si Si2 0.764502 0.635601 0.761493
Si Si3 0.888166 0.743463 0.888375
Si Si4 0.067100 0.778402 0.466952
Si Si5 0.334587 0.591922 0.946771
Si Si6 0.083627 0.675585 0.757474
Si Si7 0.130331 0.398080 0.731119
O O1 0.596331 0.389435 0.790588
O O2 0.312083 0.344165 0.795617
O O3 0.362734 0.895043 0.891976
O O4 0.500000 0.000000 0.000000
O O5 0.767796 0.676249 0.823674
O O6 0.921327 0.505618 0.819470
O O7 0.775695 0.973367 0.613161
O O8 0.778609 0.702932 0.940190
O O9 0.998566 0.089618 0.787170
O O10 0.000000 0.500000 0.000000
O O11 0.000000 0.500000 0.500000
O O12 0.125953 0.664347 0.586242
O O13 0.922222 0.961098 0.381656
O O14 0.247725 0.663990 0.837382
O O15 0.500000 0.500000 0.000000
O O16 0.080920 0.501689 0.751418
#
# Coordination Sequence:
#
# PCOD8008215 Si02
#       7
#     2   2   2   2   2   2   2
#     4  12  23  40  61  93 127 162 202 259 316 358
#     4  10  22  39  63  88 125 157 211 248 308 368
#     4  12  20  41  62  91 121 167 208 249 312 376
#     4  10  20  42  68  88 119 168 213 249 304 369
#     4  12  25  39  62  91 131 161 205 258 313 369
#     4  10  24  41  60  95 123 162 210 250 309 369
#     4  12  23  39  68  89 127 165 206 260 303 369
#
# _framework density 18.532273
#
# number of rings (size 3 to 8) (size 9 to 14) (size 15 to 20)
#    0.857    0.000    5.714    2.143    2.000    1.143 
#    0.000    0.000    0.000    2.571    0.000    0.000 
#    0.000    0.000    0.000    0.000    0.000    0.000 
#
# Total GULP energy -173595.746622 kJ/mol
# GULP energy per Si atom -12399.696187 kJ/mol
# Density = 1.849009 g / cm^3
# Si number density = 18.532273 Si / 1000 Ang^3
#
#
#
# Elastic Constant Matrix: (Units=GPa)
#
#
# Indices 1 2 3 4 5 6 
#
# 1 110.2250 19.4524 41.0267 0.1710 8.6660 4.6192
# 2 19.4524 72.4311 22.5026 4.7143 -6.7598 -1.5250
# 3 41.0267 22.5026 116.7079 10.9513 -6.1027 6.9911
# 4 0.1710 4.7143 10.9513 35.6342 2.1825 -5.2159
# 5 8.6660 -6.7598 -6.1027 2.1825 33.5375 -3.7760
# 6 4.6192 -1.5250 6.9911 -5.2159 -3.7760 36.6737
#
#
#
# Elastic Compliance Matrix: (Units=1/GPa)
#
#
# Indices 1 2 3 4 5 6 
#
# 1 0.011292 -0.002369 -0.003822 0.001549 -0.004306 -0.001015
# 2 -0.002369 0.015505 -0.001918 -0.001458 0.003650 0.001477
# 3 -0.003822 -0.001918 0.010860 -0.003502 0.002591 -0.001900
# 4 0.001549 -0.001458 -0.003502 0.030142 -0.002796 0.004411
# 5 -0.004306 0.003650 0.002591 -0.002796 0.032676 0.003167
# 6 -0.001015 0.001477 -0.001900 0.004411 0.003167 0.028772
#
#
# Mechanical properties :
#
#
# Convention : Reuss Voigt Hill
#
# Bulk Modulus (GPa) = 46.64538 51.70306 49.17422
# Shear Modulus (GPa) = 32.76322 35.59457 34.17890
#
# Velocity S-wave (km/s) = 4.20920 4.38731 4.29918
# Velocity P-wave (km/s) = 6.98911 7.32285 7.15793
#
# Compressibility (1/GPa) = 0.02143835
#
# Stress axis : x y z
#
# Youngs Moduli (GPa) = 88.55935 64.49613 92.08312
#
# Poissons Ratio (x) = 0.15280 0.35198
# Poissons Ratio (y) = 0.20981 0.17657
# Poissons Ratio (z) = 0.33851 0.12367
#
# Static dielectric constant tensor:
#      x y z
#    x 5.298810 1.713860 -1.470920 
#    y 1.713860 5.215810 -1.305050 
#    z -1.470920 -1.305050 4.581040 
# 
# 
# High freq. dielectric constant tensor:
#      x y z
#    x 1.716170 -0.003850 -0.005810 
#    y -0.003850 1.722930 0.003410 
#    z -0.005810 0.003410 1.722260 
# 
# From -- ./inp_files/195399.got.cif
#   From: 2010.06.25/outbox.cif.g09.slc.cpg/sg2_98_cif.got.tgz:195399.got - 2010.06.27 13:26:56.
