data_PCOD8008479
_publ_section_title
;
Structure prediction by ZEFSAII (Michael W. Deem and Ramdas Pophale) SiO2 
 PCOD8008479
Probable space group: P -1
;
_chemical_formula_sum "Si O2"
_cell_formula_units_Z 16
_cell_length_a 18.656200
_cell_length_b 7.401767
_cell_length_c 18.390895
_cell_angle_alpha 129.036110
_cell_angle_beta 23.659866
_cell_angle_gamma 131.733063
_cell_volume 758.828491
_symmetry_space_group_name_H-M "P -1"
_symmetry_group_IT_number 2
_symmetry_cell_setting 'triclinic'
loop_
_space_group_symop_operation_xyz
x,y,z
-x,-y,-z
loop_
_atom_site_type_symbol
_atom_site_label
_atom_site_fract_x
_atom_site_fract_y
_atom_site_fract_z
Si Si1 0.133516 0.499736 0.808746
Si Si2 0.616385 0.124611 0.240557
Si Si3 0.806890 0.009149 0.401187
Si Si4 0.818515 0.715721 0.933618
Si Si5 0.206719 0.622767 0.996665
Si Si6 0.344017 0.708684 0.119635
Si Si7 0.071558 0.786608 0.502932
Si Si8 0.733683 0.966050 0.849916
O O1 0.314305 0.731406 0.711452
O O2 0.204571 0.264304 0.677415
O O3 0.008780 0.512953 0.857580
O O4 0.000000 0.500000 0.000000
O O5 0.401770 0.969270 0.409439
O O6 0.653990 0.323458 0.189318
O O7 0.739746 0.944288 0.065588
O O8 0.870164 0.076821 0.441526
O O9 0.955113 0.191044 0.256048
O O10 0.742472 0.551278 0.033864
O O11 0.753565 0.573211 0.881025
O O12 0.219242 0.893142 0.081981
O O13 0.250947 0.841022 0.299286
O O14 0.328203 0.846882 0.095944
O O15 0.553124 0.730135 0.958953
O O16 0.000000 0.500000 0.500000
O O17 0.911314 0.883130 0.638294
#
# Coordination Sequence:
#
# PCOD8008479 Si02
#       8
#     2   2   2   2   2   2   2   2
#     4  10  20  43  70  88 124 171 203 261 326 368
#     4  11  24  43  66  93 127 165 211 264 314 374
#     4  12  23  43  64  94 128 165 211 261 314 376
#     4  11  23  42  64  96 130 162 214 257 312 368
#     4  10  21  43  67  90 127 172 202 262 317 370
#     4  10  23  38  61  90 123 167 203 253 302 371
#     4  12  23  35  60  91 121 161 202 247 310 360
#     4  10  21  41  59  86 127 161 208 250 306 368
#
# _framework density 21.085134
#
# number of rings (size 3 to 8) (size 9 to 14) (size 15 to 20)
#    0.000    1.250    5.000    1.500    1.750    1.000 
#    2.250    0.625    0.000    0.000    0.000    0.000 
#    0.000    0.000    0.000    0.000    0.000    0.000 
#
# Total GULP energy -198275.634061 kJ/mol
# GULP energy per Si atom -12392.227129 kJ/mol
# Density = 2.103714 g / cm^3
# Si number density = 21.085134 Si / 1000 Ang^3
#
#
#
# Elastic Constant Matrix: (Units=GPa)
#
#
# Indices 1 2 3 4 5 6 
#
# 1 69.8647 40.2433 25.3642 -1.6822 -3.5673 19.2718
# 2 40.2433 116.1667 46.2560 -2.6639 -2.7890 29.9902
# 3 25.3642 46.2560 86.2045 -15.5261 -1.1016 13.2345
# 4 -1.6822 -2.6639 -15.5261 39.0893 10.1882 0.9605
# 5 -3.5673 -2.7890 -1.1016 10.1882 22.3566 -3.6735
# 6 19.2718 29.9902 13.2345 0.9605 -3.6735 31.1855
#
#
#
# Elastic Compliance Matrix: (Units=1/GPa)
#
#
# Indices 1 2 3 4 5 6 
#
# 1 0.019513 -0.003853 -0.002722 -0.000778 0.001707 -0.006973
# 2 -0.003853 0.014438 -0.005397 -0.001073 -0.000101 -0.009192
# 3 -0.002722 -0.005397 0.016661 0.007109 -0.003666 -0.000849
# 4 -0.000778 -0.001073 0.007109 0.032417 -0.015389 -0.004315
# 5 0.001707 -0.000101 -0.003666 -0.015389 0.053024 0.007317
# 6 -0.006973 -0.009192 -0.000849 -0.004315 0.007317 0.046571
#
#
# Mechanical properties :
#
#
# Convention : Reuss Voigt Hill
#
# Bulk Modulus (GPa) = 37.49652 55.10698 46.30175
# Shear Modulus (GPa) = 23.20663 29.21778 26.21220
#
# Velocity S-wave (km/s) = 3.32115 3.72654 3.52967
# Velocity P-wave (km/s) = 5.70340 6.68643 6.21438
#
# Compressibility (1/GPa) = 0.02666914
#
# Stress axis : x y z
#
# Youngs Moduli (GPa) = 51.24896 69.26127 60.02021
#
# Poissons Ratio (x) = 0.26683 0.16336
# Poissons Ratio (y) = 0.19744 0.32393
# Poissons Ratio (z) = 0.13948 0.37381
#
# Static dielectric constant tensor:
#      x y z
#    x 4.356550 0.748500 0.571480 
#    y 0.748500 4.227310 0.153070 
#    z 0.571480 0.153070 4.344030 
# 
# 
# High freq. dielectric constant tensor:
#      x y z
#    x 1.818670 0.026530 -0.002870 
#    y 0.026530 1.833310 0.002120 
#    z -0.002870 0.002120 1.821320 
# 
# From -- ./inp_files/272273.got.cif
#   From: 2010.06.25/outbox.cif.g09.slc.cpg/sg2_137_cif.got.tgz:272273.got - 2010.06.27 13:26:56.
