data_PCOD8008292
_publ_section_title
;
Structure prediction by ZEFSAII (Michael W. Deem and Ramdas Pophale) SiO2 
 PCOD8008292
Probable space group: P -1
;
_chemical_formula_sum "Si O2"
_cell_formula_units_Z 14
_cell_length_a 11.041832
_cell_length_b 11.513750
_cell_length_c 12.981693
_cell_angle_alpha 111.577074
_cell_angle_beta 157.483572
_cell_angle_gamma 71.282889
_cell_volume 586.906929
_symmetry_space_group_name_H-M "P -1"
_symmetry_group_IT_number 2
_symmetry_cell_setting 'triclinic'
loop_
_space_group_symop_operation_xyz
x,y,z
-x,-y,-z
loop_
_atom_site_type_symbol
_atom_site_label
_atom_site_fract_x
_atom_site_fract_y
_atom_site_fract_z
Si Si1 0.272506 0.587245 0.790103
Si Si2 0.426471 0.615776 0.549824
Si Si3 0.319211 0.885949 0.241267
Si Si4 0.989556 0.816941 0.746564
Si Si5 0.635558 0.877491 0.757368
Si Si6 0.758786 0.683722 0.040811
Si Si7 0.709175 0.960945 0.056624
O O1 0.468434 0.667345 0.885342
O O2 0.000000 0.500000 0.500000
O O3 0.108124 0.683253 0.766154
O O4 0.500000 0.500000 0.000000
O O5 0.500000 0.500000 0.500000
O O6 0.487492 0.740620 0.569563
O O7 0.651290 0.623662 0.827951
O O8 0.056771 0.608407 0.289679
O O9 0.611737 0.800355 0.467313
O O10 0.437884 0.035062 0.371983
O O11 0.184228 0.858293 0.012491
O O12 0.018799 0.869453 0.075737
O O13 0.040414 0.922654 0.731468
O O14 0.503596 0.929957 0.779993
O O15 0.868478 0.831188 0.168438
O O16 0.500000 0.000000 0.000000
#
# Coordination Sequence:
#
# PCOD8008292 Si02
#       7
#     2   2   2   2   2   2   2
#     4  12  26  44  64  94 133 174 224 269 327 398
#     4  11  24  42  67  95 132 174 223 265 332 392
#     4  10  22  40  66  94 137 165 217 273 325 394
#     4  11  23  42  67  98 126 179 218 266 337 385
#     4   9  22  40  63 102 133 173 215 273 330 389
#     4  11  24  45  67  98 131 171 220 286 323 388
#     4  10  20  42  70  98 130 169 218 277 329 387
#
# _framework density 23.853866
#
# number of rings (size 3 to 8) (size 9 to 14) (size 15 to 20)
#    0.000    1.429    1.429    3.000    0.000   10.857 
#    0.000    2.857    0.000    0.000    0.000    0.000 
#    0.000    0.000    0.000    0.000    0.000    0.000 
#
# Total GULP energy -173582.820458 kJ/mol
# GULP energy per Si atom -12398.772890 kJ/mol
# Density = 2.379957 g / cm^3
# Si number density = 23.853866 Si / 1000 Ang^3
#
#
#
# Elastic Constant Matrix: (Units=GPa)
#
#
# Indices 1 2 3 4 5 6 
#
# 1 90.5250 37.0324 5.7590 -0.6230 6.1626 -16.7285
# 2 37.0324 134.3697 39.5734 -10.4157 0.9369 -21.8939
# 3 5.7590 39.5734 108.2297 -14.1860 6.3933 -10.7727
# 4 -0.6230 -10.4157 -14.1860 35.6621 -0.8361 8.2079
# 5 6.1626 0.9369 6.3933 -0.8361 24.1488 -6.1006
# 6 -16.7285 -21.8939 -10.7727 8.2079 -6.1006 41.6050
#
#
#
# Elastic Compliance Matrix: (Units=1/GPa)
#
#
# Indices 1 2 3 4 5 6 
#
# 1 0.013219 -0.003394 0.000882 -0.001307 -0.002602 0.003633
# 2 -0.003394 0.009866 -0.003120 0.000905 0.002138 0.003154
# 3 0.000882 -0.003120 0.010978 0.003291 -0.002770 0.000500
# 4 -0.001307 0.000905 0.003291 0.030815 -0.000871 -0.005404
# 5 -0.002602 0.002138 -0.002770 -0.000871 0.044214 0.006016
# 6 0.003633 0.003154 0.000500 -0.005404 0.006016 0.029234
#
#
# Mechanical properties :
#
#
# Convention : Reuss Voigt Hill
#
# Bulk Modulus (GPa) = 43.86461 55.31710 49.59086
# Shear Modulus (GPa) = 31.80861 37.00049 34.40455
#
# Velocity S-wave (km/s) = 3.65564 3.94271 3.80189
# Velocity P-wave (km/s) = 6.02056 6.63076 6.33301
#
# Compressibility (1/GPa) = 0.02279742
#
# Stress axis : x y z
#
# Youngs Moduli (GPa) = 75.65114 101.36178 91.08785
#
# Poissons Ratio (x) = 0.34401 -0.08031
# Poissons Ratio (y) = 0.25675 0.28423
# Poissons Ratio (z) = -0.06670 0.31629
#
# Static dielectric constant tensor:
#      x y z
#    x 4.212230 -0.562600 0.231930 
#    y -0.562600 3.134060 0.301880 
#    z 0.231930 0.301880 4.224950 
# 
# 
# High freq. dielectric constant tensor:
#      x y z
#    x 1.956760 -0.007680 0.001570 
#    y -0.007680 1.945180 0.003030 
#    z 0.001570 0.003030 1.947970 
# 
# From -- ./inp_files/71532.got.cif
#   From: 2010.06.25/outbox.cif.g09.slc.cpg/sg2_36_cif.got.tgz:71532.got - 2010.06.27 13:26:56.
