data_PCOD8008186
_publ_section_title
;
Structure prediction by ZEFSAII (Michael W. Deem and Ramdas Pophale) SiO2 
 PCOD8008186
Probable space group: P -1
;
_chemical_formula_sum "Si O2"
_cell_formula_units_Z 16
_cell_length_a 21.136019
_cell_length_b 14.306648
_cell_length_c 9.660784
_cell_angle_alpha 48.537562
_cell_angle_beta 49.026709
_cell_angle_gamma 19.731442
_cell_volume 732.986614
_symmetry_space_group_name_H-M "P -1"
_symmetry_group_IT_number 2
_symmetry_cell_setting 'triclinic'
loop_
_space_group_symop_operation_xyz
x,y,z
-x,-y,-z
loop_
_atom_site_type_symbol
_atom_site_label
_atom_site_fract_x
_atom_site_fract_y
_atom_site_fract_z
Si Si1 0.458805 0.040446 0.733808
Si Si2 0.516515 0.775547 0.668550
Si Si3 0.149049 0.445755 0.210938
Si Si4 0.560329 0.276320 0.626278
Si Si5 0.177817 0.261157 0.085549
Si Si6 0.193899 0.657787 0.890340
Si Si7 0.240293 0.990458 0.687514
Si Si8 0.787693 0.254756 0.935856
O O1 0.472201 0.904643 0.747390
O O2 0.656900 0.826196 0.718564
O O3 0.380344 0.265273 0.543659
O O4 0.321385 0.179817 0.916006
O O5 0.323415 0.972977 0.698998
O O6 0.654616 0.473731 0.787090
O O7 0.112755 0.384629 0.212148
O O8 0.147776 0.577174 0.000494
O O9 0.978052 0.676877 0.340987
O O10 0.500000 0.500000 0.500000
O O11 0.359116 0.475253 0.727520
O O12 0.652689 0.128079 0.491832
O O13 0.706735 0.026075 0.780196
O O14 0.000000 0.500000 0.000000
O O15 0.259353 0.588962 0.022998
O O16 0.999415 0.995729 0.827117
O O17 0.256081 0.826662 0.873591
#
# Coordination Sequence:
#
# PCOD8008186 Si02
#       8
#     2   2   2   2   2   2   2   2
#     4  11  24  41  69  97 132 183 220 283 334 405
#     4  11  23  40  65 100 139 168 230 279 338 393
#     4  11  23  45  73  94 135 180 231 265 340 407
#     4  12  25  44  71  99 140 178 227 276 344 406
#     4  12  27  46  70 101 141 174 225 288 343 395
#     4  10  21  40  68  95 125 182 227 269 329 409
#     4  11  25  41  70 103 133 182 224 281 336 405
#     4  10  20  42  67  93 137 178 224 274 338 400
#
# _framework density 21.828503000000001
#
# number of rings (size 3 to 8) (size 9 to 14) (size 15 to 20)
#    0.000    1.000    3.750    2.250    1.750    5.000 
#    4.500    0.625    0.000    0.000    0.000    0.000 
#    0.000    0.000    0.000    0.000    0.000    0.000 
#
# Total GULP energy -198275.427292 kJ/mol
# GULP energy per Si atom -12392.214206 kJ/mol
# Density = 2.177882 g / cm^3
# Si number density = 21.828503 Si / 1000 Ang^3
#
#
#
# Elastic Constant Matrix: (Units=GPa)
#
#
# Indices 1 2 3 4 5 6 
#
# 1 100.2670 39.0924 16.2061 -5.2543 6.2808 -5.3544
# 2 39.0924 134.2956 78.7746 10.8686 -1.3493 -9.8513
# 3 16.2061 78.7746 102.4733 1.6147 -3.1114 1.4431
# 4 -5.2543 10.8686 1.6147 47.2818 6.4638 -0.7059
# 5 6.2808 -1.3493 -3.1114 6.4638 24.2095 -0.1323
# 6 -5.3544 -9.8513 1.4431 -0.7059 -0.1323 32.1699
#
#
#
# Elastic Compliance Matrix: (Units=1/GPa)
#
#
# Indices 1 2 3 4 5 6 
#
# 1 0.011942 -0.004546 0.001434 0.002869 -0.003930 0.000578
# 2 -0.004546 0.016407 -0.011846 -0.004031 0.001673 0.004717
# 3 0.001434 -0.011846 0.018689 0.002073 0.000793 -0.004179
# 4 0.002869 -0.004031 0.002073 0.023264 -0.006916 -0.000368
# 5 -0.003930 0.001673 0.000793 -0.006916 0.044367 -0.000147
# 6 0.000578 0.004717 -0.004179 -0.000368 -0.000147 0.032805
#
#
# Mechanical properties :
#
#
# Convention : Reuss Voigt Hill
#
# Bulk Modulus (GPa) = 58.41046 67.24243 62.82644
# Shear Modulus (GPa) = 27.30798 34.26310 30.78554
#
# Velocity S-wave (km/s) = 3.54082 3.96618 3.75952
# Velocity P-wave (km/s) = 6.59799 7.20041 6.90577
#
# Compressibility (1/GPa) = 0.01712022
#
# Stress axis : x y z
#
# Youngs Moduli (GPa) = 83.74094 60.94861 53.50882
#
# Poissons Ratio (x) = 0.27710 -0.07672
# Poissons Ratio (y) = 0.38072 0.63386
# Poissons Ratio (z) = -0.12006 0.72199
#
# Static dielectric constant tensor:
#      x y z
#    x 3.836800 0.066870 -0.126750 
#    y 0.066870 4.284040 0.020890 
#    z -0.126750 0.020890 4.096700 
# 
# 
# High freq. dielectric constant tensor:
#      x y z
#    x 1.848800 0.005500 -0.016410 
#    y 0.005500 1.867120 -0.002320 
#    z -0.016410 -0.002320 1.862200 
# 
# From -- ./inp_files/347508.got.cif
#   From: 2010.06.25/outbox.cif.g09.slc.cpg/sg2_174_cif.got.tgz:347508.got - 2010.06.27 13:26:56.
