data_PCOD8008970
_publ_section_title
;
Structure prediction by ZEFSAII (Michael W. Deem and Ramdas Pophale) SiO2 
 PCOD8008970
Probable space group: P -1
;
_chemical_formula_sum "Si O2"
_cell_formula_units_Z 16
_cell_length_a 11.467119
_cell_length_b 9.988488
_cell_length_c 10.267979
_cell_angle_alpha 69.827232
_cell_angle_beta 54.294836
_cell_angle_gamma 55.754253
_cell_volume 789.211661
_symmetry_space_group_name_H-M "P -1"
_symmetry_group_IT_number 2
_symmetry_cell_setting 'triclinic'
loop_
_space_group_symop_operation_xyz
x,y,z
-x,-y,-z
loop_
_atom_site_type_symbol
_atom_site_label
_atom_site_fract_x
_atom_site_fract_y
_atom_site_fract_z
Si Si1 0.670895 0.817673 0.313217
Si Si2 0.876210 0.960942 0.007155
Si Si3 0.194552 0.547392 0.593992
Si Si4 0.824854 0.209707 0.268499
Si Si5 0.311637 0.030607 0.487831
Si Si6 0.314571 0.496249 0.242318
Si Si7 0.309132 0.693311 0.953365
Si Si8 0.107637 0.349387 0.383603
O O1 0.714867 0.630030 0.342734
O O2 0.662692 0.863347 0.453816
O O3 0.487861 0.926033 0.336143
O O4 0.815473 0.837696 0.142832
O O5 0.976039 0.889968 0.831222
O O6 0.713199 0.132245 0.043992
O O7 0.000000 0.000000 0.000000
O O8 0.236339 0.662805 0.617470
O O9 0.247122 0.561191 0.408100
O O10 0.998008 0.615146 0.691764
O O11 0.776189 0.301928 0.130205
O O12 0.744202 0.092748 0.373196
O O13 0.164277 0.163094 0.451544
O O14 0.504723 0.431717 0.146399
O O15 0.276690 0.355936 0.258672
O O16 0.232447 0.638114 0.140382
O O17 0.000000 0.500000 0.500000
#
# Coordination Sequence:
#
# PCOD8008970 Si02
#       8
#     2   2   2   2   2   2   2   2
#     4  11  21  38  65  92 122 167 218 257 300 375
#     4  10  21  35  61  89 124 161 206 256 304 368
#     4  11  25  40  65  95 129 162 207 263 319 369
#     4  11  25  40  65  95 129 162 207 263 319 369
#     4  11  21  38  65  92 122 167 218 257 300 375
#     4  10  21  38  63  90 123 164 209 255 307 373
#     4  10  21  38  63  90 123 164 209 255 307 373
#     4  10  21  35  61  89 124 161 206 256 304 368
#
# _framework density 20.273395000000001
#
# number of rings (size 3 to 8) (size 9 to 14) (size 15 to 20)
#    0.000    1.500    5.000    1.500    7.000    3.000 
#    0.000    0.000    0.000    1.500    0.000    0.000 
#    0.000    0.000    0.000    0.000    0.000    0.000 
#
# Total GULP energy -198209.955602 kJ/mol
# GULP energy per Si atom -12388.122225 kJ/mol
# Density = 2.022725 g / cm^3
# Si number density = 20.273395 Si / 1000 Ang^3
#
#
#
# Elastic Constant Matrix: (Units=GPa)
#
#
# Indices 1 2 3 4 5 6 
#
# 1 59.9119 43.3580 27.5816 4.9486 1.8495 -9.1705
# 2 43.3580 113.6667 35.1734 -4.3320 13.3759 -5.8329
# 3 27.5816 35.1734 99.7562 -6.5427 -4.6341 2.9813
# 4 4.9486 -4.3320 -6.5427 27.3325 -4.8924 -0.9408
# 5 1.8495 13.3759 -4.6341 -4.8924 23.6804 2.2903
# 6 -9.1705 -5.8329 2.9813 -0.9408 2.2903 28.4154
#
#
#
# Elastic Compliance Matrix: (Units=1/GPa)
#
#
# Indices 1 2 3 4 5 6 
#
# 1 0.026990 -0.008538 -0.005174 -0.007320 -0.000516 0.007300
# 2 -0.008538 0.013928 -0.002813 0.001776 -0.007487 0.001061
# 3 -0.005174 -0.002813 0.013137 0.004553 0.005887 -0.003949
# 4 -0.007320 0.001776 0.004553 0.040844 0.009077 -0.001855
# 5 -0.000516 -0.007487 0.005887 0.009077 0.050111 -0.006060
# 6 0.007300 0.001061 -0.003949 -0.001855 -0.006060 0.038607
#
#
# Mechanical properties :
#
#
# Convention : Reuss Voigt Hill
#
# Bulk Modulus (GPa) = 47.60902 53.95121 50.78011
# Shear Modulus (GPa) = 22.35434 27.03379 24.69406
#
# Velocity S-wave (km/s) = 3.32421 3.65562 3.49385
# Velocity P-wave (km/s) = 6.18614 6.66991 6.43257
#
# Compressibility (1/GPa) = 0.02100442
#
# Stress axis : x y z
#
# Youngs Moduli (GPa) = 37.05091 71.79757 76.11969
#
# Poissons Ratio (x) = 0.61298 0.39387
# Poissons Ratio (y) = 0.31633 0.21415
# Poissons Ratio (z) = 0.19171 0.20199
#
# Static dielectric constant tensor:
#      x y z
#    x 3.730390 -0.246170 -0.319810 
#    y -0.246170 4.017350 -0.015520 
#    z -0.319810 -0.015520 3.808100 
# 
# 
# High freq. dielectric constant tensor:
#      x y z
#    x 1.769930 -0.019010 -0.025920 
#    y -0.019010 1.798980 -0.006180 
#    z -0.025920 -0.006180 1.781420 
# 
# From -- ./inp_files/419296.got.cif
#   From: 2010.06.25/outbox.cif.g09.slc.cpg/sg2_210_cif.got.tgz:419296.got - 2010.06.27 13:26:56.
