data_PCOD8008004
_publ_section_title
;
Structure prediction by ZEFSAII (Michael W. Deem and Ramdas Pophale) SiO2 
 PCOD8008004
Probable space group: P -1
;
_chemical_formula_sum "Si O2"
_cell_formula_units_Z 16
_cell_length_a 12.316550
_cell_length_b 17.091160
_cell_length_c 6.895396
_cell_angle_alpha 49.785499
_cell_angle_beta 61.173999
_cell_angle_gamma 45.554706
_cell_volume 790.119512
_symmetry_space_group_name_H-M "P -1"
_symmetry_group_IT_number 2
_symmetry_cell_setting 'triclinic'
loop_
_space_group_symop_operation_xyz
x,y,z
-x,-y,-z
loop_
_atom_site_type_symbol
_atom_site_label
_atom_site_fract_x
_atom_site_fract_y
_atom_site_fract_z
Si Si1 0.837292 0.752100 0.694786
Si Si2 0.329082 0.544273 0.045629
Si Si3 0.827038 0.240505 0.901523
Si Si4 0.179451 0.639975 0.649490
Si Si5 0.364952 0.857188 0.780789
Si Si6 0.351783 0.033095 0.187156
Si Si7 0.684787 0.622312 0.950597
Si Si8 0.172787 0.077583 0.888626
O O1 0.716257 0.844268 0.815884
O O2 0.815365 0.644136 0.830344
O O3 0.813499 0.822794 0.399298
O O4 0.003744 0.690401 0.737522
O O5 0.246758 0.649927 0.777193
O O6 0.500000 0.500000 0.000000
O O7 0.224367 0.623047 0.192518
O O8 0.317807 0.428463 0.183787
O O9 0.804881 0.269641 0.645787
O O10 0.998521 0.127129 0.984162
O O11 0.715863 0.205775 0.130798
O O12 0.279318 0.488757 0.752698
O O13 0.523156 0.753613 0.914716
O O14 0.391913 0.919672 0.476701
O O15 0.260030 0.951112 0.891103
O O16 0.233076 0.056321 0.088779
O O17 0.500000 0.000000 0.000000
#
# Coordination Sequence:
#
# PCOD8008004 Si02
#       8
#     2   2   2   2   2   2   2   2
#     4  10  20  42  63  89 127 152 205 255 297 360
#     4  10  21  38  57  88 127 158 201 245 290 358
#     4  11  21  42  62  89 124 160 204 247 303 360
#     4   9  22  38  62  91 122 163 195 248 303 355
#     4  11  23  39  61  89 124 158 202 253 300 360
#     4  11  23  40  62  89 118 161 204 251 309 355
#     4  10  21  39  61  88 124 163 194 250 301 355
#     4  10  23  40  63  91 118 161 203 255 301 355
#
# _framework density 20.250101999999998
#
# number of rings (size 3 to 8) (size 9 to 14) (size 15 to 20)
#    0.750    1.000    1.250    3.000    0.000    5.500 
#    6.750    1.250    0.000    0.000    0.000    0.000 
#    0.000    0.000    0.000    0.000    0.000    0.000 
#
# Total GULP energy -198249.663238 kJ/mol
# GULP energy per Si atom -12390.603952 kJ/mol
# Density = 2.020401 g / cm^3
# Si number density = 20.250102 Si / 1000 Ang^3
#
#
#
# Elastic Constant Matrix: (Units=GPa)
#
#
# Indices 1 2 3 4 5 6 
#
# 1 110.5417 30.7130 40.7695 -0.2092 0.2870 -5.2656
# 2 30.7130 97.2475 25.3590 -1.3131 -4.4914 -12.0476
# 3 40.7695 25.3590 67.8070 -3.9253 -9.9769 -11.2231
# 4 -0.2092 -1.3131 -3.9253 29.9251 -1.7203 2.2533
# 5 0.2870 -4.4914 -9.9769 -1.7203 28.7660 -5.6216
# 6 -5.2656 -12.0476 -11.2231 2.2533 -5.6216 39.8197
#
#
#
# Elastic Compliance Matrix: (Units=1/GPa)
#
#
# Indices 1 2 3 4 5 6 
#
# 1 0.012349 -0.002345 -0.007373 -0.001062 -0.003418 -0.001577
# 2 -0.002345 0.012081 -0.002379 0.000078 0.001657 0.002904
# 3 -0.007373 -0.002379 0.022476 0.002867 0.008786 0.005718
# 4 -0.001062 0.000078 0.002867 0.034017 0.002890 -0.000826
# 5 -0.003418 0.001657 0.008786 0.002890 0.039837 0.007986
# 6 -0.001577 0.002904 0.005718 -0.000826 0.007986 0.028569
#
#
# Mechanical properties :
#
#
# Convention : Reuss Voigt Hill
#
# Bulk Modulus (GPa) = 44.03158 52.14213 48.08686
# Shear Modulus (GPa) = 27.60968 31.61914 29.61441
#
# Velocity S-wave (km/s) = 3.69648 3.95578 3.82833
# Velocity P-wave (km/s) = 6.32532 6.83149 6.58327
#
# Compressibility (1/GPa) = 0.02271097
#
# Stress axis : x y z
#
# Youngs Moduli (GPa) = 80.97780 82.77146 44.49155
#
# Poissons Ratio (x) = 0.19410 0.32806
# Poissons Ratio (y) = 0.18989 0.10586
# Poissons Ratio (z) = 0.59709 0.19695
#
# Static dielectric constant tensor:
#      x y z
#    x 3.694330 -0.049580 0.139940 
#    y -0.049580 3.768180 -0.106210 
#    z 0.139940 -0.106210 3.459250 
# 
# 
# High freq. dielectric constant tensor:
#      x y z
#    x 1.801230 -0.008860 0.008760 
#    y -0.008860 1.799790 -0.008410 
#    z 0.008760 -0.008410 1.770590 
# 
# From -- ./inp_files/81097.got.cif
#   From: 2010.06.25/outbox.cif.g09.slc.cpg/sg2_41_cif.got.tgz:81097.got - 2010.06.27 13:26:56.
