data_PCOD8008808
_publ_section_title
;
Structure prediction by ZEFSAII (Michael W. Deem and Ramdas Pophale) SiO2 
 PCOD8008808
Probable space group: P -1
;
_chemical_formula_sum "Si O2"
_cell_formula_units_Z 16
_cell_length_a 9.623650
_cell_length_b 18.893855
_cell_length_c 11.449759
_cell_angle_alpha 131.830758
_cell_angle_beta 36.826532
_cell_angle_gamma 142.894868
_cell_volume 750.464800
_symmetry_space_group_name_H-M "P -1"
_symmetry_group_IT_number 2
_symmetry_cell_setting 'triclinic'
loop_
_space_group_symop_operation_xyz
x,y,z
-x,-y,-z
loop_
_atom_site_type_symbol
_atom_site_label
_atom_site_fract_x
_atom_site_fract_y
_atom_site_fract_z
Si Si1 0.579219 0.108952 0.990638
Si Si2 0.321500 0.097928 0.925171
Si Si3 0.911547 0.631756 0.726599
Si Si4 0.446021 0.254694 0.369181
Si Si5 0.536812 0.818635 0.474556
Si Si6 0.095904 0.502707 0.620664
Si Si7 0.495710 0.301301 0.872873
Si Si8 0.183601 0.910985 0.408110
O O1 0.642065 0.212915 0.147544
O O2 0.326085 0.085247 0.048123
O O3 0.835987 0.135482 0.763168
O O4 0.500000 0.000000 0.000000
O O5 0.404344 0.222933 0.964417
O O6 0.562537 0.085071 0.689967
O O7 0.000000 0.000000 0.000000
O O8 0.798194 0.554826 0.599864
O O9 0.198121 0.762789 0.649187
O O10 0.981244 0.566281 0.698725
O O11 0.667280 0.638340 0.951908
O O12 0.384722 0.228099 0.519189
O O13 0.628294 0.395115 0.376967
O O14 0.138391 0.183991 0.430584
O O15 0.595919 0.775659 0.268196
O O16 0.738168 0.959438 0.498402
O O17 0.837148 0.401533 0.763161
#
# Coordination Sequence:
#
# PCOD8008808 Si02
#       8
#     2   2   2   2   2   2   2   2
#     4  10  23  42  64  92 131 165 208 255 311 378
#     4  10  24  43  62  94 128 167 211 256 319 378
#     4   9  19  38  60  92 126 158 216 263 309 361
#     4  11  21  39  62  91 127 163 214 256 312 375
#     4  10  21  34  62  98 122 159 209 263 310 373
#     4   9  21  38  60  92 121 166 216 259 302 378
#     4  11  22  39  63  91 127 165 211 262 321 362
#     4  10  23  38  58  93 125 163 201 256 318 375
#
# _framework density 21.320122000000001
#
# number of rings (size 3 to 8) (size 9 to 14) (size 15 to 20)
#    0.750    1.250    1.250    2.250    1.750    3.500 
#    4.500    1.250    0.000    0.000    0.000    0.000 
#    0.000    0.000    0.000    0.000    0.000    0.000 
#
# Total GULP energy -198216.847747 kJ/mol
# GULP energy per Si atom -12388.552984 kJ/mol
# Density = 2.127160 g / cm^3
# Si number density = 21.320122 Si / 1000 Ang^3
#
#
#
# Elastic Constant Matrix: (Units=GPa)
#
#
# Indices 1 2 3 4 5 6 
#
# 1 66.6945 34.3193 20.8196 -0.3805 2.2627 -0.2981
# 2 34.3193 152.4789 47.3046 -13.0723 -4.1990 27.5475
# 3 20.8196 47.3046 114.7204 7.5964 -1.8873 15.2599
# 4 -0.3805 -13.0723 7.5964 25.3906 4.0880 -0.4159
# 5 2.2627 -4.1990 -1.8873 4.0880 23.1679 -3.0869
# 6 -0.2981 27.5475 15.2599 -0.4159 -3.0869 31.9824
#
#
#
# Elastic Compliance Matrix: (Units=1/GPa)
#
#
# Indices 1 2 3 4 5 6 
#
# 1 0.017980 -0.004409 -0.002041 -0.001005 -0.001912 0.004741
# 2 -0.004409 0.010295 -0.002845 0.005960 0.000017 -0.007471
# 3 -0.002041 -0.002845 0.010977 -0.005001 0.001092 -0.002766
# 4 -0.001005 0.005960 -0.005001 0.045106 -0.007575 -0.002902
# 5 -0.001912 0.000017 0.001092 -0.007575 0.045274 0.003717
# 6 0.004741 -0.007471 -0.002766 -0.002902 0.003717 0.039387
#
#
# Mechanical properties :
#
#
# Convention : Reuss Voigt Hill
#
# Bulk Modulus (GPa) = 48.39822 59.86452 54.13137
# Shear Modulus (GPa) = 25.70733 31.53820 28.62277
#
# Velocity S-wave (km/s) = 3.47620 3.85030 3.66802
# Velocity P-wave (km/s) = 6.23393 6.92143 6.58666
#
# Compressibility (1/GPa) = 0.02066192
#
# Stress axis : x y z
#
# Youngs Moduli (GPa) = 55.61772 97.13746 91.09624
#
# Poissons Ratio (x) = 0.42829 0.18588
# Poissons Ratio (y) = 0.24523 0.25920
# Poissons Ratio (z) = 0.11349 0.27639
#
# Static dielectric constant tensor:
#      x y z
#    x 3.601690 0.137450 0.094540 
#    y 0.137450 4.076770 -0.056500 
#    z 0.094540 -0.056500 3.987390 
# 
# 
# High freq. dielectric constant tensor:
#      x y z
#    x 1.803450 0.008610 0.001050 
#    y 0.008610 1.836280 0.001510 
#    z 0.001050 0.001510 1.839920 
# 
# From -- ./inp_files/523786.got.cif
#   From: 2010.06.25/outbox.cif.g09.slc.cpg/sg2_262_cif.got.tgz:523786.got - 2010.06.27 13:26:56.
