data_PCOD8008296
_publ_section_title
;
Structure prediction by ZEFSAII (Michael W. Deem and Ramdas Pophale) SiO2 
 PCOD8008296
Probable space group: P -1
;
_chemical_formula_sum "Si O2"
_cell_formula_units_Z 10
_cell_length_a 6.612212
_cell_length_b 12.826914
_cell_length_c 5.195700
_cell_angle_alpha 57.752539
_cell_angle_beta 78.580264
_cell_angle_gamma 99.457922
_cell_volume 345.404904
_symmetry_space_group_name_H-M "P -1"
_symmetry_group_IT_number 2
_symmetry_cell_setting 'triclinic'
loop_
_space_group_symop_operation_xyz
x,y,z
-x,-y,-z
loop_
_atom_site_type_symbol
_atom_site_label
_atom_site_fract_x
_atom_site_fract_y
_atom_site_fract_z
Si Si1 0.247803 0.595720 0.266345
Si Si2 0.850080 0.783014 0.945338
Si Si3 0.073112 0.885078 0.242021
Si Si4 0.457047 0.883721 0.864660
Si Si5 0.245360 0.492463 0.901009
O O1 0.364766 0.598551 0.510523
O O2 0.000000 0.500000 0.500000
O O3 0.289957 0.745712 0.972247
O O4 0.360634 0.532212 0.098289
O O5 0.027272 0.861329 0.585742
O O6 0.681799 0.863265 0.916733
O O7 0.950192 0.768869 0.220659
O O8 0.741942 0.643434 0.027855
O O9 0.333404 0.916016 0.104376
O O10 0.000000 0.000000 0.000000
O O11 0.500000 0.000000 0.500000
O O12 0.000000 0.500000 0.000000
#
# Coordination Sequence:
#
# PCOD8008296 Si02
#       5
#     2   2   2   2   2
#     4  10  22  44  71 104 147 194 243 309 372 440
#     4  12  27  48  78 113 151 202 256 315 383 451
#     4  12  26  49  73 108 159 201 247 316 383 450
#     4  12  28  49  78 117 153 201 259 313 380 462
#     4  10  20  42  71 100 142 190 245 302 369 440
#
# _framework density 28.951530000000002
#
# number of rings (size 3 to 8) (size 9 to 14) (size 15 to 20)
#    0.000    0.800    2.000    6.600    0.000    5.600 
#    0.000    0.000    0.000    0.000    0.000    0.000 
#    0.000    0.000    0.000    0.000    0.000    0.000 
#
# Total GULP energy -123882.159301 kJ/mol
# GULP energy per Si atom -12388.215930 kJ/mol
# Density = 2.888563 g / cm^3
# Si number density = 28.951530 Si / 1000 Ang^3
#
#
#
# Elastic Constant Matrix: (Units=GPa)
#
#
# Indices 1 2 3 4 5 6 
#
# 1 104.0771 24.1855 27.0318 14.5858 -15.7803 -9.0801
# 2 24.1855 108.5798 61.2602 14.3968 -3.6585 -22.6890
# 3 27.0318 61.2602 164.8331 3.6386 -0.1119 -2.5793
# 4 14.5858 14.3968 3.6386 73.1452 0.1814 -4.2211
# 5 -15.7803 -3.6585 -0.1119 0.1814 44.8642 8.5134
# 6 -9.0801 -22.6890 -2.5793 -4.2211 8.5134 68.1712
#
#
#
# Elastic Compliance Matrix: (Units=1/GPa)
#
#
# Indices 1 2 3 4 5 6 
#
# 1 0.011108 -0.001280 -0.001295 -0.001884 0.003727 0.000423
# 2 -0.001280 0.013139 -0.004570 -0.001876 -0.000128 0.003929
# 3 -0.001295 -0.004570 0.007942 0.000690 -0.000568 -0.001279
# 4 -0.001884 -0.001876 0.000690 0.014393 -0.000901 0.000154
# 5 0.003727 -0.000128 -0.000568 -0.000901 0.024092 -0.002632
# 6 0.000423 0.003929 -0.001279 0.000154 -0.002632 0.016323
#
#
# Mechanical properties :
#
#
# Convention : Reuss Voigt Hill
#
# Bulk Modulus (GPa) = 55.87181 66.93830 61.40506
# Shear Modulus (GPa) = 46.61830 54.90364 50.76097
#
# Velocity S-wave (km/s) = 4.01711 4.35949 4.19180
# Velocity P-wave (km/s) = 6.39191 6.96500 6.68460
#
# Compressibility (1/GPa) = 0.01789811
#
# Stress axis : x y z
#
# Youngs Moduli (GPa) = 90.02513 76.10880 125.91103
#
# Poissons Ratio (x) = 0.09741 0.16309
# Poissons Ratio (y) = 0.11522 0.57547
# Poissons Ratio (z) = 0.11661 0.34785
#
# Static dielectric constant tensor:
#      x y z
#    x 11.706090 7.677970 9.053590 
#    y 7.677970 15.312880 11.431570 
#    z 9.053590 11.431570 19.337770 
# 
# 
# High freq. dielectric constant tensor:
#      x y z
#    x 2.182670 -0.011180 -0.010490 
#    y -0.011180 2.209070 0.012380 
#    z -0.010490 0.012380 2.182260 
# 
# From -- ./inp_files/21635.got.cif
#   From: 2010.06.25/outbox.cif.g09.slc.cpg/sg2_11_cif.got.tgz:21635.got - 2010.06.27 13:26:56.
