data_PCOD8008402
_publ_section_title
;
Structure prediction by ZEFSAII (Michael W. Deem and Ramdas Pophale) SiO2 
 PCOD8008402
Probable space group: P -1
;
_chemical_formula_sum "Si O2"
_cell_formula_units_Z 16
_cell_length_a 9.590859
_cell_length_b 11.744097
_cell_length_c 17.358438
_cell_angle_alpha 31.626725
_cell_angle_beta 49.424304
_cell_angle_gamma 52.002900
_cell_volume 769.314913
_symmetry_space_group_name_H-M "P -1"
_symmetry_group_IT_number 2
_symmetry_cell_setting 'triclinic'
loop_
_space_group_symop_operation_xyz
x,y,z
-x,-y,-z
loop_
_atom_site_type_symbol
_atom_site_label
_atom_site_fract_x
_atom_site_fract_y
_atom_site_fract_z
Si Si1 0.219725 0.833744 0.282018
Si Si2 0.127955 0.463980 0.636528
Si Si3 0.246056 0.720458 0.159062
Si Si4 0.434461 0.089230 0.794646
Si Si5 0.623084 0.753924 0.819930
Si Si6 0.060742 0.726764 0.823330
Si Si7 0.427857 0.580950 0.851563
Si Si8 0.021041 0.747285 0.651380
O O1 0.140988 0.624972 0.466696
O O2 0.222787 0.804723 0.206055
O O3 0.432458 0.838378 0.228456
O O4 0.086592 0.060796 0.222330
O O5 0.307911 0.285661 0.684124
O O6 0.947603 0.344049 0.763834
O O7 0.142972 0.605323 0.626634
O O8 0.401003 0.500055 0.221589
O O9 0.304980 0.917031 0.972719
O O10 0.567460 0.003241 0.724130
O O11 0.471923 0.704184 0.842310
O O12 0.817240 0.686404 0.747824
O O13 0.638928 0.635958 0.965899
O O14 0.262644 0.743696 0.776677
O O15 0.101941 0.701156 0.733224
O O16 0.000000 0.500000 0.000000
O O17 0.000000 0.000000 0.500000
#
# Coordination Sequence:
#
# PCOD8008402 Si02
#       8
#     2   2   2   2   2   2   2   2
#     4  12  26  46  64  99 141 171 216 280 331 394
#     4  12  26  45  67  97 136 180 215 269 341 392
#     4  11  25  44  67 100 134 169 224 276 326 393
#     4  11  24  43  71  98 126 180 225 265 326 397
#     4  10  20  43  66  94 131 162 220 272 320 386
#     4  12  24  41  69  99 128 174 226 273 328 384
#     4  10  22  40  68  96 127 169 214 277 324 379
#     4  12  23  44  66  93 132 173 220 272 324 395
#
# _framework density 20.797725
#
# number of rings (size 3 to 8) (size 9 to 14) (size 15 to 20)
#    0.000    0.750    5.000    2.250    5.250    0.000 
#    0.000    1.250    0.000    0.000    0.000    0.000 
#    0.000    0.000    0.000    0.000    0.000    0.000 
#
# Total GULP energy -198287.893708 kJ/mol
# GULP energy per Si atom -12392.993357 kJ/mol
# Density = 2.075039 g / cm^3
# Si number density = 20.797725 Si / 1000 Ang^3
#
#
#
# Elastic Constant Matrix: (Units=GPa)
#
#
# Indices 1 2 3 4 5 6 
#
# 1 108.1457 29.1896 32.2488 -15.1500 6.4300 -16.5758
# 2 29.1896 89.9047 8.0992 -8.3921 14.1437 1.5040
# 3 32.2488 8.0992 68.2323 -6.1542 7.7989 -0.9821
# 4 -15.1500 -8.3921 -6.1542 26.0443 -1.0508 3.9460
# 5 6.4300 14.1437 7.7989 -1.0508 33.1230 2.2332
# 6 -16.5758 1.5040 -0.9821 3.9460 2.2332 43.7595
#
#
#
# Elastic Compliance Matrix: (Units=1/GPa)
#
#
# Indices 1 2 3 4 5 6 
#
# 1 0.013088 -0.003422 -0.005303 0.004569 0.000008 0.004544
# 2 -0.003422 0.013206 0.000821 0.002516 -0.004973 -0.001705
# 3 -0.005303 0.000821 0.017548 0.001436 -0.003299 -0.001604
# 4 0.004569 0.002516 0.001436 0.042492 -0.000809 -0.002114
# 5 0.000008 -0.004973 -0.003299 -0.000809 0.033166 -0.001520
# 6 0.004544 -0.001705 -0.001604 -0.002114 -0.001520 0.024864
#
#
# Mechanical properties :
#
#
# Convention : Reuss Voigt Hill
#
# Bulk Modulus (GPa) = 35.67209 45.03975 40.35592
# Shear Modulus (GPa) = 29.49551 33.70169 31.59860
#
# Velocity S-wave (km/s) = 3.77000 4.02985 3.90209
# Velocity P-wave (km/s) = 6.01163 6.58453 6.30459
#
# Compressibility (1/GPa) = 0.02803312
#
# Stress axis : x y z
#
# Youngs Moduli (GPa) = 76.40651 75.72419 56.98570
#
# Poissons Ratio (x) = 0.25915 0.30219
# Poissons Ratio (y) = 0.26148 -0.04677
# Poissons Ratio (z) = 0.40518 -0.06215
#
# Static dielectric constant tensor:
#      x y z
#    x 3.829700 -0.075200 -0.113130 
#    y -0.075200 3.735360 0.029130 
#    z -0.113130 0.029130 3.885400 
# 
# 
# High freq. dielectric constant tensor:
#      x y z
#    x 1.825590 0.002480 -0.004600 
#    y 0.002480 1.826480 -0.000520 
#    z -0.004600 -0.000520 1.808000 
# 
# From -- ./inp_files/188474.got.cif
#   From: 2010.06.25/outbox.cif.g09.slc.cpg/sg2_95_cif.got.tgz:188474.got - 2010.06.27 13:26:56.
