data_PCOD8008093
_publ_section_title
;
Structure prediction by ZEFSAII (Michael W. Deem and Ramdas Pophale) SiO2 
 PCOD8008093
Probable space group: P -1
;
_chemical_formula_sum "Si O2"
_cell_formula_units_Z 16
_cell_length_a 8.687338
_cell_length_b 9.373559
_cell_length_c 26.813704
_cell_angle_alpha 45.250347
_cell_angle_beta 141.336782
_cell_angle_gamma 106.155322
_cell_volume 766.270680
_symmetry_space_group_name_H-M "P -1"
_symmetry_group_IT_number 2
_symmetry_cell_setting 'triclinic'
loop_
_space_group_symop_operation_xyz
x,y,z
-x,-y,-z
loop_
_atom_site_type_symbol
_atom_site_label
_atom_site_fract_x
_atom_site_fract_y
_atom_site_fract_z
Si Si1 0.391138 0.836029 0.028473
Si Si2 0.363582 0.585186 0.889129
Si Si3 0.309989 0.962278 0.714612
Si Si4 0.644612 0.253616 0.851408
Si Si5 0.400504 0.711859 0.540801
Si Si6 0.661083 0.174358 0.767555
Si Si7 0.351272 0.815133 0.654531
Si Si8 0.365249 0.081807 0.373363
O O1 0.491612 0.639246 0.058426
O O2 0.529104 0.733528 0.144923
O O3 0.500000 0.000000 0.000000
O O4 0.029707 0.973544 0.911075
O O5 0.425044 0.781417 0.836911
O O6 0.002274 0.713130 0.766131
O O7 0.500000 0.500000 0.000000
O O8 0.354462 0.795365 0.719596
O O9 0.510645 0.060143 0.730102
O O10 0.949342 0.196811 0.570098
O O11 0.501892 0.245057 0.765150
O O12 0.578028 0.524797 0.763733
O O13 0.000000 0.000000 0.000000
O O14 0.608006 0.409793 0.667332
O O15 0.466019 0.825109 0.575873
O O16 0.472468 0.807524 0.485954
O O17 0.517626 0.939943 0.647964
O O18 0.000000 0.000000 0.500000
#
# Coordination Sequence:
#
# PCOD8008093 Si02
#       8
#     2   2   2   2   2   2   2   2
#     4  11  25  42  64  93 127 174 226 261 322 403
#     4  11  26  43  64  95 133 174 214 273 332 393
#     4  11  24  41  66  97 132 167 218 274 335 394
#     4  10  23  42  63  95 132 179 222 268 330 396
#     4  10  20  42  65  96 126 173 211 270 337 397
#     4  11  23  41  66  95 133 170 212 278 334 390
#     4  12  22  41  69 101 126 175 232 274 322 402
#     4  10  22  39  70  90 130 168 221 267 332 383
#
# _framework density 20.880351000000001
#
# number of rings (size 3 to 8) (size 9 to 14) (size 15 to 20)
#    0.000    1.250    3.750    1.125    5.250    2.500 
#    0.000    0.625    0.000    0.000    0.000    0.000 
#    0.000    0.000    0.000    0.000    0.000    0.000 
#
# Total GULP energy -198236.799297 kJ/mol
# GULP energy per Si atom -12389.799956 kJ/mol
# Density = 2.083283 g / cm^3
# Si number density = 20.880351 Si / 1000 Ang^3
#
#
#
# Elastic Constant Matrix: (Units=GPa)
#
#
# Indices 1 2 3 4 5 6 
#
# 1 132.7494 39.4838 48.1946 -1.7400 -19.4790 1.9701
# 2 39.4838 86.4285 40.7304 -2.5089 -3.8533 7.5396
# 3 48.1946 40.7304 109.4087 -9.2451 -16.3015 -1.7464
# 4 -1.7400 -2.5089 -9.2451 27.5778 -3.8794 -0.5731
# 5 -19.4790 -3.8533 -16.3015 -3.8794 30.3064 2.8704
# 6 1.9701 7.5396 -1.7464 -0.5731 2.8704 45.5971
#
#
#
# Elastic Compliance Matrix: (Units=1/GPa)
#
#
# Indices 1 2 3 4 5 6 
#
# 1 0.010110 -0.003171 -0.002554 0.000158 0.004771 -0.000309
# 2 -0.003171 0.015361 -0.004810 -0.000824 -0.002547 -0.002437
# 3 -0.002554 -0.004810 0.013264 0.004626 0.005367 0.001134
# 4 0.000158 -0.000824 0.004626 0.038798 0.007421 0.000327
# 5 0.004771 -0.002547 0.005367 0.007421 0.039764 -0.001989
# 6 -0.000309 -0.002437 0.001134 0.000327 -0.001989 0.022520
#
#
# Mechanical properties :
#
#
# Convention : Reuss Voigt Hill
#
# Bulk Modulus (GPa) = 56.60546 65.04489 60.82517
# Shear Modulus (GPa) = 29.98078 34.04143 32.01111
#
# Velocity S-wave (km/s) = 3.79336 4.04209 3.91970
# Velocity P-wave (km/s) = 6.80840 7.28035 7.04833
#
# Compressibility (1/GPa) = 0.01766614
#
# Stress axis : x y z
#
# Youngs Moduli (GPa) = 98.91261 65.10177 75.39164
#
# Poissons Ratio (x) = 0.20643 0.19253
# Poissons Ratio (y) = 0.31364 0.36260
# Poissons Ratio (z) = 0.25260 0.31311
#
# Static dielectric constant tensor:
#      x y z
#    x 5.085450 -0.058940 -0.866510 
#    y -0.058940 3.563490 -0.012950 
#    z -0.866510 -0.012950 4.276640 
# 
# 
# High freq. dielectric constant tensor:
#      x y z
#    x 1.831730 -0.000010 -0.015430 
#    y -0.000010 1.797940 -0.004360 
#    z -0.015430 -0.004360 1.827700 
# 
# From -- ./inp_files/299290.got.cif
#   From: 2010.06.25/outbox.cif.g09.slc.cpg/sg2_150_cif.got.tgz:299290.got - 2010.06.27 13:26:56.
