data_PCOD8008838
_publ_section_title
;
Structure prediction by ZEFSAII (Michael W. Deem and Ramdas Pophale) SiO2 
 PCOD8008838
Probable space group: P -1
;
_chemical_formula_sum "Si O2"
_cell_formula_units_Z 14
_cell_length_a 9.671568
_cell_length_b 17.340713
_cell_length_c 8.845580
_cell_angle_alpha 64.871219
_cell_angle_beta 90.762926
_cell_angle_gamma 139.411698
_cell_volume 743.805766
_symmetry_space_group_name_H-M "P -1"
_symmetry_group_IT_number 2
_symmetry_cell_setting 'triclinic'
loop_
_space_group_symop_operation_xyz
x,y,z
-x,-y,-z
loop_
_atom_site_type_symbol
_atom_site_label
_atom_site_fract_x
_atom_site_fract_y
_atom_site_fract_z
Si Si1 0.055881 0.789423 0.008111
Si Si2 0.038797 0.258645 0.623670
Si Si3 0.319873 0.545401 0.235671
Si Si4 0.847111 0.836314 0.113580
Si Si5 0.831158 0.534629 0.020037
Si Si6 0.441516 0.937326 0.386126
Si Si7 0.827636 0.360850 0.296443
O O1 0.048368 0.745160 0.213596
O O2 0.957680 0.836785 0.975503
O O3 0.867751 0.640612 0.022609
O O4 0.336595 0.929942 0.835858
O O5 0.805797 0.139361 0.605737
O O6 0.268666 0.429139 0.414433
O O7 0.132728 0.209648 0.693780
O O8 0.560674 0.712816 0.174170
O O9 0.077371 0.482699 0.304880
O O10 0.361013 0.549313 0.052428
O O11 0.000000 0.000000 0.000000
O O12 0.734207 0.410096 0.235510
O O13 0.098897 0.640645 0.866781
O O14 0.390901 0.809349 0.494515
O O15 0.500000 0.000000 0.500000
#
# Coordination Sequence:
#
# PCOD8008838 Si02
#       7
#     2   2   2   2   2   2   2
#     4  10  21  35  54  85 114 139 186 223 279 320
#     4   9  21  35  55  82 107 146 185 221 277 320
#     4   9  17  38  59  76 106 154 183 216 272 329
#     4  10  23  37  54  77 116 148 184 225 275 318
#     4   9  17  36  57  86 104 140 187 226 269 320
#     4  11  18  36  58  82 115 143 176 228 278 330
#     4   8  18  32  59  84 106 140 185 217 279 312
#
# _framework density 18.822119000000001
#
# number of rings (size 3 to 8) (size 9 to 14) (size 15 to 20)
#    1.714    0.857    1.429    0.857    0.000    2.857 
#    2.571    1.429    0.000    4.286    0.000    0.000 
#    0.000    0.000    0.000    0.000    0.000    0.000 
#
# Total GULP energy -173441.261631 kJ/mol
# GULP energy per Si atom -12388.661545 kJ/mol
# Density = 1.877928 g / cm^3
# Si number density = 18.822119 Si / 1000 Ang^3
#
#
#
# Elastic Constant Matrix: (Units=GPa)
#
#
# Indices 1 2 3 4 5 6 
#
# 1 72.6742 52.9172 39.9557 -6.9906 24.2040 -14.6843
# 2 52.9172 147.4342 57.8822 -10.6006 20.4309 0.3457
# 3 39.9557 57.8822 65.9596 -4.4494 30.1871 4.5032
# 4 -6.9906 -10.6006 -4.4494 26.2031 -4.0689 2.2782
# 5 24.2040 20.4309 30.1871 -4.0689 33.0083 -1.4626
# 6 -14.6843 0.3457 4.5032 2.2782 -1.4626 26.9806
#
#
#
# Elastic Compliance Matrix: (Units=1/GPa)
#
#
# Indices 1 2 3 4 5 6 
#
# 1 0.029969 -0.005259 -0.011228 0.001252 -0.007512 0.017739
# 2 -0.005259 0.011794 -0.009346 0.002738 0.005379 -0.001393
# 3 -0.011228 -0.009346 0.042992 -0.002296 -0.026220 -0.014394
# 4 0.001252 0.002738 -0.002296 0.040072 0.004333 -0.002119
# 5 -0.007512 0.005379 -0.026220 0.004333 0.057118 0.002950
# 6 0.017739 -0.001393 -0.014394 -0.002119 0.002950 0.049477
#
#
# Mechanical properties :
#
#
# Convention : Reuss Voigt Hill
#
# Bulk Modulus (GPa) = 30.22213 65.28644 47.75429
# Shear Modulus (GPa) = 17.00000 26.25925 21.62963
#
# Velocity S-wave (km/s) = 3.00858 3.73919 3.39360
# Velocity P-wave (km/s) = 5.30663 7.30776 6.38607
#
# Compressibility (1/GPa) = 0.03308834
#
# Stress axis : x y z
#
# Youngs Moduli (GPa) = 33.36809 84.78675 23.26036
#
# Poissons Ratio (x) = 0.44590 0.26116
# Poissons Ratio (y) = 0.17549 0.21740
# Poissons Ratio (z) = 0.37465 0.79245
#
# Static dielectric constant tensor:
#      x y z
#    x 3.081850 0.032630 0.240090 
#    y 0.032630 3.261880 -0.005820 
#    z 0.240090 -0.005820 3.427970 
# 
# 
# High freq. dielectric constant tensor:
#      x y z
#    x 1.697200 0.005080 0.025100 
#    y 0.005080 1.725740 -0.002000 
#    z 0.025100 -0.002000 1.723830 
# 
# From -- ./inp_files/212496.got.cif
#   From: 2010.06.25/outbox.cif.g09.slc.cpg/sg2_107_cif.got.tgz:212496.got - 2010.06.27 13:26:56.
