data_PCOD8008828
_publ_section_title
;
Structure prediction by ZEFSAII (Michael W. Deem and Ramdas Pophale) SiO2 
 PCOD8008828
Probable space group: P -1
;
_chemical_formula_sum "Si O2"
_cell_formula_units_Z 16
_cell_length_a 12.317101
_cell_length_b 13.525871
_cell_length_c 11.517497
_cell_angle_alpha 58.182654
_cell_angle_beta 127.622110
_cell_angle_gamma 78.563429
_cell_volume 819.603712
_symmetry_space_group_name_H-M "P -1"
_symmetry_group_IT_number 2
_symmetry_cell_setting 'triclinic'
loop_
_space_group_symop_operation_xyz
x,y,z
-x,-y,-z
loop_
_atom_site_type_symbol
_atom_site_label
_atom_site_fract_x
_atom_site_fract_y
_atom_site_fract_z
Si Si1 0.907881 0.589664 0.557987
Si Si2 0.710765 0.819084 0.902983
Si Si3 0.808187 0.690574 0.692349
Si Si4 0.440602 0.872706 0.503269
Si Si5 0.682171 0.229083 0.358500
Si Si6 0.863753 0.905031 0.529977
Si Si7 0.197797 0.616110 0.746170
Si Si8 0.465291 0.107347 0.016817
O O1 0.796180 0.682039 0.551910
O O2 0.733212 0.679814 0.285957
O O3 0.045478 0.614228 0.599240
O O4 0.052257 0.381199 0.790131
O O5 0.570080 0.816777 0.741467
O O6 0.738270 0.913561 0.779776
O O7 0.591974 0.923565 0.882501
O O8 0.597959 0.768876 0.560557
O O9 0.821602 0.821808 0.640281
O O10 0.000000 0.500000 0.000000
O O11 0.330795 0.819646 0.490301
O O12 0.796220 0.280141 0.405265
O O13 0.834563 0.043401 0.496180
O O14 0.437051 0.406053 0.043636
O O15 0.101017 0.731210 0.733858
O O16 0.687040 0.030236 0.232624
O O17 0.500000 0.000000 0.000000
#
# Coordination Sequence:
#
# PCOD8008828 Si02
#       8
#     2   2   2   2   2   2   2   2
#     4  11  21  35  54  84 111 142 183 223 280 324
#     4  11  20  32  53  82 111 141 173 236 277 332
#     4  11  19  31  54  80 114 138 172 234 281 332
#     4  11  18  33  52  81 112 140 174 219 291 325
#     4  11  21  35  54  80 117 147 180 223 273 331
#     4  11  20  37  55  82 110 146 182 229 278 324
#     4  10  21  35  53  80 114 145 187 223 265 329
#     4  12  20  34  52  79 113 143 179 227 278 323
#
# _framework density 19.521629999999998
#
# number of rings (size 3 to 8) (size 9 to 14) (size 15 to 20)
#    0.000    1.000    7.500    2.250    0.000    0.000 
#    0.000    0.000    0.000    0.750    0.000    0.875 
#    0.000    0.125    0.000    0.000    0.000    0.000 
#
# Total GULP energy -198236.619904 kJ/mol
# GULP energy per Si atom -12389.788744 kJ/mol
# Density = 1.947720 g / cm^3
# Si number density = 19.521630 Si / 1000 Ang^3
#
#
#
# Elastic Constant Matrix: (Units=GPa)
#
#
# Indices 1 2 3 4 5 6 
#
# 1 114.3767 20.7018 17.4137 -7.5457 -22.9580 -0.1778
# 2 20.7018 42.0062 9.5768 -9.5256 -4.2231 -8.1904
# 3 17.4137 9.5768 100.2879 -11.5648 -13.5674 8.1804
# 4 -7.5457 -9.5256 -11.5648 35.6664 -4.8344 -6.7681
# 5 -22.9580 -4.2231 -13.5674 -4.8344 31.3860 -7.3394
# 6 -0.1778 -8.1904 8.1804 -6.7681 -7.3394 27.9877
#
#
#
# Elastic Compliance Matrix: (Units=1/GPa)
#
#
# Indices 1 2 3 4 5 6 
#
# 1 0.011369 -0.003603 -0.000295 0.002911 0.008637 0.002073
# 2 -0.003603 0.031588 -0.001506 0.010581 0.005807 0.013743
# 3 -0.000295 -0.001506 0.011336 0.003517 0.004628 -0.001692
# 4 0.002911 0.010581 0.003517 0.037383 0.014311 0.014880
# 5 0.008637 0.005807 0.004628 0.014311 0.046947 0.016174
# 6 0.002073 0.013743 -0.001692 0.014880 0.016174 0.048099
#
#
# Mechanical properties :
#
#
# Convention : Reuss Voigt Hill
#
# Bulk Modulus (GPa) = 22.99653 39.11728 31.05690
# Shear Modulus (GPa) = 23.58209 32.93994 28.26101
#
# Velocity S-wave (km/s) = 3.47940 4.11220 3.80896
# Velocity P-wave (km/s) = 5.28651 6.52904 5.94035
#
# Compressibility (1/GPa) = 0.04348483
#
# Stress axis : x y z
#
# Youngs Moduli (GPa) = 87.95837 31.65789 88.21430
#
# Poissons Ratio (x) = 0.11406 0.02602
# Poissons Ratio (y) = 0.31691 0.13286
# Poissons Ratio (z) = 0.02594 0.04768
#
# Static dielectric constant tensor:
#      x y z
#    x 3.760440 -0.217040 -0.135600 
#    y -0.217040 3.433210 -0.363650 
#    z -0.135600 -0.363650 4.327520 
# 
# 
# High freq. dielectric constant tensor:
#      x y z
#    x 1.754830 -0.032430 -0.014000 
#    y -0.032430 1.727530 -0.043190 
#    z -0.014000 -0.043190 1.767430 
# 
# From -- ./inp_files/344536.got.cif
#   From: 2010.06.25/outbox.cif.g09.slc.cpg/sg2_173_cif.got.tgz:344536.got - 2010.06.27 13:26:56.
