data_PCOD8008541
_publ_section_title
;
Structure prediction by ZEFSAII (Michael W. Deem and Ramdas Pophale) SiO2 
 PCOD8008541
Probable space group: P -1
;
_chemical_formula_sum "Si O2"
_cell_formula_units_Z 12
_cell_length_a 8.222918
_cell_length_b 5.107165
_cell_length_c 17.484017
_cell_angle_alpha 87.954671
_cell_angle_beta 46.153724
_cell_angle_gamma 90.224501
_cell_volume 528.790206
_symmetry_space_group_name_H-M "P -1"
_symmetry_group_IT_number 2
_symmetry_cell_setting 'triclinic'
loop_
_space_group_symop_operation_xyz
x,y,z
-x,-y,-z
loop_
_atom_site_type_symbol
_atom_site_label
_atom_site_fract_x
_atom_site_fract_y
_atom_site_fract_z
Si Si1 0.877284 0.987804 0.860056
Si Si2 0.067341 0.068676 0.392201
Si Si3 0.778471 0.220213 0.353222
Si Si4 0.676382 0.735128 0.306760
Si Si5 0.351153 0.592390 0.276480
Si Si6 0.473187 0.303894 0.939871
O O1 0.983935 0.772496 0.771455
O O2 0.072986 0.210752 0.812839
O O3 0.669236 0.098621 0.880643
O O4 0.773902 0.846138 0.971345
O O5 0.252335 0.305565 0.331299
O O6 0.843712 0.165013 0.420413
O O7 0.159705 0.807071 0.324490
O O8 0.000000 0.000000 0.500000
O O9 0.666672 0.496013 0.372836
O O10 0.612521 0.986388 0.376388
O O11 0.501532 0.693031 0.296862
O O12 0.506524 0.559967 0.150959
O O13 0.500000 0.500000 0.000000
#
# Coordination Sequence:
#
# PCOD8008541 Si02
#       6
#     2   2   2   2   2   2
#     4   9  20  36  63  88 133 170 214 237 326 372
#     4  12  25  46  71  95 121 171 225 273 320 385
#     4  10  20  44  64  90 130 177 205 262 320 383
#     4  10  22  40  65  94 139 170 201 264 335 369
#     4  12  25  43  66 101 132 162 221 275 317 381
#     4  11  21  37  64  99 128 177 219 254 309 385
#
# _framework density 22.69331
#
# number of rings (size 3 to 8) (size 9 to 14) (size 15 to 20)
#    1.000    0.333    1.667    5.500    2.333    0.667 
#    0.000    6.667    0.000    0.000    0.000    0.000 
#    0.000    0.000    0.000    0.000    0.000    0.000 
#
# Total GULP energy -148723.690784 kJ/mol
# GULP energy per Si atom -12393.640899 kJ/mol
# Density = 2.264166 g / cm^3
# Si number density = 22.693310 Si / 1000 Ang^3
#
#
#
# Elastic Constant Matrix: (Units=GPa)
#
#
# Indices 1 2 3 4 5 6 
#
# 1 78.6237 10.1200 19.3067 -23.0997 25.7254 12.9008
# 2 10.1200 119.5577 32.7474 -27.3236 4.6389 16.4629
# 3 19.3067 32.7474 108.3676 -31.9973 31.1678 12.2746
# 4 -23.0997 -27.3236 -31.9973 36.1772 -4.5629 1.6447
# 5 25.7254 4.6389 31.1678 -4.5629 30.0704 0.6380
# 6 12.9008 16.4629 12.2746 1.6447 0.6380 31.4595
#
#
#
# Elastic Compliance Matrix: (Units=1/GPa)
#
#
# Indices 1 2 3 4 5 6 
#
# 1 0.044378 0.007805 0.024586 0.050393 -0.056298 -0.033368
# 2 0.007805 0.012620 0.004282 0.017578 -0.010137 -0.012189
# 3 0.024586 0.004282 0.033717 0.043736 -0.049438 -0.026762
# 4 0.050393 0.017578 0.043736 0.104735 -0.074182 -0.050899
# 5 -0.056298 -0.010137 -0.049438 -0.074182 0.121926 0.049086
# 6 -0.033368 -0.012189 -0.026762 -0.050899 0.049086 0.063956
#
#
# Mechanical properties :
#
#
# Convention : Reuss Voigt Hill
#
# Bulk Modulus (GPa) = 6.09527 47.87747 26.98637
# Shear Modulus (GPa) = 13.78654 35.83309 24.80982
#
# Velocity S-wave (km/s) = 2.46746 3.97799 3.31004
# Velocity P-wave (km/s) = 3.28779 6.49944 5.15035
#
# Compressibility (1/GPa) = 0.16406155
#
# Stress axis : x y z
#
# Youngs Moduli (GPa) = 22.53372 79.24234 29.65820
#
# Poissons Ratio (x) = -0.61851 -0.72917
# Poissons Ratio (y) = -0.17588 -0.12700
# Poissons Ratio (z) = -0.55401 -0.33933
#
# Static dielectric constant tensor:
#      x y z
#    x 3.840160 0.044880 -0.157200 
#    y 0.044880 4.179770 -0.157200 
#    z -0.157200 -0.157200 4.162730 
# 
# 
# High freq. dielectric constant tensor:
#      x y z
#    x 1.877160 0.009410 -0.006150 
#    y 0.009410 1.901540 -0.011320 
#    z -0.006150 -0.011320 1.895810 
# 
# From -- ./inp_files/486959.got.cif
#   From: 2010.06.25/outbox.cif.g09.slc.cpg/sg2_244_cif.got.tgz:486959.got - 2010.06.27 13:26:56.
