data_PCOD8008986
_publ_section_title
;
Structure prediction by ZEFSAII (Michael W. Deem and Ramdas Pophale) SiO2 
 PCOD8008986
Probable space group: P -1
;
_chemical_formula_sum "Si O2"
_cell_formula_units_Z 16
_cell_length_a 21.285716
_cell_length_b 11.153754
_cell_length_c 9.494941
_cell_angle_alpha 142.383088
_cell_angle_beta 145.426256
_cell_angle_gamma 36.325125
_cell_volume 699.999214
_symmetry_space_group_name_H-M "P -1"
_symmetry_group_IT_number 2
_symmetry_cell_setting 'triclinic'
loop_
_space_group_symop_operation_xyz
x,y,z
-x,-y,-z
loop_
_atom_site_type_symbol
_atom_site_label
_atom_site_fract_x
_atom_site_fract_y
_atom_site_fract_z
Si Si1 0.179762 0.928301 0.371063
Si Si2 0.397678 0.461712 0.395607
Si Si3 0.236825 0.454177 0.660400
Si Si4 0.462542 0.200036 0.013582
Si Si5 0.302665 0.107858 0.962425
Si Si6 0.231627 0.089161 0.125236
Si Si7 0.577094 0.362958 0.887561
Si Si8 0.090692 0.918364 0.896946
O O1 0.288282 0.701177 0.408112
O O2 0.214131 0.113147 0.673482
O O3 0.167790 0.951067 0.200936
O O4 0.054008 0.941049 0.215787
O O5 0.501527 0.449535 0.685866
O O6 0.462061 0.389386 0.292468
O O7 0.335790 0.309636 0.196341
O O8 0.324892 0.276037 0.770303
O O9 0.117337 0.660243 0.696802
O O10 0.201123 0.324003 0.355934
O O11 0.307802 0.582500 0.846310
O O12 0.500000 0.000000 0.000000
O O13 0.568583 0.121441 0.015692
O O14 0.228450 0.119765 0.979784
O O15 0.369320 0.900816 0.244754
O O16 0.128206 0.014928 0.917709
O O17 0.500000 0.500000 0.000000
#
# Coordination Sequence:
#
# PCOD8008986 Si02
#       8
#     2   2   2   2   2   2   2   2
#     4  11  24  46  68  94 126 167 229 274 321 381
#     4  11  23  39  66  98 133 170 214 268 323 382
#     4  11  22  40  64  91 131 171 211 257 322 384
#     4  10  21  35  61  97 126 163 205 258 315 383
#     4  11  25  40  67  98 132 171 212 267 327 391
#     4  11  24  43  65  98 135 172 213 263 328 396
#     4  11  23  38  62  98 136 175 209 256 323 394
#     4  10  26  44  69  94 123 174 222 277 323 377
#
# _framework density 22.857168999999999
#
# number of rings (size 3 to 8) (size 9 to 14) (size 15 to 20)
#    0.000    1.250    1.250    4.500    7.000    5.000 
#    0.000    3.750    0.000    0.000    0.000    0.000 
#    0.000    0.000    0.000    0.000    0.000    0.000 
#
# Total GULP energy -198315.238110 kJ/mol
# GULP energy per Si atom -12394.702382 kJ/mol
# Density = 2.280514 g / cm^3
# Si number density = 22.857169 Si / 1000 Ang^3
#
#
#
# Elastic Constant Matrix: (Units=GPa)
#
#
# Indices 1 2 3 4 5 6 
#
# 1 92.3202 1.2997 17.1797 14.0210 -17.3412 -1.8886
# 2 1.2997 52.9897 27.9090 14.9334 -4.3926 -9.9798
# 3 17.1797 27.9090 90.1597 21.3449 -10.6423 -6.2616
# 4 14.0210 14.9334 21.3449 30.5671 -0.6769 1.7235
# 5 -17.3412 -4.3926 -10.6423 -0.6769 36.1533 2.9298
# 6 -1.8886 -9.9798 -6.2616 1.7235 2.9298 33.5813
#
#
#
# Elastic Compliance Matrix: (Units=1/GPa)
#
#
# Indices 1 2 3 4 5 6 
#
# 1 0.013165 0.002809 -0.000997 -0.006647 0.006141 0.001195
# 2 0.002809 0.026193 -0.005343 -0.010718 0.002164 0.007307
# 3 -0.000997 -0.005343 0.015174 -0.007534 0.003093 0.001302
# 4 -0.006647 -0.010718 -0.007534 0.046533 -0.005278 -0.006891
# 5 0.006141 0.002164 0.003093 -0.005278 0.031756 -0.000934
# 6 0.001195 0.007307 0.001302 -0.006891 -0.000934 0.032695
#
#
# Mechanical properties :
#
#
# Convention : Reuss Voigt Hill
#
# Bulk Modulus (GPa) = 21.06512 36.47183 28.76847
# Shear Modulus (GPa) = 26.53913 32.66574 29.60244
#
# Velocity S-wave (km/s) = 3.41117 3.78448 3.60266
# Velocity P-wave (km/s) = 4.97501 5.92346 5.46983
#
# Compressibility (1/GPa) = 0.04747185
#
# Stress axis : x y z
#
# Youngs Moduli (GPa) = 75.95727 38.17834 65.90060
#
# Poissons Ratio (x) = -0.10726 0.06569
# Poissons Ratio (y) = -0.21339 0.35210
# Poissons Ratio (z) = 0.07571 0.20398
#
# Static dielectric constant tensor:
#      x y z
#    x 4.338470 -0.310250 -0.140450 
#    y -0.310250 4.426750 0.200220 
#    z -0.140450 0.200220 4.306870 
# 
# 
# High freq. dielectric constant tensor:
#      x y z
#    x 1.910080 -0.001890 -0.006120 
#    y -0.001890 1.903080 0.023720 
#    z -0.006120 0.023720 1.902080 
# 
# From -- ./inp_files/258413.got.cif
#   From: 2010.06.25/outbox.cif.g09.slc.cpg/sg2_130_cif.got.tgz:258413.got - 2010.06.27 13:26:56.
