data_PCOD8008252
_publ_section_title
;
Structure prediction by ZEFSAII (Michael W. Deem and Ramdas Pophale) SiO2 
 PCOD8008252
Probable space group: P -1
;
_chemical_formula_sum "Si O2"
_cell_formula_units_Z 16
_cell_length_a 21.518602
_cell_length_b 8.973786
_cell_length_c 9.776677
_cell_angle_alpha 29.735950
_cell_angle_beta 131.514083
_cell_angle_gamma 129.518094
_cell_volume 691.719069
_symmetry_space_group_name_H-M "P -1"
_symmetry_group_IT_number 2
_symmetry_cell_setting 'triclinic'
loop_
_space_group_symop_operation_xyz
x,y,z
-x,-y,-z
loop_
_atom_site_type_symbol
_atom_site_label
_atom_site_fract_x
_atom_site_fract_y
_atom_site_fract_z
Si Si1 0.156626 0.722015 0.856921
Si Si2 0.624123 0.376071 0.222271
Si Si3 0.440034 0.178899 0.036333
Si Si4 0.021332 0.563937 0.137769
Si Si5 0.724967 0.846494 0.834572
Si Si6 0.424229 0.503696 0.487392
Si Si7 0.869846 0.884221 0.233083
Si Si8 0.246543 0.183897 0.408413
O O1 0.063313 0.556457 0.804850
O O2 0.153266 0.943560 0.802434
O O3 0.204283 0.883584 0.666231
O O4 0.206063 0.460442 0.188867
O O5 0.530896 0.179402 0.237988
O O6 0.682738 0.149091 0.550436
O O7 0.625042 0.676175 0.079435
O O8 0.658138 0.528545 0.004909
O O9 0.399190 0.838652 0.203053
O O10 0.458988 0.401398 0.760190
O O11 0.098704 0.416987 0.426773
O O12 0.000000 0.500000 0.000000
O O13 0.055103 0.925035 0.901205
O O14 0.770060 0.860944 0.741795
O O15 0.789261 0.809555 0.079588
O O16 0.500000 0.500000 0.500000
O O17 0.346315 0.255807 0.521257
#
# Coordination Sequence:
#
# PCOD8008252 Si02
#       8
#     2   2   2   2   2   2   2   2
#     4  11  23  42  69  97 132 170 226 279 322 396
#     4  11  24  43  67  92 134 173 223 291 334 386
#     4  11  24  42  67  96 121 176 240 274 332 397
#     4  10  20  42  69 102 132 172 219 278 329 397
#     4  12  26  44  65  96 143 175 218 275 348 395
#     4  12  25  42  66  93 137 178 230 270 337 399
#     4  11  23  41  71 100 130 178 225 264 339 403
#     4  12  26  42  64 100 137 177 221 276 343 389
#
# _framework density 23.130776000000001
#
# number of rings (size 3 to 8) (size 9 to 14) (size 15 to 20)
#    0.000    0.750    0.000    9.375    5.250    2.000 
#    0.000    3.750    0.000    0.000    0.000    0.000 
#    0.000    0.000    0.000    0.000    0.000    0.000 
#
# Total GULP energy -198378.377426 kJ/mol
# GULP energy per Si atom -12398.648589 kJ/mol
# Density = 2.307813 g / cm^3
# Si number density = 23.130776 Si / 1000 Ang^3
#
#
#
# Elastic Constant Matrix: (Units=GPa)
#
#
# Indices 1 2 3 4 5 6 
#
# 1 103.5074 26.8901 25.9149 7.3621 -8.6577 17.3356
# 2 26.8901 55.6445 29.7753 7.6637 -10.2391 10.3637
# 3 25.9149 29.7753 143.4337 6.3150 0.1262 11.1890
# 4 7.3621 7.6637 6.3150 39.6092 6.0428 -2.6021
# 5 -8.6577 -10.2391 0.1262 6.0428 37.1531 -1.7718
# 6 17.3356 10.3637 11.1890 -2.6021 -1.7718 32.4633
#
#
#
# Elastic Compliance Matrix: (Units=1/GPa)
#
#
# Indices 1 2 3 4 5 6 
#
# 1 0.011992 -0.003779 -0.000912 -0.001957 0.001839 -0.004939
# 2 -0.003779 0.024536 -0.003857 -0.004710 0.006445 -0.004511
# 3 -0.000912 -0.003857 0.008038 -0.000240 -0.001318 -0.001143
# 4 -0.001957 -0.004710 -0.000240 0.027781 -0.006056 0.004528
# 5 0.001839 0.006445 -0.001318 -0.006056 0.030042 -0.001431
# 6 -0.004939 -0.004511 -0.001143 0.004528 -0.001431 0.035561
#
#
# Mechanical properties :
#
#
# Convention : Reuss Voigt Hill
#
# Bulk Modulus (GPa) = 36.40397 51.97180 44.18788
# Shear Modulus (GPa) = 30.45022 36.51215 33.48118
#
# Velocity S-wave (km/s) = 3.63221 3.97736 3.80869
# Velocity P-wave (km/s) = 5.77608 6.60378 6.20375
#
# Compressibility (1/GPa) = 0.02746953
#
# Stress axis : x y z
#
# Youngs Moduli (GPa) = 83.39231 40.75613 124.40504
#
# Poissons Ratio (x) = 0.15401 0.11349
# Poissons Ratio (y) = 0.31513 0.47984
# Poissons Ratio (z) = 0.07607 0.15720
#
# Static dielectric constant tensor:
#      x y z
#    x 4.362400 0.300860 -0.122850 
#    y 0.300860 4.152500 -0.144020 
#    z -0.122850 -0.144020 4.303520 
# 
# 
# High freq. dielectric constant tensor:
#      x y z
#    x 1.918100 0.017200 -0.006920 
#    y 0.017200 1.895950 -0.006530 
#    z -0.006920 -0.006530 1.935200 
# 
# From -- ./inp_files/351980.got.cif
#   From: 2010.06.25/outbox.cif.g09.slc.cpg/sg2_176_cif.got.tgz:351980.got - 2010.06.27 13:26:56.
