data_PCOD8008213
_publ_section_title
;
Structure prediction by ZEFSAII (Michael W. Deem and Ramdas Pophale) SiO2 
 PCOD8008213
Probable space group: P -1
;
_chemical_formula_sum "Si O2"
_cell_formula_units_Z 12
_cell_length_a 14.842721
_cell_length_b 8.816650
_cell_length_c 8.496122
_cell_angle_alpha 130.643435
_cell_angle_beta 53.407399
_cell_angle_gamma 88.745603
_cell_volume 500.821309
_symmetry_space_group_name_H-M "P -1"
_symmetry_group_IT_number 2
_symmetry_cell_setting 'triclinic'
loop_
_space_group_symop_operation_xyz
x,y,z
-x,-y,-z
loop_
_atom_site_type_symbol
_atom_site_label
_atom_site_fract_x
_atom_site_fract_y
_atom_site_fract_z
Si Si1 0.446367 0.202913 0.333055
Si Si2 0.810881 0.404098 0.352663
Si Si3 0.844176 0.095687 0.385620
Si Si4 0.966822 0.224288 0.575593
Si Si5 0.249002 0.113273 0.075191
Si Si6 0.259818 0.185928 0.743047
O O1 0.299050 0.496124 0.617493
O O2 0.404857 0.123993 0.479192
O O3 0.500000 0.000000 0.000000
O O4 0.589308 0.166766 0.216600
O O5 0.783582 0.241822 0.378993
O O6 0.783333 0.642381 0.634730
O O7 0.984408 0.190779 0.976702
O O8 0.834669 0.298336 0.646987
O O9 0.745695 0.019726 0.483668
O O10 0.116552 0.111775 0.246825
O O11 0.891859 0.503007 0.929618
O O12 0.000000 0.000000 0.500000
O O13 0.261857 0.142694 0.897260
#
# Coordination Sequence:
#
# PCOD8008213 Si02
#       6
#     2   2   2   2   2   2
#     4  10  25  43  71  99 140 186 226 276 347 404
#     4  10  20  42  68 102 138 178 221 281 337 407
#     4  11  23  40  72 104 134 174 232 276 344 393
#     4  12  26  42  72 107 135 178 233 284 337 406
#     4  11  22  46  69 102 143 179 225 283 340 408
#     4  12  24  45  73 101 138 181 227 287 335 405
#
# _framework density 23.960640999999999
#
# number of rings (size 3 to 8) (size 9 to 14) (size 15 to 20)
#    0.000    1.000    3.333    4.000    4.667    1.333 
#    0.000   12.500    0.000    0.000    0.000    0.000 
#    0.000    0.000    0.000    0.000    0.000    0.000 
#
# Total GULP energy -148682.793653 kJ/mol
# GULP energy per Si atom -12390.232804 kJ/mol
# Density = 2.390611 g / cm^3
# Si number density = 23.960641 Si / 1000 Ang^3
#
#
#
# Elastic Constant Matrix: (Units=GPa)
#
#
# Indices 1 2 3 4 5 6 
#
# 1 92.4703 45.0130 10.4379 3.9174 -14.6662 11.8826
# 2 45.0130 105.4358 35.2098 -4.5009 -10.2506 -10.2238
# 3 10.4379 35.2098 50.6416 -8.4128 -8.7392 -0.9018
# 4 3.9174 -4.5009 -8.4128 42.6660 -6.6228 -3.6851
# 5 -14.6662 -10.2506 -8.7392 -6.6228 31.0529 6.4261
# 6 11.8826 -10.2238 -0.9018 -3.6851 6.4261 36.7958
#
#
#
# Elastic Compliance Matrix: (Units=1/GPa)
#
#
# Indices 1 2 3 4 5 6 
#
# 1 0.017165 -0.008689 0.003459 -0.001402 0.007855 -0.009385
# 2 -0.008689 0.017183 -0.010365 0.000813 -0.002810 0.007899
# 3 0.003459 -0.010365 0.028422 0.005097 0.008171 -0.004217
# 4 -0.001402 0.000813 0.005097 0.025799 0.006061 0.002329
# 5 0.007855 -0.002810 0.008171 0.006061 0.040563 -0.009594
# 6 -0.009385 0.007899 -0.004217 0.002329 -0.009594 0.034208
#
#
# Mechanical properties :
#
#
# Convention : Reuss Voigt Hill
#
# Bulk Modulus (GPa) = 31.66653 47.76323 39.71488
# Shear Modulus (GPa) = 24.38341 32.62874 28.50608
#
# Velocity S-wave (km/s) = 3.19351 3.69421 3.45295
# Velocity P-wave (km/s) = 5.18100 6.17848 5.70160
#
# Compressibility (1/GPa) = 0.03157909
#
# Stress axis : x y z
#
# Youngs Moduli (GPa) = 58.25821 58.19716 35.18405
#
# Poissons Ratio (x) = 0.50570 -0.12171
# Poissons Ratio (y) = 0.50623 0.36469
# Poissons Ratio (z) = -0.20153 0.60322
#
# Static dielectric constant tensor:
#      x y z
#    x 4.921500 -0.167890 -0.034220 
#    y -0.167890 4.456180 0.186890 
#    z -0.034220 0.186890 4.509570 
# 
# 
# High freq. dielectric constant tensor:
#      x y z
#    x 1.952360 -0.004090 0.003530 
#    y -0.004090 1.959170 0.005980 
#    z 0.003530 0.005980 1.936150 
# 
# From -- ./inp_files/148549.got.cif
#   From: 2010.06.25/outbox.cif.g09.slc.cpg/sg2_75_cif.got.tgz:148549.got - 2010.06.27 13:26:56.
