data_PCOD8008949
_publ_section_title
;
Structure prediction by ZEFSAII (Michael W. Deem and Ramdas Pophale) SiO2 
 PCOD8008949
Probable space group: P -1
;
_chemical_formula_sum "Si O2"
_cell_formula_units_Z 16
_cell_length_a 21.115064
_cell_length_b 8.702830
_cell_length_c 9.577963
_cell_angle_alpha 114.189226
_cell_angle_beta 31.804065
_cell_angle_gamma 125.201797
_cell_volume 744.703099
_symmetry_space_group_name_H-M "P -1"
_symmetry_group_IT_number 2
_symmetry_cell_setting 'triclinic'
loop_
_space_group_symop_operation_xyz
x,y,z
-x,-y,-z
loop_
_atom_site_type_symbol
_atom_site_label
_atom_site_fract_x
_atom_site_fract_y
_atom_site_fract_z
Si Si1 0.644871 0.698099 0.962865
Si Si2 0.569229 0.705289 0.811030
Si Si3 0.634394 0.989869 0.281795
Si Si4 0.075468 0.779582 0.259893
Si Si5 0.970262 0.402468 0.170631
Si Si6 0.840607 0.781021 0.243518
Si Si7 0.727137 0.010137 0.423239
Si Si8 0.060028 0.046461 0.595018
O O1 0.571885 0.745810 0.986574
O O2 0.805605 0.785174 0.668270
O O3 0.576394 0.468464 0.026529
O O4 0.617773 0.787195 0.185825
O O5 0.688631 0.642217 0.537097
O O6 0.607873 0.897387 0.720542
O O7 0.500000 0.000000 0.500000
O O8 0.653992 0.006786 0.416723
O O9 0.764362 0.162780 0.024930
O O10 0.980989 0.554187 0.325097
O O11 0.059508 0.906217 0.211109
O O12 0.036374 0.840252 0.504245
O O13 0.818568 0.226164 0.387277
O O14 0.000000 0.500000 0.000000
O O15 0.083666 0.340192 0.979331
O O16 0.925571 0.945988 0.262299
O O17 0.821996 0.901891 0.194249
#
# Coordination Sequence:
#
# PCOD8008949 Si02
#       8
#     2   2   2   2   2   2   2   2
#     4   9  18  37  62  84 115 164 206 236 306 373
#     4   8  19  36  60  85 115 158 208 244 292 375
#     4  11  23  37  60  90 124 160 200 262 311 363
#     4  10  21  35  60  91 121 157 210 244 303 366
#     4  12  20  34  61  98 123 160 203 256 310 365
#     4   9  19  35  61  86 125 156 200 259 298 364
#     4  10  22  38  58  93 125 160 206 256 309 360
#     4   9  17  37  62  86 119 163 204 247 295 375
#
# _framework density 21.485074000000001
#
# number of rings (size 3 to 8) (size 9 to 14) (size 15 to 20)
#    0.750    1.500    2.500    0.375    1.750    0.500 
#    2.250    1.250    0.000    0.000    0.000    0.000 
#    0.000    0.000    0.000    0.000    0.000    0.000 
#
# Total GULP energy -198260.337046 kJ/mol
# GULP energy per Si atom -12391.271065 kJ/mol
# Density = 2.143617 g / cm^3
# Si number density = 21.485074 Si / 1000 Ang^3
#
#
#
# Elastic Constant Matrix: (Units=GPa)
#
#
# Indices 1 2 3 4 5 6 
#
# 1 88.0735 38.8822 21.6961 8.0261 -13.2419 8.0875
# 2 38.8822 139.0097 33.3698 -8.3797 1.6483 22.3462
# 3 21.6961 33.3698 50.7061 -0.4310 -16.3004 4.0104
# 4 8.0261 -8.3797 -0.4310 34.0308 -0.9282 0.6860
# 5 -13.2419 1.6483 -16.3004 -0.9282 26.9170 -0.8815
# 6 8.0875 22.3462 4.0104 0.6860 -0.8815 34.5506
#
#
#
# Elastic Compliance Matrix: (Units=1/GPa)
#
#
# Indices 1 2 3 4 5 6 
#
# 1 0.014959 -0.004053 -0.001668 -0.004363 0.006432 -0.000436
# 2 -0.004053 0.011401 -0.007657 0.003581 -0.007395 -0.005796
# 3 -0.001668 -0.007657 0.031290 -0.000632 0.018647 0.002199
# 4 -0.004363 0.003581 -0.000632 0.031279 -0.001731 -0.001887
# 5 0.006432 -0.007395 0.018647 -0.001731 0.052082 0.002476
# 6 -0.000436 -0.005796 0.002199 -0.001887 0.002476 0.032639
#
#
# Mechanical properties :
#
#
# Convention : Reuss Voigt Hill
#
# Bulk Modulus (GPa) = 32.37016 51.74282 42.05649
# Shear Modulus (GPa) = 23.72995 31.35575 27.54285
#
# Velocity S-wave (km/s) = 3.32699 3.82438 3.58432
# Velocity P-wave (km/s) = 5.46420 6.60580 6.06193
#
# Compressibility (1/GPa) = 0.03089265
#
# Stress axis : x y z
#
# Youngs Moduli (GPa) = 66.84886 87.71280 31.95944
#
# Poissons Ratio (x) = 0.35549 0.05332
# Poissons Ratio (y) = 0.27093 0.24472
# Poissons Ratio (z) = 0.11152 0.67164
#
# Static dielectric constant tensor:
#      x y z
#    x 3.786020 0.276540 -0.099150 
#    y 0.276540 3.794530 -0.098810 
#    z -0.099150 -0.098810 3.779360 
# 
# 
# High freq. dielectric constant tensor:
#      x y z
#    x 1.833070 0.020780 -0.007380 
#    y 0.020780 1.825070 -0.013880 
#    z -0.007380 -0.013880 1.833090 
# 
# From -- ./inp_files/473969.got.cif
#   From: 2010.06.25/outbox.cif.g09.slc.cpg/sg2_237_cif.got.tgz:473969.got - 2010.06.27 13:26:56.
