data_PCOD8008496
_publ_section_title
;
Structure prediction by ZEFSAII (Michael W. Deem and Ramdas Pophale) SiO2 
 PCOD8008496
Probable space group: P -1
;
_chemical_formula_sum "Si O2"
_cell_formula_units_Z 16
_cell_length_a 11.266622
_cell_length_b 9.081966
_cell_length_c 8.656625
_cell_angle_alpha 114.985984
_cell_angle_beta 104.558136
_cell_angle_gamma 63.006723
_cell_volume 713.455532
_symmetry_space_group_name_H-M "P -1"
_symmetry_group_IT_number 2
_symmetry_cell_setting 'triclinic'
loop_
_space_group_symop_operation_xyz
x,y,z
-x,-y,-z
loop_
_atom_site_type_symbol
_atom_site_label
_atom_site_fract_x
_atom_site_fract_y
_atom_site_fract_z
Si Si1 0.529668 0.030016 0.198117
Si Si2 0.148035 0.986387 0.024243
Si Si3 0.384809 0.650177 0.611408
Si Si4 0.186926 0.866042 0.415561
Si Si5 0.722329 0.896969 0.636166
Si Si6 0.648580 0.411081 0.086439
Si Si7 0.067851 0.150668 0.754164
Si Si8 0.763253 0.691870 0.256738
O O1 0.642028 0.856589 0.222756
O O2 0.581141 0.183288 0.274033
O O3 0.409354 0.079433 0.302259
O O4 0.500000 0.000000 0.000000
O O5 0.162246 0.131226 0.210193
O O6 0.267350 0.795435 0.018997
O O7 0.162021 0.042017 0.877625
O O8 0.000000 0.000000 0.000000
O O9 0.500000 0.500000 0.500000
O O10 0.257547 0.702350 0.480434
O O11 0.363066 0.568221 0.725796
O O12 0.089139 0.807999 0.247413
O O13 0.292721 0.920038 0.376723
O O14 0.101802 0.039684 0.559473
O O15 0.765852 0.728383 0.459370
O O16 0.739964 0.518266 0.122883
O O17 0.500000 0.500000 0.000000
O O18 0.101591 0.320535 0.794989
#
# Coordination Sequence:
#
# PCOD8008496 Si02
#       8
#     2   2   2   2   2   2   2   2
#     4  12  23  41  62  95 133 177 223 277 337 403
#     4  12  24  43  71 100 132 182 231 274 340 409
#     4  12  25  41  66  98 134 176 226 277 338 406
#     4  10  21  40  68  97 128 176 224 273 335 399
#     4  11  22  38  69  97 129 175 228 273 334 403
#     4  12  27  45  66 102 141 177 222 287 345 402
#     4  10  20  43  71  93 130 178 227 271 334 407
#     4  11  23  42  67  96 131 178 223 281 337 401
#
# _framework density 22.426065000000001
#
# number of rings (size 3 to 8) (size 9 to 14) (size 15 to 20)
#    0.000    0.750    5.000    4.125    3.500    0.000 
#    0.000    4.375    0.000    0.000    0.000    0.000 
#    0.000    0.000    0.000    0.000    0.000    0.000 
#
# Total GULP energy -198243.235504 kJ/mol
# GULP energy per Si atom -12390.202219 kJ/mol
# Density = 2.237502 g / cm^3
# Si number density = 22.426065 Si / 1000 Ang^3
#
#
#
# Elastic Constant Matrix: (Units=GPa)
#
#
# Indices 1 2 3 4 5 6 
#
# 1 88.2667 26.3015 14.5755 -9.8711 13.3339 8.8155
# 2 26.3015 81.5925 30.3212 -11.4596 14.7743 5.7392
# 3 14.5755 30.3212 102.0836 -12.8014 16.3010 -0.0914
# 4 -9.8711 -11.4596 -12.8014 21.5737 -3.1672 -2.5296
# 5 13.3339 14.7743 16.3010 -3.1672 42.4888 -5.9232
# 6 8.8155 5.7392 -0.0914 -2.5296 -5.9232 36.3500
#
#
#
# Elastic Compliance Matrix: (Units=1/GPa)
#
#
# Indices 1 2 3 4 5 6 
#
# 1 0.013447 -0.002982 -0.000044 0.003695 -0.003319 -0.003074
# 2 -0.002982 0.015750 -0.003180 0.004400 -0.003271 -0.001998
# 3 -0.000044 -0.003180 0.011844 0.004925 -0.003002 0.000396
# 4 0.003695 0.004400 0.004925 0.053505 -0.000298 0.002096
# 5 -0.003319 -0.003271 -0.003002 -0.000298 0.027653 0.005799
# 6 -0.003074 -0.001998 0.000396 0.002096 0.005799 0.029663
#
#
# Mechanical properties :
#
#
# Convention : Reuss Voigt Hill
#
# Bulk Modulus (GPa) = 34.92914 46.03770 40.48342
# Shear Modulus (GPa) = 28.76602 33.46544 31.11573
#
# Velocity S-wave (km/s) = 3.58537 3.86716 3.72893
# Velocity P-wave (km/s) = 5.72267 6.36500 6.05236
#
# Compressibility (1/GPa) = 0.02862939
#
# Stress axis : x y z
#
# Youngs Moduli (GPa) = 74.36719 63.49208 84.43140
#
# Poissons Ratio (x) = 0.18935 0.00367
# Poissons Ratio (y) = 0.22178 0.26849
# Poissons Ratio (z) = 0.00324 0.20190
#
# Static dielectric constant tensor:
#      x y z
#    x 4.144190 -0.071470 0.198360 
#    y -0.071470 3.530130 -0.308710 
#    z 0.198360 -0.308710 4.414130 
# 
# 
# High freq. dielectric constant tensor:
#      x y z
#    x 1.898890 0.019770 0.005190 
#    y 0.019770 1.854890 -0.021480 
#    z 0.005190 -0.021480 1.900570 
# 
# From -- ./inp_files/245092.got.cif
#   From: 2010.06.25/outbox.cif.g09.slc.cpg/sg2_123_cif.got.tgz:245092.got - 2010.06.27 13:26:56.
