data_PCOD8008060
_publ_section_title
;
Structure prediction by ZEFSAII (Michael W. Deem and Ramdas Pophale) SiO2 
 PCOD8008060
Probable space group: P -1
;
_chemical_formula_sum "Si O2"
_cell_formula_units_Z 16
_cell_length_a 20.596373
_cell_length_b 9.159151
_cell_length_c 9.567413
_cell_angle_alpha 77.552768
_cell_angle_beta 132.370457
_cell_angle_gamma 64.066834
_cell_volume 768.010081
_symmetry_space_group_name_H-M "P -1"
_symmetry_group_IT_number 2
_symmetry_cell_setting 'triclinic'
loop_
_space_group_symop_operation_xyz
x,y,z
-x,-y,-z
loop_
_atom_site_type_symbol
_atom_site_label
_atom_site_fract_x
_atom_site_fract_y
_atom_site_fract_z
Si Si1 0.416307 0.826813 0.203389
Si Si2 0.613132 0.217066 0.355796
Si Si3 0.397586 0.512938 0.217706
Si Si4 0.069036 0.316398 0.011691
Si Si5 0.097419 0.751535 0.285145
Si Si6 0.880436 0.256231 0.357841
Si Si7 0.864268 0.622079 0.192264
Si Si8 0.569141 0.621599 0.181715
O O1 0.347966 0.752958 0.119597
O O2 0.569367 0.615302 0.561102
O O3 0.467378 0.807815 0.127712
O O4 0.292095 0.108977 0.024296
O O5 0.555715 0.282903 0.416816
O O6 0.595524 0.411001 0.244757
O O7 0.787119 0.954231 0.656914
O O8 0.528871 0.211473 0.134371
O O9 0.279021 0.597173 0.930431
O O10 0.116497 0.358710 0.944807
O O11 0.000000 0.500000 0.000000
O O12 0.955664 0.344713 0.791827
O O13 0.075550 0.821245 0.401053
O O14 0.273016 0.511005 0.552581
O O15 0.000000 0.000000 0.000000
O O16 0.872431 0.433812 0.252622
O O17 0.000000 0.000000 0.500000
O O18 0.000000 0.500000 0.500000
#
# Coordination Sequence:
#
# PCOD8008060 Si02
#       8
#     2   2   2   2   2   2   2   2
#     4  10  23  40  72  99 137 183 226 282 346 414
#     4  10  20  42  65 100 137 180 231 278 343 413
#     4  10  21  42  68 100 135 181 235 277 340 413
#     4  12  28  46  70 102 143 191 226 290 355 413
#     4  12  26  46  70 105 144 179 240 288 342 417
#     4  12  28  44  72 102 139 186 236 289 347 416
#     4  12  26  47  67 100 143 181 232 287 353 416
#     4  10  22  39  71 101 137 181 228 286 338 411
#
# _framework density 20.833062000000002
#
# number of rings (size 3 to 8) (size 9 to 14) (size 15 to 20)
#    0.000    1.000    5.000    0.750    5.250    0.500 
#    2.250    1.250    0.000    0.000    0.000    0.000 
#    0.000    0.000    0.000    0.000    0.000    0.000 
#
# Total GULP energy -198378.354581 kJ/mol
# GULP energy per Si atom -12398.647161 kJ/mol
# Density = 2.078565 g / cm^3
# Si number density = 20.833062 Si / 1000 Ang^3
#
#
#
# Elastic Constant Matrix: (Units=GPa)
#
#
# Indices 1 2 3 4 5 6 
#
# 1 102.2318 63.0221 40.9160 -1.6733 -1.1634 -11.7211
# 2 63.0221 148.4762 58.0495 -4.2455 1.5131 -15.6749
# 3 40.9160 58.0495 98.1684 21.4170 16.3608 -5.6234
# 4 -1.6733 -4.2455 21.4170 38.6761 -6.1918 4.1520
# 5 -1.1634 1.5131 16.3608 -6.1918 38.0292 7.0076
# 6 -11.7211 -15.6749 -5.6234 4.1520 7.0076 36.9411
#
#
#
# Elastic Compliance Matrix: (Units=1/GPa)
#
#
# Indices 1 2 3 4 5 6 
#
# 1 0.014399 -0.004102 -0.004659 0.003082 0.002884 0.001225
# 2 -0.004102 0.011221 -0.006346 0.004843 0.002681 0.001441
# 3 -0.004659 -0.006346 0.021333 -0.014970 -0.012067 0.003048
# 4 0.003082 0.004843 -0.014970 0.037635 0.013585 -0.006053
# 5 0.002884 0.002681 -0.012067 0.013585 0.035151 -0.007979
# 6 0.001225 0.001441 0.003048 -0.006053 -0.007979 0.030728
#
#
# Mechanical properties :
#
#
# Convention : Reuss Voigt Hill
#
# Bulk Modulus (GPa) = 59.74446 74.76127 67.25287
# Shear Modulus (GPa) = 26.84430 35.18854 31.01642
#
# Velocity S-wave (km/s) = 3.59352 4.11429 3.86269
# Velocity P-wave (km/s) = 6.77922 7.65073 7.22812
#
# Compressibility (1/GPa) = 0.01673795
#
# Stress axis : x y z
#
# Youngs Moduli (GPa) = 69.45019 89.12043 46.87673
#
# Poissons Ratio (x) = 0.36560 0.21838
# Poissons Ratio (y) = 0.28490 0.29749
# Poissons Ratio (z) = 0.32353 0.56559
#
# Static dielectric constant tensor:
#      x y z
#    x 4.426920 0.212980 0.058030 
#    y 0.212980 3.872680 0.216760 
#    z 0.058030 0.216760 4.038450 
# 
# 
# High freq. dielectric constant tensor:
#      x y z
#    x 1.814120 -0.013880 -0.000060 
#    y -0.013880 1.817100 0.011130 
#    z -0.000060 0.011130 1.831640 
# 
# From -- ./inp_files/223218.got.cif
#   From: 2010.06.25/outbox.cif.g09.slc.cpg/sg2_112_cif.got.tgz:223218.got - 2010.06.27 13:26:56.
