data_PCOD8008998
_publ_section_title
;
Structure prediction by ZEFSAII (Michael W. Deem and Ramdas Pophale) SiO2 
 PCOD8008998
Probable space group: P -1
;
_chemical_formula_sum "Si O2"
_cell_formula_units_Z 16
_cell_length_a 9.081301
_cell_length_b 10.461756
_cell_length_c 15.901072
_cell_angle_alpha 69.255489
_cell_angle_beta 146.773023
_cell_angle_gamma 100.945328
_cell_volume 757.255650
_symmetry_space_group_name_H-M "P -1"
_symmetry_group_IT_number 2
_symmetry_cell_setting 'triclinic'
loop_
_space_group_symop_operation_xyz
x,y,z
-x,-y,-z
loop_
_atom_site_type_symbol
_atom_site_label
_atom_site_fract_x
_atom_site_fract_y
_atom_site_fract_z
Si Si1 0.552934 0.016805 0.314289
Si Si2 0.990925 0.197027 0.499136
Si Si3 0.066344 0.232629 0.964546
Si Si4 0.731375 0.437341 0.875774
Si Si5 0.232922 0.637703 0.496248
Si Si6 0.644221 0.209977 0.633972
Si Si7 0.119304 0.403314 0.385131
Si Si8 0.277735 0.499295 0.964325
O O1 0.726330 0.128760 0.400410
O O2 0.491839 0.925210 0.386450
O O3 0.258157 0.089693 0.120634
O O4 0.727634 0.918821 0.348438
O O5 0.997819 0.290671 0.563527
O O6 0.955204 0.298031 0.377307
O O7 0.262296 0.342012 0.018330
O O8 0.823381 0.291692 0.902756
O O9 0.932879 0.194589 0.823273
O O10 0.492752 0.542922 0.688740
O O11 0.644251 0.416968 0.935999
O O12 0.000000 0.500000 0.000000
O O13 0.322330 0.760788 0.455577
O O14 0.077830 0.547459 0.382922
O O15 0.443364 0.343263 0.548697
O O16 0.012690 0.427016 0.232908
O O17 0.500000 0.500000 0.000000
#
# Coordination Sequence:
#
# PCOD8008998 Si02
#       8
#     2   2   2   2   2   2   2   2
#     4  10  23  42  60  82 124 169 208 238 299 360
#     4  10  23  41  62  87 119 170 201 247 297 370
#     4  11  20  40  59  87 125 159 202 247 302 362
#     4  10  21  35  62  92 126 154 195 251 309 363
#     4  12  21  39  64  96 122 150 206 257 310 356
#     4  11  22  38  63  90 120 164 200 255 297 359
#     4  11  21  39  65  91 127 153 199 254 316 359
#     4  11  22  37  60  94 126 160 192 252 314 360
#
# _framework density 21.128927999999998
#
# number of rings (size 3 to 8) (size 9 to 14) (size 15 to 20)
#    0.000    1.250    2.500    5.625    0.000    0.500 
#    0.000    4.375    0.000    0.000    0.000    0.000 
#    0.000    0.000    0.000    0.000    0.000    0.000 
#
# Total GULP energy -198368.272629 kJ/mol
# GULP energy per Si atom -12398.017039 kJ/mol
# Density = 2.108084 g / cm^3
# Si number density = 21.128928 Si / 1000 Ang^3
#
#
#
# Elastic Constant Matrix: (Units=GPa)
#
#
# Indices 1 2 3 4 5 6 
#
# 1 106.7493 16.6773 45.5431 -13.0751 -16.1916 -6.0926
# 2 16.6773 49.4343 29.5680 -11.8612 -7.2886 4.7522
# 3 45.5431 29.5680 132.1942 -10.1931 -13.6934 -10.6995
# 4 -13.0751 -11.8612 -10.1931 29.9223 -1.8869 -0.2444
# 5 -16.1916 -7.2886 -13.6934 -1.8869 32.7509 0.2176
# 6 -6.0926 4.7522 -10.6995 -0.2444 0.2176 31.9285
#
#
#
# Elastic Compliance Matrix: (Units=1/GPa)
#
#
# Indices 1 2 3 4 5 6 
#
# 1 0.012120 -0.000629 -0.003095 0.004306 0.004797 0.001369
# 2 -0.000629 0.026782 -0.005145 0.008797 0.004043 -0.005791
# 3 -0.003095 -0.005145 0.010257 0.000233 0.001603 0.003603
# 4 0.004306 0.008797 0.000233 0.039273 0.006447 -0.000153
# 5 0.004797 0.004043 0.001603 0.006447 0.034842 0.000663
# 6 0.001369 -0.005791 0.003603 -0.000153 0.000663 0.033645
#
#
# Mechanical properties :
#
#
# Convention : Reuss Voigt Hill
#
# Bulk Modulus (GPa) = 31.82602 52.43939 42.13270
# Shear Modulus (GPa) = 27.00796 32.02632 29.51714
#
# Velocity S-wave (km/s) = 3.57913 3.89750 3.74170
# Velocity P-wave (km/s) = 5.67237 6.71763 6.21701
#
# Compressibility (1/GPa) = 0.03142083
#
# Stress axis : x y z
#
# Youngs Moduli (GPa) = 82.51132 37.33856 97.49046
#
# Poissons Ratio (x) = 0.02347 0.30174
# Poissons Ratio (y) = 0.05187 0.50162
# Poissons Ratio (z) = 0.25538 0.19212
#
# Static dielectric constant tensor:
#      x y z
#    x 4.352820 -0.268080 -0.458940 
#    y -0.268080 3.942350 0.180710 
#    z -0.458940 0.180710 4.353100 
# 
# 
# High freq. dielectric constant tensor:
#      x y z
#    x 1.832700 0.005630 0.000820 
#    y 0.005630 1.812580 -0.003040 
#    z 0.000820 -0.003040 1.829380 
# 
# From -- ./inp_files/187436.got.cif
#   From: 2010.06.25/outbox.cif.g09.slc.cpg/sg2_94_cif.got.tgz:187436.got - 2010.06.27 13:26:56.
