data_PCOD8008907
_publ_section_title
;
Structure prediction by ZEFSAII (Michael W. Deem and Ramdas Pophale) SiO2 
 PCOD8008907
Probable space group: P -1
;
_chemical_formula_sum "Si O2"
_cell_formula_units_Z 10
_cell_length_a 5.184041
_cell_length_b 8.429412
_cell_length_c 12.966031
_cell_angle_alpha 104.846689
_cell_angle_beta 91.446337
_cell_angle_gamma 122.525164
_cell_volume 452.447878
_symmetry_space_group_name_H-M "P -1"
_symmetry_group_IT_number 2
_symmetry_cell_setting 'triclinic'
loop_
_space_group_symop_operation_xyz
x,y,z
-x,-y,-z
loop_
_atom_site_type_symbol
_atom_site_label
_atom_site_fract_x
_atom_site_fract_y
_atom_site_fract_z
Si Si1 0.063987 0.584673 0.901156
Si Si2 0.917240 0.647507 0.309757
Si Si3 0.859590 0.911327 0.662857
Si Si4 0.276933 0.806918 0.532120
Si Si5 0.665063 0.715605 0.832096
O O1 0.920043 0.400468 0.788010
O O2 0.908146 0.705450 0.903875
O O3 0.562870 0.263543 0.090378
O O4 0.000000 0.500000 0.000000
O O5 0.544001 0.485343 0.272879
O O6 0.049626 0.631804 0.419522
O O7 0.982940 0.863068 0.332442
O O8 0.504753 0.767432 0.591413
O O9 0.846993 0.899530 0.785455
O O10 0.070241 0.837585 0.614080
O O11 0.500000 0.000000 0.500000
#
# Coordination Sequence:
#
# PCOD8008907 Si02
#       5
#     2   2   2   2   2
#     4  10  22  42  61  81 115 148 191 245 287 331
#     4   9  23  36  62  81 118 155 190 221 293 330
#     4  11  22  38  58  87 122 147 188 235 271 344
#     4  10  21  35  58  87 120 154 186 224 279 341
#     4  10  23  38  60  86 114 147 196 232 284 337
#
# _framework density 22.101996
#
# number of rings (size 3 to 8) (size 9 to 14) (size 15 to 20)
#    1.200    0.800    0.000    4.200    8.400    1.600 
#    0.000    2.000    0.000    0.000    0.000    0.000 
#    0.000    0.000    0.000    0.000    0.000    0.000 
#
# Total GULP energy -123929.502271 kJ/mol
# GULP energy per Si atom -12392.950227 kJ/mol
# Density = 2.205169 g / cm^3
# Si number density = 22.101996 Si / 1000 Ang^3
#
#
#
# Elastic Constant Matrix: (Units=GPa)
#
#
# Indices 1 2 3 4 5 6 
#
# 1 157.5568 2.9648 26.5731 -22.7075 7.6160 8.8256
# 2 2.9648 20.2548 -7.4814 -8.6033 6.1176 3.0051
# 3 26.5731 -7.4814 67.3743 -32.0685 -2.0628 -4.9695
# 4 -22.7075 -8.6033 -32.0685 40.7612 -2.8144 -2.2730
# 5 7.6160 6.1176 -2.0628 -2.8144 40.1504 -13.8192
# 6 8.8256 3.0051 -4.9695 -2.2730 -13.8192 17.5072
#
#
#
# Elastic Compliance Matrix: (Units=1/GPa)
#
#
# Indices 1 2 3 4 5 6 
#
# 1 0.007723 0.000873 -0.003098 0.001270 -0.004539 -0.008340
# 2 0.000873 0.077516 0.022541 0.032924 -0.013137 -0.013443
# 3 -0.003098 0.022541 0.035610 0.032557 0.007421 0.017886
# 4 0.001270 0.032924 0.032557 0.059050 0.005778 0.015177
# 5 -0.004539 -0.013137 0.007421 0.005778 0.042704 0.041108
# 6 -0.008340 -0.013443 0.017886 0.015177 0.041108 0.103126
#
#
# Mechanical properties :
#
#
# Convention : Reuss Voigt Hill
#
# Bulk Modulus (GPa) = 6.19272 32.14432 19.16852
# Shear Modulus (GPa) = 14.75250 34.55905 24.65577
#
# Velocity S-wave (km/s) = 2.58635 3.95855 3.34360
# Velocity P-wave (km/s) = 3.42446 5.95556 4.85776
#
# Compressibility (1/GPa) = 0.16148000
#
# Stress axis : x y z
#
# Youngs Moduli (GPa) = 129.48822 12.90051 28.08161
#
# Poissons Ratio (x) = -0.01126 0.08701
# Poissons Ratio (y) = -0.11302 -0.63298
# Poissons Ratio (z) = 0.40121 -0.29079
#
# Static dielectric constant tensor:
#      x y z
#    x 4.132700 0.118720 0.294110 
#    y 0.118720 3.596920 -0.137600 
#    z 0.294110 -0.137600 4.066830 
# 
# 
# High freq. dielectric constant tensor:
#      x y z
#    x 1.877050 0.008400 0.006620 
#    y 0.008400 1.843660 -0.023460 
#    z 0.006620 -0.023460 1.863270 
# 
# From -- ./inp_files/15778.got.cif
#   From: 2010.06.25/outbox.cif.g09.slc.cpg/sg2_8_cif.got.tgz:15778.got - 2010.06.27 13:26:56.
