data_PCOD8008291
_publ_section_title
;
Structure prediction by ZEFSAII (Michael W. Deem and Ramdas Pophale) SiO2 
 PCOD8008291
Probable space group: P -1
;
_chemical_formula_sum "Si O2"
_cell_formula_units_Z 16
_cell_length_a 11.095306
_cell_length_b 11.444591
_cell_length_c 11.450387
_cell_angle_alpha 141.344674
_cell_angle_beta 123.860761
_cell_angle_gamma 60.251502
_cell_volume 748.922458
_symmetry_space_group_name_H-M "P -1"
_symmetry_group_IT_number 2
_symmetry_cell_setting 'triclinic'
loop_
_space_group_symop_operation_xyz
x,y,z
-x,-y,-z
loop_
_atom_site_type_symbol
_atom_site_label
_atom_site_fract_x
_atom_site_fract_y
_atom_site_fract_z
Si Si1 0.744587 0.753615 0.734302
Si Si2 0.510136 0.534422 0.316812
Si Si3 0.940690 0.750476 0.242808
Si Si4 0.100745 0.012564 0.381215
Si Si5 0.324678 0.801918 0.977874
Si Si6 0.207750 0.467263 0.186593
Si Si7 0.403167 0.829807 0.304708
Si Si8 0.005394 0.816129 0.781887
O O1 0.619559 0.630923 0.533041
O O2 0.796190 0.694046 0.844957
O O3 0.880420 0.700238 0.676512
O O4 0.687079 0.975441 0.881464
O O5 0.364621 0.539516 0.318791
O O6 0.485786 0.651543 0.275945
O O7 0.565336 0.317388 0.144931
O O8 0.854373 0.857195 0.386763
O O9 0.089243 0.642110 0.292098
O O10 0.833925 0.610699 0.023317
O O11 0.980144 0.887772 0.267475
O O12 0.028590 0.138963 0.336094
O O13 0.244643 0.883982 0.317544
O O14 0.383038 0.767945 0.113291
O O15 0.170178 0.715634 0.808255
O O16 0.500000 0.000000 0.500000
O O17 0.000000 0.000000 0.000000
#
# Coordination Sequence:
#
# PCOD8008291 Si02
#       8
#     2   2   2   2   2   2   2   2
#     4  11  24  46  66  97 142 175 219 285 332 390
#     4  12  26  44  67  99 135 185 221 268 341 403
#     4  10  24  41  69  98 127 179 231 275 331 391
#     4  11  21  43  72  97 128 178 222 283 333 394
#     4  11  25  42  71 102 132 181 219 275 340 399
#     4  11  25  45  63  95 140 175 227 278 326 402
#     4  12  23  45  69  97 145 168 220 282 335 398
#     4  10  20  42  70  97 132 170 222 279 338 387
#
# _framework density 21.364027
#
# number of rings (size 3 to 8) (size 9 to 14) (size 15 to 20)
#    0.000    1.000    5.000    2.250    3.500    1.000 
#    4.500    0.000    0.000    0.000    0.000    0.000 
#    0.000    0.000    0.000    0.000    0.000    0.000 
#
# Total GULP energy -198434.266072 kJ/mol
# GULP energy per Si atom -12402.141629 kJ/mol
# Density = 2.131540 g / cm^3
# Si number density = 21.364027 Si / 1000 Ang^3
#
#
#
# Elastic Constant Matrix: (Units=GPa)
#
#
# Indices 1 2 3 4 5 6 
#
# 1 72.6712 20.0107 35.8815 -6.1690 8.8208 3.4575
# 2 20.0107 97.8470 22.0025 -9.6480 -6.2984 13.2854
# 3 35.8815 22.0025 95.8581 -6.0976 3.6168 -3.3931
# 4 -6.1690 -9.6480 -6.0976 33.6548 -4.7592 -0.0415
# 5 8.8208 -6.2984 3.6168 -4.7592 29.7021 0.6172
# 6 3.4575 13.2854 -3.3931 -0.0415 0.6172 35.7112
#
#
#
# Elastic Compliance Matrix: (Units=1/GPa)
#
#
# Indices 1 2 3 4 5 6 
#
# 1 0.018152 -0.002409 -0.006048 0.000832 -0.005004 -0.001348
# 2 -0.002409 0.012408 -0.002058 0.003335 0.004228 -0.004647
# 3 -0.006048 -0.002058 0.013312 0.000688 -0.000206 0.002620
# 4 0.000832 0.003335 0.000688 0.031721 0.005486 -0.001314
# 5 -0.005004 0.004228 -0.000206 0.005486 0.036991 -0.001741
# 6 -0.001348 -0.004647 0.002620 -0.001314 -0.001741 0.030139
#
#
# Mechanical properties :
#
#
# Convention : Reuss Voigt Hill
#
# Bulk Modulus (GPa) = 43.77886 46.90729 45.34308
# Shear Modulus (GPa) = 29.17713 32.37904 30.77808
#
# Velocity S-wave (km/s) = 3.69956 3.89728 3.79971
# Velocity P-wave (km/s) = 6.22779 6.50043 6.36557
#
# Compressibility (1/GPa) = 0.02284208
#
# Stress axis : x y z
#
# Youngs Moduli (GPa) = 55.08957 80.59627 75.11751
#
# Poissons Ratio (x) = 0.19419 0.45429
# Poissons Ratio (y) = 0.13274 0.15459
# Poissons Ratio (z) = 0.33317 0.16586
#
# Static dielectric constant tensor:
#      x y z
#    x 4.155600 -0.160370 0.154920 
#    y -0.160370 4.005970 -0.174750 
#    z 0.154920 -0.174750 3.861660 
# 
# 
# High freq. dielectric constant tensor:
#      x y z
#    x 1.837830 -0.000480 0.003480 
#    y -0.000480 1.842480 -0.010880 
#    z 0.003480 -0.010880 1.843240 
# 
# From -- ./inp_files/427068.got.cif
#   From: 2010.06.25/outbox.cif.g09.slc.cpg/sg2_214_cif.got.tgz:427068.got - 2010.06.27 13:26:56.
