data_PCOD8008034
_publ_section_title
;
Structure prediction by ZEFSAII (Michael W. Deem and Ramdas Pophale) SiO2 
 PCOD8008034
Probable space group: P -1
;
_chemical_formula_sum "Si O2"
_cell_formula_units_Z 16
_cell_length_a 12.057980
_cell_length_b 20.517623
_cell_length_c 6.922408
_cell_angle_alpha 124.943901
_cell_angle_beta 134.508060
_cell_angle_gamma 40.762272
_cell_volume 794.225984
_symmetry_space_group_name_H-M "P -1"
_symmetry_group_IT_number 2
_symmetry_cell_setting 'triclinic'
loop_
_space_group_symop_operation_xyz
x,y,z
-x,-y,-z
loop_
_atom_site_type_symbol
_atom_site_label
_atom_site_fract_x
_atom_site_fract_y
_atom_site_fract_z
Si Si1 0.482661 0.216155 0.228402
Si Si2 0.120255 0.952247 0.761823
Si Si3 0.131596 0.237895 0.719783
Si Si4 0.170473 0.396010 0.937345
Si Si5 0.653610 0.277499 0.798012
Si Si6 0.025680 0.115865 0.206852
Si Si7 0.266840 0.648107 0.346632
Si Si8 0.412324 0.433669 0.070335
O O1 0.657929 0.142017 0.169011
O O2 0.562221 0.218142 0.539508
O O3 0.332130 0.188141 0.005475
O O4 0.360026 0.331544 0.200163
O O5 0.008224 0.921991 0.701787
O O6 0.000000 0.000000 0.500000
O O7 0.130358 0.031602 0.026969
O O8 0.097750 0.327385 0.694090
O O9 0.159919 0.150881 0.475701
O O10 0.950877 0.283791 0.720077
O O11 0.245486 0.418643 0.877995
O O12 0.000000 0.500000 0.000000
O O13 0.732558 0.284892 0.702955
O O14 0.498857 0.386928 0.886380
O O15 0.819457 0.213148 0.048063
O O16 0.309600 0.550734 0.132955
O O17 0.420756 0.619208 0.652748
#
# Coordination Sequence:
#
# PCOD8008034 Si02
#       8
#     2   2   2   2   2   2   2   2
#     4  10  22  41  64  92 132 169 208 269 330 376
#     4  11  23  45  72  94 126 167 217 274 331 389
#     4  10  22  41  63  96 134 169 214 264 331 377
#     4  10  20  42  64  89 136 181 208 255 329 379
#     4  12  22  39  65  98 124 171 227 262 318 394
#     4  11  24  41  70  98 121 166 224 268 324 394
#     4  11  21  38  61  90 134 170 218 273 311 374
#     4  11  21  37  63  90 127 181 221 257 316 384
#
# _framework density 20.145402000000001
#
# number of rings (size 3 to 8) (size 9 to 14) (size 15 to 20)
#    0.750    0.500    5.000    1.875    0.000    0.500 
#    4.500    1.875    0.000    0.000    0.000    0.000 
#    0.000    0.000    0.000    0.000    0.000    0.000 
#
# Total GULP energy -198305.839717 kJ/mol
# GULP energy per Si atom -12394.114982 kJ/mol
# Density = 2.009955 g / cm^3
# Si number density = 20.145402 Si / 1000 Ang^3
#
#
#
# Elastic Constant Matrix: (Units=GPa)
#
#
# Indices 1 2 3 4 5 6 
#
# 1 94.1284 38.7400 51.1114 8.8248 7.6366 -4.1205
# 2 38.7400 95.3927 38.1409 18.7421 1.6626 -8.1236
# 3 51.1114 38.1409 111.9776 25.4835 11.4308 8.1158
# 4 8.8248 18.7421 25.4835 43.1891 6.0918 -0.4182
# 5 7.6366 1.6626 11.4308 6.0918 31.2629 5.8959
# 6 -4.1205 -8.1236 8.1158 -0.4182 5.8959 37.6609
#
#
#
# Elastic Compliance Matrix: (Units=1/GPa)
#
#
# Indices 1 2 3 4 5 6 
#
# 1 0.015849 -0.004149 -0.006382 0.002682 -0.002332 0.002609
# 2 -0.004149 0.014118 -0.002335 -0.004067 0.001374 0.002834
# 3 -0.006382 -0.002335 0.014480 -0.006033 -0.001657 -0.004130
# 4 0.002682 -0.004067 -0.006033 0.028526 -0.004108 0.001676
# 5 -0.002332 0.001374 -0.001657 -0.004108 0.034852 -0.005103
# 6 0.002609 0.002834 -0.004130 0.001676 -0.005103 0.029157
#
#
# Mechanical properties :
#
#
# Convention : Reuss Voigt Hill
#
# Bulk Modulus (GPa) = 53.43406 61.94259 57.68833
# Shear Modulus (GPa) = 29.59394 33.98968 31.79181
#
# Velocity S-wave (km/s) = 3.83693 4.11203 3.97686
# Velocity P-wave (km/s) = 6.79788 7.30476 7.05588
#
# Compressibility (1/GPa) = 0.01871465
#
# Stress axis : x y z
#
# Youngs Moduli (GPa) = 63.09623 70.83155 69.05881
#
# Poissons Ratio (x) = 0.29385 0.44077
# Poissons Ratio (y) = 0.26176 0.16127
# Poissons Ratio (z) = 0.40271 0.16541
#
# Static dielectric constant tensor:
#      x y z
#    x 3.628410 -0.017190 0.188010 
#    y -0.017190 3.758370 0.210030 
#    z 0.188010 0.210030 3.606450 
# 
# 
# High freq. dielectric constant tensor:
#      x y z
#    x 1.780120 -0.006280 0.009930 
#    y -0.006280 1.793350 0.017000 
#    z 0.009930 0.017000 1.775510 
# 
# From -- ./inp_files/83498.got.cif
#   From: 2010.06.25/outbox.cif.g09.slc.cpg/sg2_42_cif.got.tgz:83498.got - 2010.06.27 13:26:56.
