data_PCOD8008028
_publ_section_title
;
Structure prediction by ZEFSAII (Michael W. Deem and Ramdas Pophale) SiO2 
 PCOD8008028
Probable space group: P -1
;
_chemical_formula_sum "Si O2"
_cell_formula_units_Z 14
_cell_length_a 32.168190
_cell_length_b 6.794088
_cell_length_c 9.522778
_cell_angle_alpha 49.973051
_cell_angle_beta 152.808558
_cell_angle_gamma 138.874611
_cell_volume 623.009870
_symmetry_space_group_name_H-M "P -1"
_symmetry_group_IT_number 2
_symmetry_cell_setting 'triclinic'
loop_
_space_group_symop_operation_xyz
x,y,z
-x,-y,-z
loop_
_atom_site_type_symbol
_atom_site_label
_atom_site_fract_x
_atom_site_fract_y
_atom_site_fract_z
Si Si1 0.844904 0.888900 0.487898
Si Si2 0.025658 0.428808 0.957413
Si Si3 0.107586 0.716680 0.800364
Si Si4 0.374794 0.789151 0.202711
Si Si5 0.302111 0.692909 0.336204
Si Si6 0.646857 0.700348 0.160038
Si Si7 0.560605 0.640865 0.475556
O O1 0.888162 0.666077 0.719169
O O2 0.724594 0.720900 0.259427
O O3 0.839870 0.971102 0.270784
O O4 0.918030 0.172637 0.677945
O O5 0.080869 0.721848 0.883911
O O6 0.000000 0.500000 0.000000
O O7 0.000000 0.500000 0.500000
O O8 0.181573 0.571503 0.076457
O O9 0.312446 0.751751 0.175649
O O10 0.353620 0.468813 0.232682
O O11 0.500000 0.000000 0.500000
O O12 0.336285 0.969920 0.903917
O O13 0.331168 0.439909 0.572837
O O14 0.378280 0.000622 0.507633
O O15 0.524692 0.476247 0.852210
O O16 0.500000 0.500000 0.500000
#
# Coordination Sequence:
#
# PCOD8008028 Si02
#       7
#     2   2   2   2   2   2   2
#     4  10  20  42  64  88 131 171 208 273 328 384
#     4  10  22  41  64  95 125 165 222 270 324 390
#     4  10  21  41  69  90 129 175 212 267 332 382
#     4  10  22  42  63  90 128 170 214 260 325 378
#     4  12  22  43  66  95 129 169 221 266 320 386
#     4  11  22  41  68  93 128 173 211 268 324 380
#     4  11  22  43  64  93 134 168 211 267 322 385
#
# _framework density 22.471554000000001
#
# number of rings (size 3 to 8) (size 9 to 14) (size 15 to 20)
#    0.000    1.429    5.714    0.429    0.000    2.857 
#   10.286    0.000    0.000    0.000    0.000    0.000 
#    0.000    0.000    0.000    0.000    0.000    0.000 
#
# Total GULP energy -173501.917639 kJ/mol
# GULP energy per Si atom -12392.994117 kJ/mol
# Density = 2.242041 g / cm^3
# Si number density = 22.471554 Si / 1000 Ang^3
#
#
#
# Elastic Constant Matrix: (Units=GPa)
#
#
# Indices 1 2 3 4 5 6 
#
# 1 123.1288 33.5767 23.3712 -3.5366 -1.3661 -0.3012
# 2 33.5767 89.3316 42.5330 -29.7695 -2.1598 3.7357
# 3 23.3712 42.5330 101.6011 -27.6396 7.5915 -0.9891
# 4 -3.5366 -29.7695 -27.6396 34.1842 7.4537 -2.4658
# 5 -1.3661 -2.1598 7.5915 7.4537 38.6170 -5.6909
# 6 -0.3012 3.7357 -0.9891 -2.4658 -5.6909 29.5729
#
#
#
# Elastic Compliance Matrix: (Units=1/GPa)
#
#
# Indices 1 2 3 4 5 6 
#
# 1 0.009472 -0.004165 -0.001692 -0.004271 0.001328 0.000465
# 2 -0.004165 0.018821 -0.003138 0.013597 -0.001346 -0.001650
# 3 -0.001692 -0.003138 0.014666 0.010086 -0.004954 0.000757
# 4 -0.004271 0.013597 0.010086 0.051294 -0.011170 0.000704
# 5 0.001328 -0.001346 -0.004954 -0.011170 0.029705 0.004803
# 6 0.000465 -0.001650 0.000757 0.000704 0.004803 0.035036
#
#
# Mechanical properties :
#
#
# Convention : Reuss Voigt Hill
#
# Bulk Modulus (GPa) = 40.04753 57.00259 48.52506
# Shear Modulus (GPa) = 26.98230 34.78020 30.88125
#
# Velocity S-wave (km/s) = 3.46892 3.93840 3.71109
# Velocity P-wave (km/s) = 5.82277 6.78992 6.32486
#
# Compressibility (1/GPa) = 0.02497033
#
# Stress axis : x y z
#
# Youngs Moduli (GPa) = 105.57725 53.13076 68.18389
#
# Poissons Ratio (x) = 0.22131 0.11534
# Poissons Ratio (y) = 0.43977 0.21393
# Poissons Ratio (z) = 0.17860 0.16670
#
# Static dielectric constant tensor:
#      x y z
#    x 4.076870 0.134740 0.292830 
#    y 0.134740 4.260000 -0.248620 
#    z 0.292830 -0.248620 4.154740 
# 
# 
# High freq. dielectric constant tensor:
#      x y z
#    x 1.883990 0.021230 0.015410 
#    y 0.021230 1.866570 -0.022180 
#    z 0.015410 -0.022180 1.894700 
# 
# From -- ./inp_files/358193.got.cif
#   From: 2010.06.25/outbox.cif.g09.slc.cpg/sg2_180_cif.got.tgz:358193.got - 2010.06.27 13:26:56.
