data_PCOD8008950
_publ_section_title
;
Structure prediction by ZEFSAII (Michael W. Deem and Ramdas Pophale) SiO2 
 PCOD8008950
Probable space group: P -1
;
_chemical_formula_sum "Si O2"
_cell_formula_units_Z 12
_cell_length_a 14.743849
_cell_length_b 11.844312
_cell_length_c 11.608824
_cell_angle_alpha 121.472971
_cell_angle_beta 28.575628
_cell_angle_gamma 138.757871
_cell_volume 574.546554
_symmetry_space_group_name_H-M "P -1"
_symmetry_group_IT_number 2
_symmetry_cell_setting 'triclinic'
loop_
_space_group_symop_operation_xyz
x,y,z
-x,-y,-z
loop_
_atom_site_type_symbol
_atom_site_label
_atom_site_fract_x
_atom_site_fract_y
_atom_site_fract_z
Si Si1 0.644221 0.078294 0.757225
Si Si2 0.572437 0.290700 0.304203
Si Si3 0.162700 0.485054 0.395795
Si Si4 0.644028 0.804525 0.903887
Si Si5 0.812218 0.781231 0.466444
Si Si6 0.865269 0.506083 0.308002
O O1 0.976506 0.258004 0.495801
O O2 0.583763 0.923562 0.662066
O O3 0.530053 0.149811 0.860805
O O4 0.500000 0.000000 0.000000
O O5 0.390917 0.319234 0.469712
O O6 0.609537 0.330768 0.421173
O O7 0.867824 0.442449 0.995882
O O8 0.201090 0.561992 0.522711
O O9 0.000000 0.500000 0.500000
O O10 0.470753 0.612394 0.072219
O O11 0.639828 0.748564 0.749208
O O12 0.948883 0.991969 0.704767
O O13 0.926257 0.692442 0.316099
#
# Coordination Sequence:
#
# PCOD8008950 Si02
#       6
#     2   2   2   2   2   2
#     4  11  17  38  64  88 114 157 201 243 293 348
#     4  11  22  38  64  88 120 156 200 243 292 356
#     4  10  21  38  62  89 121 153 200 247 293 347
#     4  10  21  35  60  92 117 149 203 252 286 343
#     4  11  21  39  63  89 117 157 201 242 294 353
#     4  11  23  40  62  88 120 159 198 241 299 353
#
# _framework density 20.886033999999999
#
# number of rings (size 3 to 8) (size 9 to 14) (size 15 to 20)
#    0.000    1.333    5.000    1.500    2.333    0.667 
#    0.000    4.167    3.667    0.000    0.000    0.000 
#    0.000    0.000    0.000    0.000    0.000    0.000 
#
# Total GULP energy -148728.171429 kJ/mol
# GULP energy per Si atom -12394.014286 kJ/mol
# Density = 2.083850 g / cm^3
# Si number density = 20.886034 Si / 1000 Ang^3
#
#
#
# Elastic Constant Matrix: (Units=GPa)
#
#
# Indices 1 2 3 4 5 6 
#
# 1 137.8223 37.7197 45.1935 -14.0063 6.6418 31.3319
# 2 37.7197 88.2784 26.2902 -18.7501 16.2492 19.9215
# 3 45.1935 26.2902 109.1281 -38.7393 21.5288 10.8314
# 4 -14.0063 -18.7501 -38.7393 32.9499 -7.5264 -5.6858
# 5 6.6418 16.2492 21.5288 -7.5264 28.2429 3.8699
# 6 31.3319 19.9215 10.8314 -5.6858 3.8699 40.0641
#
#
#
# Elastic Compliance Matrix: (Units=1/GPa)
#
#
# Indices 1 2 3 4 5 6 
#
# 1 0.010564 -0.002873 -0.004729 -0.003148 0.002794 -0.006271
# 2 -0.002873 0.015960 0.001986 0.007755 -0.007349 -0.004416
# 3 -0.004729 0.001986 0.019601 0.020142 -0.009770 0.001214
# 4 -0.003148 0.007755 0.020142 0.056404 -0.004260 0.001577
# 5 0.002794 -0.007349 -0.009770 -0.004260 0.045411 -0.000880
# 6 -0.006271 -0.004416 0.001214 0.001577 -0.000880 0.032040
#
#
# Mechanical properties :
#
#
# Convention : Reuss Voigt Hill
#
# Bulk Modulus (GPa) = 28.65948 61.51507 45.08727
# Shear Modulus (GPa) = 24.64947 35.31973 29.98460
#
# Velocity S-wave (km/s) = 3.43911 4.11672 3.79308
# Velocity P-wave (km/s) = 5.43338 7.21895 6.38885
#
# Compressibility (1/GPa) = 0.03489247
#
# Stress axis : x y z
#
# Youngs Moduli (GPa) = 94.66337 62.65512 51.01807
#
# Poissons Ratio (x) = 0.18002 0.24127
# Poissons Ratio (y) = 0.27198 -0.10132
# Poissons Ratio (z) = 0.44766 -0.12443
#
# Static dielectric constant tensor:
#      x y z
#    x 3.881950 -0.013970 -0.002430 
#    y -0.013970 4.015700 -0.351530 
#    z -0.002430 -0.351530 4.073100 
# 
# 
# High freq. dielectric constant tensor:
#      x y z
#    x 1.815290 0.002140 -0.018920 
#    y 0.002140 1.812780 -0.008560 
#    z -0.018920 -0.008560 1.813310 
# 
# From -- ./inp_files/152213.got.cif
#   From: 2010.06.25/outbox.cif.g09.slc.cpg/sg2_77_cif.got.tgz:152213.got - 2010.06.27 13:26:56.
