data_PCOD8008690
_publ_section_title
;
Structure prediction by ZEFSAII (Michael W. Deem and Ramdas Pophale) SiO2 
 PCOD8008690
Probable space group: P -1
;
_chemical_formula_sum "Si O2"
_cell_formula_units_Z 16
_cell_length_a 19.251940
_cell_length_b 9.420667
_cell_length_c 11.244842
_cell_angle_alpha 53.060061
_cell_angle_beta 138.441718
_cell_angle_gamma 95.355096
_cell_volume 800.669868
_symmetry_space_group_name_H-M "P -1"
_symmetry_group_IT_number 2
_symmetry_cell_setting 'triclinic'
loop_
_space_group_symop_operation_xyz
x,y,z
-x,-y,-z
loop_
_atom_site_type_symbol
_atom_site_label
_atom_site_fract_x
_atom_site_fract_y
_atom_site_fract_z
Si Si1 0.217097 0.672220 0.687016
Si Si2 0.577784 0.749443 0.663585
Si Si3 0.632953 0.955873 0.445709
Si Si4 0.034554 0.117037 0.889458
Si Si5 0.365533 0.402590 0.770556
Si Si6 0.640667 0.230214 0.527046
Si Si7 0.134917 0.154784 0.360960
Si Si8 0.903533 0.484259 0.721775
O O1 0.303012 0.556807 0.733473
O O2 0.056403 0.796292 0.391138
O O3 0.215274 0.878504 0.625097
O O4 0.285586 0.471536 0.976511
O O5 0.632978 0.757802 0.603138
O O6 0.458023 0.731211 0.511262
O O7 0.500000 0.000000 0.500000
O O8 0.773618 0.817265 0.619018
O O9 0.623375 0.122268 0.446512
O O10 0.494983 0.123675 0.101032
O O11 0.995188 0.347720 0.788024
O O12 0.195610 0.938066 0.143039
O O13 0.000000 0.000000 0.000000
O O14 0.421691 0.505556 0.715390
O O15 0.249767 0.428853 0.533044
O O16 0.111535 0.287018 0.388452
O O17 0.984769 0.296663 0.030915
#
# Coordination Sequence:
#
# PCOD8008690 Si02
#       8
#     2   2   2   2   2   2   2   2
#     4  11  18  34  56  84 107 137 175 227 265 314
#     4  10  22  33  50  84 110 140 178 219 264 315
#     4  11  20  34  52  79 110 144 176 218 262 313
#     4  11  17  32  56  88 107 127 176 232 268 305
#     4  11  18  32  58  81 107 130 183 228 262 306
#     4  11  17  31  54  83 106 134 169 223 272 309
#     4  11  20  35  58  79 110 142 175 214 274 317
#     4  10  21  33  53  88 109 133 173 229 267 316
#
# _framework density 19.983267000000001
#
# number of rings (size 3 to 8) (size 9 to 14) (size 15 to 20)
#    0.000    1.250    8.750    1.125    0.000    0.500 
#    0.000    3.750    0.000    6.000    0.000    0.000 
#    0.000    0.000    0.000    0.000    0.000    0.000 
#
# Total GULP energy -198319.037790 kJ/mol
# GULP energy per Si atom -12394.939862 kJ/mol
# Density = 1.993778 g / cm^3
# Si number density = 19.983267 Si / 1000 Ang^3
#
#
#
# Elastic Constant Matrix: (Units=GPa)
#
#
# Indices 1 2 3 4 5 6 
#
# 1 74.0871 28.6357 62.2482 8.9267 -9.8862 20.2830
# 2 28.6357 83.5875 46.5563 -7.1857 -7.6669 4.8919
# 3 62.2482 46.5563 162.5966 6.9973 -4.6348 24.8808
# 4 8.9267 -7.1857 6.9973 23.7668 13.3267 7.7747
# 5 -9.8862 -7.6669 -4.6348 13.3267 22.1625 -4.8274
# 6 20.2830 4.8919 24.8808 7.7747 -4.8274 20.8202
#
#
#
# Elastic Compliance Matrix: (Units=1/GPa)
#
#
# Indices 1 2 3 4 5 6 
#
# 1 0.027714 -0.005180 -0.006821 -0.018458 0.018857 -0.006365
# 2 -0.005180 0.015988 -0.003250 0.008532 -0.002272 0.001461
# 3 -0.006821 -0.003250 0.010627 0.005373 -0.007125 -0.008950
# 4 -0.018458 0.008532 0.005373 0.114889 -0.084789 -0.053006
# 5 0.018857 -0.002272 -0.007125 -0.084789 0.112806 0.048496
# 6 -0.006365 0.001461 -0.008950 -0.053006 0.048496 0.095622
#
#
# Mechanical properties :
#
#
# Convention : Reuss Voigt Hill
#
# Bulk Modulus (GPa) = 41.96918 66.12796 54.04857
# Shear Modulus (GPa) = 12.01663 25.53862 18.77763
#
# Velocity S-wave (km/s) = 2.45487 3.57879 3.06873
# Velocity P-wave (km/s) = 5.39286 7.08805 6.29776
#
# Compressibility (1/GPa) = 0.02382701
#
# Stress axis : x y z
#
# Youngs Moduli (GPa) = 36.08345 62.54694 94.09721
#
# Poissons Ratio (x) = 0.32399 0.64181
# Poissons Ratio (y) = 0.18691 0.30584
# Poissons Ratio (z) = 0.24612 0.20330
#
# Static dielectric constant tensor:
#      x y z
#    x 3.745020 0.307630 0.156920 
#    y 0.307630 3.675590 0.053590 
#    z 0.156920 0.053590 3.947070 
# 
# 
# High freq. dielectric constant tensor:
#      x y z
#    x 1.733340 0.022090 0.019700 
#    y 0.022090 1.763550 0.001160 
#    z 0.019700 0.001160 1.795510 
# 
# From -- ./inp_files/469243.got.cif
#   From: 2010.06.25/outbox.cif.g09.slc.cpg/sg2_235_cif.got.tgz:469243.got - 2010.06.27 13:26:56.
