data_PCOD8008812
_publ_section_title
;
Structure prediction by ZEFSAII (Michael W. Deem and Ramdas Pophale) SiO2 
 PCOD8008812
Probable space group: P -1
;
_chemical_formula_sum "Si O2"
_cell_formula_units_Z 14
_cell_length_a 8.523368
_cell_length_b 15.045453
_cell_length_c 9.319062
_cell_angle_alpha 62.633830
_cell_angle_beta 115.284033
_cell_angle_gamma 136.489748
_cell_volume 722.062843
_symmetry_space_group_name_H-M "P -1"
_symmetry_group_IT_number 2
_symmetry_cell_setting 'triclinic'
loop_
_space_group_symop_operation_xyz
x,y,z
-x,-y,-z
loop_
_atom_site_type_symbol
_atom_site_label
_atom_site_fract_x
_atom_site_fract_y
_atom_site_fract_z
Si Si1 0.653102 0.353124 0.227866
Si Si2 0.381817 0.584441 0.522041
Si Si3 0.695049 0.135993 0.396391
Si Si4 0.191030 0.299763 0.584641
Si Si5 0.433230 0.266640 0.921251
Si Si6 0.399224 0.875763 0.954840
Si Si7 0.153797 0.612544 0.184326
O O1 0.590908 0.391410 0.315877
O O2 0.665187 0.240296 0.347646
O O3 0.893385 0.480066 0.158392
O O4 0.453741 0.301158 0.071914
O O5 0.231249 0.429751 0.544273
O O6 0.636545 0.673120 0.491023
O O7 0.238982 0.624703 0.372307
O O8 0.686462 0.113817 0.238361
O O9 0.936492 0.186270 0.510997
O O10 0.500000 0.000000 0.500000
O O11 0.222196 0.245196 0.781981
O O12 0.675564 0.391007 0.845660
O O13 0.404587 0.135133 0.987850
O O14 0.185886 0.741525 0.056457
O O15 0.500000 0.000000 0.000000
#
# Coordination Sequence:
#
# PCOD8008812 Si02
#       7
#     2   2   2   2   2   2   2
#     4  11  20  37  61  97 115 156 210 241 294 347
#     4  10  21  34  64  91 125 153 194 255 294 359
#     4  11  25  39  63  87 118 159 207 249 287 360
#     4  10  21  41  57  89 125 158 192 242 320 343
#     4   8  20  36  61  85 124 156 188 252 296 354
#     4   9  21  39  59  87 117 160 200 238 299 357
#     4   9  18  34  63  88 119 156 191 254 285 356
#
# _framework density 19.388892999999999
#
# number of rings (size 3 to 8) (size 9 to 14) (size 15 to 20)
#    0.857    1.429    1.429    0.857    2.000    0.571 
#    0.000    7.143    0.000    0.000    0.000    0.000 
#    0.000    0.000    0.000    0.000    0.000    0.000 
#
# Total GULP energy -173521.707433 kJ/mol
# GULP energy per Si atom -12394.407674 kJ/mol
# Density = 1.934476 g / cm^3
# Si number density = 19.388893 Si / 1000 Ang^3
#
#
#
# Elastic Constant Matrix: (Units=GPa)
#
#
# Indices 1 2 3 4 5 6 
#
# 1 53.3148 47.9917 48.9535 13.5496 2.8785 4.2408
# 2 47.9917 130.6216 76.4571 -0.4754 5.6554 4.6133
# 3 48.9535 76.4571 159.9539 18.6580 12.9350 4.2127
# 4 13.5496 -0.4754 18.6580 40.1621 -1.6671 -0.1562
# 5 2.8785 5.6554 12.9350 -1.6671 25.8287 12.1955
# 6 4.2408 4.6133 4.2127 -0.1562 12.1955 24.0719
#
#
#
# Elastic Compliance Matrix: (Units=1/GPa)
#
#
# Indices 1 2 3 4 5 6 
#
# 1 0.034812 -0.009911 -0.004870 -0.009523 0.002287 -0.004602
# 2 -0.009911 0.013791 -0.004255 0.005516 0.000824 -0.000534
# 3 -0.004870 -0.004255 0.010540 -0.003509 -0.005178 0.002429
# 4 -0.009523 0.005516 -0.003509 0.029962 0.003773 -0.000482
# 5 0.002287 0.000824 -0.005178 0.003773 0.053817 -0.026895
# 6 -0.004602 -0.000534 0.002429 -0.000482 -0.026895 0.055653
#
#
# Mechanical properties :
#
#
# Convention : Reuss Voigt Hill
#
# Bulk Modulus (GPa) = 47.45628 76.74390 62.10009
# Shear Modulus (GPa) = 20.51958 29.37839 24.94899
#
# Velocity S-wave (km/s) = 3.25671 3.89680 3.59105
# Velocity P-wave (km/s) = 6.21857 7.74042 7.02085
#
# Compressibility (1/GPa) = 0.02107203
#
# Stress axis : x y z
#
# Youngs Moduli (GPa) = 28.72561 72.51242 94.87750
#
# Poissons Ratio (x) = 0.71868 0.46203
# Poissons Ratio (y) = 0.28470 0.40366
# Poissons Ratio (z) = 0.13989 0.30851
#
# Static dielectric constant tensor:
#      x y z
#    x 3.242170 -0.057190 0.076900 
#    y -0.057190 3.296240 0.012910 
#    z 0.076900 0.012910 3.810610 
# 
# 
# High freq. dielectric constant tensor:
#      x y z
#    x 1.722160 -0.004690 0.002250 
#    y -0.004690 1.738010 0.006420 
#    z 0.002250 0.006420 1.775700 
# 
# From -- ./inp_files/195921.got.cif
#   From: 2010.06.25/outbox.cif.g09.slc.cpg/sg2_98_cif.got.tgz:195921.got - 2010.06.27 13:26:56.
