data_PCOD8008937
_publ_section_title
;
Structure prediction by ZEFSAII (Michael W. Deem and Ramdas Pophale) SiO2 
 PCOD8008937
Probable space group: P -1
;
_chemical_formula_sum "Si O2"
_cell_formula_units_Z 16
_cell_length_a 11.528166
_cell_length_b 17.536391
_cell_length_c 17.985259
_cell_angle_alpha 27.000314
_cell_angle_beta 143.159879
_cell_angle_gamma 149.470464
_cell_volume 829.987774
_symmetry_space_group_name_H-M "P -1"
_symmetry_group_IT_number 2
_symmetry_cell_setting 'triclinic'
loop_
_space_group_symop_operation_xyz
x,y,z
-x,-y,-z
loop_
_atom_site_type_symbol
_atom_site_label
_atom_site_fract_x
_atom_site_fract_y
_atom_site_fract_z
Si Si1 0.447825 0.863841 0.161771
Si Si2 0.197976 0.240321 0.541155
Si Si3 0.995879 0.463922 0.286757
Si Si4 0.187323 0.376418 0.255052
Si Si5 0.325198 0.792590 0.904677
Si Si6 0.397436 0.840490 0.741532
Si Si7 0.272646 0.150459 0.376560
Si Si8 0.477377 0.666957 0.804952
O O1 0.574738 0.744039 0.325208
O O2 0.173486 0.701428 0.164840
O O3 0.527303 0.998830 0.158392
O O4 0.500000 0.000000 0.000000
O O5 0.128059 0.350601 0.470456
O O6 0.249144 0.347110 0.394687
O O7 0.999433 0.006749 0.635750
O O8 0.863006 0.359725 0.230788
O O9 0.792556 0.418499 0.280245
O O10 0.317384 0.315021 0.317364
O O11 0.915192 0.238818 0.217869
O O12 0.287608 0.611157 0.093075
O O13 0.469183 0.818411 0.880584
O O14 0.561539 0.842271 0.758925
O O15 0.402504 0.043808 0.561210
O O16 0.367130 0.256043 0.254266
O O17 0.500000 0.500000 0.000000
#
# Coordination Sequence:
#
# PCOD8008937 Si02
#       8
#     2   2   2   2   2   2   2   2
#     4  12  25  36  57  91 125 159 186 240 308 361
#     4  11  21  37  61  87 122 155 193 246 293 359
#     4   9  22  39  55  85 123 150 198 229 301 344
#     4  11  20  34  58  91 117 151 198 246 295 338
#     4  11  21  35  60  85 123 150 195 245 294 350
#     4   9  20  37  59  86 111 152 200 245 277 343
#     4  11  19  32  59  91 112 146 202 244 291 329
#     4  10  21  35  60  85 118 154 198 253 281 337
#
# _framework density 19.277391999999999
#
# number of rings (size 3 to 8) (size 9 to 14) (size 15 to 20)
#    0.750    0.750    3.750    3.375    3.500    0.000 
#    0.000    0.000    0.000    6.000    0.000    0.000 
#    0.000    0.000    0.000    0.000    0.000    0.000 
#
# Total GULP energy -198295.691627 kJ/mol
# GULP energy per Si atom -12393.480727 kJ/mol
# Density = 1.923352 g / cm^3
# Si number density = 19.277392 Si / 1000 Ang^3
#
#
#
# Elastic Constant Matrix: (Units=GPa)
#
#
# Indices 1 2 3 4 5 6 
#
# 1 91.1410 4.3965 33.9848 5.0176 0.6899 -0.0213
# 2 4.3965 48.2760 17.2172 -7.7940 1.0490 -5.0171
# 3 33.9848 17.2172 102.7644 4.0595 -6.9161 2.5555
# 4 5.0176 -7.7940 4.0595 24.1070 -3.4709 0.2898
# 5 0.6899 1.0490 -6.9161 -3.4709 37.3543 -6.6980
# 6 -0.0213 -5.0171 2.5555 0.2898 -6.6980 17.5334
#
#
#
# Elastic Compliance Matrix: (Units=1/GPa)
#
#
# Indices 1 2 3 4 5 6 
#
# 1 0.012658 0.000058 -0.004198 -0.002079 -0.001164 0.000234
# 2 0.000058 0.024563 -0.004628 0.008710 0.000662 0.007812
# 3 -0.004198 -0.004628 0.012170 -0.002382 0.001814 -0.002371
# 4 -0.002079 0.008710 -0.002382 0.045701 0.004265 0.003711
# 5 -0.001164 0.000662 0.001814 0.004265 0.029500 0.011123
# 6 0.000234 0.007812 -0.002371 0.003711 0.011123 0.063803
#
#
# Mechanical properties :
#
#
# Convention : Reuss Voigt Hill
#
# Bulk Modulus (GPa) = 31.39214 39.26428 35.32821
# Shear Modulus (GPa) = 23.08939 28.23780 25.66359
#
# Velocity S-wave (km/s) = 3.46460 3.83144 3.65263
# Velocity P-wave (km/s) = 5.68545 6.32341 6.01290
#
# Compressibility (1/GPa) = 0.03185511
#
# Stress axis : x y z
#
# Youngs Moduli (GPa) = 79.00258 40.71106 82.17036
#
# Poissons Ratio (x) = -0.00237 0.34493
# Poissons Ratio (y) = -0.00460 0.38032
# Poissons Ratio (z) = 0.33164 0.18843
#
# Static dielectric constant tensor:
#      x y z
#    x 3.689210 -0.065710 0.139140 
#    y -0.065710 3.300850 -0.109390 
#    z 0.139140 -0.109390 3.503100 
# 
# 
# High freq. dielectric constant tensor:
#      x y z
#    x 1.749720 -0.011450 0.010000 
#    y -0.011450 1.715200 -0.016500 
#    z 0.010000 -0.016500 1.754370 
# 
# From -- ./inp_files/570237.got.cif
#   From: 2010.06.25/outbox.cif.g09.slc.cpg/sg2_286_cif.got.tgz:570237.got - 2010.06.27 13:26:56.
