data_PCOD8008362
_publ_section_title
;
Structure prediction by ZEFSAII (Michael W. Deem and Ramdas Pophale) SiO2 
 PCOD8008362
Probable space group: P -1
;
_chemical_formula_sum "Si O2"
_cell_formula_units_Z 12
_cell_length_a 7.089633
_cell_length_b 14.716367
_cell_length_c 12.108508
_cell_angle_alpha 28.886775
_cell_angle_beta 79.603341
_cell_angle_gamma 95.410645
_cell_volume 508.652100
_symmetry_space_group_name_H-M "P -1"
_symmetry_group_IT_number 2
_symmetry_cell_setting 'triclinic'
loop_
_space_group_symop_operation_xyz
x,y,z
-x,-y,-z
loop_
_atom_site_type_symbol
_atom_site_label
_atom_site_fract_x
_atom_site_fract_y
_atom_site_fract_z
Si Si1 0.686018 0.475164 0.370184
Si Si2 0.802542 0.837251 0.553142
Si Si3 0.219365 0.858943 0.372321
Si Si4 0.563737 0.608831 0.027804
Si Si5 0.230724 0.166918 0.859280
Si Si6 0.414853 0.921895 0.715045
O O1 0.836090 0.371034 0.434170
O O2 0.682344 0.624404 0.113542
O O3 0.430089 0.272244 0.636519
O O4 0.791043 0.636817 0.292682
O O5 0.558602 0.634917 0.750539
O O6 0.002131 0.821385 0.499370
O O7 0.809134 0.060020 0.273429
O O8 0.777633 0.797162 0.731197
O O9 0.412296 0.923495 0.372941
O O10 0.294261 0.043671 0.074067
O O11 0.376561 0.678083 0.991733
O O12 0.000000 0.000000 0.000000
O O13 0.500000 0.000000 0.500000
#
# Coordination Sequence:
#
# PCOD8008362 Si02
#       6
#     2   2   2   2   2   2
#     4  11  24  46  70 100 138 176 234 284 344 403
#     4  10  23  40  66 100 140 174 225 269 344 409
#     4  12  24  44  69 101 137 180 222 285 341 409
#     4  10  20  43  64  98 136 179 220 280 330 409
#     4  11  26  47  71  99 132 182 235 288 341 402
#     4  10  22  41  65  98 137 179 219 269 332 410
#
# _framework density 23.591761999999999
#
# number of rings (size 3 to 8) (size 9 to 14) (size 15 to 20)
#    0.000    1.333    3.333    1.500    0.000    5.333 
#    0.000    0.000    0.000    0.000    0.000    0.000 
#    0.000    0.000    0.000    0.000    0.000    0.000 
#
# Total GULP energy -148758.689665 kJ/mol
# GULP energy per Si atom -12396.557472 kJ/mol
# Density = 2.353807 g / cm^3
# Si number density = 23.591762 Si / 1000 Ang^3
#
#
#
# Elastic Constant Matrix: (Units=GPa)
#
#
# Indices 1 2 3 4 5 6 
#
# 1 132.4680 57.7685 59.3571 13.8903 18.8614 -28.2983
# 2 57.7685 116.0930 37.5128 2.5343 11.7439 -14.2830
# 3 59.3571 37.5128 82.2693 2.5502 20.5217 -14.9164
# 4 13.8903 2.5343 2.5502 30.6184 -7.8045 5.4613
# 5 18.8614 11.7439 20.5217 -7.8045 38.5480 -11.8064
# 6 -28.2983 -14.2830 -14.9164 5.4613 -11.8064 47.7709
#
#
#
# Elastic Compliance Matrix: (Units=1/GPa)
#
#
# Indices 1 2 3 4 5 6 
#
# 1 0.014690 -0.003981 -0.007044 -0.007257 -0.001962 0.005657
# 2 -0.003981 0.011338 -0.002288 0.001018 -0.000022 0.000195
# 3 -0.007044 -0.002288 0.019842 0.000130 -0.006478 -0.000277
# 4 -0.007257 0.001018 0.000130 0.039313 0.009243 -0.006164
# 5 -0.001962 -0.000022 -0.006478 0.009243 0.033460 0.004021
# 6 0.005657 0.000195 -0.000277 -0.006164 0.004021 0.025955
#
#
# Mechanical properties :
#
#
# Convention : Reuss Voigt Hill
#
# Bulk Modulus (GPa) = 51.96165 71.12300 61.54233
# Shear Modulus (GPa) = 28.14703 35.13360 31.64032
#
# Velocity S-wave (km/s) = 3.45786 3.86324 3.66616
# Velocity P-wave (km/s) = 6.16567 7.07901 6.63807
#
# Compressibility (1/GPa) = 0.01924496
#
# Stress axis : x y z
#
# Youngs Moduli (GPa) = 68.07361 88.19724 50.39765
#
# Poissons Ratio (x) = 0.35111 0.35498
# Poissons Ratio (y) = 0.27100 0.11532
# Poissons Ratio (z) = 0.47948 0.20182
#
# Static dielectric constant tensor:
#      x y z
#    x 4.789990 -0.512160 -0.024460 
#    y -0.512160 4.663630 0.142590 
#    z -0.024460 0.142590 4.634530 
# 
# 
# High freq. dielectric constant tensor:
#      x y z
#    x 1.919770 -0.012970 0.023640 
#    y -0.012970 1.954970 -0.000760 
#    z 0.023640 -0.000760 1.932700 
# 
# From -- ./inp_files/74224.got.cif
#   From: 2010.06.25/outbox.cif.g09.slc.cpg/sg2_38_cif.got.tgz:74224.got - 2010.06.27 13:26:56.
