data_PCOD8008397
_publ_section_title
;
Structure prediction by ZEFSAII (Michael W. Deem and Ramdas Pophale) SiO2 
 PCOD8008397
Probable space group: P -1
;
_chemical_formula_sum "Si O2"
_cell_formula_units_Z 16
_cell_length_a 23.720473
_cell_length_b 12.200402
_cell_length_c 8.662353
_cell_angle_alpha 124.161970
_cell_angle_beta 33.534258
_cell_angle_gamma 144.756458
_cell_volume 741.147999
_symmetry_space_group_name_H-M "P -1"
_symmetry_group_IT_number 2
_symmetry_cell_setting 'triclinic'
loop_
_space_group_symop_operation_xyz
x,y,z
-x,-y,-z
loop_
_atom_site_type_symbol
_atom_site_label
_atom_site_fract_x
_atom_site_fract_y
_atom_site_fract_z
Si Si1 0.373468 0.059545 0.186200
Si Si2 0.813630 0.829733 0.806593
Si Si3 0.826182 0.603739 0.223678
Si Si4 0.169501 0.948817 0.828693
Si Si5 0.833216 0.349015 0.842609
Si Si6 0.960553 0.350781 0.850756
Si Si7 0.330481 0.282816 0.265837
Si Si8 0.274376 0.546126 0.325883
O O1 0.335534 0.159175 0.264429
O O2 0.301365 0.998655 0.474413
O O3 0.303118 0.860532 0.106113
O O4 0.560105 0.219755 0.904391
O O5 0.761787 0.852697 0.785309
O O6 0.716599 0.598147 0.851546
O O7 0.000000 0.000000 0.500000
O O8 0.767809 0.847953 0.091719
O O9 0.752919 0.677098 0.419988
O O10 0.761018 0.475523 0.428521
O O11 0.788047 0.459916 0.060296
O O12 0.015276 0.806649 0.961487
O O13 0.133551 0.854207 0.005258
O O14 0.848976 0.293398 0.926948
O O15 0.000000 0.500000 0.500000
O O16 0.131732 0.469693 0.491550
O O17 0.000000 0.500000 0.000000
O O18 0.500000 0.500000 0.000000
#
# Coordination Sequence:
#
# PCOD8008397 Si02
#       8
#     2   2   2   2   2   2   2   2
#     4  12  25  42  68  98 143 165 220 284 331 380
#     4  11  19  40  68  87 126 171 225 253 325 396
#     4  10  20  43  66  93 136 166 228 264 325 396
#     4  11  22  40  66  97 127 172 221 268 320 398
#     4  12  24  44  71 102 128 174 228 277 323 397
#     4  11  20  42  70  89 126 179 219 256 329 400
#     4  11  22  43  66 101 134 174 215 281 335 386
#     4  10  22  41  65  96 129 171 214 275 321 395
#
# _framework density 21.588132000000002
#
# number of rings (size 3 to 8) (size 9 to 14) (size 15 to 20)
#    0.000    1.000   10.000    0.750    0.000    1.500 
#    2.250    2.500    0.000    0.000    0.000    0.000 
#    0.000    0.000    0.000    0.000    0.000    0.000 
#
# Total GULP energy -198323.148202 kJ/mol
# GULP energy per Si atom -12395.196763 kJ/mol
# Density = 2.153900 g / cm^3
# Si number density = 21.588132 Si / 1000 Ang^3
#
#
#
# Elastic Constant Matrix: (Units=GPa)
#
#
# Indices 1 2 3 4 5 6 
#
# 1 43.0746 9.6711 6.2030 1.5721 -5.0559 7.5711
# 2 9.6711 141.0217 52.7715 16.0066 11.4895 17.9786
# 3 6.2030 52.7715 104.9319 3.7013 6.7425 13.1696
# 4 1.5721 16.0066 3.7013 51.9276 2.4941 -1.1578
# 5 -5.0559 11.4895 6.7425 2.4941 18.4651 6.4457
# 6 7.5711 17.9786 13.1696 -1.1578 6.4457 27.9633
#
#
#
# Elastic Compliance Matrix: (Units=1/GPa)
#
#
# Indices 1 2 3 4 5 6 
#
# 1 0.026517 -0.001321 -0.000499 -0.001107 0.011482 -0.008787
# 2 -0.001321 0.009694 -0.004076 -0.002567 -0.003416 -0.003274
# 3 -0.000499 -0.004076 0.011996 0.000412 -0.001122 -0.002618
# 4 -0.001107 -0.002567 0.000412 0.020255 -0.002717 0.003221
# 5 0.011482 -0.003416 -0.001122 -0.002717 0.065659 -0.015631
# 6 -0.008787 -0.003274 -0.002618 0.003221 -0.015631 0.045215
#
#
# Mechanical properties :
#
#
# Convention : Reuss Voigt Hill
#
# Bulk Modulus (GPa) = 27.46226 47.36883 37.41554
# Shear Modulus (GPa) = 24.59832 34.36336 29.48084
#
# Velocity S-wave (km/s) = 3.37922 3.99403 3.69942
# Velocity P-wave (km/s) = 5.28905 6.57719 5.96798
#
# Compressibility (1/GPa) = 0.03641361
#
# Stress axis : x y z
#
# Youngs Moduli (GPa) = 37.71209 103.15550 83.36384
#
# Poissons Ratio (x) = 0.13630 0.04159
# Poissons Ratio (y) = 0.04983 0.33981
# Poissons Ratio (z) = 0.01881 0.42049
#
# Static dielectric constant tensor:
#      x y z
#    x 2.342750 0.069390 -0.005090 
#    y 0.069390 4.111900 0.287880 
#    z -0.005090 0.287880 4.072430 
# 
# 
# High freq. dielectric constant tensor:
#      x y z
#    x 1.823450 0.001370 -0.005900 
#    y 0.001370 1.862210 0.011460 
#    z -0.005900 0.011460 1.843430 
# 
# From -- ./inp_files/357338.got.cif
#   From: 2010.06.25/outbox.cif.g09.slc.cpg/sg2_179_cif.got.tgz:357338.got - 2010.06.27 13:26:56.
