data_PCOD8008382
_publ_section_title
;
Structure prediction by ZEFSAII (Michael W. Deem and Ramdas Pophale) SiO2 
 PCOD8008382
Probable space group: P -1
;
_chemical_formula_sum "Si O2"
_cell_formula_units_Z 16
_cell_length_a 15.074999
_cell_length_b 8.621918
_cell_length_c 9.086695
_cell_angle_alpha 132.541875
_cell_angle_beta 106.421623
_cell_angle_gamma 100.441834
_cell_volume 709.411842
_symmetry_space_group_name_H-M "P -1"
_symmetry_group_IT_number 2
_symmetry_cell_setting 'triclinic'
loop_
_space_group_symop_operation_xyz
x,y,z
-x,-y,-z
loop_
_atom_site_type_symbol
_atom_site_label
_atom_site_fract_x
_atom_site_fract_y
_atom_site_fract_z
Si Si1 0.708630 0.559396 0.988663
Si Si2 0.098637 0.254624 0.571900
Si Si3 0.653713 0.807716 0.878472
Si Si4 0.525145 0.811283 0.316168
Si Si5 0.055988 0.751862 0.278052
Si Si6 0.256300 0.640610 0.684616
Si Si7 0.726465 0.213139 0.540683
Si Si8 0.590423 0.532012 0.382151
O O1 0.713945 0.767280 0.017187
O O2 0.592087 0.426497 0.937293
O O3 0.720337 0.365024 0.770881
O O4 0.805666 0.677191 0.223566
O O5 0.140320 0.426292 0.557326
O O6 0.006255 0.290241 0.623471
O O7 0.050224 0.966113 0.322205
O O8 0.660992 0.673577 0.650892
O O9 0.527219 0.699267 0.780643
O O10 0.713715 0.099563 0.064358
O O11 0.584535 0.732592 0.410073
O O12 0.500000 0.000000 0.500000
O O13 0.609698 0.948209 0.308268
O O14 0.180598 0.846228 0.427454
O O15 0.000000 0.500000 0.000000
O O16 0.251694 0.640623 0.506430
O O17 0.345650 0.578416 0.739949
#
# Coordination Sequence:
#
# PCOD8008382 Si02
#       8
#     2   2   2   2   2   2   2   2
#     4  10  20  43  65  97 134 176 218 267 319 392
#     4  11  26  43  71 101 126 167 228 270 326 397
#     4  10  22  37  62  90 139 178 214 270 324 380
#     4   9  21  36  69  95 133 179 218 257 326 385
#     4  11  24  48  74  94 125 171 221 276 329 390
#     4  12  25  39  64 100 131 169 218 275 329 385
#     4  11  22  42  67  96 135 176 217 267 332 384
#     4  10  21  39  57  95 135 180 223 261 317 391
#
# _framework density 22.553894
#
# number of rings (size 3 to 8) (size 9 to 14) (size 15 to 20)
#    0.000    1.500    2.500    1.875    5.250    2.500 
#    0.000    3.750    0.000    0.000    0.000    0.000 
#    0.000    0.000    0.000    0.000    0.000    0.000 
#
# Total GULP energy -198397.880692 kJ/mol
# GULP energy per Si atom -12399.867543 kJ/mol
# Density = 2.250256 g / cm^3
# Si number density = 22.553894 Si / 1000 Ang^3
#
#
#
# Elastic Constant Matrix: (Units=GPa)
#
#
# Indices 1 2 3 4 5 6 
#
# 1 129.4228 46.9469 16.2290 18.7133 -0.9490 8.3515
# 2 46.9469 138.0101 25.7329 25.6517 -8.5850 20.7515
# 3 16.2290 25.7329 76.7983 14.9693 -7.8814 2.9729
# 4 18.7133 25.6517 14.9693 37.4506 -7.8549 2.5349
# 5 -0.9490 -8.5850 -7.8814 -7.8549 23.0326 7.4365
# 6 8.3515 20.7515 2.9729 2.5349 7.4365 39.6620
#
#
#
# Elastic Compliance Matrix: (Units=1/GPa)
#
#
# Indices 1 2 3 4 5 6 
#
# 1 0.009149 -0.002549 -0.000693 -0.002926 -0.001803 -0.000016
# 2 -0.002549 0.010104 -0.001527 -0.003984 0.003400 -0.005018
# 3 -0.000693 -0.001527 0.014780 -0.003775 0.003350 -0.000550
# 4 -0.002926 -0.003984 -0.003775 0.034378 0.009125 -0.000925
# 5 -0.001803 0.003400 0.003350 0.009125 0.052785 -0.012131
# 6 -0.000016 -0.005018 -0.000550 -0.000925 -0.012131 0.030217
#
#
# Mechanical properties :
#
#
# Convention : Reuss Voigt Hill
#
# Bulk Modulus (GPa) = 40.82584 58.00542 49.41563
# Shear Modulus (GPa) = 29.56532 37.05053 33.30792
#
# Velocity S-wave (km/s) = 3.62453 4.05749 3.84710
# Velocity P-wave (km/s) = 5.97135 6.90836 6.45687
#
# Compressibility (1/GPa) = 0.02449429
#
# Stress axis : x y z
#
# Youngs Moduli (GPa) = 109.30176 98.96835 67.65744
#
# Poissons Ratio (x) = 0.25226 0.04692
# Poissons Ratio (y) = 0.27860 0.10333
# Poissons Ratio (z) = 0.07580 0.15115
#
# Static dielectric constant tensor:
#      x y z
#    x 4.321890 0.123310 0.013330 
#    y 0.123310 4.131020 0.269830 
#    z 0.013330 0.269830 3.940490 
# 
# 
# High freq. dielectric constant tensor:
#      x y z
#    x 1.901260 -0.002710 -0.014340 
#    y -0.002710 1.887220 0.016990 
#    z -0.014340 0.016990 1.878500 
# 
# From -- ./inp_files/299752.got.cif
#   From: 2010.06.25/outbox.cif.g09.slc.cpg/sg2_150_cif.got.tgz:299752.got - 2010.06.27 13:26:56.
