data_PCOD8008146
_publ_section_title
;
Structure prediction by ZEFSAII (Michael W. Deem and Ramdas Pophale) SiO2 
 PCOD8008146
Probable space group: P -1
;
_chemical_formula_sum "Si O2"
_cell_formula_units_Z 12
_cell_length_a 14.444341
_cell_length_b 9.526985
_cell_length_c 18.210903
_cell_angle_alpha 43.447571
_cell_angle_beta 20.276995
_cell_angle_gamma 40.664194
_cell_volume 564.762566
_symmetry_space_group_name_H-M "P -1"
_symmetry_group_IT_number 2
_symmetry_cell_setting 'triclinic'
loop_
_space_group_symop_operation_xyz
x,y,z
-x,-y,-z
loop_
_atom_site_type_symbol
_atom_site_label
_atom_site_fract_x
_atom_site_fract_y
_atom_site_fract_z
Si Si1 0.290138 0.939561 0.345601
Si Si2 0.647304 0.598990 0.097139
Si Si3 0.711883 0.453646 0.748791
Si Si4 0.067035 0.720644 0.888587
Si Si5 0.646962 0.180016 0.029810
Si Si6 0.785839 0.306320 0.365737
O O1 0.534100 0.771615 0.180796
O O2 0.258743 0.861329 0.480217
O O3 0.000000 0.000000 0.500000
O O4 0.360606 0.161573 0.214243
O O5 0.407709 0.638048 0.198226
O O6 0.712617 0.360437 0.176753
O O7 0.941082 0.625099 0.839240
O O8 0.794811 0.281204 0.819188
O O9 0.000000 0.500000 0.500000
O O10 0.448790 0.663548 0.888308
O O11 0.180883 0.799806 0.700000
O O12 0.822288 0.934551 0.018066
O O13 0.000000 0.500000 0.000000
O O14 0.500000 0.500000 0.500000
#
# Coordination Sequence:
#
# PCOD8008146 Si02
#       6
#     2   2   2   2   2   2
#     4  12  23  36  68 101 127 171 222 271 335 386
#     4  11  23  43  64 103 134 163 229 278 316 402
#     4  11  27  46  66  92 138 184 220 263 330 392
#     4  10  20  42  66  98 130 162 215 281 328 380
#     4  11  24  45  65  94 136 173 219 274 327 394
#     4  11  21  39  67  99 134 167 206 281 340 379
#
# _framework density 21.247868
#
# number of rings (size 3 to 8) (size 9 to 14) (size 15 to 20)
#    0.000    1.000    5.000    3.000    4.667    3.333 
#    0.000    0.833    0.000    0.000    0.000    0.000 
#    0.000    0.000    0.000    0.000    0.000    0.000 
#
# Total GULP energy -148667.487717 kJ/mol
# GULP energy per Si atom -12388.957310 kJ/mol
# Density = 2.119951 g / cm^3
# Si number density = 21.247868 Si / 1000 Ang^3
#
#
#
# Elastic Constant Matrix: (Units=GPa)
#
#
# Indices 1 2 3 4 5 6 
#
# 1 60.9479 3.2976 30.0824 -4.9211 13.1952 -0.2653
# 2 3.2976 94.2523 15.8142 -0.8595 14.0924 -8.2033
# 3 30.0824 15.8142 132.2957 -6.6192 7.5657 -3.8816
# 4 -4.9211 -0.8595 -6.6192 27.7695 -1.4342 -2.4142
# 5 13.1952 14.0924 7.5657 -1.4342 38.2832 3.9716
# 6 -0.2653 -8.2033 -3.8816 -2.4142 3.9716 29.1091
#
#
#
# Elastic Compliance Matrix: (Units=1/GPa)
#
#
# Indices 1 2 3 4 5 6 
#
# 1 0.019999 0.001077 -0.004159 0.002339 -0.006485 0.001010
# 2 0.001077 0.011852 -0.001252 0.000344 -0.004876 0.003877
# 3 -0.004159 -0.001252 0.008742 0.001391 0.000128 0.000873
# 4 0.002339 0.000344 0.001391 0.037054 -0.000172 0.003400
# 5 -0.006485 -0.004876 0.000128 -0.000172 0.030702 -0.005619
# 6 0.001010 0.003877 0.000873 0.003400 -0.005619 0.036620
#
#
# Mechanical properties :
#
#
# Convention : Reuss Voigt Hill
#
# Bulk Modulus (GPa) = 31.32296 42.87605 37.09951
# Shear Modulus (GPa) = 30.43614 34.91916 32.67765
#
# Velocity S-wave (km/s) = 3.78886 4.05831 3.92589
# Velocity P-wave (km/s) = 5.82360 6.49482 6.16834
#
# Compressibility (1/GPa) = 0.03192546
#
# Stress axis : x y z
#
# Youngs Moduli (GPa) = 50.00239 84.37588 114.39075
#
# Poissons Ratio (x) = -0.09086 0.47572
# Poissons Ratio (y) = -0.05385 0.14319
# Poissons Ratio (z) = 0.20795 0.10562
#
# Static dielectric constant tensor:
#      x y z
#    x 2.844140 1.991260 0.676800 
#    y 1.991260 0.031260 -0.783760 
#    z 0.676800 -0.783760 3.758370 
# 
# 
# High freq. dielectric constant tensor:
#      x y z
#    x 1.825350 -0.015870 0.016180 
#    y -0.015870 1.833550 0.012870 
#    z 0.016180 0.012870 1.838220 
# 
# From -- ./inp_files/101601.got.cif
#   From: 2010.06.25/outbox.cif.g09.slc.cpg/sg2_51_cif.got.tgz:101601.got - 2010.06.27 13:26:56.
