data_PCOD8008984
_publ_section_title
;
Structure prediction by ZEFSAII (Michael W. Deem and Ramdas Pophale) SiO2 
 PCOD8008984
Probable space group: P -1
;
_chemical_formula_sum "Si O2"
_cell_formula_units_Z 14
_cell_length_a 12.474123
_cell_length_b 9.703226
_cell_length_c 16.572660
_cell_angle_alpha 115.276209
_cell_angle_beta 156.373582
_cell_angle_gamma 54.919439
_cell_volume 626.835453
_symmetry_space_group_name_H-M "P -1"
_symmetry_group_IT_number 2
_symmetry_cell_setting 'triclinic'
loop_
_space_group_symop_operation_xyz
x,y,z
-x,-y,-z
loop_
_atom_site_type_symbol
_atom_site_label
_atom_site_fract_x
_atom_site_fract_y
_atom_site_fract_z
Si Si1 0.880415 0.721387 0.192880
Si Si2 0.316852 0.932716 0.303487
Si Si3 0.604475 0.122583 0.841378
Si Si4 0.252427 0.504525 0.768914
Si Si5 0.599825 0.333003 0.222319
Si Si6 0.457822 0.973587 0.845413
Si Si7 0.347439 0.455934 0.550611
O O1 0.238945 0.579951 0.425678
O O2 0.733637 0.830021 0.201567
O O3 0.719094 0.606404 0.031253
O O4 0.796782 0.863539 0.098084
O O5 0.434536 0.907469 0.286262
O O6 0.388423 0.741970 0.339104
O O7 0.500000 0.000000 0.500000
O O8 0.953572 0.071036 0.092211
O O9 0.387068 0.324831 0.766016
O O10 0.513325 0.995410 0.795825
O O11 0.166202 0.656082 0.677934
O O12 0.946402 0.548375 0.616597
O O13 0.500000 0.500000 0.000000
O O14 0.728092 0.133332 0.296017
O O15 0.512726 0.466338 0.269826
#
# Coordination Sequence:
#
# PCOD8008984 Si02
#       7
#     2   2   2   2   2   2   2
#     4   9  20  38  60  94 138 154 200 253 324 378
#     4  11  27  43  65  90 126 172 220 264 311 371
#     4  11  23  46  64  90 132 165 213 259 319 384
#     4  12  20  37  68  96 125 165 204 269 321 369
#     4  10  21  35  61  95 129 160 200 263 311 375
#     4   9  19  43  60  95 131 172 190 258 331 374
#     4  12  22  39  64  98 123 161 221 263 309 372
#
# _framework density 22.334409999999998
#
# number of rings (size 3 to 8) (size 9 to 14) (size 15 to 20)
#    0.857    0.571    4.286    1.286    0.000    0.571 
#    2.571    1.429    0.000    0.000    0.000    0.000 
#    0.000    0.000    0.000    0.000    0.000    0.000 
#
# Total GULP energy -173462.062621 kJ/mol
# GULP energy per Si atom -12390.147330 kJ/mol
# Density = 2.228358 g / cm^3
# Si number density = 22.334410 Si / 1000 Ang^3
#
#
#
# Elastic Constant Matrix: (Units=GPa)
#
#
# Indices 1 2 3 4 5 6 
#
# 1 78.8117 21.7528 1.8288 -3.2677 -9.2133 22.7637
# 2 21.7528 88.9481 41.3366 15.6878 -11.8048 11.9599
# 3 1.8288 41.3366 56.5029 14.9729 -9.6347 0.5117
# 4 -3.2677 15.6878 14.9729 43.9918 4.3217 -7.8662
# 5 -9.2133 -11.8048 -9.6347 4.3217 27.3236 -6.2407
# 6 22.7637 11.9599 0.5117 -7.8662 -6.2407 28.1766
#
#
#
# Elastic Compliance Matrix: (Units=1/GPa)
#
#
# Indices 1 2 3 4 5 6 
#
# 1 0.017384 -0.003318 0.002677 -0.000908 0.002697 -0.012341
# 2 -0.003318 0.019949 -0.012916 -0.004300 0.002194 -0.006267
# 3 0.002677 -0.012916 0.029753 -0.005531 0.007342 0.002861
# 4 -0.000908 -0.004300 -0.005531 0.028353 -0.006513 0.009132
# 5 0.002697 0.002194 0.007342 -0.006513 0.043099 0.004484
# 6 -0.012341 -0.006267 0.002861 0.009132 0.004484 0.051612
#
#
# Mechanical properties :
#
#
# Convention : Reuss Voigt Hill
#
# Bulk Modulus (GPa) = 25.01790 39.34436 32.18113
# Shear Modulus (GPa) = 21.68369 30.52137 26.10253
#
# Velocity S-wave (km/s) = 3.11925 3.70072 3.42235
# Velocity P-wave (km/s) = 4.91923 5.99288 5.48240
#
# Compressibility (1/GPa) = 0.03997137
#
# Stress axis : x y z
#
# Youngs Moduli (GPa) = 57.52283 50.12816 33.61032
#
# Poissons Ratio (x) = 0.16633 -0.08998
# Poissons Ratio (y) = 0.19086 0.43413
# Poissons Ratio (z) = -0.15400 0.64748
#
# Static dielectric constant tensor:
#      x y z
#    x 3.876750 0.220320 -0.327910 
#    y 0.220320 4.097940 -0.107930 
#    z -0.327910 -0.107930 4.101880 
# 
# 
# High freq. dielectric constant tensor:
#      x y z
#    x 1.857290 0.019630 -0.035050 
#    y 0.019630 1.877910 0.003890 
#    z -0.035050 0.003890 1.880900 
# 
# From -- ./inp_files/519070.got.cif
#   From: 2010.06.25/outbox.cif.g09.slc.cpg/sg2_260_cif.got.tgz:519070.got - 2010.06.27 13:26:56.
