data_PCOD8008784
_publ_section_title
;
Structure prediction by ZEFSAII (Michael W. Deem and Ramdas Pophale) SiO2 
 PCOD8008784
Probable space group: P -1
;
_chemical_formula_sum "Si O2"
_cell_formula_units_Z 16
_cell_length_a 15.220685
_cell_length_b 9.499151
_cell_length_c 9.360407
_cell_angle_alpha 118.988504
_cell_angle_beta 64.882227
_cell_angle_gamma 73.733519
_cell_volume 846.518712
_symmetry_space_group_name_H-M "P -1"
_symmetry_group_IT_number 2
_symmetry_cell_setting 'triclinic'
loop_
_space_group_symop_operation_xyz
x,y,z
-x,-y,-z
loop_
_atom_site_type_symbol
_atom_site_label
_atom_site_fract_x
_atom_site_fract_y
_atom_site_fract_z
Si Si1 0.536053 0.212356 0.728543
Si Si2 0.252719 0.020631 0.754018
Si Si3 0.732412 0.415096 0.638187
Si Si4 0.364529 0.595153 0.587076
Si Si5 0.713490 0.672543 0.014928
Si Si6 0.631768 0.327059 0.928224
Si Si7 0.046249 0.007536 0.818797
Si Si8 0.207130 0.674344 0.989137
O O1 0.434249 0.175399 0.782643
O O2 0.579031 0.204819 0.861312
O O3 0.648810 0.044191 0.470247
O O4 0.471743 0.442979 0.827778
O O5 0.233681 0.202190 0.946920
O O6 0.122767 0.096965 0.815698
O O7 0.296009 0.835242 0.737450
O O8 0.642833 0.499333 0.602064
O O9 0.679549 0.341312 0.749560
O O10 0.870399 0.223071 0.409063
O O11 0.738060 0.584352 0.792867
O O12 0.500000 0.500000 0.500000
O O13 0.289417 0.563457 0.736872
O O14 0.779852 0.490974 0.995962
O O15 0.741385 0.215453 0.912968
O O16 0.934761 0.152931 0.860159
O O17 0.000000 0.000000 0.000000
#
# Coordination Sequence:
#
# PCOD8008784 Si02
#       8
#     2   2   2   2   2   2   2   2
#     4   9  16  32  56  82 115 139 178 230 290 328
#     4  11  21  38  58  85 114 159 179 231 295 336
#     4   9  19  37  57  83 112 154 183 234 285 326
#     4  11  20  34  63  84 110 149 198 223 276 342
#     4  10  23  36  60  85 120 142 188 236 297 329
#     4   9  17  31  57  88 108 138 191 240 269 324
#     4  11  20  38  60  80 113 150 201 232 268 335
#     4  10  21  34  59  87 108 147 198 237 268 335
#
# _framework density 18.900942000000001
#
# number of rings (size 3 to 8) (size 9 to 14) (size 15 to 20)
#    0.000    2.250    5.000    1.875    3.500    2.500 
#    0.000    1.250    2.750    0.000    0.000    0.000 
#    0.000    0.000    0.000    0.000    0.000    0.000 
#
# Total GULP energy -198238.740199 kJ/mol
# GULP energy per Si atom -12389.921262 kJ/mol
# Density = 1.885792 g / cm^3
# Si number density = 18.900942 Si / 1000 Ang^3
#
#
#
# Elastic Constant Matrix: (Units=GPa)
#
#
# Indices 1 2 3 4 5 6 
#
# 1 152.0829 39.5503 53.8478 10.6601 10.1736 -29.4227
# 2 39.5503 52.1672 22.5012 -2.7277 13.9034 -16.7326
# 3 53.8478 22.5012 103.2180 -3.9983 11.2599 -5.6933
# 4 10.6601 -2.7277 -3.9983 22.8724 -1.4763 4.5011
# 5 10.1736 13.9034 11.2599 -1.4763 38.7196 3.1066
# 6 -29.4227 -16.7326 -5.6933 4.5011 3.1066 36.2138
#
#
#
# Elastic Compliance Matrix: (Units=1/GPa)
#
#
# Indices 1 2 3 4 5 6 
#
# 1 0.011596 -0.004365 -0.004885 -0.008371 -0.001001 0.007762
# 2 -0.004365 0.029444 -0.002454 0.002507 -0.009432 0.010170
# 3 -0.004885 -0.002454 0.012883 0.004870 -0.001108 -0.003587
# 4 -0.008371 0.002507 0.004870 0.051209 0.002756 -0.011478
# 5 -0.001001 -0.009432 -0.001108 0.002756 0.030571 -0.008311
# 6 0.007762 0.010170 -0.003587 -0.011478 -0.008311 0.040195
#
#
# Mechanical properties :
#
#
# Convention : Reuss Voigt Hill
#
# Bulk Modulus (GPa) = 32.77154 59.91853 46.34504
# Shear Modulus (GPa) = 23.86882 32.33239 28.10061
#
# Velocity S-wave (km/s) = 3.55750 4.14046 3.86000
# Velocity P-wave (km/s) = 5.85240 7.39108 6.66628
#
# Compressibility (1/GPa) = 0.03051428
#
# Stress axis : x y z
#
# Youngs Moduli (GPa) = 86.24005 33.96245 77.62066
#
# Poissons Ratio (x) = 0.14826 0.37914
# Poissons Ratio (y) = 0.37648 0.19051
# Poissons Ratio (z) = 0.42124 0.08335
#
# Static dielectric constant tensor:
#      x y z
#    x 3.975290 -0.302300 -0.103830 
#    y -0.302300 3.074600 -0.085470 
#    z -0.103830 -0.085470 3.848470 
# 
# 
# High freq. dielectric constant tensor:
#      x y z
#    x 1.750360 -0.021330 0.001070 
#    y -0.021330 1.681030 -0.017900 
#    z 0.001070 -0.017900 1.735500 
# 
# From -- ./inp_files/304142.got.cif
#   From: 2010.06.25/outbox.cif.g09.slc.cpg/sg2_153_cif.got.tgz:304142.got - 2010.06.27 13:26:56.
