data_PCOD8008993
_publ_section_title
;
Structure prediction by ZEFSAII (Michael W. Deem and Ramdas Pophale) SiO2 
 PCOD8008993
Probable space group: P -1
;
_chemical_formula_sum "Si O2"
_cell_formula_units_Z 14
_cell_length_a 13.411853
_cell_length_b 11.162366
_cell_length_c 9.604938
_cell_angle_alpha 70.370097
_cell_angle_beta 33.645263
_cell_angle_gamma 85.442492
_cell_volume 692.965267
_symmetry_space_group_name_H-M "P -1"
_symmetry_group_IT_number 2
_symmetry_cell_setting 'triclinic'
loop_
_space_group_symop_operation_xyz
x,y,z
-x,-y,-z
loop_
_atom_site_type_symbol
_atom_site_label
_atom_site_fract_x
_atom_site_fract_y
_atom_site_fract_z
Si Si1 0.490385 0.536943 0.338106
Si Si2 0.767476 0.582697 0.755728
Si Si3 0.908359 0.318652 0.020490
Si Si4 0.787614 0.307243 0.759032
Si Si5 0.827089 0.366214 0.390656
Si Si6 0.451876 0.849800 0.671713
Si Si7 0.257122 0.276713 0.536962
O O1 0.500000 0.500000 0.500000
O O2 0.382733 0.642507 0.415202
O O3 0.346081 0.403271 0.485144
O O4 0.695015 0.594694 0.992564
O O5 0.696143 0.422783 0.852819
O O6 0.689424 0.669685 0.705418
O O7 0.997794 0.646419 0.447923
O O8 0.905129 0.300592 0.199220
O O9 0.692408 0.265182 0.222425
O O10 0.016300 0.483045 0.802042
O O11 0.024392 0.229154 0.855114
O O12 0.787054 0.271534 0.610891
O O13 0.656157 0.168706 0.046640
O O14 0.657684 0.835379 0.469186
O O15 0.500000 0.000000 0.500000
#
# Coordination Sequence:
#
# PCOD8008993 Si02
#       7
#     2   2   2   2   2   2   2
#     4  11  21  30  54  94 124 153 185 236 316 374
#     4  11  20  35  60  89 124 151 193 256 307 365
#     4  10  21  40  57  98 120 152 196 249 310 357
#     4  11  20  37  58  87 122 156 198 251 304 351
#     4  10  21  35  62  89 129 149 184 257 321 352
#     4  12  25  41  62  85 120 166 212 248 282 355
#     4  11  21  38  62  85 123 156 198 248 302 358
#
# _framework density 20.203033000000001
#
# number of rings (size 3 to 8) (size 9 to 14) (size 15 to 20)
#    0.000    1.143    5.714    3.000    6.000    0.571 
#    0.000    0.714    0.000    0.857    0.000    0.000 
#    0.000    0.000    0.000    0.000    0.000    0.000 
#
# Total GULP energy -173492.723789 kJ/mol
# GULP energy per Si atom -12392.337414 kJ/mol
# Density = 2.015705 g / cm^3
# Si number density = 20.203033 Si / 1000 Ang^3
#
#
#
# Elastic Constant Matrix: (Units=GPa)
#
#
# Indices 1 2 3 4 5 6 
#
# 1 139.3488 36.7453 51.9746 5.7577 29.5899 -9.6817
# 2 36.7453 45.1499 45.3646 6.0482 13.1495 -16.2959
# 3 51.9746 45.3646 113.1579 14.4136 30.4628 -7.5123
# 4 5.7577 6.0482 14.4136 24.1849 1.5520 6.1331
# 5 29.5899 13.1495 30.4628 1.5520 47.1362 6.7045
# 6 -9.6817 -16.2959 -7.5123 6.1331 6.7045 32.2773
#
#
#
# Elastic Compliance Matrix: (Units=1/GPa)
#
#
# Indices 1 2 3 4 5 6 
#
# 1 0.009991 -0.005288 -0.001268 -0.000275 -0.004101 0.000936
# 2 -0.005288 0.052468 -0.014447 -0.009094 -0.005143 0.024337
# 3 -0.001268 -0.014447 0.017524 -0.005828 -0.006135 -0.001213
# 4 -0.000275 -0.009094 -0.005828 0.051068 0.007246 -0.017239
# 5 -0.004101 -0.005143 -0.006135 0.007246 0.030804 -0.013030
# 6 0.000936 0.024337 -0.001213 -0.017239 -0.013030 0.049249
#
#
# Mechanical properties :
#
#
# Convention : Reuss Voigt Hill
#
# Bulk Modulus (GPa) = 26.33109 62.86950 44.60029
# Shear Modulus (GPa) = 18.81339 31.62448 25.21894
#
# Velocity S-wave (km/s) = 3.05489 3.96072 3.53693
# Velocity P-wave (km/s) = 5.05022 7.21823 6.22927
#
# Compressibility (1/GPa) = 0.03797792
#
# Stress axis : x y z
#
# Youngs Moduli (GPa) = 100.09215 19.05940 57.06315
#
# Poissons Ratio (x) = 0.10079 0.07233
# Poissons Ratio (y) = 0.52932 0.82437
# Poissons Ratio (z) = 0.12687 0.27534
#
# Static dielectric constant tensor:
#      x y z
#    x 3.559900 0.117260 0.201610 
#    y 0.117260 3.011200 0.318400 
#    z 0.201610 0.318400 3.823970 
# 
# 
# High freq. dielectric constant tensor:
#      x y z
#    x 1.813910 -0.010190 0.004100 
#    y -0.010190 1.712480 0.042420 
#    z 0.004100 0.042420 1.795820 
# 
# From -- ./inp_files/257344.got.cif
#   From: 2010.06.25/outbox.cif.g09.slc.cpg/sg2_129_cif.got.tgz:257344.got - 2010.06.27 13:26:56.
