data_PCOD8008217
_publ_section_title
;
Structure prediction by ZEFSAII (Michael W. Deem and Ramdas Pophale) SiO2 
 PCOD8008217
Probable space group: P -1
;
_chemical_formula_sum "Si O2"
_cell_formula_units_Z 12
_cell_length_a 8.768115
_cell_length_b 9.765918
_cell_length_c 9.342969
_cell_angle_alpha 129.263401
_cell_angle_beta 78.465129
_cell_angle_gamma 121.972206
_cell_volume 514.208352
_symmetry_space_group_name_H-M "P -1"
_symmetry_group_IT_number 2
_symmetry_cell_setting 'triclinic'
loop_
_space_group_symop_operation_xyz
x,y,z
-x,-y,-z
loop_
_atom_site_type_symbol
_atom_site_label
_atom_site_fract_x
_atom_site_fract_y
_atom_site_fract_z
Si Si1 0.545486 0.216954 0.562381
Si Si2 0.173311 0.051212 0.405151
Si Si3 0.711956 0.226881 0.962191
Si Si4 0.699361 0.537524 0.981370
Si Si5 0.691841 0.135595 0.220837
Si Si6 0.044288 0.990341 0.824298
O O1 0.354369 0.210823 0.568604
O O2 0.691816 0.409723 0.757445
O O3 0.638093 0.264622 0.419338
O O4 0.500000 0.000000 0.500000
O O5 0.200299 0.863052 0.223058
O O6 0.000000 0.000000 0.500000
O O7 0.141450 0.143858 0.324875
O O8 0.759073 0.451770 0.047743
O O9 0.490811 0.088726 0.920247
O O10 0.783805 0.247605 0.126266
O O11 0.500000 0.500000 0.000000
O O12 0.853238 0.778004 0.105769
O O13 0.831956 0.108042 0.273205
O O14 0.000000 0.000000 0.000000
#
# Coordination Sequence:
#
# PCOD8008217 Si02
#       6
#     2   2   2   2   2   2
#     4  11  21  42  67  97 129 180 223 267 325 404
#     4  11  22  39  66  99 134 170 215 276 338 383
#     4  10  21  39  69  94 127 179 223 259 330 401
#     4  12  23  42  70 100 128 177 231 267 324 412
#     4  10  20  42  68  91 135 177 218 266 333 400
#     4  12  25  43  66  99 139 172 218 283 341 379
#
# _framework density 23.336842999999998
#
# number of rings (size 3 to 8) (size 9 to 14) (size 15 to 20)
#    0.000    1.000    6.667    2.000    0.000    0.667 
#    0.000    5.833    0.000    0.000    0.000    0.000 
#    0.000    0.000    0.000    0.000    0.000    0.000 
#
# Total GULP energy -148702.456458 kJ/mol
# GULP energy per Si atom -12391.871371 kJ/mol
# Density = 2.328373 g / cm^3
# Si number density = 23.336843 Si / 1000 Ang^3
#
#
#
# Elastic Constant Matrix: (Units=GPa)
#
#
# Indices 1 2 3 4 5 6 
#
# 1 143.5684 35.9226 13.4963 -10.3125 5.5230 -28.9885
# 2 35.9226 96.2252 28.3399 -20.3246 0.6550 -24.4071
# 3 13.4963 28.3399 78.6443 -28.8847 -0.9140 -5.4059
# 4 -10.3125 -20.3246 -28.8847 30.4069 -1.6478 1.7141
# 5 5.5230 0.6550 -0.9140 -1.6478 48.0672 -12.2508
# 6 -28.9885 -24.4071 -5.4059 1.7141 -12.2508 34.9272
#
#
#
# Elastic Compliance Matrix: (Units=1/GPa)
#
#
# Indices 1 2 3 4 5 6 
#
# 1 0.008690 -0.001216 0.000106 0.001907 0.000755 0.006550
# 2 -0.001216 0.015610 -0.001779 0.007906 0.002765 0.010205
# 3 0.000106 -0.001779 0.020018 0.017851 0.001402 0.001559
# 4 0.001907 0.007906 0.017851 0.055514 0.004104 0.008585
# 5 0.000755 0.002765 0.001402 0.004104 0.023614 0.010857
# 6 0.006550 0.010205 0.001559 0.008585 0.010857 0.044827
#
#
# Mechanical properties :
#
#
# Convention : Reuss Voigt Hill
#
# Bulk Modulus (GPa) = 25.94692 52.66172 39.30432
# Shear Modulus (GPa) = 26.75244 38.72553 32.73899
#
# Velocity S-wave (km/s) = 3.38947 4.07801 3.74958
# Velocity P-wave (km/s) = 5.14398 6.69242 5.96863
#
# Compressibility (1/GPa) = 0.03854022
#
# Stress axis : x y z
#
# Youngs Moduli (GPa) = 115.07206 64.06175 49.95471
#
# Poissons Ratio (x) = 0.07793 -0.00532
# Poissons Ratio (y) = 0.13998 0.08887
# Poissons Ratio (z) = -0.01225 0.11396
#
# Static dielectric constant tensor:
#      x y z
#    x 5.966400 -0.757420 0.465970 
#    y -0.757420 4.058940 -0.412540 
#    z 0.465970 -0.412540 4.664610 
# 
# 
# High freq. dielectric constant tensor:
#      x y z
#    x 1.945780 -0.021390 -0.003140 
#    y -0.021390 1.882000 -0.032650 
#    z -0.003140 -0.032650 1.931160 
# 
# From -- ./inp_files/147719.got.cif
#   From: 2010.06.25/outbox.cif.g09.slc.cpg/sg2_74_cif.got.tgz:147719.got - 2010.06.27 13:26:56.
