data_PCOD8008792
_publ_section_title
;
Structure prediction by ZEFSAII (Michael W. Deem and Ramdas Pophale) SiO2 
 PCOD8008792
Probable space group: P -1
;
_chemical_formula_sum "Si O2"
_cell_formula_units_Z 14
_cell_length_a 16.087384
_cell_length_b 15.681794
_cell_length_c 16.903027
_cell_angle_alpha 147.338403
_cell_angle_beta 17.520971
_cell_angle_gamma 142.367553
_cell_volume 691.273792
_symmetry_space_group_name_H-M "P -1"
_symmetry_group_IT_number 2
_symmetry_cell_setting 'triclinic'
loop_
_space_group_symop_operation_xyz
x,y,z
-x,-y,-z
loop_
_atom_site_type_symbol
_atom_site_label
_atom_site_fract_x
_atom_site_fract_y
_atom_site_fract_z
Si Si1 0.710648 0.325194 0.356916
Si Si2 0.160155 0.213452 0.205531
Si Si3 0.054770 0.372478 0.584905
Si Si4 0.703771 0.669492 0.124215
Si Si5 0.039029 0.965663 0.529025
Si Si6 0.450385 0.685601 0.201760
Si Si7 0.640152 0.073505 0.105209
O O1 0.493505 0.283094 0.587094
O O2 0.622388 0.251172 0.295534
O O3 0.732484 0.516232 0.475703
O O4 0.008902 0.249373 0.056876
O O5 0.191843 0.328464 0.341600
O O6 0.871259 0.257502 0.458905
O O7 0.408034 0.227269 0.930241
O O8 0.180242 0.034582 0.079741
O O9 0.994714 0.220173 0.571798
O O10 0.766609 0.477419 0.912574
O O11 0.573932 0.736264 0.212842
O O12 0.338307 0.010252 0.320446
O O13 0.000000 0.000000 0.500000
O O14 0.800500 0.070653 0.873971
O O15 0.500000 0.500000 0.000000
#
# Coordination Sequence:
#
# PCOD8008792 Si02
#       7
#     2   2   2   2   2   2   2
#     4  10  21  40  60  85 119 170 198 231 299 368
#     4  11  22  35  58  88 118 159 205 252 294 339
#     4   9  22  37  65  84 120 157 204 238 304 350
#     4  10  21  34  60  83 122 160 205 247 286 339
#     4  11  24  43  68  95 118 147 196 252 302 360
#     4  12  20  33  54  90 120 154 210 258 281 331
#     4  11  24  43  64  87 125 160 192 242 311 362
#
# _framework density 20.252466999999999
#
# number of rings (size 3 to 8) (size 9 to 14) (size 15 to 20)
#    0.857    0.571    1.429    5.143    4.000    0.000 
#    0.000    5.714    0.000    0.000    0.000    0.000 
#    0.000    0.000    0.000    0.000    0.000    0.000 
#
# Total GULP energy -173554.832074 kJ/mol
# GULP energy per Si atom -12396.773720 kJ/mol
# Density = 2.020637 g / cm^3
# Si number density = 20.252467 Si / 1000 Ang^3
#
#
#
# Elastic Constant Matrix: (Units=GPa)
#
#
# Indices 1 2 3 4 5 6 
#
# 1 90.8397 49.4138 22.5966 8.1058 24.1110 0.5017
# 2 49.4138 70.8759 33.4402 7.7286 17.2784 13.1318
# 3 22.5966 33.4402 101.3789 -13.3353 19.3264 9.4590
# 4 8.1058 7.7286 -13.3353 18.0501 -1.6867 4.9024
# 5 24.1110 17.2784 19.3264 -1.6867 40.1683 -2.2845
# 6 0.5017 13.1318 9.4590 4.9024 -2.2845 28.1226
#
#
#
# Elastic Compliance Matrix: (Units=1/GPa)
#
#
# Indices 1 2 3 4 5 6 
#
# 1 0.020373 -0.012926 -0.000503 -0.006324 -0.006327 0.006430
# 2 -0.012926 0.029894 -0.006761 -0.009532 -0.002817 -0.010021
# 3 -0.000503 -0.006761 0.015461 0.015557 -0.003863 -0.005060
# 4 -0.006324 -0.009532 0.015557 0.077891 0.002885 -0.014013
# 5 -0.006327 -0.002817 -0.003863 0.002885 0.032160 0.004837
# 6 0.006430 -0.010021 -0.005060 -0.014013 0.004837 0.044661
#
#
# Mechanical properties :
#
#
# Convention : Reuss Voigt Hill
#
# Bulk Modulus (GPa) = 39.45112 52.66618 46.05865
# Shear Modulus (GPa) = 18.56884 27.77779 23.17331
#
# Velocity S-wave (km/s) = 3.03127 3.70750 3.38630
# Velocity P-wave (km/s) = 5.63679 6.66248 6.17098
#
# Compressibility (1/GPa) = 0.02534783
#
# Stress axis : x y z
#
# Youngs Moduli (GPa) = 49.08539 33.45180 64.67799
#
# Poissons Ratio (x) = 0.43239 0.03253
# Poissons Ratio (y) = 0.63446 0.43730
# Poissons Ratio (z) = 0.02469 0.22617
#
# Static dielectric constant tensor:
#      x y z
#    x 3.551810 0.060930 0.085800 
#    y 0.060930 3.525940 -0.026920 
#    z 0.085800 -0.026920 3.899090 
# 
# 
# High freq. dielectric constant tensor:
#      x y z
#    x 1.775440 0.011810 0.007740 
#    y 0.011810 1.774650 -0.010190 
#    z 0.007740 -0.010190 1.805960 
# 
# From -- ./inp_files/534390.got.cif
#   From: 2010.06.25/outbox.cif.g09.slc.cpg/sg2_268_cif.got.tgz:534390.got - 2010.06.27 13:26:56.
