data_PCOD8008706
_publ_section_title
;
Structure prediction by ZEFSAII (Michael W. Deem and Ramdas Pophale) SiO2 
 PCOD8008706
Probable space group: P -1
;
_chemical_formula_sum "Si O2"
_cell_formula_units_Z 10
_cell_length_a 17.832525
_cell_length_b 10.577835
_cell_length_c 17.877806
_cell_angle_alpha 145.778529
_cell_angle_beta 16.185767
_cell_angle_gamma 147.407982
_cell_volume 502.805957
_symmetry_space_group_name_H-M "P -1"
_symmetry_group_IT_number 2
_symmetry_cell_setting 'triclinic'
loop_
_space_group_symop_operation_xyz
x,y,z
-x,-y,-z
loop_
_atom_site_type_symbol
_atom_site_label
_atom_site_fract_x
_atom_site_fract_y
_atom_site_fract_z
Si Si1 0.770918 0.955902 0.806878
Si Si2 0.497606 0.667472 0.470093
Si Si3 0.839649 0.285849 0.761836
Si Si4 0.015168 0.245544 0.069196
Si Si5 0.882527 0.700971 0.246414
O O1 0.952159 0.789394 0.528789
O O2 0.799328 0.160954 0.819746
O O3 0.455276 0.782232 0.032644
O O4 0.865383 0.078531 0.856860
O O5 0.704055 0.798326 0.404018
O O6 0.323740 0.404649 0.537055
O O7 0.268095 0.797798 0.731110
O O8 0.694427 0.649222 0.203477
O O9 0.973802 0.566104 0.783847
O O10 0.000000 0.000000 0.000000
O O11 0.000000 0.500000 0.000000
#
# Coordination Sequence:
#
# PCOD8008706 Si02
#       5
#     2   2   2   2   2
#     4  10  21  33  59  86 122 147 182 259 301 350
#     4  11  23  37  61  93 115 155 207 236 308 340
#     4  10  21  35  55  88 118 152 194 235 310 346
#     4  12  24  42  62  85 124 162 205 242 279 364
#     4  11  22  37  64  91 128 148 193 259 301 358
#
# _framework density 19.888387000000002
#
# number of rings (size 3 to 8) (size 9 to 14) (size 15 to 20)
#    0.000    1.200    4.000    1.800   11.200    0.000 
#    0.000    0.000    0.000    7.200    0.000    0.000 
#    0.000    0.000    0.000    0.000    0.000    0.000 
#
# Total GULP energy -123995.025206 kJ/mol
# GULP energy per Si atom -12399.502521 kJ/mol
# Density = 1.984312 g / cm^3
# Si number density = 19.888387 Si / 1000 Ang^3
#
#
#
# Elastic Constant Matrix: (Units=GPa)
#
#
# Indices 1 2 3 4 5 6 
#
# 1 109.8561 72.0343 30.5919 11.0453 -40.3601 18.4402
# 2 72.0343 97.0916 74.1859 14.1078 3.4480 29.8470
# 3 30.5919 74.1859 89.9787 11.4699 -44.7547 -9.1463
# 4 11.0453 14.1078 11.4699 24.0600 9.2934 0.6816
# 5 -40.3601 3.4480 -44.7547 9.2934 27.8937 -14.6670
# 6 18.4402 29.8470 -9.1463 0.6816 -14.6670 24.6844
#
#
#
# Elastic Compliance Matrix: (Units=1/GPa)
#
#
# Indices 1 2 3 4 5 6 
#
# 1 0.012231 0.001532 -0.007524 -0.001857 -0.001691 -0.014731
# 2 0.001532 0.005319 0.005019 -0.012480 0.015921 0.004088
# 3 -0.007524 0.005019 0.002991 0.003515 -0.011029 -0.005990
# 4 -0.001857 -0.012480 0.003515 0.049583 -0.004937 0.013477
# 5 -0.001691 0.015921 -0.011029 -0.004937 0.005600 -0.018611
# 6 -0.014731 0.004088 -0.005990 0.013477 -0.018611 0.032923
#
#
# Mechanical properties :
#
#
# Convention : Reuss Voigt Hill
#
# Bulk Modulus (GPa) = 53.77260 72.28340 63.02800
# Shear Modulus (GPa) = 42.81182 23.33523 33.07353
#
# Velocity S-wave (km/s) = 4.64465 3.42908 4.08236
# Velocity P-wave (km/s) = 7.47393 7.21814 7.34715
#
# Compressibility (1/GPa) = 0.01859683
#
# Stress axis : x y z
#
# Youngs Moduli (GPa) = 81.75662 188.01384 334.34404
#
# Poissons Ratio (x) = -0.28813 2.51554
# Poissons Ratio (y) = -0.12529 -1.67814
# Poissons Ratio (z) = 0.61512 -0.94368
#
# Static dielectric constant tensor:
#      x y z
#    x 3.708930 0.213010 -0.258650 
#    y 0.213010 3.237210 -0.139430 
#    z -0.258650 -0.139430 3.867830 
# 
# 
# High freq. dielectric constant tensor:
#      x y z
#    x 1.767800 0.028710 -0.015960 
#    y 0.028710 1.730940 -0.007430 
#    z -0.015960 -0.007430 1.798200 
# 
# From -- ./inp_files/20749.got.cif
#   From: 2010.06.25/outbox.cif.g09.slc.cpg/sg2_11_cif.got.tgz:20749.got - 2010.06.27 13:26:56.
