data_PCOD8008143
_publ_section_title
;
Structure prediction by ZEFSAII (Michael W. Deem and Ramdas Pophale) SiO2 
 PCOD8008143
Probable space group: P -1
;
_chemical_formula_sum "Si O2"
_cell_formula_units_Z 16
_cell_length_a 9.682991
_cell_length_b 14.766302
_cell_length_c 11.549663
_cell_angle_alpha 150.639602
_cell_angle_beta 65.982393
_cell_angle_gamma 102.376029
_cell_volume 702.290432
_symmetry_space_group_name_H-M "P -1"
_symmetry_group_IT_number 2
_symmetry_cell_setting 'triclinic'
loop_
_space_group_symop_operation_xyz
x,y,z
-x,-y,-z
loop_
_atom_site_type_symbol
_atom_site_label
_atom_site_fract_x
_atom_site_fract_y
_atom_site_fract_z
Si Si1 0.541583 0.921252 0.182216
Si Si2 0.864183 0.836862 0.098799
Si Si3 0.974525 0.375083 0.567439
Si Si4 0.017091 0.706071 0.264095
Si Si5 0.207723 0.959057 0.412976
Si Si6 0.850613 0.227418 0.221878
Si Si7 0.465799 0.843093 0.754114
Si Si8 0.691508 0.624990 0.603122
O O1 0.682203 0.929561 0.226971
O O2 0.398215 0.896241 0.280627
O O3 0.479406 0.124824 0.358737
O O4 0.598802 0.741655 0.874451
O O5 0.879709 0.924272 0.314788
O O6 0.908329 0.606049 0.833318
O O7 0.982584 0.894659 0.031358
O O8 0.883131 0.288008 0.406796
O O9 0.937043 0.309507 0.633663
O O10 0.163665 0.294693 0.391443
O O11 0.156247 0.761817 0.206830
O O12 0.857261 0.889988 0.502985
O O13 0.000000 0.500000 0.000000
O O14 0.724609 0.110441 0.138283
O O15 0.764320 0.403149 0.362883
O O16 0.572731 0.639333 0.548117
O O17 0.500000 0.000000 0.000000
#
# Coordination Sequence:
#
# PCOD8008143 Si02
#       8
#     2   2   2   2   2   2   2   2
#     4  11  22  43  61  97 143 173 221 282 346 406
#     4  11  22  43  69  98 141 177 228 284 344 410
#     4  11  21  43  73 100 132 181 233 286 339 410
#     4  11  25  49  71 101 135 184 241 281 334 417
#     4  11  26  44  71 100 138 186 225 283 351 401
#     4  11  22  41  71 100 132 182 229 282 345 405
#     4  10  24  39  61  98 138 176 219 283 339 404
#     4  10  20  42  66  97 136 174 221 283 341 406
#
# _framework density 22.782596999999999
#
# number of rings (size 3 to 8) (size 9 to 14) (size 15 to 20)
#    0.000    1.250    3.750    2.250    1.750    6.500 
#    4.500    0.625    0.000    0.000    0.000    0.000 
#    0.000    0.000    0.000    0.000    0.000    0.000 
#
# Total GULP energy -198322.070951 kJ/mol
# GULP energy per Si atom -12395.129434 kJ/mol
# Density = 2.273074 g / cm^3
# Si number density = 22.782597 Si / 1000 Ang^3
#
#
#
# Elastic Constant Matrix: (Units=GPa)
#
#
# Indices 1 2 3 4 5 6 
#
# 1 170.2677 57.4068 37.4879 -4.3719 -3.7831 16.7565
# 2 57.4068 109.3078 37.5131 0.0352 3.3227 3.3182
# 3 37.4879 37.5131 64.1879 -2.6568 0.0001 4.2487
# 4 -4.3719 0.0352 -2.6568 25.2475 2.0710 -4.4120
# 5 -3.7831 3.3227 0.0001 2.0710 29.9189 -2.5923
# 6 16.7565 3.3182 4.2487 -4.4120 -2.5923 47.1985
#
#
#
# Elastic Compliance Matrix: (Units=1/GPa)
#
#
# Indices 1 2 3 4 5 6 
#
# 1 0.007751 -0.003181 -0.002498 0.000611 0.001102 -0.002186
# 2 -0.003181 0.012812 -0.005706 -0.000931 -0.001712 0.000561
# 3 -0.002498 -0.005706 0.020467 0.001647 0.000170 -0.000391
# 4 0.000611 -0.000931 0.001647 0.040670 -0.002342 0.003373
# 5 0.001102 -0.001712 0.000170 -0.002342 0.034033 0.001364
# 6 -0.002186 0.000561 -0.000391 0.003373 0.001364 0.022349
#
#
# Mechanical properties :
#
#
# Convention : Reuss Voigt Hill
#
# Bulk Modulus (GPa) = 54.76131 67.61989 61.19060
# Shear Modulus (GPa) = 29.95117 34.56335 32.25726
#
# Velocity S-wave (km/s) = 3.62975 3.89921 3.76689
# Velocity P-wave (km/s) = 6.45410 7.07225 6.77023
#
# Compressibility (1/GPa) = 0.01826107
#
# Stress axis : x y z
#
# Youngs Moduli (GPa) = 129.02071 78.04915 48.85951
#
# Poissons Ratio (x) = 0.24825 0.12204
# Poissons Ratio (y) = 0.41037 0.27879
# Poissons Ratio (z) = 0.32227 0.44535
#
# Static dielectric constant tensor:
#      x y z
#    x 4.787080 -0.318850 -0.385470 
#    y -0.318850 4.533530 0.314580 
#    z -0.385470 0.314580 3.957930 
# 
# 
# High freq. dielectric constant tensor:
#      x y z
#    x 1.915800 -0.008080 -0.002700 
#    y -0.008080 1.911510 0.013070 
#    z -0.002700 0.013070 1.873090 
# 
# From -- ./inp_files/399932.got.cif
#   From: 2010.06.25/outbox.cif.g09.slc.cpg/sg2_200_cif.got.tgz:399932.got - 2010.06.27 13:26:56.
