data_PCOD8008807
_publ_section_title
;
Structure prediction by ZEFSAII (Michael W. Deem and Ramdas Pophale) SiO2 
 PCOD8008807
Probable space group: P -1
;
_chemical_formula_sum "Si O2"
_cell_formula_units_Z 16
_cell_length_a 21.684397
_cell_length_b 21.737162
_cell_length_c 12.310758
_cell_angle_alpha 154.352918
_cell_angle_beta 34.217836
_cell_angle_gamma 161.238925
_cell_volume 792.815999
_symmetry_space_group_name_H-M "P -1"
_symmetry_group_IT_number 2
_symmetry_cell_setting 'triclinic'
loop_
_space_group_symop_operation_xyz
x,y,z
-x,-y,-z
loop_
_atom_site_type_symbol
_atom_site_label
_atom_site_fract_x
_atom_site_fract_y
_atom_site_fract_z
Si Si1 0.770554 0.874977 0.691605
Si Si2 0.991812 0.431645 0.781813
Si Si3 0.306384 0.669742 0.009026
Si Si4 0.420447 0.530479 0.517643
Si Si5 0.572314 0.519188 0.090658
Si Si6 0.334834 0.141420 0.653287
Si Si7 0.196426 0.370339 0.883960
Si Si8 0.573052 0.140300 0.230303
O O1 0.610039 0.793713 0.729084
O O2 0.669892 0.711036 0.686849
O O3 0.813548 0.790128 0.415485
O O4 0.967563 0.173471 0.910770
O O5 0.886280 0.440967 0.881439
O O6 0.194300 0.616021 0.721496
O O7 0.873070 0.157787 0.516383
O O8 0.000000 0.500000 0.000000
O O9 0.491109 0.963023 0.170581
O O10 0.275145 0.509903 0.708742
O O11 0.324250 0.619855 0.024496
O O12 0.473785 0.542535 0.338593
O O13 0.697192 0.740876 0.172448
O O14 0.706288 0.553123 0.018401
O O15 0.408443 0.249082 0.840178
O O16 0.495851 0.217901 0.478107
O O17 0.500000 0.000000 0.000000
#
# Coordination Sequence:
#
# PCOD8008807 Si02
#       8
#     2   2   2   2   2   2   2   2
#     4   8  16  30  50  84 121 155 191 229 289 353
#     4  11  23  39  64  89 114 155 202 251 290 336
#     4  10  21  34  62  94 115 151 195 245 296 343
#     4   9  17  31  55  86 123 153 184 241 296 345
#     4  10  21  40  60  83 127 160 185 245 298 358
#     4  10  23  42  61  88 116 159 203 237 296 356
#     4   9  18  34  54  87 121 154 192 241 294 351
#     4  11  21  42  62  86 116 155 198 254 292 331
#
# _framework density 20.181227
#
# number of rings (size 3 to 8) (size 9 to 14) (size 15 to 20)
#    0.000    2.250    2.500    1.500    1.750    3.000 
#    2.250    3.750    0.000    1.500    0.000    0.000 
#    0.000    0.000    0.000    0.000    0.000    0.000 
#
# Total GULP energy -198241.791822 kJ/mol
# GULP energy per Si atom -12390.111989 kJ/mol
# Density = 2.013529 g / cm^3
# Si number density = 20.181227 Si / 1000 Ang^3
#
#
#
# Elastic Constant Matrix: (Units=GPa)
#
#
# Indices 1 2 3 4 5 6 
#
# 1 108.5546 44.4568 39.7611 20.8138 3.8958 -12.2952
# 2 44.4568 132.6861 29.3568 22.1262 1.2116 7.4226
# 3 39.7611 29.3568 70.5038 20.4488 4.9769 -0.2847
# 4 20.8138 22.1262 20.4488 28.6163 3.4079 -3.7072
# 5 3.8958 1.2116 4.9769 3.4079 27.9952 -1.1709
# 6 -12.2952 7.4226 -0.2847 -3.7072 -1.1709 17.5277
#
#
#
# Elastic Compliance Matrix: (Units=1/GPa)
#
#
# Indices 1 2 3 4 5 6 
#
# 1 0.014693 -0.003916 -0.006075 -0.001820 -0.000094 0.011475
# 2 -0.003916 0.010422 -0.000451 -0.006043 0.000558 -0.008409
# 3 -0.006075 -0.000451 0.021049 -0.010854 -0.001813 -0.006145
# 4 -0.001820 -0.006043 -0.010854 0.050583 -0.003229 0.011589
# 5 -0.000094 0.000558 -0.001813 -0.003229 0.036484 0.001423
# 6 0.011475 -0.008409 -0.006145 0.011589 0.001423 0.071109
#
#
# Mechanical properties :
#
#
# Convention : Reuss Voigt Hill
#
# Bulk Modulus (GPa) = 39.56006 59.87711 49.71858
# Shear Modulus (GPa) = 21.39951 28.03917 24.71934
#
# Velocity S-wave (km/s) = 3.25986 3.73147 3.50361
# Velocity P-wave (km/s) = 5.81497 6.94977 6.40754
#
# Compressibility (1/GPa) = 0.02527802
#
# Stress axis : x y z
#
# Youngs Moduli (GPa) = 68.06001 95.95420 47.50923
#
# Poissons Ratio (x) = 0.37580 0.28860
# Poissons Ratio (y) = 0.26656 0.02145
# Poissons Ratio (z) = 0.41343 0.04332
#
# Static dielectric constant tensor:
#      x y z
#    x 3.875570 0.296990 -0.148660 
#    y 0.296990 4.107830 -0.003390 
#    z -0.148660 -0.003390 3.374660 
# 
# 
# High freq. dielectric constant tensor:
#      x y z
#    x 1.788300 -0.002700 -0.017410 
#    y -0.002700 1.788620 0.002370 
#    z -0.017410 0.002370 1.749900 
# 
# From -- ./inp_files/438388.got.cif
#   From: 2010.06.25/outbox.cif.g09.slc.cpg/sg2_220_cif.got.tgz:438388.got - 2010.06.27 13:26:56.
