data_PCOD8008474
_publ_section_title
;
Structure prediction by ZEFSAII (Michael W. Deem and Ramdas Pophale) SiO2 
 PCOD8008474
Probable space group: P -1
;
_chemical_formula_sum "Si O2"
_cell_formula_units_Z 16
_cell_length_a 8.792985
_cell_length_b 8.423152
_cell_length_c 17.817970
_cell_angle_alpha 88.389721
_cell_angle_beta 29.354224
_cell_angle_gamma 89.659909
_cell_volume 646.198563
_symmetry_space_group_name_H-M "P -1"
_symmetry_group_IT_number 2
_symmetry_cell_setting 'triclinic'
loop_
_space_group_symop_operation_xyz
x,y,z
-x,-y,-z
loop_
_atom_site_type_symbol
_atom_site_label
_atom_site_fract_x
_atom_site_fract_y
_atom_site_fract_z
Si Si1 0.902230 0.806961 0.250800
Si Si2 0.364344 0.593138 0.437921
Si Si3 0.758407 0.211419 0.656022
Si Si4 0.547750 0.724050 0.664615
Si Si5 0.776853 0.892620 0.854523
Si Si6 0.773661 0.988837 0.165699
Si Si7 0.541348 0.332735 0.906136
Si Si8 0.306642 0.352106 0.229185
O O1 0.573753 0.708044 0.401232
O O2 0.923801 0.852414 0.152895
O O3 0.175407 0.693679 0.157579
O O4 0.923554 0.982322 0.280520
O O5 0.315055 0.652341 0.373730
O O6 0.515488 0.421892 0.363951
O O7 0.030946 0.571539 0.620690
O O8 0.579404 0.050960 0.708458
O O9 0.617760 0.251925 0.795980
O O10 0.125687 0.189113 0.501259
O O11 0.542586 0.668625 0.754386
O O12 0.267249 0.845258 0.774121
O O13 0.722618 0.819462 0.796278
O O14 0.772050 0.748936 0.920588
O O15 0.500000 0.000000 0.000000
O O16 0.000000 0.000000 0.000000
O O17 0.494265 0.520798 0.909706
#
# Coordination Sequence:
#
# PCOD8008474 Si02
#       8
#     2   2   2   2   2   2   2   2
#     4  10  25  43  61  97 137 170 212 276 333 386
#     4  10  21  45  68  98 133 164 230 277 326 386
#     4  10  20  43  69  98 127 177 226 274 322 396
#     4  11  22  42  74  97 130 173 233 272 323 397
#     4  10  24  42  62  93 137 174 217 258 330 408
#     4  11  25  42  65  96 139 178 219 274 333 391
#     4  11  21  41  71  93 133 171 222 269 330 398
#     4  11  22  41  72 100 123 178 222 276 322 393
#
# _framework density 24.760190999999999
#
# number of rings (size 3 to 8) (size 9 to 14) (size 15 to 20)
#    0.000    1.500    2.500    2.250    7.000    2.000 
#    2.250    5.000    0.000    0.000    0.000    0.000 
#    0.000    0.000    0.000    0.000    0.000    0.000 
#
# Total GULP energy -198245.857786 kJ/mol
# GULP energy per Si atom -12390.366112 kJ/mol
# Density = 2.470384 g / cm^3
# Si number density = 24.760191 Si / 1000 Ang^3
#
#
#
# Elastic Constant Matrix: (Units=GPa)
#
#
# Indices 1 2 3 4 5 6 
#
# 1 73.4720 26.6471 5.2298 -6.8324 0.1463 14.7462
# 2 26.6471 110.7521 29.4180 -1.6550 5.4898 26.4337
# 3 5.2298 29.4180 46.1361 -1.3582 7.3309 8.2315
# 4 -6.8324 -1.6550 -1.3582 46.1484 6.3755 4.4556
# 5 0.1463 5.4898 7.3309 6.3755 24.0780 0.5955
# 6 14.7462 26.4337 8.2315 4.4556 0.5955 38.9756
#
#
#
# Elastic Compliance Matrix: (Units=1/GPa)
#
#
# Indices 1 2 3 4 5 6 
#
# 1 0.015759 -0.002931 0.001022 0.002741 -0.000353 -0.004498
# 2 -0.002931 0.013103 -0.006715 0.000585 -0.000921 -0.006412
# 3 0.001022 -0.006715 0.027356 0.001884 -0.007261 -0.001714
# 4 0.002741 0.000585 0.001884 0.023523 -0.006843 -0.004416
# 5 -0.000353 -0.000921 -0.007261 -0.006843 0.045708 0.002376
# 6 -0.004498 -0.006412 -0.001714 -0.004416 0.002376 0.032538
#
#
# Mechanical properties :
#
#
# Convention : Reuss Voigt Hill
#
# Bulk Modulus (GPa) = 25.66073 39.21667 32.43870
# Shear Modulus (GPa) = 26.56387 33.11142 29.83765
#
# Velocity S-wave (km/s) = 3.27899 3.66086 3.47517
# Velocity P-wave (km/s) = 4.97211 5.80880 5.40666
#
# Compressibility (1/GPa) = 0.03897005
#
# Stress axis : x y z
#
# Youngs Moduli (GPa) = 63.45418 76.31945 36.55524
#
# Poissons Ratio (x) = 0.22370 -0.03736
# Poissons Ratio (y) = 0.18599 0.24547
# Poissons Ratio (z) = -0.06485 0.51248
#
# Static dielectric constant tensor:
#      x y z
#    x 4.450300 0.211010 -0.045550 
#    y 0.211010 5.002400 -0.497930 
#    z -0.045550 -0.497930 4.392980 
# 
# 
# High freq. dielectric constant tensor:
#      x y z
#    x 1.979660 0.010060 0.010530 
#    y 0.010060 1.998300 -0.017820 
#    z 0.010530 -0.017820 1.963230 
# 
# From -- ./inp_files/244113.got.cif
#   From: 2010.06.25/outbox.cif.g09.slc.cpg/sg2_123_cif.got.tgz:244113.got - 2010.06.27 13:26:56.
