data_PCOD8008017
_publ_section_title
;
Structure prediction by ZEFSAII (Michael W. Deem and Ramdas Pophale) SiO2 
 PCOD8008017
Probable space group: P -1
;
_chemical_formula_sum "Si O2"
_cell_formula_units_Z 16
_cell_length_a 19.099022
_cell_length_b 16.322411
_cell_length_c 8.165480
_cell_angle_alpha 135.983522
_cell_angle_beta 35.458167
_cell_angle_gamma 148.176513
_cell_volume 775.610017
_symmetry_space_group_name_H-M "P -1"
_symmetry_group_IT_number 2
_symmetry_cell_setting 'triclinic'
loop_
_space_group_symop_operation_xyz
x,y,z
-x,-y,-z
loop_
_atom_site_type_symbol
_atom_site_label
_atom_site_fract_x
_atom_site_fract_y
_atom_site_fract_z
Si Si1 0.051685 0.481761 0.208055
Si Si2 0.289833 0.802881 0.674040
Si Si3 0.900423 0.326888 0.867051
Si Si4 0.377225 0.248676 0.357034
Si Si5 0.732371 0.565473 0.135730
Si Si6 0.063067 0.229502 0.249217
Si Si7 0.765308 0.899360 0.232041
Si Si8 0.603934 0.884009 0.188146
O O1 0.149603 0.652346 0.184129
O O2 0.000000 0.500000 0.500000
O O3 0.890237 0.346633 0.231466
O O4 0.161157 0.435852 0.938220
O O5 0.411245 0.770691 0.376823
O O6 0.337829 0.943630 0.673330
O O7 0.266182 0.816422 0.932250
O O8 0.010267 0.280095 0.571423
O O9 0.000000 0.500000 0.000000
O O10 0.564769 0.391753 0.194817
O O11 0.283125 0.310149 0.597050
O O12 0.330129 0.163236 0.501479
O O13 0.327685 0.137210 0.134570
O O14 0.821106 0.619606 0.869952
O O15 0.160108 0.180569 0.065080
O O16 0.907010 0.085351 0.239259
O O17 0.652883 0.856153 0.227594
#
# Coordination Sequence:
#
# PCOD8008017 Si02
#       8
#     2   2   2   2   2   2   2   2
#     4  11  20  36  64  87 118 165 201 249 312 363
#     4  10  24  41  54  93 124 156 212 256 301 381
#     4  10  22  36  59  89 125 154 202 261 305 357
#     4  10  23  42  62  93 130 160 207 262 305 379
#     4  10  21  39  64  92 124 163 208 256 318 363
#     4  10  20  42  63  94 126 155 215 264 298 376
#     4  10  23  41  69  91 121 171 206 252 322 373
#     4  11  23  42  63  87 130 164 203 258 317 368
#
# _framework density 20.628924000000001
#
# number of rings (size 3 to 8) (size 9 to 14) (size 15 to 20)
#    0.000    1.750    1.250    2.250    3.500    2.000 
#    0.000   14.375    0.000    0.000    0.000    0.000 
#    0.000    0.000    0.000    0.000    0.000    0.000 
#
# Total GULP energy -198217.406185 kJ/mol
# GULP energy per Si atom -12388.587887 kJ/mol
# Density = 2.058197 g / cm^3
# Si number density = 20.628924 Si / 1000 Ang^3
#
#
#
# Elastic Constant Matrix: (Units=GPa)
#
#
# Indices 1 2 3 4 5 6 
#
# 1 128.0626 31.0934 53.2215 -1.4858 -8.1109 -17.7788
# 2 31.0934 64.0263 26.2554 -11.5888 -3.3888 -11.7756
# 3 53.2215 26.2554 134.6557 0.3977 -0.4700 -9.8029
# 4 -1.4858 -11.5888 0.3977 36.5219 -2.0451 5.1985
# 5 -8.1109 -3.3888 -0.4700 -2.0451 38.7453 -5.0778
# 6 -17.7788 -11.7756 -9.8029 5.1985 -5.0778 26.2112
#
#
#
# Elastic Compliance Matrix: (Units=1/GPa)
#
#
# Indices 1 2 3 4 5 6 
#
# 1 0.010807 -0.002949 -0.003283 -0.001097 0.002628 0.005504
# 2 -0.002949 0.020165 -0.002378 0.005646 0.002132 0.005463
# 3 -0.003283 -0.002378 0.009202 -0.001062 -0.000814 0.000199
# 4 -0.001097 0.005646 -0.001062 0.029819 0.001265 -0.004273
# 5 0.002628 0.002132 -0.000814 0.001265 0.027590 0.007530
# 6 0.005504 0.005463 0.000199 -0.004273 0.007530 0.046720
#
#
# Mechanical properties :
#
#
# Convention : Reuss Voigt Hill
#
# Bulk Modulus (GPa) = 43.56413 60.87613 52.22013
# Shear Modulus (GPa) = 29.55514 34.70730 32.13122
#
# Velocity S-wave (km/s) = 3.78921 4.10623 3.95090
# Velocity P-wave (km/s) = 6.34886 7.21496 6.79572
#
# Compressibility (1/GPa) = 0.02295467
#
# Stress axis : x y z
#
# Youngs Moduli (GPa) = 92.53219 49.59007 108.66621
#
# Poissons Ratio (x) = 0.14624 0.35678
# Poissons Ratio (y) = 0.27287 0.25839
# Poissons Ratio (z) = 0.30381 0.11792
#
# Static dielectric constant tensor:
#      x y z
#    x 3.135160 0.074570 0.421040 
#    y 0.074570 3.411860 -0.699900 
#    z 0.421040 -0.699900 3.455620 
# 
# 
# High freq. dielectric constant tensor:
#      x y z
#    x 1.798250 -0.024510 -0.000050 
#    y -0.024510 1.804420 -0.007370 
#    z -0.000050 -0.007370 1.824750 
# 
# From -- ./inp_files/348651.got.cif
#   From: 2010.06.25/outbox.cif.g09.slc.cpg/sg2_175_cif.got.tgz:348651.got - 2010.06.27 13:26:56.
