data_PCOD8008499
_publ_section_title
;
Structure prediction by ZEFSAII (Michael W. Deem and Ramdas Pophale) SiO2 
 PCOD8008499
Probable space group: P -1
;
_chemical_formula_sum "Si O2"
_cell_formula_units_Z 16
_cell_length_a 8.882453
_cell_length_b 27.762487
_cell_length_c 9.381889
_cell_angle_alpha 40.624277
_cell_angle_beta 67.723706
_cell_angle_gamma 37.266943
_cell_volume 749.092578
_symmetry_space_group_name_H-M "P -1"
_symmetry_group_IT_number 2
_symmetry_cell_setting 'triclinic'
loop_
_space_group_symop_operation_xyz
x,y,z
-x,-y,-z
loop_
_atom_site_type_symbol
_atom_site_label
_atom_site_fract_x
_atom_site_fract_y
_atom_site_fract_z
Si Si1 0.958547 0.447914 0.732661
Si Si2 0.205740 0.998579 0.268627
Si Si3 0.263713 0.603931 0.224300
Si Si4 0.261960 0.364470 0.373851
Si Si5 0.599938 0.604510 0.002098
Si Si6 0.619230 0.926632 0.777091
Si Si7 0.309240 0.926116 0.073714
Si Si8 0.413327 0.791867 0.860851
O O1 0.748088 0.468740 0.689192
O O2 0.801124 0.538357 0.728500
O O3 0.000000 0.500000 0.500000
O O4 0.290610 0.284396 0.004357
O O5 0.330042 0.021782 0.256604
O O6 0.840391 0.131075 0.104161
O O7 0.323426 0.955796 0.160496
O O8 0.311627 0.883642 0.564897
O O9 0.500000 0.500000 0.500000
O O10 0.405872 0.604933 0.055221
O O11 0.933973 0.760718 0.034883
O O12 0.477933 0.310704 0.290332
O O13 0.423947 0.235518 0.686464
O O14 0.955423 0.448582 0.227740
O O15 0.508502 0.676369 0.022590
O O16 0.500000 0.000000 0.500000
O O17 0.361222 0.972299 0.837068
O O18 0.000000 0.000000 0.000000
#
# Coordination Sequence:
#
# PCOD8008499 Si02
#       8
#     2   2   2   2   2   2   2   2
#     4  11  24  41  65  98 137 174 231 284 348 410
#     4  11  24  43  74  96 143 185 235 283 354 421
#     4  12  25  43  71 100 136 181 232 288 347 411
#     4  10  23  43  67  97 134 176 223 286 337 414
#     4  10  20  43  71  96 129 174 229 282 345 402
#     4  12  28  47  71 107 145 185 237 296 351 423
#     4  12  28  44  69 105 144 187 234 286 353 423
#     4  10  21  42  70 101 130 185 231 283 350 418
#
# _framework density 21.359173999999999
#
# number of rings (size 3 to 8) (size 9 to 14) (size 15 to 20)
#    0.000    1.000    2.500    4.125    8.750    0.500 
#    0.000    1.250    0.000    0.000    0.000    0.000 
#    0.000    0.000    0.000    0.000    0.000    0.000 
#
# Total GULP energy -198362.053464 kJ/mol
# GULP energy per Si atom -12397.628342 kJ/mol
# Density = 2.131056 g / cm^3
# Si number density = 21.359174 Si / 1000 Ang^3
#
#
#
# Elastic Constant Matrix: (Units=GPa)
#
#
# Indices 1 2 3 4 5 6 
#
# 1 157.7802 52.2429 36.1288 6.7653 -6.9729 -3.3630
# 2 52.2429 102.6381 44.1871 6.2321 -1.0950 -12.8548
# 3 36.1288 44.1871 96.3251 0.7905 2.7134 -9.1573
# 4 6.7653 6.2321 0.7905 36.0604 -5.3520 -6.5951
# 5 -6.9729 -1.0950 2.7134 -5.3520 34.2856 8.8096
# 6 -3.3630 -12.8548 -9.1573 -6.5951 8.8096 35.0517
#
#
#
# Elastic Compliance Matrix: (Units=1/GPa)
#
#
# Indices 1 2 3 4 5 6 
#
# 1 0.007940 -0.003488 -0.001573 -0.000857 0.001897 -0.001566
# 2 -0.003488 0.014086 -0.004772 -0.001161 -0.000992 0.003615
# 3 -0.001573 -0.004772 0.013425 0.000950 -0.001973 0.002281
# 4 -0.000857 -0.001161 0.000950 0.029357 0.003147 0.004473
# 5 0.001897 -0.000992 -0.001973 0.003147 0.032280 -0.008218
# 6 -0.001566 0.003615 0.002281 0.004473 -0.008218 0.033208
#
#
# Mechanical properties :
#
#
# Convention : Reuss Voigt Hill
#
# Bulk Modulus (GPa) = 63.35471 69.09564 66.22517
# Shear Modulus (GPa) = 32.21145 36.02519 34.11832
#
# Velocity S-wave (km/s) = 3.88762 4.11133 4.00104
# Velocity P-wave (km/s) = 7.06240 7.41330 7.23997
#
# Compressibility (1/GPa) = 0.01578415
#
# Stress axis : x y z
#
# Youngs Moduli (GPa) = 125.93844 70.99463 74.48623
#
# Poissons Ratio (x) = 0.24764 0.11720
# Poissons Ratio (y) = 0.43930 0.35545
# Poissons Ratio (z) = 0.19815 0.33878
#
# Static dielectric constant tensor:
#      x y z
#    x 3.550740 -0.340350 0.043180 
#    y -0.340350 3.562330 0.107700 
#    z 0.043180 0.107700 3.902440 
# 
# 
# High freq. dielectric constant tensor:
#      x y z
#    x 1.841050 -0.003130 -0.002800 
#    y -0.003130 1.841780 -0.002190 
#    z -0.002800 -0.002190 1.844630 
# 
# From -- ./inp_files/227700.got.cif
#   From: 2010.06.25/outbox.cif.g09.slc.cpg/sg2_114_cif.got.tgz:227700.got - 2010.06.27 13:26:56.
