data_PCOD8008750
_publ_section_title
;
Structure prediction by ZEFSAII (Michael W. Deem and Ramdas Pophale) SiO2 
 PCOD8008750
Probable space group: P -1
;
_chemical_formula_sum "Si O2"
_cell_formula_units_Z 16
_cell_length_a 17.295195
_cell_length_b 11.186672
_cell_length_c 9.170941
_cell_angle_alpha 123.721450
_cell_angle_beta 112.975309
_cell_angle_gamma 34.209944
_cell_volume 820.720080
_symmetry_space_group_name_H-M "P -1"
_symmetry_group_IT_number 2
_symmetry_cell_setting 'triclinic'
loop_
_space_group_symop_operation_xyz
x,y,z
-x,-y,-z
loop_
_atom_site_type_symbol
_atom_site_label
_atom_site_fract_x
_atom_site_fract_y
_atom_site_fract_z
Si Si1 0.633545 0.234116 0.369998
Si Si2 0.316687 0.720145 0.865826
Si Si3 0.954066 0.899696 0.890476
Si Si4 0.210587 0.032895 0.419667
Si Si5 0.459120 0.958983 0.804061
Si Si6 0.622064 0.834616 0.590953
Si Si7 0.553729 0.237930 0.816001
Si Si8 0.793729 0.636418 0.318130
O O1 0.500000 0.500000 0.500000
O O2 0.701624 0.225685 0.280367
O O3 0.587484 0.132819 0.235471
O O4 0.755128 0.078330 0.473064
O O5 0.391073 0.464811 0.790983
O O6 0.430845 0.677525 0.978861
O O7 0.167600 0.952105 0.982282
O O8 0.900940 0.920174 0.706563
O O9 0.084282 0.622553 0.840766
O O10 0.000000 0.000000 0.000000
O O11 0.152559 0.273741 0.559446
O O12 0.354510 0.839858 0.307076
O O13 0.593629 0.765896 0.660418
O O14 0.335023 0.197828 0.777743
O O15 0.500000 0.000000 0.000000
O O16 0.759100 0.621654 0.447267
O O17 0.500000 0.000000 0.500000
O O18 0.611382 0.009950 0.767057
#
# Coordination Sequence:
#
# PCOD8008750 Si02
#       8
#     2   2   2   2   2   2   2   2
#     4  11  21  35  57  85 115 146 184 231 289 335
#     4  10  21  34  56  82 116 141 189 226 288 329
#     4  11  24  37  57  82 113 151 191 234 277 330
#     4   9  19  39  58  81 109 149 195 226 276 338
#     4  10  21  35  56  89 118 144 181 234 290 329
#     4   9  18  31  57  79 110 139 189 230 274 313
#     4   9  17  34  57  84 104 147 184 242 270 323
#     4   9  20  38  57  80 112 151 194 223 274 336
#
# _framework density 19.495073999999999
#
# number of rings (size 3 to 8) (size 9 to 14) (size 15 to 20)
#    0.000    2.250    1.250    1.875    3.500    1.000 
#    0.000    4.375    0.000    0.000    0.000    0.000 
#    0.000    0.000    0.000    0.000    0.000    0.000 
#
# Total GULP energy -198218.993119 kJ/mol
# GULP energy per Si atom -12388.687070 kJ/mol
# Density = 1.945070 g / cm^3
# Si number density = 19.495074 Si / 1000 Ang^3
#
#
#
# Elastic Constant Matrix: (Units=GPa)
#
#
# Indices 1 2 3 4 5 6 
#
# 1 60.9761 33.2379 34.2072 -7.5787 -0.3704 -4.8761
# 2 33.2379 93.0047 46.8585 12.3903 -2.9441 -4.3784
# 3 34.2072 46.8585 95.3666 -4.6985 1.7149 -3.5106
# 4 -7.5787 12.3903 -4.6985 41.9507 -5.1576 0.1159
# 5 -0.3704 -2.9441 1.7149 -5.1576 38.3346 -3.5676
# 6 -4.8761 -4.3784 -3.5106 0.1159 -3.5676 18.6869
#
#
#
# Elastic Compliance Matrix: (Units=1/GPa)
#
#
# Indices 1 2 3 4 5 6 
#
# 1 0.023773 -0.006597 -0.004875 0.005820 0.001088 0.003914
# 2 -0.006597 0.017392 -0.006488 -0.006967 0.000748 0.001321
# 3 -0.004875 -0.006488 0.015568 0.002670 -0.000888 -0.000053
# 4 0.005820 -0.006967 0.002670 0.027636 0.003197 0.000827
# 5 0.001088 0.000748 -0.000888 0.003197 0.027131 0.005452
# 6 0.003914 0.001321 -0.000053 0.000827 0.005452 0.055870
#
#
# Mechanical properties :
#
#
# Convention : Reuss Voigt Hill
#
# Bulk Modulus (GPa) = 48.04195 53.10605 50.57400
# Shear Modulus (GPa) = 23.78374 28.79738 26.29056
#
# Velocity S-wave (km/s) = 3.49662 3.84756 3.67628
# Velocity P-wave (km/s) = 6.40300 6.85844 6.63463
#
# Compressibility (1/GPa) = 0.02081514
#
# Stress axis : x y z
#
# Youngs Moduli (GPa) = 42.06376 57.49656 64.23591
#
# Poissons Ratio (x) = 0.37929 0.31313
# Poissons Ratio (y) = 0.27748 0.41674
# Poissons Ratio (z) = 0.20505 0.37302
#
# Static dielectric constant tensor:
#      x y z
#    x 3.466350 -0.103820 -0.157090 
#    y -0.103820 3.502700 0.049030 
#    z -0.157090 0.049030 3.767840 
# 
# 
# High freq. dielectric constant tensor:
#      x y z
#    x 1.747870 0.004010 0.008990 
#    y 0.004010 1.735280 0.005110 
#    z 0.008990 0.005110 1.770330 
# 
# From -- ./inp_files/256343.got.cif
#   From: 2010.06.25/outbox.cif.g09.slc.cpg/sg2_129_cif.got.tgz:256343.got - 2010.06.27 13:26:56.
