data_PCOD8008032
_publ_section_title
;
Structure prediction by ZEFSAII (Michael W. Deem and Ramdas Pophale) SiO2 
 PCOD8008032
Probable space group: P -1
;
_chemical_formula_sum "Si O2"
_cell_formula_units_Z 14
_cell_length_a 17.688286
_cell_length_b 8.166565
_cell_length_c 16.070843
_cell_angle_alpha 56.773852
_cell_angle_beta 20.272563
_cell_angle_gamma 47.843621
_cell_volume 565.365578
_symmetry_space_group_name_H-M "P -1"
_symmetry_group_IT_number 2
_symmetry_cell_setting 'triclinic'
loop_
_space_group_symop_operation_xyz
x,y,z
-x,-y,-z
loop_
_atom_site_type_symbol
_atom_site_label
_atom_site_fract_x
_atom_site_fract_y
_atom_site_fract_z
Si Si1 0.711499 0.767200 0.565561
Si Si2 0.163115 0.857112 0.474537
Si Si3 0.530815 0.584830 0.320904
Si Si4 0.791483 0.820688 0.963062
Si Si5 0.069394 0.942419 0.778624
Si Si6 0.593357 0.139352 0.314289
Si Si7 0.756956 0.354105 0.718413
O O1 0.566830 0.757039 0.634381
O O2 0.839501 0.526134 0.549869
O O3 0.506795 0.966496 0.784619
O O4 0.929510 0.822244 0.300924
O O5 0.388968 0.737180 0.342413
O O6 0.294325 0.767426 0.273273
O O7 0.004043 0.140842 0.571148
O O8 0.944626 0.786830 0.728460
O O9 0.797614 0.585173 0.047077
O O10 0.366497 0.717167 0.538237
O O11 0.567959 0.336463 0.346227
O O12 0.952146 0.882196 0.840200
O O13 0.901921 0.970480 0.024694
O O14 0.500000 0.000000 0.500000
O O15 0.500000 0.500000 0.000000
#
# Coordination Sequence:
#
# PCOD8008032 Si02
#       7
#     2   2   2   2   2   2   2
#     4  10  20  42  64  89 131 161 206 265 305 367
#     4  10  21  37  61  91 121 167 209 247 313 361
#     4  10  21  40  65  89 125 164 203 262 309 370
#     4   9  19  40  63  88 125 166 208 250 313 369
#     4   9  22  40  65  91 124 167 203 260 319 360
#     4  11  24  41  66  95 122 162 211 257 318 377
#     4  11  21  37  64  93 130 163 209 256 300 371
#
# _framework density 24.762739
#
# number of rings (size 3 to 8) (size 9 to 14) (size 15 to 20)
#    0.000    2.000    2.857    0.000    2.000    1.143 
#    0.000   18.571    0.000    0.000    0.000    0.000 
#    0.000    0.000    0.000    0.000    0.000    0.000 
#
# Total GULP energy -173438.469014 kJ/mol
# GULP energy per Si atom -12388.462072 kJ/mol
# Density = 2.470638 g / cm^3
# Si number density = 24.762739 Si / 1000 Ang^3
#
#
#
# Elastic Constant Matrix: (Units=GPa)
#
#
# Indices 1 2 3 4 5 6 
#
# 1 46.8301 19.7585 31.8001 -2.0153 7.6172 15.7420
# 2 19.7585 158.5693 51.9774 -27.5163 9.9941 28.2887
# 3 31.8001 51.9774 131.9910 -24.6975 29.7295 11.1786
# 4 -2.0153 -27.5163 -24.6975 44.6791 11.2958 -5.4695
# 5 7.6172 9.9941 29.7295 11.2958 36.7621 -2.4889
# 6 15.7420 28.2887 11.1786 -5.4695 -2.4889 34.1104
#
#
#
# Elastic Compliance Matrix: (Units=1/GPa)
#
#
# Indices 1 2 3 4 5 6 
#
# 1 0.030000 0.000059 -0.006840 -0.003804 -0.000364 -0.012289
# 2 0.000059 0.008931 -0.001357 0.004784 -0.003250 -0.006460
# 3 -0.006840 -0.001357 0.014654 0.010320 -0.013224 0.000170
# 4 -0.003804 0.004784 0.010320 0.035738 -0.019929 -0.001318
# 5 -0.000364 -0.003250 -0.013224 -0.019929 0.045474 0.007320
# 6 -0.012289 -0.006460 0.000170 -0.001318 0.007320 0.040612
#
#
# Mechanical properties :
#
#
# Convention : Reuss Voigt Hill
#
# Bulk Modulus (GPa) = 26.80313 60.49581 43.64947
# Shear Modulus (GPa) = 24.49514 38.70061 31.59787
#
# Velocity S-wave (km/s) = 3.14856 3.95759 3.57602
# Velocity P-wave (km/s) = 4.90564 6.73547 5.89202
#
# Compressibility (1/GPa) = 0.03730907
#
# Stress axis : x y z
#
# Youngs Moduli (GPa) = 33.33324 111.96681 68.24153
#
# Poissons Ratio (x) = -0.00663 0.46678
# Poissons Ratio (y) = -0.00197 0.09261
# Poissons Ratio (z) = 0.22800 0.15195
#
# Static dielectric constant tensor:
#      x y z
#    x 4.367900 0.269170 0.297510 
#    y 0.269170 4.508250 -0.078930 
#    z 0.297510 -0.078930 5.188370 
# 
# 
# High freq. dielectric constant tensor:
#      x y z
#    x 1.967320 0.018320 0.019140 
#    y 0.018320 1.986990 -0.006890 
#    z 0.019140 -0.006890 1.991670 
# 
# From -- ./inp_files/48496.got.cif
#   From: 2010.06.25/outbox.cif.g09.slc.cpg/sg2_25_cif.got.tgz:48496.got - 2010.06.27 13:26:56.
