data_PCOD8008448
_publ_section_title
;
Structure prediction by ZEFSAII (Michael W. Deem and Ramdas Pophale) SiO2 
 PCOD8008448
Probable space group: P -1
;
_chemical_formula_sum "Si O2"
_cell_formula_units_Z 16
_cell_length_a 11.676810
_cell_length_b 10.979247
_cell_length_c 11.349185
_cell_angle_alpha 61.699088
_cell_angle_beta 38.059565
_cell_angle_gamma 52.713962
_cell_volume 713.640517
_symmetry_space_group_name_H-M "P -1"
_symmetry_group_IT_number 2
_symmetry_cell_setting 'triclinic'
loop_
_space_group_symop_operation_xyz
x,y,z
-x,-y,-z
loop_
_atom_site_type_symbol
_atom_site_label
_atom_site_fract_x
_atom_site_fract_y
_atom_site_fract_z
Si Si1 0.339496 0.715749 0.520222
Si Si2 0.677640 0.140144 0.002173
Si Si3 0.130226 0.923740 0.780420
Si Si4 0.545546 0.694596 0.117598
Si Si5 0.987056 0.612568 0.852876
Si Si6 0.693185 0.621595 0.433911
Si Si7 0.657294 0.942329 0.296296
Si Si8 0.370388 0.642439 0.858707
O O1 0.296698 0.873383 0.558402
O O2 0.388847 0.725239 0.339348
O O3 0.123904 0.704798 0.723866
O O4 0.543436 0.585474 0.478747
O O5 0.658278 0.295456 0.012363
O O6 0.566918 0.053067 0.205943
O O7 0.579422 0.180598 0.935194
O O8 0.909101 0.010423 0.861548
O O9 0.183047 0.759049 0.876352
O O10 0.149758 0.033769 0.816395
O O11 0.622949 0.524669 0.078872
O O12 0.746063 0.721535 0.977375
O O13 0.083225 0.518747 0.696203
O O14 0.000000 0.500000 0.000000
O O15 0.725457 0.766309 0.293905
O O16 0.590951 0.637579 0.637758
O O17 0.500000 0.000000 0.500000
#
# Coordination Sequence:
#
# PCOD8008448 Si02
#       8
#     2   2   2   2   2   2   2   2
#     4  11  23  44  64 101 134 172 223 280 333 385
#     4  11  25  43  63 100 137 179 217 272 346 397
#     4  10  23  40  71  95 126 178 227 269 325 400
#     4  12  26  44  65  99 144 174 219 281 334 399
#     4  12  24  39  70 101 128 180 230 270 327 397
#     4  11  21  39  71  99 128 166 232 287 315 381
#     4  11  20  41  68  98 126 169 228 274 322 395
#     4  10  20  43  68  96 131 175 223 279 325 391
#
# _framework density 22.420252000000001
#
# number of rings (size 3 to 8) (size 9 to 14) (size 15 to 20)
#    0.000    1.000    6.250    3.750    5.250    0.500 
#    2.250    3.125    0.000    0.000    0.000    0.000 
#    0.000    0.000    0.000    0.000    0.000    0.000 
#
# Total GULP energy -198227.789070 kJ/mol
# GULP energy per Si atom -12389.236817 kJ/mol
# Density = 2.236922 g / cm^3
# Si number density = 22.420252 Si / 1000 Ang^3
#
#
#
# Elastic Constant Matrix: (Units=GPa)
#
#
# Indices 1 2 3 4 5 6 
#
# 1 92.7188 16.2723 37.5127 -4.4085 3.5927 -27.4912
# 2 16.2723 49.6958 10.6548 0.0931 -3.2975 -8.4188
# 3 37.5127 10.6548 108.0979 2.0352 0.7109 -20.3690
# 4 -4.4085 0.0931 2.0352 31.4654 8.8720 -3.1409
# 5 3.5927 -3.2975 0.7109 8.8720 36.7138 -0.4575
# 6 -27.4912 -8.4188 -20.3690 -3.1409 -0.4575 44.1759
#
#
#
# Elastic Compliance Matrix: (Units=1/GPa)
#
#
# Indices 1 2 3 4 5 6 
#
# 1 0.015319 -0.003139 -0.003649 0.003859 -0.002549 0.007500
# 2 -0.003139 0.021783 -0.000712 -0.000992 0.002540 0.001825
# 3 -0.003649 -0.000712 0.011103 -0.001068 0.000369 0.002641
# 4 0.003859 -0.000992 -0.001068 0.035325 -0.008931 0.004139
# 5 -0.002549 0.002540 0.000369 -0.008931 0.029851 -0.001258
# 6 0.007500 0.001825 0.002641 0.004139 -0.001258 0.029151
#
#
# Mechanical properties :
#
#
# Convention : Reuss Voigt Hill
#
# Bulk Modulus (GPa) = 30.11740 42.15469 36.13605
# Shear Modulus (GPa) = 29.65620 34.87586 32.26603
#
# Velocity S-wave (km/s) = 3.64090 3.94833 3.79772
# Velocity P-wave (km/s) = 5.58007 6.29512 5.94835
#
# Compressibility (1/GPa) = 0.03320339
#
# Stress axis : x y z
#
# Youngs Moduli (GPa) = 65.27942 45.90834 90.06868
#
# Poissons Ratio (x) = 0.14412 0.32868
# Poissons Ratio (y) = 0.20494 0.06410
# Poissons Ratio (z) = 0.23822 0.03267
#
# Static dielectric constant tensor:
#      x y z
#    x 3.391810 -0.107310 0.380010 
#    y -0.107310 3.905770 0.237400 
#    z 0.380010 0.237400 4.123070 
# 
# 
# High freq. dielectric constant tensor:
#      x y z
#    x 1.862960 0.031220 -0.000030 
#    y 0.031220 1.870890 0.024350 
#    z -0.000030 0.024350 1.893000 
# 
# From -- ./inp_files/427705.got.cif
#   From: 2010.06.25/outbox.cif.g09.slc.cpg/sg2_214_cif.got.tgz:427705.got - 2010.06.27 13:26:56.
