data_PCOD8008221
_publ_section_title
;
Structure prediction by ZEFSAII (Michael W. Deem and Ramdas Pophale) SiO2 
 PCOD8008221
Probable space group: P -1
;
_chemical_formula_sum "Si O2"
_cell_formula_units_Z 16
_cell_length_a 13.429103
_cell_length_b 21.486303
_cell_length_c 19.166730
_cell_angle_alpha 160.537044
_cell_angle_beta 153.874127
_cell_angle_gamma 36.245230
_cell_volume 780.645395
_symmetry_space_group_name_H-M "P -1"
_symmetry_group_IT_number 2
_symmetry_cell_setting 'triclinic'
loop_
_space_group_symop_operation_xyz
x,y,z
-x,-y,-z
loop_
_atom_site_type_symbol
_atom_site_label
_atom_site_fract_x
_atom_site_fract_y
_atom_site_fract_z
Si Si1 0.775288 0.047812 0.732869
Si Si2 0.615046 0.669970 0.303862
Si Si3 0.726003 0.422877 0.556265
Si Si4 0.244648 0.618541 0.313561
Si Si5 0.166973 0.782666 0.194019
Si Si6 0.590417 0.344856 0.242163
Si Si7 0.765698 0.038165 0.423596
Si Si8 0.049150 0.540349 0.652160
O O1 0.889803 0.091056 0.773320
O O2 0.500000 0.000000 0.500000
O O3 0.808863 0.851625 0.581196
O O4 0.864890 0.232200 0.034696
O O5 0.415517 0.737524 0.291216
O O6 0.751086 0.569613 0.335112
O O7 0.500000 0.500000 0.000000
O O8 0.500000 0.500000 0.500000
O O9 0.776143 0.325651 0.558229
O O10 0.661533 0.285273 0.301760
O O11 0.959336 0.588509 0.860132
O O12 0.432875 0.495888 0.300695
O O13 0.326897 0.812350 0.524310
O O14 0.000000 0.500000 0.000000
O O15 0.173874 0.894307 0.388353
O O16 0.828095 0.441300 0.454680
O O17 0.447461 0.153878 0.910526
O O18 0.000000 0.000000 0.500000
O O19 0.000000 0.500000 0.500000
#
# Coordination Sequence:
#
# PCOD8008221 Si02
#       8
#     2   2   2   2   2   2   2   2
#     4  10  22  45  70  97 133 181 234 270 331 416
#     4  11  23  45  72 100 134 175 240 274 328 420
#     4  10  20  42  68  92 133 170 217 282 333 386
#     4  11  22  43  71  94 130 180 226 279 331 401
#     4  11  22  43  73  97 132 186 225 274 335 407
#     4  11  25  44  65  99 140 170 221 282 346 392
#     4  12  25  44  67 104 134 174 235 276 331 413
#     4  12  27  43  67 106 144 173 218 293 344 395
#
# _framework density 20.495861999999999
#
# number of rings (size 3 to 8) (size 9 to 14) (size 15 to 20)
#    0.000    1.000    6.250    0.750    5.250    2.000 
#    4.500    0.000    0.000    0.000    0.000    0.000 
#    0.000    0.000    0.000    0.000    0.000    0.000 
#
# Total GULP energy -198237.350943 kJ/mol
# GULP energy per Si atom -12389.834434 kJ/mol
# Density = 2.044921 g / cm^3
# Si number density = 20.495862 Si / 1000 Ang^3
#
#
#
# Elastic Constant Matrix: (Units=GPa)
#
#
# Indices 1 2 3 4 5 6 
#
# 1 122.1362 37.6354 32.5442 -3.1052 -23.3415 13.9410
# 2 37.6354 95.6859 33.4727 1.6760 -12.0999 14.8716
# 3 32.5442 33.4727 114.9461 4.8262 -7.2947 6.2358
# 4 -3.1052 1.6760 4.8262 38.5271 6.0229 2.9082
# 5 -23.3415 -12.0999 -7.2947 6.0229 39.9237 -9.7561
# 6 13.9410 14.8716 6.2358 2.9082 -9.7561 38.4110
#
#
#
# Elastic Compliance Matrix: (Units=1/GPa)
#
#
# Indices 1 2 3 4 5 6 
#
# 1 0.010571 -0.002726 -0.001859 0.000588 0.004594 -0.001357
# 2 -0.002726 0.013169 -0.002795 -0.000366 0.001125 -0.003342
# 3 -0.001859 -0.002795 0.010093 -0.001340 0.000177 0.000265
# 4 0.000588 -0.000366 -0.001340 0.027189 -0.004884 -0.003153
# 5 0.004594 0.001125 0.000177 -0.004884 0.030294 0.005932
# 6 -0.001357 -0.003342 0.000265 -0.003153 0.005932 0.029523
#
#
# Mechanical properties :
#
#
# Convention : Reuss Voigt Hill
#
# Bulk Modulus (GPa) = 52.42831 60.00808 56.21819
# Shear Modulus (GPa) = 35.22251 38.64673 36.93462
#
# Velocity S-wave (km/s) = 4.15000 4.34705 4.24966
# Velocity P-wave (km/s) = 6.97128 7.38495 7.18109
#
# Compressibility (1/GPa) = 0.01907367
#
# Stress axis : x y z
#
# Youngs Moduli (GPa) = 94.60198 75.93659 99.07863
#
# Poissons Ratio (x) = 0.20700 0.18414
# Poissons Ratio (y) = 0.25788 0.27692
# Poissons Ratio (z) = 0.17582 0.21224
#
# Static dielectric constant tensor:
#      x y z
#    x 5.255870 0.201680 0.333670 
#    y 0.201680 5.705010 2.194300 
#    z 0.333670 2.194300 7.018830 
# 
# 
# High freq. dielectric constant tensor:
#      x y z
#    x 1.812510 0.011890 0.000710 
#    y 0.011890 1.797000 -0.013010 
#    z 0.000710 -0.013010 1.813750 
# 
# From -- ./inp_files/307702.got.cif
#   From: 2010.06.25/outbox.cif.g09.slc.cpg/sg2_154_cif.got.tgz:307702.got - 2010.06.27 13:26:56.
