data_PCOD8008746
_publ_section_title
;
Structure prediction by ZEFSAII (Michael W. Deem and Ramdas Pophale) SiO2 
 PCOD8008746
Probable space group: P -1
;
_chemical_formula_sum "Si O2"
_cell_formula_units_Z 16
_cell_length_a 6.603630
_cell_length_b 14.608090
_cell_length_c 11.121988
_cell_angle_alpha 127.640655
_cell_angle_beta 78.591813
_cell_angle_gamma 84.206128
_cell_volume 798.090218
_symmetry_space_group_name_H-M "P -1"
_symmetry_group_IT_number 2
_symmetry_cell_setting 'triclinic'
loop_
_space_group_symop_operation_xyz
x,y,z
-x,-y,-z
loop_
_atom_site_type_symbol
_atom_site_label
_atom_site_fract_x
_atom_site_fract_y
_atom_site_fract_z
Si Si1 0.339603 0.554036 0.720248
Si Si2 0.815196 0.225493 0.924891
Si Si3 0.824066 0.433140 0.502069
Si Si4 0.411103 0.927966 0.317024
Si Si5 0.159382 0.325481 0.564725
Si Si6 0.808795 0.840035 0.354720
Si Si7 0.566904 0.909003 0.756375
Si Si8 0.198035 0.951943 0.020581
O O1 0.600269 0.516708 0.651443
O O2 0.239964 0.621090 0.659607
O O3 0.238445 0.443700 0.664526
O O4 0.273697 0.635174 0.912882
O O5 0.649231 0.183366 0.826515
O O6 0.846462 0.157772 0.992622
O O7 0.041627 0.193667 0.805524
O O8 0.000000 0.500000 0.500000
O O9 0.946445 0.340378 0.517314
O O10 0.563305 0.864889 0.357846
O O11 0.199043 0.033249 0.474714
O O12 0.533085 0.994354 0.260691
O O13 0.112475 0.274994 0.658954
O O14 0.363077 0.226708 0.406619
O O15 0.776734 0.944986 0.808390
O O16 0.410479 0.906483 0.880745
O O17 0.000000 0.000000 0.000000
#
# Coordination Sequence:
#
# PCOD8008746 Si02
#       8
#     2   2   2   2   2   2   2   2
#     4  10  23  39  58  91 118 156 197 242 303 353
#     4  11  23  36  60  89 120 153 196 245 296 351
#     4   9  21  40  60  83 117 157 199 243 292 350
#     4   9  20  40  60  85 117 158 195 245 289 352
#     4  10  22  39  62  84 118 159 201 244 283 358
#     4  10  21  40  63  85 116 162 199 236 295 349
#     4   9  20  36  55  85 117 148 195 239 294 344
#     4  10  21  34  55  86 118 149 187 246 295 349
#
# _framework density 20.047858999999999
#
# number of rings (size 3 to 8) (size 9 to 14) (size 15 to 20)
#    0.000    2.250    0.000    1.125    7.000    3.500 
#    0.000    3.750    0.000    0.000    0.000    0.000 
#    0.000    0.000    0.000    0.000    0.000    0.000 
#
# Total GULP energy -198234.576005 kJ/mol
# GULP energy per Si atom -12389.661000 kJ/mol
# Density = 2.000223 g / cm^3
# Si number density = 20.047859 Si / 1000 Ang^3
#
#
#
# Elastic Constant Matrix: (Units=GPa)
#
#
# Indices 1 2 3 4 5 6 
#
# 1 81.9780 52.3314 35.5007 -0.7164 -1.2114 -10.7776
# 2 52.3314 93.0259 27.7738 -0.2162 4.8191 -15.6977
# 3 35.5007 27.7738 137.3511 3.6928 7.2375 12.1251
# 4 -0.7164 -0.2162 3.6928 26.5441 7.6742 2.8038
# 5 -1.2114 4.8191 7.2375 7.6742 31.3541 -8.0596
# 6 -10.7776 -15.6977 12.1251 2.8038 -8.0596 32.6745
#
#
#
# Elastic Compliance Matrix: (Units=1/GPa)
#
#
# Indices 1 2 3 4 5 6 
#
# 1 0.021102 -0.010080 -0.004075 -0.000838 0.004764 0.004877
# 2 -0.010080 0.017826 -0.001403 -0.000105 -0.001385 0.005427
# 3 -0.004075 -0.001403 0.009384 0.000376 -0.003867 -0.006486
# 4 -0.000838 -0.000105 0.000376 0.041859 -0.012163 -0.007059
# 5 0.004764 -0.001385 -0.003867 -0.012163 0.039537 0.013137
# 6 0.004877 0.005427 -0.006486 -0.007059 0.013137 0.041074
#
#
# Mechanical properties :
#
#
# Convention : Reuss Voigt Hill
#
# Bulk Modulus (GPa) = 58.15008 60.39631 59.27320
# Shear Modulus (GPa) = 24.08128 31.23112 27.65620
#
# Velocity S-wave (km/s) = 3.46958 3.95122 3.71820
# Velocity P-wave (km/s) = 6.71708 7.14196 6.93278
#
# Compressibility (1/GPa) = 0.01719688
#
# Stress axis : x y z
#
# Youngs Moduli (GPa) = 47.38909 56.09702 106.56751
#
# Poissons Ratio (x) = 0.56546 0.43425
# Poissons Ratio (y) = 0.47768 0.14947
# Poissons Ratio (z) = 0.19310 0.07868
#
# Static dielectric constant tensor:
#      x y z
#    x 3.205180 -0.430200 0.751020 
#    y -0.430200 3.524230 0.223790 
#    z 0.751020 0.223790 2.508380 
# 
# 
# High freq. dielectric constant tensor:
#      x y z
#    x 1.775030 -0.004990 0.007180 
#    y -0.004990 1.779970 -0.015120 
#    z 0.007180 -0.015120 1.783220 
# 
# From -- ./inp_files/67139.got.cif
#   From: 2010.06.25/outbox.cif.g09.slc.cpg/sg2_34_cif.got.tgz:67139.got - 2010.06.27 13:26:56.
