data_PCOD8008886
_publ_section_title
;
Structure prediction by ZEFSAII (Michael W. Deem and Ramdas Pophale) SiO2 
 PCOD8008886
Probable space group: P -1
;
_chemical_formula_sum "Si O2"
_cell_formula_units_Z 16
_cell_length_a 10.645420
_cell_length_b 21.580060
_cell_length_c 18.177981
_cell_angle_alpha 16.952947
_cell_angle_beta 127.180397
_cell_angle_gamma 135.285049
_cell_volume 796.750190
_symmetry_space_group_name_H-M "P -1"
_symmetry_group_IT_number 2
_symmetry_cell_setting 'triclinic'
loop_
_space_group_symop_operation_xyz
x,y,z
-x,-y,-z
loop_
_atom_site_type_symbol
_atom_site_label
_atom_site_fract_x
_atom_site_fract_y
_atom_site_fract_z
Si Si1 0.366145 0.068347 0.448068
Si Si2 0.138361 0.517845 0.303452
Si Si3 0.150661 0.135407 0.835298
Si Si4 0.636221 0.355112 0.983613
Si Si5 0.301456 0.441340 0.076536
Si Si6 0.463400 0.540898 0.315064
Si Si7 0.305313 0.982798 0.937252
Si Si8 0.956786 0.402501 0.218549
O O1 0.269695 0.182942 0.329329
O O2 0.417087 0.918609 0.693165
O O3 0.217136 0.887084 0.537602
O O4 0.561062 0.302872 0.214629
O O5 0.065517 0.255859 0.618333
O O6 0.348389 0.634999 0.210896
O O7 0.154905 0.732950 0.118910
O O8 0.981230 0.432775 0.280819
O O9 0.345090 0.365423 0.680187
O O10 0.197547 0.960865 0.001159
O O11 0.000000 0.000000 0.000000
O O12 0.618106 0.510375 0.866988
O O13 0.494584 0.333002 0.894855
O O14 0.850582 0.524592 0.835069
O O15 0.095254 0.400503 0.051326
O O16 0.345787 0.229676 0.625475
O O17 0.500000 0.000000 0.000000
#
# Coordination Sequence:
#
# PCOD8008886 Si02
#       8
#     2   2   2   2   2   2   2   2
#     4  10  21  38  57  79 118 159 185 234 292 346
#     4  10  21  39  60  85 112 157 196 235 296 348
#     4  11  23  37  58  91 121 151 191 244 294 347
#     4  10  21  35  57  86 113 147 193 241 284 334
#     4  10  21  37  57  81 113 157 194 225 292 348
#     4  10  21  38  59  85 115 154 193 239 296 348
#     4  11  19  40  67  79 116 159 196 237 288 352
#     4  10  21  35  59  85 113 145 194 244 282 333
#
# _framework density 20.081575999999998
#
# number of rings (size 3 to 8) (size 9 to 14) (size 15 to 20)
#    0.000    1.750    2.500    3.750    0.000    9.500 
#    0.000    1.250    0.000    0.000    0.000    0.000 
#    0.000    0.000    0.000    0.000    0.000    0.000 
#
# Total GULP energy -198335.009845 kJ/mol
# GULP energy per Si atom -12395.938115 kJ/mol
# Density = 2.003587 g / cm^3
# Si number density = 20.081576 Si / 1000 Ang^3
#
#
#
# Elastic Constant Matrix: (Units=GPa)
#
#
# Indices 1 2 3 4 5 6 
#
# 1 87.0476 25.8388 37.1881 -3.4587 19.6873 -30.6453
# 2 25.8388 98.3171 45.0574 9.2170 11.9681 -31.3959
# 3 37.1881 45.0574 76.1020 -1.6966 14.9829 -22.4841
# 4 -3.4587 9.2170 -1.6966 28.3048 -12.8478 -1.7432
# 5 19.6873 11.9681 14.9829 -12.8478 31.7743 -4.1069
# 6 -30.6453 -31.3959 -22.4841 -1.7432 -4.1069 31.3699
#
#
#
# Elastic Compliance Matrix: (Units=1/GPa)
#
#
# Indices 1 2 3 4 5 6 
#
# 1 0.022339 0.005202 -0.005415 -0.003340 -0.011830 0.021413
# 2 0.005202 0.019870 -0.007531 -0.009032 -0.008487 0.017957
# 3 -0.005415 -0.007531 0.021551 0.001914 -0.002893 0.002347
# 4 -0.003340 -0.009032 0.001914 0.048292 0.023426 -0.005180
# 5 -0.011830 -0.008487 -0.002893 0.023426 0.051007 -0.014145
# 6 0.021413 0.017957 0.002347 -0.005180 -0.014145 0.070310
#
#
# Mechanical properties :
#
#
# Convention : Reuss Voigt Hill
#
# Bulk Modulus (GPa) = 20.71653 53.07061 36.89357
# Shear Modulus (GPa) = 18.87174 28.51528 23.69351
#
# Velocity S-wave (km/s) = 3.06887 3.77234 3.43864
# Velocity P-wave (km/s) = 4.78496 6.74233 5.84614
#
# Compressibility (1/GPa) = 0.04827064
#
# Stress axis : x y z
#
# Youngs Moduli (GPa) = 44.76576 50.32804 46.40189
#
# Poissons Ratio (x) = -0.26179 0.25125
# Poissons Ratio (y) = -0.23286 0.34946
# Poissons Ratio (z) = 0.24239 0.37903
#
# Static dielectric constant tensor:
#      x y z
#    x 3.838130 -0.226590 0.128490 
#    y -0.226590 3.875550 0.110510 
#    z 0.128490 0.110510 3.560820 
# 
# 
# High freq. dielectric constant tensor:
#      x y z
#    x 1.785500 -0.014600 0.009500 
#    y -0.014600 1.786590 0.007440 
#    z 0.009500 0.007440 1.772100 
# 
# From -- ./inp_files/570552.got.cif
#   From: 2010.06.25/outbox.cif.g09.slc.cpg/sg2_286_cif.got.tgz:570552.got - 2010.06.27 13:26:56.
