data_PCOD8008879
_publ_section_title
;
Structure prediction by ZEFSAII (Michael W. Deem and Ramdas Pophale) SiO2 
 PCOD8008879
Probable space group: P -1
;
_chemical_formula_sum "Si O2"
_cell_formula_units_Z 16
_cell_length_a 9.972267
_cell_length_b 8.359402
_cell_length_c 10.963605
_cell_angle_alpha 67.841634
_cell_angle_beta 101.213071
_cell_angle_gamma 128.728338
_cell_volume 659.242994
_symmetry_space_group_name_H-M "P -1"
_symmetry_group_IT_number 2
_symmetry_cell_setting 'triclinic'
loop_
_space_group_symop_operation_xyz
x,y,z
-x,-y,-z
loop_
_atom_site_type_symbol
_atom_site_label
_atom_site_fract_x
_atom_site_fract_y
_atom_site_fract_z
Si Si1 0.940311 0.858324 0.704506
Si Si2 0.946960 0.308213 0.814582
Si Si3 0.156189 0.757929 0.916180
Si Si4 0.293593 0.185485 0.134119
Si Si5 0.767690 0.478842 0.613252
Si Si6 0.787582 0.653509 0.319394
Si Si7 0.469971 0.257747 0.811862
Si Si8 0.347170 0.583749 0.946156
O O1 0.008040 0.748398 0.825173
O O2 0.766797 0.804648 0.745961
O O3 0.879305 0.733680 0.600783
O O4 0.082738 0.116445 0.654346
O O5 0.879397 0.392794 0.679773
O O6 0.133366 0.384123 0.774878
O O7 0.826910 0.049695 0.877243
O O8 0.927469 0.365617 0.933507
O O9 0.204138 0.621595 0.884139
O O10 0.332310 0.000842 0.884063
O O11 0.488663 0.265361 0.156276
O O12 0.276357 0.333397 0.993554
O O13 0.733410 0.472073 0.464661
O O14 0.584436 0.315157 0.695011
O O15 0.621654 0.627390 0.249932
O O16 0.596320 0.352677 0.921042
#
# Coordination Sequence:
#
# PCOD8008879 Si02
#       8
#     2   2   2   2   2   2   2   2
#     4  10  23  40  61  89 120 157 195 251 295 354
#     4  11  22  38  64  85 125 153 198 248 296 355
#     4  11  22  39  61  95 121 152 193 244 315 350
#     4  10  21  35  56  91 118 159 186 241 301 357
#     4  12  22  43  62  86 119 164 204 239 290 352
#     4  10  25  40  62  87 119 162 204 241 288 349
#     4  11  21  38  64  89 116 157 195 250 292 354
#     4  11  20  36  59  89 129 150 191 238 307 366
#
# _framework density 24.270261999999999
#
# number of rings (size 3 to 8) (size 9 to 14) (size 15 to 20)
#    0.000    1.250    3.750    2.250    1.750    3.500 
#    2.250    0.000    0.000    0.750    0.000    0.000 
#    0.000    0.000    0.000    0.000    0.000    0.000 
#
# Total GULP energy -198378.540914 kJ/mol
# GULP energy per Si atom -12398.658807 kJ/mol
# Density = 2.421502 g / cm^3
# Si number density = 24.270262 Si / 1000 Ang^3
#
#
#
# Elastic Constant Matrix: (Units=GPa)
#
#
# Indices 1 2 3 4 5 6 
#
# 1 169.3040 20.3661 32.1408 -12.3118 -0.2401 -14.2768
# 2 20.3661 51.8437 5.3953 -1.9112 -14.3757 -5.0872
# 3 32.1408 5.3953 99.5407 -4.6776 -7.6111 -13.6114
# 4 -12.3118 -1.9112 -4.6776 21.2325 -1.4198 -5.6644
# 5 -0.2401 -14.3757 -7.6111 -1.4198 26.5570 -5.4076
# 6 -14.2768 -5.0872 -13.6114 -5.6644 -5.4076 33.6165
#
#
#
# Elastic Compliance Matrix: (Units=1/GPa)
#
#
# Indices 1 2 3 4 5 6 
#
# 1 0.007026 -0.002488 -0.001690 0.004057 -0.001055 0.002437
# 2 -0.002488 0.025249 0.001740 0.004047 0.015720 0.006680
# 3 -0.001690 0.001740 0.011927 0.003772 0.005755 0.005936
# 4 0.004057 0.004047 0.003772 0.055171 0.009240 0.014646
# 5 -0.001055 0.015720 0.005755 0.009240 0.051159 0.014048
# 6 0.002437 0.006680 0.005936 0.014646 0.014048 0.038924
#
#
# Mechanical properties :
#
#
# Convention : Reuss Voigt Hill
#
# Bulk Modulus (GPa) = 25.42900 48.49920 36.96410
# Shear Modulus (GPa) = 24.10350 33.80029 28.95189
#
# Velocity S-wave (km/s) = 3.15481 3.73589 3.45758
# Velocity P-wave (km/s) = 4.87551 6.21575 5.58597
#
# Compressibility (1/GPa) = 0.03932519
#
# Stress axis : x y z
#
# Youngs Moduli (GPa) = 142.33360 39.60617 83.84553
#
# Poissons Ratio (x) = 0.09853 0.14174
# Poissons Ratio (y) = 0.35409 -0.14592
# Poissons Ratio (z) = 0.24061 -0.06893
#
# Static dielectric constant tensor:
#      x y z
#    x 4.716320 -0.128460 -0.095220 
#    y -0.128460 4.617040 -0.183280 
#    z -0.095220 -0.183280 4.025000 
# 
# 
# High freq. dielectric constant tensor:
#      x y z
#    x 1.987080 -0.000170 -0.010360 
#    y -0.000170 1.981150 -0.010630 
#    z -0.010360 -0.010630 1.939760 
# 
# From -- ./inp_files/207125.got.cif
#   From: 2010.06.25/outbox.cif.g09.slc.cpg/sg2_104_cif.got.tgz:207125.got - 2010.06.27 13:26:56.
