data_PCOD8008944
_publ_section_title
;
Structure prediction by ZEFSAII (Michael W. Deem and Ramdas Pophale) SiO2 
 PCOD8008944
Probable space group: P -1
;
_chemical_formula_sum "Si O2"
_cell_formula_units_Z 16
_cell_length_a 12.352391
_cell_length_b 14.938120
_cell_length_c 9.572728
_cell_angle_alpha 72.924241
_cell_angle_beta 80.738988
_cell_angle_gamma 28.245893
_cell_volume 780.224762
_symmetry_space_group_name_H-M "P -1"
_symmetry_group_IT_number 2
_symmetry_cell_setting 'triclinic'
loop_
_space_group_symop_operation_xyz
x,y,z
-x,-y,-z
loop_
_atom_site_type_symbol
_atom_site_label
_atom_site_fract_x
_atom_site_fract_y
_atom_site_fract_z
Si Si1 0.122161 0.163184 0.700480
Si Si2 0.167261 0.676472 0.568968
Si Si3 0.106212 0.819409 0.086488
Si Si4 0.679813 0.268533 0.662763
Si Si5 0.948914 0.876271 0.818083
Si Si6 0.039589 0.431502 0.675414
Si Si7 0.544138 0.040478 0.850173
Si Si8 0.395814 0.132706 0.328377
O O1 0.074915 0.107008 0.824214
O O2 0.027434 0.327712 0.722988
O O3 0.013490 0.240399 0.532092
O O4 0.401282 0.952313 0.728955
O O5 0.414244 0.435235 0.617571
O O6 0.221808 0.741109 0.478562
O O7 0.068183 0.745693 0.714856
O O8 0.324651 0.670428 0.214951
O O9 0.145839 0.739247 0.964064
O O10 0.000000 0.000000 0.000000
O O11 0.848171 0.053587 0.723316
O O12 0.734164 0.976277 0.878835
O O13 0.291846 0.275038 0.753215
O O14 0.000000 0.500000 0.500000
O O15 0.832267 0.631021 0.718367
O O16 0.664578 0.898694 0.759551
O O17 0.500000 0.000000 0.000000
O O18 0.500000 0.000000 0.500000
#
# Coordination Sequence:
#
# PCOD8008944 Si02
#       8
#     2   2   2   2   2   2   2   2
#     4  10  21  38  62  87 124 156 204 246 304 357
#     4  10  21  35  60  90 114 146 194 249 293 352
#     4   9  20  42  60  82 119 162 193 247 304 363
#     4   9  21  39  56  85 118 145 190 249 296 351
#     4  11  21  35  63  82 113 156 197 234 304 352
#     4  11  23  39  64  90 126 165 204 252 304 365
#     4  11  25  41  59  91 130 160 206 259 300 360
#     4  11  21  39  62  90 124 166 206 249 307 369
#
# _framework density 20.506910999999999
#
# number of rings (size 3 to 8) (size 9 to 14) (size 15 to 20)
#    0.000    1.750    2.500    2.625    1.750    1.000 
#    0.000   12.500    0.000    0.000    0.000    0.000 
#    0.000    0.000    0.000    0.000    0.000    0.000 
#
# Total GULP energy -198270.596045 kJ/mol
# GULP energy per Si atom -12391.912253 kJ/mol
# Density = 2.046024 g / cm^3
# Si number density = 20.506911 Si / 1000 Ang^3
#
#
#
# Elastic Constant Matrix: (Units=GPa)
#
#
# Indices 1 2 3 4 5 6 
#
# 1 69.9658 16.1281 6.4050 -0.8138 -3.4297 -2.4899
# 2 16.1281 113.4637 9.0407 1.0152 2.6047 3.1997
# 3 6.4050 9.0407 85.4409 7.9125 0.3213 2.6844
# 4 -0.8138 1.0152 7.9125 28.1017 2.7612 6.5118
# 5 -3.4297 2.6047 0.3213 2.7612 39.7440 -0.4514
# 6 -2.4899 3.1997 2.6844 6.5118 -0.4514 19.5490
#
#
#
# Elastic Compliance Matrix: (Units=1/GPa)
#
#
# Indices 1 2 3 4 5 6 
#
# 1 0.015040 -0.002162 -0.000988 0.000089 0.001469 0.002409
# 2 -0.002162 0.009250 -0.000787 0.000325 -0.000830 -0.001809
# 3 -0.000988 -0.000787 0.012185 -0.003309 0.000091 -0.000566
# 4 0.000089 0.000325 -0.003309 0.039783 -0.002897 -0.012906
# 5 0.001469 -0.000830 0.000091 -0.002897 0.025564 0.001866
# 6 0.002409 -0.001809 -0.000566 -0.012906 0.001866 0.056176
#
#
# Mechanical properties :
#
#
# Convention : Reuss Voigt Hill
#
# Bulk Modulus (GPa) = 34.96215 36.89089 35.92652
# Shear Modulus (GPa) = 28.50521 33.29872 30.90197
#
# Velocity S-wave (km/s) = 3.73235 4.03399 3.88610
# Velocity P-wave (km/s) = 5.97159 6.30285 6.13946
#
# Compressibility (1/GPa) = 0.02860236
#
# Stress axis : x y z
#
# Youngs Moduli (GPa) = 66.48840 108.10231 82.06665
#
# Poissons Ratio (x) = 0.23367 0.08110
# Poissons Ratio (y) = 0.14372 0.06458
# Poissons Ratio (z) = 0.06571 0.08507
#
# Static dielectric constant tensor:
#      x y z
#    x 4.370770 -0.574590 1.249580 
#    y -0.574590 6.678750 -2.553500 
#    z 1.249580 -2.553500 6.946570 
# 
# 
# High freq. dielectric constant tensor:
#      x y z
#    x 1.811810 -0.006620 0.005090 
#    y -0.006620 1.775830 -0.000910 
#    z 0.005090 -0.000910 1.818850 
# 
# From -- ./inp_files/272903.got.cif
#   From: 2010.06.25/outbox.cif.g09.slc.cpg/sg2_137_cif.got.tgz:272903.got - 2010.06.27 13:26:56.
