data_PCOD8008111
_publ_section_title
;
Structure prediction by ZEFSAII (Michael W. Deem and Ramdas Pophale) SiO2 
 PCOD8008111
Probable space group: P -1
;
_chemical_formula_sum "Si O2"
_cell_formula_units_Z 16
_cell_length_a 15.726349
_cell_length_b 12.149480
_cell_length_c 8.871903
_cell_angle_alpha 113.314096
_cell_angle_beta 55.963119
_cell_angle_gamma 66.857736
_cell_volume 760.894315
_symmetry_space_group_name_H-M "P -1"
_symmetry_group_IT_number 2
_symmetry_cell_setting 'triclinic'
loop_
_space_group_symop_operation_xyz
x,y,z
-x,-y,-z
loop_
_atom_site_type_symbol
_atom_site_label
_atom_site_fract_x
_atom_site_fract_y
_atom_site_fract_z
Si Si1 0.995755 0.049298 0.699167
Si Si2 0.997771 0.326249 0.924095
Si Si3 0.794711 0.691684 0.815745
Si Si4 0.643140 0.281061 0.311653
Si Si5 0.239088 0.278629 0.786447
Si Si6 0.458441 0.879852 0.779413
Si Si7 0.725877 0.564248 0.582640
Si Si8 0.813541 0.210480 0.368848
O O1 0.999479 0.189140 0.788774
O O2 0.824516 0.152115 0.992861
O O3 0.000000 0.000000 0.500000
O O4 0.169325 0.836419 0.496412
O O5 0.186506 0.199637 0.719520
O O6 0.921050 0.477960 0.946169
O O7 0.876463 0.461172 0.263030
O O8 0.729567 0.630994 0.771957
O O9 0.000000 0.500000 0.500000
O O10 0.726418 0.766681 0.094778
O O11 0.714970 0.876749 0.896695
O O12 0.500000 0.500000 0.500000
O O13 0.597419 0.187239 0.285347
O O14 0.661806 0.277929 0.472762
O O15 0.411377 0.165941 0.476808
O O16 0.539722 0.765984 0.797878
O O17 0.757235 0.398709 0.503296
O O18 0.000000 0.000000 0.000000
#
# Coordination Sequence:
#
# PCOD8008111 Si02
#       8
#     2   2   2   2   2   2   2   2
#     4  11  25  41  67 101 130 166 222 274 328 385
#     4  10  20  42  66  90 133 173 213 264 330 385
#     4  12  26  39  68 100 128 173 228 273 319 384
#     4  11  21  44  71  94 127 176 220 263 334 397
#     4  10  23  42  65  94 130 174 215 265 324 387
#     4  11  25  44  65  95 138 175 212 269 337 394
#     4  11  21  44  64  96 133 173 219 268 328 395
#     4  10  21  39  68  96 126 173 217 267 328 394
#
# _framework density 21.027888000000001
#
# number of rings (size 3 to 8) (size 9 to 14) (size 15 to 20)
#    0.000    1.250    5.000    1.500    7.000    0.000 
#    2.250    0.625    0.000    0.000    0.000    0.000 
#    0.000    0.000    0.000    0.000    0.000    0.000 
#
# Total GULP energy -198323.979126 kJ/mol
# GULP energy per Si atom -12395.248695 kJ/mol
# Density = 2.098003 g / cm^3
# Si number density = 21.027888 Si / 1000 Ang^3
#
#
#
# Elastic Constant Matrix: (Units=GPa)
#
#
# Indices 1 2 3 4 5 6 
#
# 1 168.1123 51.3068 43.9337 3.4555 -7.2790 -18.0409
# 2 51.3068 104.8920 36.5215 23.1643 -2.4876 -24.0946
# 3 43.9337 36.5215 63.5076 23.8991 -2.1351 -2.9948
# 4 3.4555 23.1643 23.8991 33.1645 -3.2197 -5.2969
# 5 -7.2790 -2.4876 -2.1351 -3.2197 28.1996 -2.9269
# 6 -18.0409 -24.0946 -2.9948 -5.2969 -2.9269 44.6331
#
#
#
# Elastic Compliance Matrix: (Units=1/GPa)
#
#
# Indices 1 2 3 4 5 6 
#
# 1 0.008804 -0.002744 -0.006763 0.006528 0.002530 0.002564
# 2 -0.002744 0.015091 -0.004116 -0.006305 0.000217 0.006027
# 3 -0.006763 -0.004116 0.029530 -0.018809 -0.002578 -0.005375
# 4 0.006528 -0.006305 -0.018809 0.048640 0.005686 0.004118
# 5 0.002530 0.000217 -0.002578 0.005686 0.037010 0.004068
# 6 0.002564 0.006027 -0.005375 0.004118 0.004068 0.027090
#
#
# Mechanical properties :
#
#
# Convention : Reuss Voigt Hill
#
# Bulk Modulus (GPa) = 38.19921 66.67063 52.43492
# Shear Modulus (GPa) = 24.73575 34.84944 29.79259
#
# Velocity S-wave (km/s) = 3.43349 4.07541 3.76814
# Velocity P-wave (km/s) = 5.82442 7.34302 6.62736
#
# Compressibility (1/GPa) = 0.02617855
#
# Stress axis : x y z
#
# Youngs Moduli (GPa) = 113.58692 66.26438 33.86438
#
# Poissons Ratio (x) = 0.18185 0.22902
# Poissons Ratio (y) = 0.31172 0.13938
# Poissons Ratio (z) = 0.76818 0.27273
#
# Static dielectric constant tensor:
#      x y z
#    x 4.671910 -0.774040 0.027710 
#    y -0.774040 4.509170 0.179450 
#    z 0.027710 0.179450 3.645320 
# 
# 
# High freq. dielectric constant tensor:
#      x y z
#    x 1.847660 -0.009350 -0.005470 
#    y -0.009350 1.835880 0.022260 
#    z -0.005470 0.022260 1.793820 
# 
# From -- ./inp_files/299311.got.cif
#   From: 2010.06.25/outbox.cif.g09.slc.cpg/sg2_150_cif.got.tgz:299311.got - 2010.06.27 13:26:56.
