data_PCOD8008693
_publ_section_title
;
Structure prediction by ZEFSAII (Michael W. Deem and Ramdas Pophale) SiO2 
 PCOD8008693
Probable space group: P -1
;
_chemical_formula_sum "Si O2"
_cell_formula_units_Z 16
_cell_length_a 5.256942
_cell_length_b 20.601129
_cell_length_c 9.865092
_cell_angle_alpha 115.079869
_cell_angle_beta 76.673065
_cell_angle_gamma 124.435999
_cell_volume 798.016911
_symmetry_space_group_name_H-M "P -1"
_symmetry_group_IT_number 2
_symmetry_cell_setting 'triclinic'
loop_
_space_group_symop_operation_xyz
x,y,z
-x,-y,-z
loop_
_atom_site_type_symbol
_atom_site_label
_atom_site_fract_x
_atom_site_fract_y
_atom_site_fract_z
Si Si1 0.590824 0.315336 0.332605
Si Si2 0.220614 0.238370 0.560903
Si Si3 0.346964 0.700546 0.980921
Si Si4 0.811073 0.626400 0.167100
Si Si5 0.349125 0.906435 0.381907
Si Si6 0.284026 0.416172 0.370095
Si Si7 0.606122 0.450565 0.095565
Si Si8 0.757456 0.833314 0.242131
O O1 0.397571 0.243715 0.405909
O O2 0.376887 0.350214 0.345926
O O3 0.925923 0.382730 0.414465
O O4 0.649162 0.274745 0.155171
O O5 0.237591 0.327030 0.659969
O O6 0.389980 0.224421 0.655231
O O7 0.864962 0.159154 0.530476
O O8 0.674909 0.770259 0.068596
O O9 0.086387 0.700203 0.106205
O O10 0.255515 0.603016 0.911175
O O11 0.861782 0.552176 0.151589
O O12 0.508898 0.579528 0.069161
O O13 0.619702 0.892401 0.290601
O O14 0.129489 0.891727 0.265370
O O15 0.500000 0.000000 0.500000
O O16 0.500000 0.500000 0.500000
O O17 0.333044 0.433912 0.217915
#
# Coordination Sequence:
#
# PCOD8008693 Si02
#       8
#     2   2   2   2   2   2   2   2
#     4  11  25  37  61  82 122 154 202 246 305 348
#     4  10  23  37  62  93 116 158 198 249 298 354
#     4  11  20  39  56  86 119 160 202 247 297 349
#     4  11  19  36  55  80 117 155 208 251 286 341
#     4  10  21  39  65  94 119 148 191 243 297 362
#     4  11  23  40  53  79 117 166 204 253 298 345
#     4  10  21  33  54  81 111 163 208 250 285 335
#     4  10  21  36  66  88 119 150 198 236 295 354
#
# _framework density 20.049700000000001
#
# number of rings (size 3 to 8) (size 9 to 14) (size 15 to 20)
#    0.750    0.750    3.750    1.875    1.750    1.000 
#    2.250    0.000    0.000    1.500    0.000    0.000 
#    0.000    0.000    0.000    0.000    0.000    0.000 
#
# Total GULP energy -198271.666131 kJ/mol
# GULP energy per Si atom -12391.979133 kJ/mol
# Density = 2.000407 g / cm^3
# Si number density = 20.049700 Si / 1000 Ang^3
#
#
#
# Elastic Constant Matrix: (Units=GPa)
#
#
# Indices 1 2 3 4 5 6 
#
# 1 88.9661 19.2975 23.8853 9.6341 8.7920 2.4380
# 2 19.2975 72.4677 43.7132 15.3988 4.2257 6.0968
# 3 23.8853 43.7132 87.5877 -4.8512 4.8894 3.1483
# 4 9.6341 15.3988 -4.8512 33.6971 4.4382 -3.6647
# 5 8.7920 4.2257 4.8894 4.4382 25.6091 2.2508
# 6 2.4380 6.0968 3.1483 -3.6647 2.2508 25.8176
#
#
#
# Elastic Compliance Matrix: (Units=1/GPa)
#
#
# Indices 1 2 3 4 5 6 
#
# 1 0.012948 -0.000383 -0.003342 -0.003719 -0.003012 -0.000990
# 2 -0.000383 0.025350 -0.013189 -0.014280 0.001513 -0.006501
# 3 -0.003342 -0.013189 0.019526 0.010415 -0.002450 0.002741
# 4 -0.003719 -0.014280 0.010415 0.040525 -0.006147 0.008742
# 5 -0.003012 0.001513 -0.002450 -0.006147 0.041743 -0.004286
# 6 -0.000990 -0.006501 0.002741 0.008742 -0.004286 0.041642
#
#
# Mechanical properties :
#
#
# Convention : Reuss Voigt Hill
#
# Bulk Modulus (GPa) = 41.67305 46.97927 44.32616
# Shear Modulus (GPa) = 22.36529 27.83312 25.09920
#
# Velocity S-wave (km/s) = 3.34352 3.72991 3.54199
# Velocity P-wave (km/s) = 5.97792 6.48320 6.23568
#
# Compressibility (1/GPa) = 0.02399633
#
# Stress axis : x y z
#
# Youngs Moduli (GPa) = 77.23123 39.44773 51.21377
#
# Poissons Ratio (x) = 0.01509 0.17117
# Poissons Ratio (y) = 0.02955 0.67546
# Poissons Ratio (z) = 0.25813 0.52028
#
# Static dielectric constant tensor:
#      x y z
#    x 3.540810 0.017570 -0.038890 
#    y 0.017570 3.412990 -0.100890 
#    z -0.038890 -0.100890 3.700380 
# 
# 
# High freq. dielectric constant tensor:
#      x y z
#    x 1.781890 0.001940 0.002730 
#    y 0.001940 1.743530 0.001630 
#    z 0.002730 0.001630 1.774120 
# 
# From -- ./inp_files/142318.got.cif
#   From: 2010.06.25/outbox.cif.g09.slc.cpg/sg2_72_cif.got.tgz:142318.got - 2010.06.27 13:26:56.
