data_PCOD8008609
_publ_section_title
;
Structure prediction by ZEFSAII (Michael W. Deem and Ramdas Pophale) SiO2 
 PCOD8008609
Probable space group: P -1
;
_chemical_formula_sum "Si O2"
_cell_formula_units_Z 16
_cell_length_a 8.885102
_cell_length_b 10.986103
_cell_length_c 8.993949
_cell_angle_alpha 69.138006
_cell_angle_beta 111.528560
_cell_angle_gamma 110.514871
_cell_volume 738.341601
_symmetry_space_group_name_H-M "P -1"
_symmetry_group_IT_number 2
_symmetry_cell_setting 'triclinic'
loop_
_space_group_symop_operation_xyz
x,y,z
-x,-y,-z
loop_
_atom_site_type_symbol
_atom_site_label
_atom_site_fract_x
_atom_site_fract_y
_atom_site_fract_z
Si Si1 0.720080 0.281874 0.913191
Si Si2 0.035050 0.363409 0.513036
Si Si3 0.551031 0.786862 0.606003
Si Si4 0.661224 0.544715 0.636852
Si Si5 0.503871 0.061720 0.761068
Si Si6 0.986079 0.791179 0.138719
Si Si7 0.784846 0.939042 0.832222
Si Si8 0.729511 0.206091 0.275857
O O1 0.692879 0.426128 0.800888
O O2 0.546652 0.162738 0.875218
O O3 0.872238 0.258607 0.878189
O O4 0.769656 0.289137 0.101199
O O5 0.185067 0.394436 0.440006
O O6 0.088711 0.302792 0.709984
O O7 0.000000 0.500000 0.500000
O O8 0.884960 0.255165 0.423038
O O9 0.625564 0.659028 0.678544
O O10 0.463532 0.831650 0.410816
O O11 0.709135 0.909674 0.652124
O O12 0.424291 0.758914 0.710268
O O13 0.500000 0.500000 0.500000
O O14 0.642159 0.977373 0.863541
O O15 0.321758 0.954845 0.721818
O O16 0.834462 0.805924 0.970979
O O17 0.054721 0.937428 0.174094
#
# Coordination Sequence:
#
# PCOD8008609 Si02
#       8
#     2   2   2   2   2   2   2   2
#     4  11  23  42  69  97 140 173 218 278 326 394
#     4  12  25  45  70  94 134 183 220 270 330 398
#     4  11  22  42  69  96 136 174 220 269 325 399
#     4  12  26  44  67  97 132 177 222 264 332 397
#     4  10  20  44  71  94 135 177 217 277 332 389
#     4  10  21  43  66  96 137 172 220 273 332 386
#     4   9  20  37  70  96 130 173 218 273 331 381
#     4  11  24  41  71 101 128 177 224 270 340 384
#
# _framework density 21.670185
#
# number of rings (size 3 to 8) (size 9 to 14) (size 15 to 20)
#    0.000    1.250    2.500    4.875    1.750    4.000 
#    6.750    1.250    0.000    0.000    0.000    0.000 
#    0.000    0.000    0.000    0.000    0.000    0.000 
#
# Total GULP energy -198232.706974 kJ/mol
# GULP energy per Si atom -12389.544186 kJ/mol
# Density = 2.162086 g / cm^3
# Si number density = 21.670185 Si / 1000 Ang^3
#
#
#
# Elastic Constant Matrix: (Units=GPa)
#
#
# Indices 1 2 3 4 5 6 
#
# 1 78.4431 38.7145 27.5571 -6.7221 0.6480 -5.4817
# 2 38.7145 68.6546 8.7997 -5.7610 3.0249 -4.5800
# 3 27.5571 8.7997 104.8565 -14.5936 1.7414 -10.2125
# 4 -6.7221 -5.7610 -14.5936 43.4497 -1.5083 5.7679
# 5 0.6480 3.0249 1.7414 -1.5083 34.4345 0.8240
# 6 -5.4817 -4.5800 -10.2125 5.7679 0.8240 31.9992
#
#
#
# Elastic Compliance Matrix: (Units=1/GPa)
#
#
# Indices 1 2 3 4 5 6 
#
# 1 0.019375 -0.010379 -0.004163 0.000189 0.000755 0.000451
# 2 -0.010379 0.020522 0.001353 0.001327 -0.001651 0.001394
# 3 -0.004163 0.001353 0.011182 0.002936 -0.000538 0.002534
# 4 0.000189 0.001327 0.002936 0.024677 0.000891 -0.003312
# 5 0.000755 -0.001651 -0.000538 0.000891 0.029266 -0.001193
# 6 0.000451 0.001394 0.002534 -0.003312 -0.001193 0.032964
#
#
# Mechanical properties :
#
#
# Convention : Reuss Voigt Hill
#
# Bulk Modulus (GPa) = 40.48400 44.67742 42.58071
# Shear Modulus (GPa) = 28.96929 33.76888 31.36909
#
# Velocity S-wave (km/s) = 3.66023 3.95183 3.80882
# Velocity P-wave (km/s) = 6.04860 6.44083 6.24779
#
# Compressibility (1/GPa) = 0.02470111
#
# Stress axis : x y z
#
# Youngs Moduli (GPa) = 51.61419 48.72786 89.43215
#
# Poissons Ratio (x) = 0.50575 0.37230
# Poissons Ratio (y) = 0.53571 -0.12104
# Poissons Ratio (z) = 0.21487 -0.06595
#
# Static dielectric constant tensor:
#      x y z
#    x 3.656600 -0.115110 0.146450 
#    y -0.115110 4.309010 0.114710 
#    z 0.146450 0.114710 4.120680 
# 
# 
# High freq. dielectric constant tensor:
#      x y z
#    x 1.829930 -0.000390 0.005720 
#    y -0.000390 1.861680 0.005760 
#    z 0.005720 0.005760 1.862640 
# 
# From -- ./inp_files/185385.got.cif
#   From: 2010.06.25/outbox.cif.g09.slc.cpg/sg2_93_cif.got.tgz:185385.got - 2010.06.27 13:26:56.
