data_PCOD8008615
_publ_section_title
;
Structure prediction by ZEFSAII (Michael W. Deem and Ramdas Pophale) SiO2 
 PCOD8008615
Probable space group: P -1
;
_chemical_formula_sum "Si O2"
_cell_formula_units_Z 14
_cell_length_a 7.222201
_cell_length_b 15.284174
_cell_length_c 7.458113
_cell_angle_alpha 55.114389
_cell_angle_beta 126.510176
_cell_angle_gamma 125.908570
_cell_volume 503.523927
_symmetry_space_group_name_H-M "P -1"
_symmetry_group_IT_number 2
_symmetry_cell_setting 'triclinic'
loop_
_space_group_symop_operation_xyz
x,y,z
-x,-y,-z
loop_
_atom_site_type_symbol
_atom_site_label
_atom_site_fract_x
_atom_site_fract_y
_atom_site_fract_z
Si Si1 0.044810 0.654599 0.764542
Si Si2 0.822112 0.725083 0.029783
Si Si3 0.689546 0.095278 0.373129
Si Si4 0.925982 0.435759 0.748862
Si Si5 0.204740 0.964509 0.844882
Si Si6 0.449576 0.339295 0.399505
Si Si7 0.338206 0.180812 0.841199
O O1 0.117393 0.784694 0.569830
O O2 0.072766 0.569542 0.728878
O O3 0.760358 0.612111 0.720370
O O4 0.190143 0.639523 0.047589
O O5 0.593981 0.705889 0.779532
O O6 0.750947 0.738451 0.177488
O O7 0.054951 0.838538 0.980464
O O8 0.889235 0.612817 0.188297
O O9 0.500000 0.000000 0.500000
O O10 0.833746 0.036939 0.393492
O O11 0.539876 0.150975 0.100336
O O12 0.720325 0.435701 0.482586
O O13 0.121140 0.057352 0.798212
O O14 0.500000 0.000000 0.000000
O O15 0.445116 0.236393 0.647439
#
# Coordination Sequence:
#
# PCOD8008615 Si02
#       7
#     2   2   2   2   2   2   2
#     4  10  21  42  76 107 141 190 239 299 362 420
#     4  11  24  45  68 109 143 191 238 298 360 427
#     4  11  23  44  71 108 144 188 234 297 360 424
#     4  10  20  44  75 103 145 185 242 302 354 429
#     4  10  21  43  66  98 142 188 235 294 354 418
#     4  11  22  43  75 105 142 186 246 291 367 425
#     4  11  25  43  68 104 147 188 241 297 355 434
#
# _framework density 27.804039
#
# number of rings (size 3 to 8) (size 9 to 14) (size 15 to 20)
#    0.000    1.429    4.286    1.714    2.000    4.000 
#    2.571    1.429    0.000    0.000    0.000    0.000 
#    0.000    0.000    0.000    0.000    0.000    0.000 
#
# Total GULP energy -173462.170865 kJ/mol
# GULP energy per Si atom -12390.155062 kJ/mol
# Density = 2.774076 g / cm^3
# Si number density = 27.804039 Si / 1000 Ang^3
#
#
#
# Elastic Constant Matrix: (Units=GPa)
#
#
# Indices 1 2 3 4 5 6 
#
# 1 80.4046 63.4963 21.5194 2.0529 -17.3629 -38.8724
# 2 63.4963 204.8498 54.5626 5.8621 -14.2086 -52.5124
# 3 21.5194 54.5626 88.2387 24.8038 -11.3494 1.8379
# 4 2.0529 5.8621 24.8038 49.9717 8.2449 -0.7237
# 5 -17.3629 -14.2086 -11.3494 8.2449 36.0819 -1.6358
# 6 -38.8724 -52.5124 1.8379 -0.7237 -1.6358 50.5608
#
#
#
# Elastic Compliance Matrix: (Units=1/GPa)
#
#
# Indices 1 2 3 4 5 6 
#
# 1 0.026844 -0.001105 -0.004632 -0.000367 0.012018 0.020042
# 2 -0.001105 0.009107 -0.005915 0.001848 0.001174 0.008888
# 3 -0.004632 -0.005915 0.019404 -0.009430 0.003227 -0.010441
# 4 -0.000367 0.001848 -0.009430 0.025879 -0.008234 0.002084
# 5 0.012018 0.001174 0.003227 -0.008234 0.037375 0.011433
# 6 0.020042 0.008888 -0.010441 0.002084 0.011433 0.045197
#
#
# Mechanical properties :
#
#
# Convention : Reuss Voigt Hill
#
# Bulk Modulus (GPa) = 31.20178 72.51664 51.85921
# Shear Modulus (GPa) = 25.27898 42.91719 34.09809
#
# Velocity S-wave (km/s) = 3.01854 3.93308 3.50576
# Velocity P-wave (km/s) = 4.83685 6.83838 5.92278
#
# Compressibility (1/GPa) = 0.03204946
#
# Stress axis : x y z
#
# Youngs Moduli (GPa) = 37.25296 109.80945 51.53689
#
# Poissons Ratio (x) = 0.12135 0.23871
# Poissons Ratio (y) = 0.04117 0.30485
# Poissons Ratio (z) = 0.17255 0.64955
#
# Static dielectric constant tensor:
#      x y z
#    x 3.924310 -0.639580 0.766720 
#    y -0.639580 6.066680 0.537490 
#    z 0.766720 0.537490 4.641750 
# 
# 
# High freq. dielectric constant tensor:
#      x y z
#    x 2.099870 -0.012000 0.001830 
#    y -0.012000 2.141120 0.013870 
#    z 0.001830 0.013870 2.138610 
# 
# From -- ./inp_files/200446.got.cif
#   From: 2010.06.25/outbox.cif.g09.slc.cpg/sg2_101_cif.got.tgz:200446.got - 2010.06.27 13:26:56.
