data_PCOD8008843
_publ_section_title
;
Structure prediction by ZEFSAII (Michael W. Deem and Ramdas Pophale) SiO2 
 PCOD8008843
Probable space group: P -1
;
_chemical_formula_sum "Si O2"
_cell_formula_units_Z 16
_cell_length_a 14.375336
_cell_length_b 5.524927
_cell_length_c 11.396318
_cell_angle_alpha 95.644747
_cell_angle_beta 115.328608
_cell_angle_gamma 115.207805
_cell_volume 695.280736
_symmetry_space_group_name_H-M "P -1"
_symmetry_group_IT_number 2
_symmetry_cell_setting 'triclinic'
loop_
_space_group_symop_operation_xyz
x,y,z
-x,-y,-z
loop_
_atom_site_type_symbol
_atom_site_label
_atom_site_fract_x
_atom_site_fract_y
_atom_site_fract_z
Si Si1 0.989855 0.705245 0.091529
Si Si2 0.758342 0.138490 0.244817
Si Si3 0.588132 0.310375 0.108643
Si Si4 0.985388 0.444765 0.656849
Si Si5 0.641959 0.723483 0.960703
Si Si6 0.753100 0.917820 0.464405
Si Si7 0.797934 0.741583 0.844592
Si Si8 0.238081 0.554023 0.416625
O O1 0.950751 0.558976 0.188800
O O2 0.124264 0.986939 0.185288
O O3 0.000000 0.500000 0.000000
O O4 0.887049 0.760523 0.995306
O O5 0.690694 0.311233 0.246028
O O6 0.714339 0.877236 0.302793
O O7 0.901110 0.359444 0.357110
O O8 0.723892 0.024032 0.087922
O O9 0.500242 0.386642 0.135602
O O10 0.651775 0.499476 0.037058
O O11 0.500000 0.000000 0.000000
O O12 0.899285 0.118646 0.552757
O O13 0.905460 0.591285 0.641028
O O14 0.690630 0.744118 0.856186
O O15 0.699929 0.106337 0.503489
O O16 0.710264 0.616193 0.490052
O O17 0.742837 0.470972 0.714019
#
# Coordination Sequence:
#
# PCOD8008843 Si02
#       8
#     2   2   2   2   2   2   2   2
#     4  11  19  32  51  83 125 163 195 245 295 372
#     4  11  22  37  62  89 117 166 204 255 303 362
#     4   9  21  43  57  89 116 146 206 262 321 362
#     4  10  21  35  54  91 127 166 202 242 295 364
#     4  10  22  37  65  89 116 154 199 264 320 362
#     4  10  23  40  59  87 132 171 208 242 295 363
#     4  11  21  34  57  87 122 159 201 246 310 366
#     4  10  22  40  55  86 131 166 205 243 287 366
#
# _framework density 23.012287000000001
#
# number of rings (size 3 to 8) (size 9 to 14) (size 15 to 20)
#    0.750    1.000    2.500    1.875    3.500    2.500 
#    0.000    0.000    0.000    1.500    0.000    0.000 
#    0.000    0.000    0.000    0.000    0.000    0.000 
#
# Total GULP energy -198211.470934 kJ/mol
# GULP energy per Si atom -12388.216933 kJ/mol
# Density = 2.295991 g / cm^3
# Si number density = 23.012287 Si / 1000 Ang^3
#
#
#
# Elastic Constant Matrix: (Units=GPa)
#
#
# Indices 1 2 3 4 5 6 
#
# 1 103.5138 14.9220 28.1520 -7.3938 -3.5400 -9.2706
# 2 14.9220 67.5251 -3.3881 -19.9266 5.4770 -13.7034
# 3 28.1520 -3.3881 53.6905 -18.8590 -8.8352 -12.4626
# 4 -7.3938 -19.9266 -18.8590 40.1476 -7.2419 3.1698
# 5 -3.5400 5.4770 -8.8352 -7.2419 29.7210 -2.2909
# 6 -9.2706 -13.7034 -12.4626 3.1698 -2.2909 27.2028
#
#
#
# Elastic Compliance Matrix: (Units=1/GPa)
#
#
# Indices 1 2 3 4 5 6 
#
# 1 0.012243 -0.004739 -0.008995 -0.004453 -0.001578 -0.001950
# 2 -0.004739 0.024789 0.014929 0.018070 0.004943 0.016022
# 3 -0.008995 0.014929 0.041344 0.026452 0.016587 0.021711
# 4 -0.004453 0.018070 0.026452 0.047267 0.016723 0.015604
# 5 -0.001578 0.004943 0.016587 0.016723 0.042414 0.011175
# 6 -0.001950 0.016022 0.021711 0.015604 0.011175 0.053237
#
#
# Mechanical properties :
#
#
# Convention : Reuss Voigt Hill
#
# Bulk Modulus (GPa) = 12.38149 33.78902 23.08526
# Shear Modulus (GPa) = 20.33958 31.75052 26.04505
#
# Velocity S-wave (km/s) = 2.97620 3.71849 3.36786
# Velocity P-wave (km/s) = 4.14758 5.75770 5.01765
#
# Compressibility (1/GPa) = 0.08076570
#
# Stress axis : x y z
#
# Youngs Moduli (GPa) = 81.67694 40.34107 24.18731
#
# Poissons Ratio (x) = 0.19117 0.21757
# Poissons Ratio (y) = 0.38705 -0.36109
# Poissons Ratio (z) = 0.73469 -0.60224
#
# Static dielectric constant tensor:
#      x y z
#    x 4.591640 -0.584680 0.493370 
#    y -0.584680 4.330280 -0.144310 
#    z 0.493370 -0.144310 4.351920 
# 
# 
# High freq. dielectric constant tensor:
#      x y z
#    x 1.880770 -0.018000 -0.002440 
#    y -0.018000 1.899170 -0.008410 
#    z -0.002440 -0.008410 1.907930 
# 
# From -- ./inp_files/441835.got.cif
#   From: 2010.06.25/outbox.cif.g09.slc.cpg/sg2_221_cif.got.tgz:441835.got - 2010.06.27 13:26:56.
