data_PCOD8008863
_publ_section_title
;
Structure prediction by ZEFSAII (Michael W. Deem and Ramdas Pophale) SiO2 
 PCOD8008863
Probable space group: P -1
;
_chemical_formula_sum "Si O2"
_cell_formula_units_Z 16
_cell_length_a 21.285570
_cell_length_b 25.178540
_cell_length_c 9.746499
_cell_angle_alpha 140.267742
_cell_angle_beta 133.257246
_cell_angle_gamma 14.162840
_cell_volume 753.597385
_symmetry_space_group_name_H-M "P -1"
_symmetry_group_IT_number 2
_symmetry_cell_setting 'triclinic'
loop_
_space_group_symop_operation_xyz
x,y,z
-x,-y,-z
loop_
_atom_site_type_symbol
_atom_site_label
_atom_site_fract_x
_atom_site_fract_y
_atom_site_fract_z
Si Si1 0.135910 0.240819 0.016044
Si Si2 0.414583 0.666856 0.949578
Si Si3 0.660718 0.698086 0.590820
Si Si4 0.157130 0.725836 0.678804
Si Si5 0.503222 0.665330 0.352966
Si Si6 0.907287 0.276325 0.719939
Si Si7 0.870467 0.624732 0.249158
Si Si8 0.598739 0.883638 0.636081
O O1 0.065136 0.363927 0.021795
O O2 0.157327 0.279293 0.261457
O O3 0.923938 0.358453 0.949715
O O4 0.443702 0.924162 0.831037
O O5 0.492066 0.602293 0.098347
O O6 0.332215 0.648215 0.757488
O O7 0.673222 0.449729 0.807765
O O8 0.156163 0.965492 0.128528
O O9 0.631685 0.626184 0.385040
O O10 0.961244 0.446152 0.600352
O O11 0.574993 0.822955 0.570819
O O12 0.289806 0.548781 0.642900
O O13 0.165618 0.663179 0.429549
O O14 0.200916 0.960107 0.553088
O O15 0.700368 0.793602 0.187769
O O16 0.663858 0.793064 0.401050
#
# Coordination Sequence:
#
# PCOD8008863 Si02
#       8
#     2   2   2   2   2   2   2   2
#     4  10  21  36  55  80 115 149 191 238 287 346
#     4  10  22  40  67  89 123 162 195 249 305 356
#     4  10  21  36  56  79 114 153 187 241 288 339
#     4  10  22  43  61  94 124 154 204 246 299 367
#     4  10  23  39  62  92 124 158 203 248 298 361
#     4  10  23  39  62  92 123 160 198 251 300 354
#     4  10  21  35  56  81 110 151 193 238 282 343
#     4  10  21  36  55  81 112 149 196 235 285 343
#
# _framework density 21.231496
#
# number of rings (size 3 to 8) (size 9 to 14) (size 15 to 20)
#    0.000    2.000    0.000    3.750    3.500    8.500 
#    2.250    0.000    0.000    0.000    0.000    0.000 
#    0.000    0.000    0.000    0.000    0.000    0.000 
#
# Total GULP energy -198364.874029 kJ/mol
# GULP energy per Si atom -12397.804627 kJ/mol
# Density = 2.118317 g / cm^3
# Si number density = 21.231496 Si / 1000 Ang^3
#
#
#
# Elastic Constant Matrix: (Units=GPa)
#
#
# Indices 1 2 3 4 5 6 
#
# 1 106.2652 64.0801 31.4366 -2.0638 -1.7023 0.9779
# 2 64.0801 116.9539 25.7237 -3.2849 7.1814 16.4817
# 3 31.4366 25.7237 63.5670 -9.7677 2.2826 2.7520
# 4 -2.0638 -3.2849 -9.7677 24.2275 -4.3307 -2.7178
# 5 -1.7023 7.1814 2.2826 -4.3307 22.7366 1.5534
# 6 0.9779 16.4817 2.7520 -2.7178 1.5534 44.7163
#
#
#
# Elastic Compliance Matrix: (Units=1/GPa)
#
#
# Indices 1 2 3 4 5 6 
#
# 1 0.015872 -0.008287 -0.004870 -0.000709 0.003967 0.002826
# 2 -0.008287 0.014376 -0.001450 -0.000754 -0.004824 -0.004907
# 3 -0.004870 -0.001450 0.019871 0.007296 -0.000504 -0.000121
# 4 -0.000709 -0.000754 0.007296 0.045749 0.008006 0.002347
# 5 0.003967 -0.004824 -0.000504 0.008006 0.047340 0.000564
# 6 0.002826 -0.004907 -0.000121 0.002347 0.000564 0.024240
#
#
# Mechanical properties :
#
#
# Convention : Reuss Voigt Hill
#
# Bulk Modulus (GPa) = 47.83169 58.80742 53.31956
# Shear Modulus (GPa) = 24.55445 29.37248 26.96347
#
# Velocity S-wave (km/s) = 3.40444 3.72350 3.56754
# Velocity P-wave (km/s) = 6.16694 6.80031 6.49136
#
# Compressibility (1/GPa) = 0.02090664
#
# Stress axis : x y z
#
# Youngs Moduli (GPa) = 63.00367 69.55878 50.32545
#
# Poissons Ratio (x) = 0.57645 0.24506
# Poissons Ratio (y) = 0.52212 0.07295
# Poissons Ratio (z) = 0.30680 0.10083
#
# Static dielectric constant tensor:
#      x y z
#    x 3.681970 -0.029870 0.160090 
#    y -0.029870 4.135020 0.127450 
#    z 0.160090 0.127450 3.844640 
# 
# 
# High freq. dielectric constant tensor:
#      x y z
#    x 1.822310 -0.004880 -0.000780 
#    y -0.004880 1.842520 0.002870 
#    z -0.000780 0.002870 1.831210 
# 
# From -- ./inp_files/337842.got.cif
#   From: 2010.06.25/outbox.cif.g09.slc.cpg/sg2_169_cif.got.tgz:337842.got - 2010.06.27 13:26:56.
