data_PCOD8008811
_publ_section_title
;
Structure prediction by ZEFSAII (Michael W. Deem and Ramdas Pophale) SiO2 
 PCOD8008811
Probable space group: P -1
;
_chemical_formula_sum "Si O2"
_cell_formula_units_Z 16
_cell_length_a 7.732217
_cell_length_b 10.841607
_cell_length_c 18.138540
_cell_angle_alpha 54.885838
_cell_angle_beta 83.141699
_cell_angle_gamma 124.717005
_cell_volume 763.733887
_symmetry_space_group_name_H-M "P -1"
_symmetry_group_IT_number 2
_symmetry_cell_setting 'triclinic'
loop_
_space_group_symop_operation_xyz
x,y,z
-x,-y,-z
loop_
_atom_site_type_symbol
_atom_site_label
_atom_site_fract_x
_atom_site_fract_y
_atom_site_fract_z
Si Si1 0.678304 0.609099 0.300230
Si Si2 0.244253 0.960957 0.490617
Si Si3 0.212034 0.278148 0.907474
Si Si4 0.211327 0.741434 0.072704
Si Si5 0.866812 0.886848 0.437588
Si Si6 0.602266 0.408525 0.971196
Si Si7 0.920557 0.908856 0.804581
Si Si8 0.862561 0.416124 0.331738
O O1 0.614378 0.571419 0.228694
O O2 0.392517 0.404490 0.432497
O O3 0.853750 0.572699 0.319242
O O4 0.859081 0.880475 0.218035
O O5 0.089846 0.693711 0.577942
O O6 0.142871 0.009925 0.419187
O O7 0.195587 0.991724 0.566070
O O8 0.575785 0.176700 0.386052
O O9 0.432140 0.383808 0.923834
O O10 0.016697 0.290603 0.932435
O O11 0.000000 0.000000 0.000000
O O12 0.277149 0.671679 0.027500
O O13 0.102504 0.572048 0.205394
O O14 0.500000 0.000000 0.000000
O O15 0.942010 0.943690 0.328874
O O16 0.872052 0.694880 0.882178
O O17 0.389611 0.235289 0.110287
#
# Coordination Sequence:
#
# PCOD8008811 Si02
#       8
#     2   2   2   2   2   2   2   2
#     4  10  21  38  61  90 118 160 199 249 304 365
#     4   9  19  36  58  94 108 152 202 256 296 354
#     4  11  21  40  68  94 120 154 214 252 295 360
#     4  11  21  35  64  96 118 153 203 257 300 349
#     4  10  21  34  64  86 117 155 204 245 307 362
#     4  11  24  41  64  89 124 170 198 251 302 364
#     4  11  23  40  58  85 132 162 197 244 313 362
#     4   9  19  35  59  85 124 143 200 258 301 345
#
# _framework density 20.949704000000001
#
# number of rings (size 3 to 8) (size 9 to 14) (size 15 to 20)
#    0.000    1.750    2.500    1.875    8.750    0.000 
#    0.000    3.125   11.000    0.000    0.000    0.000 
#    0.000    0.000    0.000    0.000    0.000    0.000 
#
# Total GULP energy -198237.879609 kJ/mol
# GULP energy per Si atom -12389.867476 kJ/mol
# Density = 2.090202 g / cm^3
# Si number density = 20.949704 Si / 1000 Ang^3
#
#
#
# Elastic Constant Matrix: (Units=GPa)
#
#
# Indices 1 2 3 4 5 6 
#
# 1 85.8133 24.8170 20.8773 -0.0545 -1.5919 -17.1255
# 2 24.8170 72.4571 22.7585 -9.9144 1.0338 -25.3266
# 3 20.8773 22.7585 135.3522 -1.0530 -13.1923 -12.4141
# 4 -0.0545 -9.9144 -1.0530 40.8003 -9.5355 4.3466
# 5 -1.5919 1.0338 -13.1923 -9.5355 23.4325 -0.3880
# 6 -17.1255 -25.3266 -12.4141 4.3466 -0.3880 28.5624
#
#
#
# Elastic Compliance Matrix: (Units=1/GPa)
#
#
# Indices 1 2 3 4 5 6 
#
# 1 0.013813 -0.002530 -0.001195 -0.001243 -0.000034 0.005708
# 2 -0.002530 0.021302 -0.001735 0.003300 -0.000479 0.016109
# 3 -0.001195 -0.001735 0.008499 0.000853 0.005150 0.001379
# 4 -0.001243 0.003300 0.000853 0.028239 0.011715 -0.001587
# 5 -0.000034 -0.000479 0.005150 0.011715 0.050373 0.000695
# 6 0.005708 0.016109 0.001379 -0.001587 0.000695 0.053568
#
#
# Mechanical properties :
#
#
# Convention : Reuss Voigt Hill
#
# Bulk Modulus (GPa) = 30.58619 47.83646 39.21133
# Shear Modulus (GPa) = 25.30205 33.57036 29.43621
#
# Velocity S-wave (km/s) = 3.47904 4.00737 3.75252
# Velocity P-wave (km/s) = 5.54706 6.65549 6.12640
#
# Compressibility (1/GPa) = 0.03269449
#
# Stress axis : x y z
#
# Youngs Moduli (GPa) = 72.39375 46.94407 117.65724
#
# Poissons Ratio (x) = 0.11879 0.14056
# Poissons Ratio (y) = 0.18318 0.20414
# Poissons Ratio (z) = 0.08648 0.08145
#
# Static dielectric constant tensor:
#      x y z
#    x 5.054020 0.791310 4.013660 
#    y 0.791310 4.674590 3.380680 
#    z 4.013660 3.380680 17.287500 
# 
# 
# High freq. dielectric constant tensor:
#      x y z
#    x 1.805650 -0.022480 -0.004090 
#    y -0.022480 1.796520 -0.016560 
#    z -0.004090 -0.016560 1.842510 
# 
# From -- ./inp_files/559829.got.cif
#   From: 2010.06.25/outbox.cif.g09.slc.cpg/sg2_280_cif.got.tgz:559829.got - 2010.06.27 13:26:56.
