data_PCOD8008922
_publ_section_title
;
Structure prediction by ZEFSAII (Michael W. Deem and Ramdas Pophale) SiO2 
 PCOD8008922
Probable space group: P -1
;
_chemical_formula_sum "Si O2"
_cell_formula_units_Z 16
_cell_length_a 18.106375
_cell_length_b 5.009574
_cell_length_c 10.840407
_cell_angle_alpha 105.392253
_cell_angle_beta 119.763120
_cell_angle_gamma 55.853680
_cell_volume 706.302583
_symmetry_space_group_name_H-M "P -1"
_symmetry_group_IT_number 2
_symmetry_cell_setting 'triclinic'
loop_
_space_group_symop_operation_xyz
x,y,z
-x,-y,-z
loop_
_atom_site_type_symbol
_atom_site_label
_atom_site_fract_x
_atom_site_fract_y
_atom_site_fract_z
Si Si1 0.503116 0.793206 0.352739
Si Si2 0.108755 0.266553 0.110104
Si Si3 0.180382 0.751225 0.292768
Si Si4 0.716830 0.334865 0.397510
Si Si5 0.291505 0.250359 0.779885
Si Si6 0.576721 0.160005 0.968069
Si Si7 0.618314 0.513216 0.700697
Si Si8 0.263689 0.716364 0.998033
O O1 0.616525 0.502735 0.418588
O O2 0.430783 0.697680 0.343793
O O3 0.463000 0.168498 0.408783
O O4 0.475005 0.895806 0.198380
O O5 0.162455 0.463971 0.209168
O O6 0.099813 0.089139 0.203937
O O7 0.000000 0.500000 0.000000
O O8 0.170087 0.005185 0.024255
O O9 0.187017 0.774644 0.449440
O O10 0.285258 0.690077 0.325452
O O11 0.701679 0.619287 0.330511
O O12 0.737806 0.019534 0.300403
O O13 0.220169 0.551387 0.848408
O O14 0.395769 0.088140 0.923319
O O15 0.679254 0.143177 0.013648
O O16 0.500000 0.500000 0.000000
O O17 0.659697 0.557511 0.873356
#
# Coordination Sequence:
#
# PCOD8008922 Si02
#       8
#     2   2   2   2   2   2   2   2
#     4  11  21  33  54  90 123 179 228 258 306 349
#     4  11  25  47  79 101 115 152 214 285 348 388
#     4  11  24  46  64  95 131 163 208 265 336 398
#     4  12  26  37  59  89 138 186 213 246 311 398
#     4  12  22  38  57  94 127 181 218 257 310 364
#     4  11  20  34  57  92 133 175 225 267 294 351
#     4  10  21  35  59  85 126 170 218 278 307 350
#     4  10  22  37  65  95 128 158 215 285 324 354
#
# _framework density 22.653181
#
# number of rings (size 3 to 8) (size 9 to 14) (size 15 to 20)
#    0.000    1.000    3.750    4.125    3.500    2.000 
#    0.000    0.000    0.000    4.500    0.000    0.000 
#    0.000    0.000    0.000    0.000    0.000    0.000 
#
# Total GULP energy -198289.122802 kJ/mol
# GULP energy per Si atom -12393.070175 kJ/mol
# Density = 2.260162 g / cm^3
# Si number density = 22.653181 Si / 1000 Ang^3
#
#
#
# Elastic Constant Matrix: (Units=GPa)
#
#
# Indices 1 2 3 4 5 6 
#
# 1 49.5329 27.5569 24.0639 -9.0670 -5.5120 8.8730
# 2 27.5569 120.1978 54.9391 -7.8735 7.6731 12.3251
# 3 24.0639 54.9391 120.8496 -8.6141 -2.7809 1.9475
# 4 -9.0670 -7.8735 -8.6141 36.6729 7.2956 -3.8526
# 5 -5.5120 7.6731 -2.7809 7.2956 18.1398 -9.0713
# 6 8.8730 12.3251 1.9475 -3.8526 -9.0713 35.0473
#
#
#
# Elastic Compliance Matrix: (Units=1/GPa)
#
#
# Indices 1 2 3 4 5 6 
#
# 1 0.025879 -0.004718 -0.002584 0.003132 0.006893 -0.002621
# 2 -0.004718 0.013225 -0.005090 0.002171 -0.011658 -0.005952
# 3 -0.002584 -0.005090 0.011180 0.000324 0.004458 0.003012
# 4 0.003132 0.002171 0.000324 0.031043 -0.013190 -0.001576
# 5 0.006893 -0.011658 0.004458 -0.013190 0.078650 0.021014
# 6 -0.002621 -0.005952 0.003012 -0.001576 0.021014 0.036388
#
#
# Mechanical properties :
#
#
# Convention : Reuss Voigt Hill
#
# Bulk Modulus (GPa) = 39.21708 55.96668 47.59188
# Shear Modulus (GPa) = 21.77237 30.24001 26.00619
#
# Velocity S-wave (km/s) = 3.10355 3.65761 3.39191
# Velocity P-wave (km/s) = 5.49475 6.52664 6.03280
#
# Compressibility (1/GPa) = 0.02549910
#
# Stress axis : x y z
#
# Youngs Moduli (GPa) = 38.64200 75.61692 89.44206
#
# Poissons Ratio (x) = 0.35677 0.23113
# Poissons Ratio (y) = 0.18232 0.45527
# Poissons Ratio (z) = 0.09985 0.38490
#
# Static dielectric constant tensor:
#      x y z
#    x 3.852390 0.205300 -0.536330 
#    y 0.205300 3.786950 -0.217340 
#    z -0.536330 -0.217340 4.638580 
# 
# 
# High freq. dielectric constant tensor:
#      x y z
#    x 1.856300 0.031350 -0.038730 
#    y 0.031350 1.900600 0.008830 
#    z -0.038730 0.008830 1.920060 
# 
# From -- ./inp_files/459556.got.cif
#   From: 2010.06.25/outbox.cif.g09.slc.cpg/sg2_230_cif.got.tgz:459556.got - 2010.06.27 13:26:56.
