data_PCOD8008598
_publ_section_title
;
Structure prediction by ZEFSAII (Michael W. Deem and Ramdas Pophale) SiO2 
 PCOD8008598
Probable space group: P -1
;
_chemical_formula_sum "Si O2"
_cell_formula_units_Z 16
_cell_length_a 8.565660
_cell_length_b 21.113698
_cell_length_c 21.092891
_cell_angle_alpha 148.913639
_cell_angle_beta 153.551063
_cell_angle_gamma 31.610038
_cell_volume 815.337014
_symmetry_space_group_name_H-M "P -1"
_symmetry_group_IT_number 2
_symmetry_cell_setting 'triclinic'
loop_
_space_group_symop_operation_xyz
x,y,z
-x,-y,-z
loop_
_atom_site_type_symbol
_atom_site_label
_atom_site_fract_x
_atom_site_fract_y
_atom_site_fract_z
Si Si1 0.014427 0.810347 0.751538
Si Si2 0.491921 0.077405 0.221773
Si Si3 0.885429 0.962537 0.069208
Si Si4 0.833630 0.472864 0.049363
Si Si5 0.405113 0.704367 0.004143
Si Si6 0.729131 0.788970 0.074343
Si Si7 0.663238 0.666199 0.672302
Si Si8 0.533029 0.436361 0.357573
O O1 0.081150 0.668752 0.622491
O O2 0.665243 0.854002 0.709586
O O3 0.948017 0.921424 0.767204
O O4 0.401177 0.797174 0.914085
O O5 0.622582 0.184418 0.323464
O O6 0.801005 0.928864 0.218064
O O7 0.166745 0.059136 0.043947
O O8 0.193177 0.819674 0.078534
O O9 0.500000 0.000000 0.000000
O O10 0.198118 0.480699 0.223190
O O11 0.500000 0.500000 0.000000
O O12 0.720078 0.583560 0.049142
O O13 0.904939 0.331830 0.920842
O O14 0.095735 0.657036 0.816769
O O15 0.625913 0.761070 0.083504
O O16 0.615307 0.563224 0.517068
O O17 0.580081 0.635914 0.687103
#
# Coordination Sequence:
#
# PCOD8008598 Si02
#       8
#     2   2   2   2   2   2   2   2
#     4  10  16  31  51  80 111 133 179 230 272 309
#     4  10  18  32  54  82 109 137 179 232 274 314
#     4  10  18  27  51  83 110 136 176 228 272 311
#     4  11  23  36  55  81 111 144 183 221 268 324
#     4  11  19  36  56  83 109 145 174 225 272 322
#     4  10  19  34  53  80 115 139 178 226 272 319
#     4  10  20  36  58  79 112 142 182 221 281 318
#     4  10  22  37  53  82 114 144 178 227 269 330
#
# _framework density 19.623787
#
# number of rings (size 3 to 8) (size 9 to 14) (size 15 to 20)
#    0.000    1.750    5.000    2.625    3.500    0.500 
#    0.000    0.000    0.000    3.000    0.000    0.000 
#    0.000    0.000    0.000    0.000    0.000    0.000 
#
# Total GULP energy -198231.947654 kJ/mol
# GULP energy per Si atom -12389.496728 kJ/mol
# Density = 1.957912 g / cm^3
# Si number density = 19.623787 Si / 1000 Ang^3
#
#
#
# Elastic Constant Matrix: (Units=GPa)
#
#
# Indices 1 2 3 4 5 6 
#
# 1 83.4747 55.8848 21.5024 15.1826 -4.9464 -1.1241
# 2 55.8848 168.3256 53.7120 41.4751 -6.5784 3.9552
# 3 21.5024 53.7120 65.6732 20.7135 -6.5904 6.5409
# 4 15.1826 41.4751 20.7135 28.6977 -1.4100 2.1314
# 5 -4.9464 -6.5784 -6.5904 -1.4100 20.3307 11.8140
# 6 -1.1241 3.9552 6.5409 2.1314 11.8140 39.2156
#
#
#
# Elastic Compliance Matrix: (Units=1/GPa)
#
#
# Indices 1 2 3 4 5 6 
#
# 1 0.015567 -0.004602 -0.000974 -0.000855 0.001543 0.000654
# 2 -0.004602 0.011665 -0.004445 -0.011182 0.000503 -0.000111
# 3 -0.000974 -0.004445 0.023489 -0.009181 0.008539 -0.005571
# 4 -0.000855 -0.011182 -0.009181 0.057908 -0.003016 0.000396
# 5 0.001543 0.000503 0.008539 -0.003016 0.064271 -0.020629
# 6 0.000654 -0.000111 -0.005571 0.000396 -0.020629 0.032652
#
#
# Mechanical properties :
#
#
# Convention : Reuss Voigt Hill
#
# Bulk Modulus (GPa) = 32.59574 64.40799 48.50187
# Shear Modulus (GPa) = 21.20256 30.07377 25.63816
#
# Velocity S-wave (km/s) = 3.29059 3.91898 3.61845
# Velocity P-wave (km/s) = 5.57527 7.30551 6.49824
#
# Compressibility (1/GPa) = 0.03067885
#
# Stress axis : x y z
#
# Youngs Moduli (GPa) = 64.23735 85.72859 42.57359
#
# Poissons Ratio (x) = 0.39454 0.04146
# Poissons Ratio (y) = 0.29563 0.18924
# Poissons Ratio (z) = 0.06255 0.38106
#
# Static dielectric constant tensor:
#      x y z
#    x 3.593090 0.097170 -0.196310 
#    y 0.097170 4.310380 0.547030 
#    z -0.196310 0.547030 3.230370 
# 
# 
# High freq. dielectric constant tensor:
#      x y z
#    x 1.770190 0.010040 -0.014710 
#    y 0.010040 1.776110 0.049310 
#    z -0.014710 0.049310 1.705920 
# 
# From -- ./inp_files/186112.got.cif
#   From: 2010.06.25/outbox.cif.g09.slc.cpg/sg2_94_cif.got.tgz:186112.got - 2010.06.27 13:26:56.
