data_PCOD8008447
_publ_section_title
;
Structure prediction by ZEFSAII (Michael W. Deem and Ramdas Pophale) SiO2 
 PCOD8008447
Probable space group: P -1
;
_chemical_formula_sum "Si O2"
_cell_formula_units_Z 16
_cell_length_a 21.572217
_cell_length_b 16.228365
_cell_length_c 13.940813
_cell_angle_alpha 35.500757
_cell_angle_beta 22.257919
_cell_angle_gamma 24.009515
_cell_volume 736.489754
_symmetry_space_group_name_H-M "P -1"
_symmetry_group_IT_number 2
_symmetry_cell_setting 'triclinic'
loop_
_space_group_symop_operation_xyz
x,y,z
-x,-y,-z
loop_
_atom_site_type_symbol
_atom_site_label
_atom_site_fract_x
_atom_site_fract_y
_atom_site_fract_z
Si Si1 0.292185 0.081698 0.014760
Si Si2 0.665748 0.615301 0.339707
Si Si3 0.322087 0.295193 0.467594
Si Si4 0.777100 0.736099 0.573701
Si Si5 0.052566 0.232912 0.029014
Si Si6 0.822919 0.116988 0.904305
Si Si7 0.868738 0.339339 0.499201
Si Si8 0.130557 0.015876 0.726219
O O1 0.259293 0.269751 0.859440
O O2 0.563961 0.853408 0.846812
O O3 0.166802 0.089162 0.096180
O O4 0.148574 0.135412 0.266241
O O5 0.724164 0.485634 0.473832
O O6 0.807390 0.467995 0.183054
O O7 0.387386 0.787725 0.548914
O O8 0.319028 0.243705 0.412105
O O9 0.135471 0.539151 0.526149
O O10 0.254055 0.204918 0.717268
O O11 0.579643 0.200913 0.214390
O O12 0.856928 0.846837 0.362821
O O13 0.000000 0.500000 0.500000
O O14 0.000938 0.126573 0.139462
O O15 0.760281 0.259139 0.768844
O O16 0.964043 0.130840 0.761933
O O17 0.000000 0.000000 0.000000
#
# Coordination Sequence:
#
# PCOD8008447 Si02
#       8
#     2   2   2   2   2   2   2   2
#     4  10  20  43  68  95 129 176 223 264 332 398
#     4  10  21  42  71  94 131 182 223 263 333 403
#     4  12  22  42  72  95 125 178 232 266 311 408
#     4  11  25  44  65  97 131 175 224 269 331 395
#     4  11  21  41  69  98 126 173 234 266 316 402
#     4  12  26  39  65 107 137 166 222 284 335 378
#     4  11  22  41  68 102 134 169 218 287 329 383
#     4  11  25  46  64  95 141 180 211 271 348 393
#
# _framework density 21.724674
#
# number of rings (size 3 to 8) (size 9 to 14) (size 15 to 20)
#    0.000    1.000    3.750    3.750    1.750    3.500 
#    4.500    1.875    0.000    0.000    0.000    0.000 
#    0.000    0.000    0.000    0.000    0.000    0.000 
#
# Total GULP energy -198297.659559 kJ/mol
# GULP energy per Si atom -12393.603722 kJ/mol
# Density = 2.167523 g / cm^3
# Si number density = 21.724674 Si / 1000 Ang^3
#
#
#
# Elastic Constant Matrix: (Units=GPa)
#
#
# Indices 1 2 3 4 5 6 
#
# 1 90.8184 32.1480 42.9163 10.3481 -4.8879 18.4187
# 2 32.1480 113.0567 47.7314 17.3195 6.3372 13.8145
# 3 42.9163 47.7314 115.0480 6.3771 5.0490 6.6410
# 4 10.3481 17.3195 6.3771 38.4844 1.5164 1.9480
# 5 -4.8879 6.3372 5.0490 1.5164 30.5457 3.4961
# 6 18.4187 13.8145 6.6410 1.9480 3.4961 35.2959
#
#
#
# Elastic Compliance Matrix: (Units=1/GPa)
#
#
# Indices 1 2 3 4 5 6 
#
# 1 0.015841 -0.001390 -0.004979 -0.002631 0.004589 -0.007095
# 2 -0.001390 0.011997 -0.003998 -0.004160 -0.001519 -0.002838
# 3 -0.004979 -0.003998 0.012127 0.001114 -0.002261 0.002043
# 4 -0.002631 -0.004160 0.001114 0.028362 -0.001305 0.001355
# 5 0.004589 -0.001519 -0.002261 -0.001305 0.034769 -0.004746
# 6 -0.007095 -0.002838 0.002043 0.001355 -0.004746 0.033156
#
#
# Mechanical properties :
#
#
# Convention : Reuss Voigt Hill
#
# Bulk Modulus (GPa) = 51.99350 62.72382 57.35866
# Shear Modulus (GPa) = 30.60021 33.94036 32.27029
#
# Velocity S-wave (km/s) = 3.75713 3.95688 3.85830
# Velocity P-wave (km/s) = 6.54265 7.05767 6.80503
#
# Compressibility (1/GPa) = 0.01923318
#
# Stress axis : x y z
#
# Youngs Moduli (GPa) = 63.12607 83.35140 82.45764
#
# Poissons Ratio (x) = 0.11584 0.41053
# Poissons Ratio (y) = 0.08773 0.32967
# Poissons Ratio (z) = 0.31428 0.33324
#
# Static dielectric constant tensor:
#      x y z
#    x 3.240760 0.210760 0.279860 
#    y 0.210760 4.037090 0.227490 
#    z 0.279860 0.227490 3.998600 
# 
# 
# High freq. dielectric constant tensor:
#      x y z
#    x 1.839110 0.028460 0.008900 
#    y 0.028460 1.855490 0.010140 
#    z 0.008900 0.010140 1.859050 
# 
# From -- ./inp_files/543140.got.cif
#   From: 2010.06.25/outbox.cif.g09.slc.cpg/sg2_272_cif.got.tgz:543140.got - 2010.06.27 13:26:56.
