data_PCOD8008266
_publ_section_title
;
Structure prediction by ZEFSAII (Michael W. Deem and Ramdas Pophale) SiO2 
 PCOD8008266
Probable space group: P -1
;
_chemical_formula_sum "Si O2"
_cell_formula_units_Z 16
_cell_length_a 15.651969
_cell_length_b 9.103452
_cell_length_c 6.528611
_cell_angle_alpha 87.476468
_cell_angle_beta 130.107348
_cell_angle_gamma 103.398621
_cell_volume 685.159092
_symmetry_space_group_name_H-M "P -1"
_symmetry_group_IT_number 2
_symmetry_cell_setting 'triclinic'
loop_
_space_group_symop_operation_xyz
x,y,z
-x,-y,-z
loop_
_atom_site_type_symbol
_atom_site_label
_atom_site_fract_x
_atom_site_fract_y
_atom_site_fract_z
Si Si1 0.845049 0.907330 0.204439
Si Si2 0.076037 0.811634 0.933933
Si Si3 0.221221 0.680209 0.858400
Si Si4 0.624630 0.539573 0.297457
Si Si5 0.643571 0.837430 0.571397
Si Si6 0.568713 0.369581 0.593738
Si Si7 0.862814 0.616588 0.433221
Si Si8 0.777019 0.070381 0.467819
O O1 0.884376 0.751720 0.289875
O O2 0.943136 0.042984 0.236446
O O3 0.813640 0.951740 0.380882
O O4 0.734156 0.876308 0.890810
O O5 0.178243 0.758480 0.980619
O O6 0.956035 0.677021 0.755583
O O7 0.112435 0.855547 0.220076
O O8 0.117653 0.535504 0.632597
O O9 0.259365 0.799635 0.724514
O O10 0.329055 0.614098 0.086348
O O11 0.650485 0.690654 0.463783
O O12 0.623061 0.392514 0.448055
O O13 0.729994 0.565839 0.302956
O O14 0.500000 0.500000 0.000000
O O15 0.517789 0.798657 0.489971
O O16 0.668068 0.981231 0.445058
O O17 0.500000 0.500000 0.500000
#
# Coordination Sequence:
#
# PCOD8008266 Si02
#       8
#     2   2   2   2   2   2   2   2
#     4  10  21  44  69 101 132 173 230 280 327 391
#     4  10  25  45  65  97 141 177 224 274 335 407
#     4  11  25  45  65  98 141 174 220 279 338 403
#     4  11  22  39  69 105 135 165 221 283 334 391
#     4  10  20  42  69  95 134 174 216 277 338 393
#     4  10  22  41  65  99 130 167 221 280 329 396
#     4  12  22  41  72 101 130 184 224 278 337 385
#     4  10  23  45  66  95 140 178 223 273 333 405
#
# _framework density 23.352242
#
# number of rings (size 3 to 8) (size 9 to 14) (size 15 to 20)
#    0.000    1.500    1.250    4.500    1.750    1.500 
#    9.000    5.625    0.000    0.000    0.000    0.000 
#    0.000    0.000    0.000    0.000    0.000    0.000 
#
# Total GULP energy -198305.141281 kJ/mol
# GULP energy per Si atom -12394.071330 kJ/mol
# Density = 2.329909 g / cm^3
# Si number density = 23.352242 Si / 1000 Ang^3
#
#
#
# Elastic Constant Matrix: (Units=GPa)
#
#
# Indices 1 2 3 4 5 6 
#
# 1 57.7275 25.8086 36.9208 3.5920 6.3668 22.0809
# 2 25.8086 125.2712 56.8680 -2.4994 -5.4632 14.0938
# 3 36.9208 56.8680 118.6502 4.1588 -19.5958 23.3230
# 4 3.5920 -2.4994 4.1588 49.5546 0.1845 1.4478
# 5 6.3668 -5.4632 -19.5958 0.1845 30.1313 11.0284
# 6 22.0809 14.0938 23.3230 1.4478 11.0284 31.8606
#
#
#
# Elastic Compliance Matrix: (Units=1/GPa)
#
#
# Indices 1 2 3 4 5 6 
#
# 1 0.027245 -0.001729 -0.006402 -0.001173 -0.006104 -0.011265
# 2 -0.001729 0.010421 -0.004706 0.001040 -0.000924 0.000306
# 3 -0.006402 -0.004706 0.017865 -0.000976 0.016613 -0.012265
# 4 -0.001173 0.001040 -0.000976 0.020392 -0.000429 0.000289
# 5 -0.006104 -0.000924 0.016613 -0.000429 0.054807 -0.026474
# 6 -0.011265 0.000306 -0.012265 0.000289 -0.026474 0.057187
#
#
# Mechanical properties :
#
#
# Convention : Reuss Voigt Hill
#
# Bulk Modulus (GPa) = 33.49277 60.09375 46.79326
# Shear Modulus (GPa) = 22.36698 34.44607 28.40653
#
# Velocity S-wave (km/s) = 3.09821 3.84482 3.49153
# Velocity P-wave (km/s) = 5.21268 6.74535 6.02793
#
# Compressibility (1/GPa) = 0.02985719
#
# Stress axis : x y z
#
# Youngs Moduli (GPa) = 36.70364 95.95742 55.97663
#
# Poissons Ratio (x) = 0.16592 0.35835
# Poissons Ratio (y) = 0.06347 0.26342
# Poissons Ratio (z) = 0.23497 0.45157
#
# Static dielectric constant tensor:
#      x y z
#    x 4.553980 0.782730 -0.252680 
#    y 0.782730 4.966710 0.043310 
#    z -0.252680 0.043310 4.284650 
# 
# 
# High freq. dielectric constant tensor:
#      x y z
#    x 1.906870 0.023480 -0.004680 
#    y 0.023480 1.929860 0.012180 
#    z -0.004680 0.012180 1.936870 
# 
# From -- ./inp_files/107050.got.cif
#   From: 2010.06.25/outbox.cif.g09.slc.cpg/sg2_54_cif.got.tgz:107050.got - 2010.06.27 13:26:56.
