data_PCOD8008593
_publ_section_title
;
Structure prediction by ZEFSAII (Michael W. Deem and Ramdas Pophale) SiO2 
 PCOD8008593
Probable space group: P -1
;
_chemical_formula_sum "Si O2"
_cell_formula_units_Z 12
_cell_length_a 14.503194
_cell_length_b 13.248329
_cell_length_c 9.177304
_cell_angle_alpha 51.660875
_cell_angle_beta 47.563345
_cell_angle_gamma 19.238644
_cell_volume 427.793671
_symmetry_space_group_name_H-M "P -1"
_symmetry_group_IT_number 2
_symmetry_cell_setting 'triclinic'
loop_
_space_group_symop_operation_xyz
x,y,z
-x,-y,-z
loop_
_atom_site_type_symbol
_atom_site_label
_atom_site_fract_x
_atom_site_fract_y
_atom_site_fract_z
Si Si1 0.163506 0.035905 0.543205
Si Si2 0.190904 0.566252 0.703049
Si Si3 0.371176 0.386863 0.107052
Si Si4 0.980689 0.925574 0.856016
Si Si5 0.455375 0.167910 0.489975
Si Si6 0.320695 0.131378 0.929124
O O1 0.449793 0.776672 0.359651
O O2 0.109318 0.943856 0.745184
O O3 0.228347 0.067807 0.584164
O O4 0.880711 0.345858 0.471496
O O5 0.085779 0.790726 0.701647
O O6 0.017952 0.601733 0.920302
O O7 0.290403 0.423749 0.327803
O O8 0.482943 0.159387 0.101070
O O9 0.083489 0.717441 0.043661
O O10 0.624065 0.260807 0.946353
O O11 0.282783 0.290134 0.715794
O O12 0.500000 0.000000 0.500000
O O13 0.500000 0.000000 0.000000
#
# Coordination Sequence:
#
# PCOD8008593 Si02
#       6
#     2   2   2   2   2   2
#     4  12  24  42  70 101 135 179 219 279 337 395
#     4  11  23  41  67 107 134 169 225 281 336 392
#     4  10  24  45  66 100 137 177 220 278 330 397
#     4  11  23  43  70  98 139 174 223 275 337 398
#     4  10  24  46  67 100 137 179 225 275 331 401
#     4  10  20  44  69  97 133 176 224 275 329 393
#
# _framework density 28.050906000000001
#
# number of rings (size 3 to 8) (size 9 to 14) (size 15 to 20)
#    0.000    1.333    1.667    4.000    0.000    3.333 
#    6.000    9.167    0.000    0.000    0.000    0.000 
#    0.000    0.000    0.000    0.000    0.000    0.000 
#
# Total GULP energy -148833.483337 kJ/mol
# GULP energy per Si atom -12402.790278 kJ/mol
# Density = 2.798706 g / cm^3
# Si number density = 28.050906 Si / 1000 Ang^3
#
#
#
# Elastic Constant Matrix: (Units=GPa)
#
#
# Indices 1 2 3 4 5 6 
#
# 1 186.9565 7.3414 72.8852 -3.3497 -2.2062 -15.2944
# 2 7.3414 64.9829 14.5168 -10.3960 3.4328 -13.3180
# 3 72.8852 14.5168 160.8080 -16.9033 9.9980 6.0919
# 4 -3.3497 -10.3960 -16.9033 50.7609 0.6615 0.9840
# 5 -2.2062 3.4328 9.9980 0.6615 58.8922 -1.9169
# 6 -15.2944 -13.3180 6.0919 0.9840 -1.9169 31.0406
#
#
#
# Elastic Compliance Matrix: (Units=1/GPa)
#
#
# Indices 1 2 3 4 5 6 
#
# 1 0.007097 0.000790 -0.003595 -0.000670 0.000988 0.004624
# 2 0.000790 0.017939 -0.001959 0.002917 -0.000444 0.008350
# 3 -0.003595 -0.001959 0.008539 0.002313 -0.001641 -0.004463
# 4 -0.000670 0.002917 0.002313 0.021039 -0.000832 -0.000250
# 5 0.000988 -0.000444 -0.001641 -0.000832 0.017387 0.001718
# 6 0.004624 0.008350 -0.004463 -0.000250 0.001718 0.039067
#
#
# Mechanical properties :
#
#
# Convention : Reuss Voigt Hill
#
# Bulk Modulus (GPa) = 41.58770 66.91489 54.25130
# Shear Modulus (GPa) = 38.87635 49.33900 44.10768
#
# Velocity S-wave (km/s) = 3.72684 4.19849 3.96967
# Velocity P-wave (km/s) = 5.77729 6.88547 6.35558
#
# Compressibility (1/GPa) = 0.02404557
#
# Stress axis : x y z
#
# Youngs Moduli (GPa) = 140.89925 55.74528 117.10795
#
# Poissons Ratio (x) = -0.04401 0.42101
# Poissons Ratio (y) = -0.11125 0.22945
# Poissons Ratio (z) = 0.50654 0.10922
#
# Static dielectric constant tensor:
#      x y z
#    x 5.580860 0.092270 0.248570 
#    y 0.092270 4.810650 0.094810 
#    z 0.248570 0.094810 5.529790 
# 
# 
# High freq. dielectric constant tensor:
#      x y z
#    x 2.163370 0.012550 0.009220 
#    y 0.012550 2.141400 0.005890 
#    z 0.009220 0.005890 2.151310 
# 
# From -- ./inp_files/35166.got.cif
#   From: 2010.06.25/outbox.cif.g09.slc.cpg/sg2_18_cif.got.tgz:35166.got - 2010.06.27 13:26:56.
