data_PCOD8008386
_publ_section_title
;
Structure prediction by ZEFSAII (Michael W. Deem and Ramdas Pophale) SiO2 
 PCOD8008386
Probable space group: P -1
;
_chemical_formula_sum "Si O2"
_cell_formula_units_Z 14
_cell_length_a 15.513028
_cell_length_b 8.492404
_cell_length_c 7.414806
_cell_angle_alpha 68.940431
_cell_angle_beta 89.901138
_cell_angle_gamma 135.497450
_cell_volume 587.171673
_symmetry_space_group_name_H-M "P -1"
_symmetry_group_IT_number 2
_symmetry_cell_setting 'triclinic'
loop_
_space_group_symop_operation_xyz
x,y,z
-x,-y,-z
loop_
_atom_site_type_symbol
_atom_site_label
_atom_site_fract_x
_atom_site_fract_y
_atom_site_fract_z
Si Si1 0.933521 0.730847 0.240435
Si Si2 0.688013 0.016990 0.107506
Si Si3 0.561224 0.442235 0.914430
Si Si4 0.893577 0.036142 0.173284
Si Si5 0.241157 0.618116 0.316174
Si Si6 0.531931 0.053998 0.269679
Si Si7 0.849291 0.866049 0.630288
O O1 0.831159 0.455323 0.460005
O O2 0.065282 0.968543 0.261218
O O3 0.978865 0.714607 0.054955
O O4 0.856657 0.796202 0.187270
O O5 0.771703 0.983417 0.187317
O O6 0.539220 0.737408 0.174715
O O7 0.658068 0.117133 0.214409
O O8 0.769270 0.221896 0.856713
O O9 0.701625 0.718669 0.720723
O O10 0.500000 0.500000 0.000000
O O11 0.581020 0.310512 0.098395
O O12 0.924025 0.061596 0.375868
O O13 0.397776 0.802776 0.261201
O O14 0.165111 0.355210 0.319571
O O15 0.500000 0.000000 0.500000
#
# Coordination Sequence:
#
# PCOD8008386 Si02
#       7
#     2   2   2   2   2   2   2
#     4  10  23  44  65  97 128 178 221 260 329 386
#     4  11  22  44  63  98 130 167 215 275 333 383
#     4  11  23  40  68  97 129 172 215 266 335 392
#     4  10  23  39  65  94 130 166 223 266 312 393
#     4  10  20  43  66  85 133 175 207 268 329 383
#     4  11  24  42  65  98 133 171 216 272 334 389
#     4  11  21  43  66  93 134 174 212 268 322 390
#
# _framework density 23.843111
#
# number of rings (size 3 to 8) (size 9 to 14) (size 15 to 20)
#    0.000    1.429    2.857    3.429    2.000    6.857 
#    2.571    2.857    0.000    0.000    0.000    0.000 
#    0.000    0.000    0.000    0.000    0.000    0.000 
#
# Total GULP energy -173492.728200 kJ/mol
# GULP energy per Si atom -12392.337729 kJ/mol
# Density = 2.378884 g / cm^3
# Si number density = 23.843111 Si / 1000 Ang^3
#
#
#
# Elastic Constant Matrix: (Units=GPa)
#
#
# Indices 1 2 3 4 5 6 
#
# 1 153.9781 34.5588 37.1091 -0.3431 -9.8543 -9.6252
# 2 34.5588 34.9218 34.5023 -0.7856 4.6343 3.4968
# 3 37.1091 34.5023 146.5028 0.1783 -26.1955 -0.9865
# 4 -0.3431 -0.7856 0.1783 26.3855 6.0837 -11.1634
# 5 -9.8543 4.6343 -26.1955 6.0837 42.7104 6.1718
# 6 -9.6252 3.4968 -0.9865 -11.1634 6.1718 21.4587
#
#
#
# Elastic Compliance Matrix: (Units=1/GPa)
#
#
# Indices 1 2 3 4 5 6 
#
# 1 0.009312 -0.010823 0.000695 0.001801 0.002602 0.006161
# 2 -0.010823 0.055271 -0.013076 0.001109 -0.015302 -0.009485
# 3 0.000695 -0.013076 0.011367 -0.003126 0.009184 -0.001302
# 4 0.001801 0.001109 -0.003126 0.055440 -0.014353 0.033453
# 5 0.002602 -0.015302 0.009184 -0.014353 0.035308 -0.013539
# 6 0.006161 -0.009485 -0.001302 0.033453 -0.013539 0.072147
#
#
# Mechanical properties :
#
#
# Convention : Reuss Voigt Hill
#
# Bulk Modulus (GPa) = 33.85285 60.86034 47.35659
# Shear Modulus (GPa) = 16.94341 33.39309 25.16825
#
# Velocity S-wave (km/s) = 2.66864 3.74643 3.25249
# Velocity P-wave (km/s) = 4.87078 6.65545 5.83179
#
# Compressibility (1/GPa) = 0.02953961
#
# Stress axis : x y z
#
# Youngs Moduli (GPa) = 107.39096 18.09281 87.97742
#
# Poissons Ratio (x) = 0.19582 -0.06113
# Poissons Ratio (y) = 1.16231 1.15042
# Poissons Ratio (z) = -0.07462 0.23659
#
# Static dielectric constant tensor:
#      x y z
#    x 4.204090 0.147060 -0.116880 
#    y 0.147060 3.637570 0.242650 
#    z -0.116880 0.242650 4.188320 
# 
# 
# High freq. dielectric constant tensor:
#      x y z
#    x 1.944500 0.008850 -0.018430 
#    y 0.008850 1.913920 0.004270 
#    z -0.018430 0.004270 1.964510 
# 
# From -- ./inp_files/241565.got.cif
#   From: 2010.06.25/outbox.cif.g09.slc.cpg/sg2_121_cif.got.tgz:241565.got - 2010.06.27 13:26:56.
