data_PCOD8008080
_publ_section_title
;
Structure prediction by ZEFSAII (Michael W. Deem and Ramdas Pophale) SiO2 
 PCOD8008080
Probable space group: P -1
;
_chemical_formula_sum "Si O2"
_cell_formula_units_Z 14
_cell_length_a 15.669300
_cell_length_b 5.322687
_cell_length_c 20.390235
_cell_angle_alpha 79.054048
_cell_angle_beta 159.888090
_cell_angle_gamma 99.514268
_cell_volume 573.695171
_symmetry_space_group_name_H-M "P -1"
_symmetry_group_IT_number 2
_symmetry_cell_setting 'triclinic'
loop_
_space_group_symop_operation_xyz
x,y,z
-x,-y,-z
loop_
_atom_site_type_symbol
_atom_site_label
_atom_site_fract_x
_atom_site_fract_y
_atom_site_fract_z
Si Si1 0.014935 0.359771 0.948596
Si Si2 0.628437 0.888644 0.869482
Si Si3 0.608420 0.490120 0.978038
Si Si4 0.483488 0.783789 0.445133
Si Si5 0.899718 0.911371 0.503101
Si Si6 0.152447 0.356085 0.730191
Si Si7 0.011646 0.786255 0.813028
O O1 0.773688 0.181054 0.782448
O O2 0.003550 0.559741 0.871413
O O3 0.000000 0.500000 0.000000
O O4 0.271567 0.187322 0.128466
O O5 0.400105 0.096953 0.701255
O O6 0.529678 0.643903 0.848437
O O7 0.878113 0.971285 0.082897
O O8 0.707909 0.674449 0.097781
O O9 0.822624 0.279430 0.127197
O O10 0.363777 0.344663 0.827863
O O11 0.500000 0.500000 0.500000
O O12 0.733007 0.831843 0.580429
O O13 0.500000 0.000000 0.500000
O O14 0.999686 0.625637 0.603615
O O15 0.000000 0.000000 0.500000
O O16 0.985747 0.113853 0.609933
#
# Coordination Sequence:
#
# PCOD8008080 Si02
#       7
#     2   2   2   2   2   2   2
#     4  10  23  42  65  99 134 176 226 285 345 409
#     4  11  23  41  69  96 135 180 225 279 343 407
#     4  10  24  42  68  95 132 177 232 277 327 404
#     4  10  20  42  65  91 125 169 216 269 333 398
#     4  12  25  43  68 100 141 178 220 277 347 399
#     4  11  26  44  66 100 136 181 226 279 329 403
#     4  10  22  41  67  93 131 177 225 278 343 402
#
# _framework density 24.403203999999999
#
# number of rings (size 3 to 8) (size 9 to 14) (size 15 to 20)
#    0.000    1.429    2.857    1.286    6.000    2.857 
#    0.000    0.000    0.000    0.000    0.000    0.000 
#    0.000    0.000    0.000    0.000    0.000    0.000 
#
# Total GULP energy -173477.276966 kJ/mol
# GULP energy per Si atom -12391.234069 kJ/mol
# Density = 2.434766 g / cm^3
# Si number density = 24.403204 Si / 1000 Ang^3
#
#
#
# Elastic Constant Matrix: (Units=GPa)
#
#
# Indices 1 2 3 4 5 6 
#
# 1 95.6078 28.3693 52.3506 -9.3421 32.0232 -29.8491
# 2 28.3693 104.9640 29.9496 5.3392 14.6446 -24.6461
# 3 52.3506 29.9496 151.5437 -0.1712 43.0157 -23.5336
# 4 -9.3421 5.3392 -0.1712 44.7874 -16.4836 0.4851
# 5 32.0232 14.6446 43.0157 -16.4836 40.8224 -11.6358
# 6 -29.8491 -24.6461 -23.5336 0.4851 -11.6358 34.5951
#
#
#
# Elastic Compliance Matrix: (Units=1/GPa)
#
#
# Indices 1 2 3 4 5 6 
#
# 1 0.018040 -0.000585 -0.002017 0.000591 -0.008465 0.010921
# 2 -0.000585 0.011888 -0.000381 -0.002517 -0.002449 0.006917
# 3 -0.002017 -0.000381 0.010701 -0.004338 -0.010828 0.001687
# 4 0.000591 -0.002517 -0.004338 0.028989 0.017025 0.001086
# 5 -0.008465 -0.002449 -0.010828 0.017025 0.050383 0.000293
# 6 0.010921 0.006917 0.001687 0.001086 0.000293 0.044487
#
#
# Mechanical properties :
#
#
# Convention : Reuss Voigt Hill
#
# Bulk Modulus (GPa) = 28.84882 63.71716 46.28299
# Shear Modulus (GPa) = 27.47138 40.13738 33.80438
#
# Velocity S-wave (km/s) = 3.35883 4.05996 3.72592
# Velocity P-wave (km/s) = 5.18553 6.93863 6.12512
#
# Compressibility (1/GPa) = 0.03466346
#
# Stress axis : x y z
#
# Youngs Moduli (GPa) = 55.43280 84.12075 93.44500
#
# Poissons Ratio (x) = 0.04922 0.18847
# Poissons Ratio (y) = 0.03243 0.03558
# Poissons Ratio (z) = 0.11180 0.03203
#
# Static dielectric constant tensor:
#      x y z
#    x 4.557130 -0.359350 0.839520 
#    y -0.359350 4.321800 -0.172390 
#    z 0.839520 -0.172390 5.531650 
# 
# 
# High freq. dielectric constant tensor:
#      x y z
#    x 1.958370 -0.017600 0.027490 
#    y -0.017600 1.969960 0.004630 
#    z 0.027490 0.004630 1.978700 
# 
# From -- ./inp_files/99454.got.cif
#   From: 2010.06.25/outbox.cif.g09.slc.cpg/sg2_50_cif.got.tgz:99454.got - 2010.06.27 13:26:56.
