data_PCOD8008330
_publ_section_title
;
Structure prediction by ZEFSAII (Michael W. Deem and Ramdas Pophale) SiO2 
 PCOD8008330
Probable space group: P -1
;
_chemical_formula_sum "Si O2"
_cell_formula_units_Z 12
_cell_length_a 21.665331
_cell_length_b 4.942726
_cell_length_c 6.837456
_cell_angle_alpha 73.003538
_cell_angle_beta 101.112212
_cell_angle_gamma 122.173515
_cell_volume 592.066770
_symmetry_space_group_name_H-M "P -1"
_symmetry_group_IT_number 2
_symmetry_cell_setting 'triclinic'
loop_
_space_group_symop_operation_xyz
x,y,z
-x,-y,-z
loop_
_atom_site_type_symbol
_atom_site_label
_atom_site_fract_x
_atom_site_fract_y
_atom_site_fract_z
Si Si1 0.076599 0.069841 0.609173
Si Si2 0.880112 0.404978 0.152375
Si Si3 0.242163 0.014328 0.086461
Si Si4 0.167904 0.313317 0.241749
Si Si5 0.590267 0.472066 0.922511
Si Si6 0.482616 0.124056 0.265808
O O1 0.113909 0.401871 0.687119
O O2 0.065881 0.744245 0.783173
O O3 0.131019 0.114911 0.456385
O O4 0.000000 0.000000 0.500000
O O5 0.894727 0.654014 0.926666
O O6 0.797632 0.092022 0.129721
O O7 0.198163 0.124730 0.175365
O O8 0.234915 0.684576 0.249439
O O9 0.324296 0.294555 0.045930
O O10 0.552657 0.653463 0.755268
O O11 0.576738 0.175664 0.837028
O O12 0.557216 0.338507 0.145034
O O13 0.500000 0.000000 0.500000
#
# Coordination Sequence:
#
# PCOD8008330 Si02
#       6
#     2   2   2   2   2   2
#     4  12  24  40  63  87 117 160 197 245 302 350
#     4  10  22  42  58  88 121 148 201 247 290 360
#     4  10  20  43  61  84 125 159 187 253 303 328
#     4  10  22  41  59  86 122 149 199 245 297 353
#     4  10  21  39  61  85 123 152 195 246 282 345
#     4  10  21  39  60  90 118 154 200 235 284 352
#
# _framework density 20.267982
#
# number of rings (size 3 to 8) (size 9 to 14) (size 15 to 20)
#    1.000    0.667    1.667    3.000    0.000    1.333 
#    9.000    0.000    0.000    0.000    0.000    0.000 
#    0.000    0.000    0.000    0.000    0.000    0.000 
#
# Total GULP energy -148690.100418 kJ/mol
# GULP energy per Si atom -12390.841701 kJ/mol
# Density = 2.022185 g / cm^3
# Si number density = 20.267982 Si / 1000 Ang^3
#
#
#
# Elastic Constant Matrix: (Units=GPa)
#
#
# Indices 1 2 3 4 5 6 
#
# 1 53.8227 27.9251 23.1035 11.5970 -5.2471 -10.1606
# 2 27.9251 96.1123 25.4315 18.3256 -16.7606 -11.1640
# 3 23.1035 25.4315 60.4403 2.8758 3.4486 0.5082
# 4 11.5970 18.3256 2.8758 25.9242 -7.7379 3.5990
# 5 -5.2471 -16.7606 3.4486 -7.7379 26.0079 -0.9405
# 6 -10.1606 -11.1640 0.5082 3.5990 -0.9405 35.6214
#
#
#
# Elastic Compliance Matrix: (Units=1/GPa)
#
#
# Indices 1 2 3 4 5 6 
#
# 1 0.027850 -0.002166 -0.009475 -0.010239 0.002740 0.008507
# 2 -0.002166 0.016420 -0.006242 -0.008117 0.008762 0.005669
# 3 -0.009475 -0.006242 0.023073 0.004533 -0.007849 -0.005653
# 4 -0.010239 -0.008117 0.004533 0.052007 0.007192 -0.010594
# 5 0.002740 0.008762 -0.007849 0.007192 0.047981 0.004180
# 6 0.008507 0.005669 -0.005653 -0.010594 0.004180 0.033537
#
#
# Mechanical properties :
#
#
# Convention : Reuss Voigt Hill
#
# Bulk Modulus (GPa) = 31.66967 40.36615 36.01791
# Shear Modulus (GPa) = 20.22978 26.43838 23.33408
#
# Velocity S-wave (km/s) = 3.16272 3.61562 3.39673
# Velocity P-wave (km/s) = 5.38484 6.11472 5.76135
#
# Compressibility (1/GPa) = 0.03157596
#
# Stress axis : x y z
#
# Youngs Moduli (GPa) = 35.90693 60.90236 43.34018
#
# Poissons Ratio (x) = 0.13194 0.41064
# Poissons Ratio (y) = 0.07779 0.27054
# Poissons Ratio (z) = 0.34021 0.38017
#
# Static dielectric constant tensor:
#      x y z
#    x 3.519810 -0.270160 0.118380 
#    y -0.270160 3.875660 -0.003750 
#    z 0.118380 -0.003750 3.561930 
# 
# 
# High freq. dielectric constant tensor:
#      x y z
#    x 1.783290 -0.025640 0.007830 
#    y -0.025640 1.806640 0.006730 
#    z 0.007830 0.006730 1.777080 
# 
# From -- ./inp_files/120950.got.cif
#   From: 2010.06.25/outbox.cif.g09.slc.cpg/sg2_61_cif.got.tgz:120950.got - 2010.06.27 13:26:56.
