data_PCOD8008714
_publ_section_title
;
Structure prediction by ZEFSAII (Michael W. Deem and Ramdas Pophale) SiO2 
 PCOD8008714
Probable space group: P -1
;
_chemical_formula_sum "Si O2"
_cell_formula_units_Z 16
_cell_length_a 11.289318
_cell_length_b 9.001993
_cell_length_c 11.449728
_cell_angle_alpha 108.072154
_cell_angle_beta 113.800155
_cell_angle_gamma 117.535699
_cell_volume 746.376718
_symmetry_space_group_name_H-M "P -1"
_symmetry_group_IT_number 2
_symmetry_cell_setting 'triclinic'
loop_
_space_group_symop_operation_xyz
x,y,z
-x,-y,-z
loop_
_atom_site_type_symbol
_atom_site_label
_atom_site_fract_x
_atom_site_fract_y
_atom_site_fract_z
Si Si1 0.751304 0.426002 0.916437
Si Si2 0.084671 0.019702 0.723672
Si Si3 0.167364 0.186646 0.046543
Si Si4 0.459038 0.313926 0.363537
Si Si5 0.229508 0.422171 0.600577
Si Si6 0.967209 0.668169 0.280396
Si Si7 0.584595 0.666979 0.180861
Si Si8 0.319358 0.912664 0.355033
O O1 0.847366 0.638319 0.931484
O O2 0.551333 0.318436 0.822057
O O3 0.758623 0.266851 0.816847
O O4 0.846961 0.482457 0.092327
O O5 0.044044 0.155911 0.689186
O O6 0.248825 0.090926 0.730742
O O7 0.162320 0.092182 0.900433
O O8 0.914389 0.774822 0.588367
O O9 0.339723 0.271459 0.199703
O O10 0.000000 0.000000 0.000000
O O11 0.500000 0.500000 0.500000
O O12 0.636808 0.384523 0.391580
O O13 0.355713 0.108032 0.354960
O O14 0.119965 0.444022 0.653865
O O15 0.354135 0.400573 0.710349
O O16 0.173378 0.798560 0.372895
O O17 0.500000 0.500000 0.000000
O O18 0.500000 0.000000 0.500000
#
# Coordination Sequence:
#
# PCOD8008714 Si02
#       8
#     2   2   2   2   2   2   2   2
#     4  11  22  40  66  93 131 167 214 263 324 386
#     4  10  21  33  64  99 128 157 215 267 321 372
#     4  11  21  38  65  97 127 164 217 265 319 378
#     4  12  24  43  67  96 130 167 219 270 326 383
#     4  11  21  37  66  97 131 161 219 275 315 370
#     4  10  21  40  63  92 129 173 212 259 319 391
#     4  11  17  36  65  99 123 165 212 267 314 386
#     4  12  28  43  64  93 131 174 216 261 331 396
#
# _framework density 21.436893999999999
#
# number of rings (size 3 to 8) (size 9 to 14) (size 15 to 20)
#    0.000    1.000    5.000    5.625    3.500    0.000 
#    0.000    1.250    2.750    0.000    0.000    0.000 
#    0.000    0.000    0.000    0.000    0.000    0.000 
#
# Total GULP energy -198262.841903 kJ/mol
# GULP energy per Si atom -12391.427619 kJ/mol
# Density = 2.138810 g / cm^3
# Si number density = 21.436894 Si / 1000 Ang^3
#
#
#
# Elastic Constant Matrix: (Units=GPa)
#
#
# Indices 1 2 3 4 5 6 
#
# 1 139.9077 37.0950 29.1173 11.6975 1.1173 38.4136
# 2 37.0950 70.6114 28.6502 13.4929 -9.0220 16.9472
# 3 29.1173 28.6502 104.4292 12.9758 5.9033 -8.5444
# 4 11.6975 13.4929 12.9758 29.3647 0.4013 6.1681
# 5 1.1173 -9.0220 5.9033 0.4013 33.8090 10.2906
# 6 38.4136 16.9472 -8.5444 6.1681 10.2906 37.7887
#
#
#
# Elastic Compliance Matrix: (Units=1/GPa)
#
#
# Indices 1 2 3 4 5 6 
#
# 1 0.012226 -0.000403 -0.004835 0.000480 0.004810 -0.014729
# 2 -0.000403 0.023208 -0.007555 -0.004336 0.011912 -0.014243
# 3 -0.004835 -0.007555 0.015269 -0.004361 -0.009012 0.014921
# 4 0.000480 -0.004336 -0.004361 0.039067 0.001006 -0.006179
# 5 0.004810 0.011912 -0.009012 0.001006 0.041373 -0.023701
# 6 -0.014729 -0.014243 0.014921 -0.006179 -0.023701 0.058660
#
#
# Mechanical properties :
#
#
# Convention : Reuss Voigt Hill
#
# Bulk Modulus (GPa) = 39.81294 56.07480 47.94387
# Shear Modulus (GPa) = 22.34525 34.86486 28.60506
#
# Velocity S-wave (km/s) = 3.23208 4.03723 3.65689
# Velocity P-wave (km/s) = 5.70447 6.92439 6.34382
#
# Compressibility (1/GPa) = 0.02511746
#
# Stress axis : x y z
#
# Youngs Moduli (GPa) = 81.79107 43.08858 65.49320
#
# Poissons Ratio (x) = 0.01737 0.31666
# Poissons Ratio (y) = 0.03297 0.49478
# Poissons Ratio (z) = 0.39546 0.32552
#
# Static dielectric constant tensor:
#      x y z
#    x 4.213310 0.393270 0.166050 
#    y 0.393270 3.788900 0.082040 
#    z 0.166050 0.082040 4.097760 
# 
# 
# High freq. dielectric constant tensor:
#      x y z
#    x 1.848280 0.039990 0.008210 
#    y 0.039990 1.806970 0.005900 
#    z 0.008210 0.005900 1.862860 
# 
# From -- ./inp_files/331727.got.cif
#   From: 2010.06.25/outbox.cif.g09.slc.cpg/sg2_166_cif.got.tgz:331727.got - 2010.06.27 13:26:56.
