data_PCOD8008980
_publ_section_title
;
Structure prediction by ZEFSAII (Michael W. Deem and Ramdas Pophale) SiO2 
 PCOD8008980
Probable space group: P -1
;
_chemical_formula_sum "Si O2"
_cell_formula_units_Z 16
_cell_length_a 10.846933
_cell_length_b 9.172586
_cell_length_c 18.449869
_cell_angle_alpha 124.959321
_cell_angle_beta 150.545881
_cell_angle_gamma 56.643291
_cell_volume 733.840793
_symmetry_space_group_name_H-M "P -1"
_symmetry_group_IT_number 2
_symmetry_cell_setting 'triclinic'
loop_
_space_group_symop_operation_xyz
x,y,z
-x,-y,-z
loop_
_atom_site_type_symbol
_atom_site_label
_atom_site_fract_x
_atom_site_fract_y
_atom_site_fract_z
Si Si1 0.101044 0.208026 0.991714
Si Si2 0.738639 0.958598 0.557987
Si Si3 0.528981 0.341197 0.713893
Si Si4 0.795438 0.495038 0.137822
Si Si5 0.802314 0.297462 0.588793
Si Si6 0.820008 0.158004 0.139770
Si Si7 0.377385 0.381040 0.056744
Si Si8 0.381603 0.421013 0.306335
O O1 0.186429 0.314332 0.996919
O O2 0.211639 0.283209 0.143090
O O3 0.798017 0.232712 0.843489
O O4 0.210157 0.999635 0.977929
O O5 0.685819 0.790779 0.433719
O O6 0.988245 0.913204 0.719567
O O7 0.500000 0.000000 0.500000
O O8 0.782450 0.121110 0.574525
O O9 0.444935 0.492995 0.774445
O O10 0.541883 0.429948 0.666978
O O11 0.927778 0.315384 0.193870
O O12 0.910244 0.672247 0.278748
O O13 0.500000 0.500000 0.000000
O O14 0.815897 0.499770 0.062026
O O15 0.631729 0.299164 0.430311
O O16 0.744942 0.479672 0.659620
O O17 0.551084 0.222453 0.058830
#
# Coordination Sequence:
#
# PCOD8008980 Si02
#       8
#     2   2   2   2   2   2   2   2
#     4  11  21  38  64  95 128 160 214 261 305 368
#     4  12  23  40  61  94 126 163 208 261 308 364
#     4  11  21  39  63  93 128 161 214 259 306 369
#     4  10  22  40  63  90 122 165 207 248 306 379
#     4  11  22  39  62  90 125 163 205 254 318 364
#     4  11  23  39  64  88 127 166 211 255 313 368
#     4  10  22  40  63  91 123 169 206 256 312 369
#     4  10  21  35  61  93 125 163 203 255 314 367
#
# _framework density 21.803094999999999
#
# number of rings (size 3 to 8) (size 9 to 14) (size 15 to 20)
#    0.000    1.250    2.500    4.875    1.750    2.500 
#    0.000    3.125    0.000    9.000    0.000    0.000 
#    0.000    0.000    0.000    0.000    0.000    0.000 
#
# Total GULP energy -198311.412195 kJ/mol
# GULP energy per Si atom -12394.463262 kJ/mol
# Density = 2.175347 g / cm^3
# Si number density = 21.803095 Si / 1000 Ang^3
#
#
#
# Elastic Constant Matrix: (Units=GPa)
#
#
# Indices 1 2 3 4 5 6 
#
# 1 41.0940 23.3106 24.8610 -0.9647 -0.5861 -0.5254
# 2 23.3106 109.3823 54.8821 12.5252 -5.1407 9.6304
# 3 24.8610 54.8821 143.0723 2.0146 -5.3277 13.0363
# 4 -0.9647 12.5252 2.0146 45.8282 5.4483 -2.5420
# 5 -0.5861 -5.1407 -5.3277 5.4483 30.4362 2.8949
# 6 -0.5254 9.6304 13.0363 -2.5420 2.8949 37.6046
#
#
#
# Elastic Compliance Matrix: (Units=1/GPa)
#
#
# Indices 1 2 3 4 5 6 
#
# 1 0.029485 -0.005171 -0.003537 0.002572 -0.001696 0.003267
# 2 -0.005171 0.012861 -0.003660 -0.003886 0.002369 -0.002542
# 3 -0.003537 -0.003660 0.009264 0.000253 0.001118 -0.002393
# 4 0.002572 -0.003886 0.000253 0.023693 -0.005083 0.002936
# 5 -0.001696 0.002369 0.001118 -0.005083 0.034712 -0.004034
# 6 0.003267 -0.002542 -0.002393 0.002936 -0.004034 0.028628
#
#
# Mechanical properties :
#
#
# Convention : Reuss Voigt Hill
#
# Bulk Modulus (GPa) = 37.21059 55.51734 46.36397
# Shear Modulus (GPa) = 29.01286 35.47346 32.24316
#
# Velocity S-wave (km/s) = 3.65180 4.03798 3.84973
# Velocity P-wave (km/s) = 5.90632 6.87449 6.40871
#
# Compressibility (1/GPa) = 0.02687407
#
# Stress axis : x y z
#
# Youngs Moduli (GPa) = 33.91510 77.75549 107.94209
#
# Poissons Ratio (x) = 0.40206 0.38180
# Poissons Ratio (y) = 0.17537 0.39510
# Poissons Ratio (z) = 0.11996 0.28461
#
# Static dielectric constant tensor:
#      x y z
#    x 4.018330 0.241880 -0.173400 
#    y 0.241880 4.302570 0.056120 
#    z -0.173400 0.056120 4.449250 
# 
# 
# High freq. dielectric constant tensor:
#      x y z
#    x 1.838860 0.016480 -0.001920 
#    y 0.016480 1.853410 0.000330 
#    z -0.001920 0.000330 1.876450 
# 
# From -- ./inp_files/566166.got.cif
#   From: 2010.06.25/outbox.cif.g09.slc.cpg/sg2_284_cif.got.tgz:566166.got - 2010.06.27 13:26:56.
