data_PCOD8008057
_publ_section_title
;
Structure prediction by ZEFSAII (Michael W. Deem and Ramdas Pophale) SiO2 
 PCOD8008057
Probable space group: P -1
;
_chemical_formula_sum "Si O2"
_cell_formula_units_Z 16
_cell_length_a 8.772778
_cell_length_b 5.138094
_cell_length_c 16.095654
_cell_angle_alpha 107.697458
_cell_angle_beta 82.372577
_cell_angle_gamma 82.296687
_cell_volume 673.281466
_symmetry_space_group_name_H-M "P -1"
_symmetry_group_IT_number 2
_symmetry_cell_setting 'triclinic'
loop_
_space_group_symop_operation_xyz
x,y,z
-x,-y,-z
loop_
_atom_site_type_symbol
_atom_site_label
_atom_site_fract_x
_atom_site_fract_y
_atom_site_fract_z
Si Si1 0.737209 0.171046 0.783083
Si Si2 0.198433 0.721967 0.513070
Si Si3 0.815006 0.277905 0.093141
Si Si4 0.598580 0.192883 0.964838
Si Si5 0.343874 0.968121 0.677294
Si Si6 0.163176 0.138734 0.412369
Si Si7 0.468015 0.512315 0.746028
Si Si8 0.939219 0.816351 0.161782
O O1 0.632550 0.082688 0.857352
O O2 0.638649 0.437111 0.768111
O O3 0.890963 0.261708 0.817411
O O4 0.782343 0.915821 0.691670
O O5 0.315005 0.825570 0.579011
O O6 0.241090 0.390284 0.465765
O O7 0.023623 0.792162 0.567680
O O8 0.219054 0.866791 0.437819
O O9 0.654645 0.367549 0.163045
O O10 0.901656 0.534471 0.099648
O O11 0.931551 0.031060 0.106868
O O12 0.765748 0.182352 0.997003
O O13 0.500000 0.500000 0.000000
O O14 0.500000 0.000000 0.000000
O O15 0.467107 0.744800 0.698314
O O16 0.422078 0.235558 0.681379
O O17 0.180651 0.053591 0.745425
#
# Coordination Sequence:
#
# PCOD8008057 Si02
#       8
#     2   2   2   2   2   2   2   2
#     4  12  26  46  68 108 134 176 231 291 334 391
#     4  10  20  42  66  93 137 174 223 265 350 402
#     4  10  22  45  64  99 130 183 220 271 340 404
#     4  12  27  45  72  98 140 185 225 271 345 412
#     4  10  20  42  64  98 127 188 212 269 337 408
#     4  10  23  38  66 100 131 172 220 289 327 399
#     4  10  23  37  68  92 140 170 226 264 338 407
#     4  10  23  40  71  97 136 165 232 283 328 391
#
# _framework density 23.764205
#
# number of rings (size 3 to 8) (size 9 to 14) (size 15 to 20)
#    0.000    1.500    2.500    1.500    3.500    6.000 
#    0.000    3.750    0.000    0.000    0.000    0.000 
#    0.000    0.000    0.000    0.000    0.000    0.000 
#
# Total GULP energy -198475.842221 kJ/mol
# GULP energy per Si atom -12404.740139 kJ/mol
# Density = 2.371012 g / cm^3
# Si number density = 23.764205 Si / 1000 Ang^3
#
#
#
# Elastic Constant Matrix: (Units=GPa)
#
#
# Indices 1 2 3 4 5 6 
#
# 1 101.3061 35.0511 34.2729 -7.2573 15.9936 -21.2653
# 2 35.0511 134.8454 39.5940 4.3926 -2.4459 2.0315
# 3 34.2729 39.5940 147.3176 -7.6569 1.6431 3.5854
# 4 -7.2573 4.3926 -7.6569 15.2566 2.1886 7.8229
# 5 15.9936 -2.4459 1.6431 2.1886 31.6491 -9.4745
# 6 -21.2653 2.0315 3.5854 7.8229 -9.4745 30.6523
#
#
#
# Elastic Compliance Matrix: (Units=1/GPa)
#
#
# Indices 1 2 3 4 5 6 
#
# 1 0.014693 -0.003422 -0.002469 0.003282 -0.005326 0.008225
# 2 -0.003422 0.009109 -0.001948 -0.005346 0.002743 -0.000538
# 3 -0.002469 -0.001948 0.008316 0.005975 -0.001069 -0.004412
# 4 0.003282 -0.005346 0.005975 0.086820 -0.015913 -0.025144
# 5 -0.005326 0.002743 -0.001069 -0.015913 0.039393 0.012486
# 6 0.008225 -0.000538 -0.004412 -0.025144 0.012486 0.049158
#
#
# Mechanical properties :
#
#
# Convention : Reuss Voigt Hill
#
# Bulk Modulus (GPa) = 60.82173 66.81167 63.81670
# Shear Modulus (GPa) = 21.86797 33.81501 27.84149
#
# Velocity S-wave (km/s) = 3.03678 3.77628 3.42654
# Velocity P-wave (km/s) = 6.15999 6.86944 6.52436
#
# Compressibility (1/GPa) = 0.01644149
#
# Stress axis : x y z
#
# Youngs Moduli (GPa) = 68.06188 109.77987 120.25482
#
# Poissons Ratio (x) = 0.37563 0.29688
# Poissons Ratio (y) = 0.23288 0.23420
# Poissons Ratio (z) = 0.16803 0.21380
#
# Static dielectric constant tensor:
#      x y z
#    x 4.254100 -0.118430 0.022450 
#    y -0.118430 4.273360 -0.016590 
#    z 0.022450 -0.016590 4.398450 
# 
# 
# High freq. dielectric constant tensor:
#      x y z
#    x 1.943800 -0.004660 0.003940 
#    y -0.004660 1.942230 0.001310 
#    z 0.003940 0.001310 1.949130 
# 
# From -- ./inp_files/488661.got.cif
#   From: 2010.06.25/outbox.cif.g09.slc.cpg/sg2_245_cif.got.tgz:488661.got - 2010.06.27 13:26:56.
