data_PCOD8008727
_publ_section_title
;
Structure prediction by ZEFSAII (Michael W. Deem and Ramdas Pophale) SiO2 
 PCOD8008727
Probable space group: P -1
;
_chemical_formula_sum "Si O2"
_cell_formula_units_Z 10
_cell_length_a 13.197289
_cell_length_b 11.239778
_cell_length_c 16.634583
_cell_angle_alpha 145.075819
_cell_angle_beta 37.117649
_cell_angle_gamma 157.345499
_cell_volume 534.730712
_symmetry_space_group_name_H-M "P -1"
_symmetry_group_IT_number 2
_symmetry_cell_setting 'triclinic'
loop_
_space_group_symop_operation_xyz
x,y,z
-x,-y,-z
loop_
_atom_site_type_symbol
_atom_site_label
_atom_site_fract_x
_atom_site_fract_y
_atom_site_fract_z
Si Si1 0.374312 0.164730 0.055019
Si Si2 0.285772 0.844010 0.230638
Si Si3 0.389725 0.272782 0.519779
Si Si4 0.816530 0.903966 0.691389
Si Si5 0.932732 0.791892 0.001676
O O1 0.279214 0.070616 0.154423
O O2 0.446770 0.995762 0.891127
O O3 0.637944 0.562778 0.096224
O O4 0.145340 0.037115 0.072780
O O5 0.064988 0.448549 0.160984
O O6 0.356670 0.001284 0.361857
O O7 0.165269 0.911044 0.289205
O O8 0.500000 0.500000 0.500000
O O9 0.607312 0.516109 0.587675
O O10 0.106120 0.087512 0.625798
O O11 0.000000 0.000000 0.000000
#
# Coordination Sequence:
#
# PCOD8008727 Si02
#       5
#     2   2   2   2   2
#     4  10  22  35  59  81 111 140 183 231 272 308
#     4   9  22  33  60  81 112 144 184 213 273 326
#     4  10  21  34  53  81 120 148 171 210 275 341
#     4  11  21  35  55  87 118 137 173 225 281 327
#     4  10  22  37  58  80 106 144 192 227 262 316
#
# _framework density 18.701001000000002
#
# number of rings (size 3 to 8) (size 9 to 14) (size 15 to 20)
#    1.200    0.800    0.000    4.800    8.400    0.800 
#    0.000    0.000    0.000    7.200    0.000    0.000 
#    0.000    0.000    0.000    0.000    0.000    0.000 
#
# Total GULP energy -123921.102684 kJ/mol
# GULP energy per Si atom -12392.110268 kJ/mol
# Density = 1.865844 g / cm^3
# Si number density = 18.701001 Si / 1000 Ang^3
#
#
#
# Elastic Constant Matrix: (Units=GPa)
#
#
# Indices 1 2 3 4 5 6 
#
# 1 61.5982 30.1062 12.5063 12.8067 5.3632 12.6536
# 2 30.1062 98.6441 28.2664 -5.4574 -7.8846 18.6843
# 3 12.5063 28.2664 96.7450 -6.7666 7.3061 -1.4732
# 4 12.8067 -5.4574 -6.7666 24.0427 3.4858 -4.3812
# 5 5.3632 -7.8846 7.3061 3.4858 7.9255 0.9970
# 6 12.6536 18.6843 -1.4732 -4.3812 0.9970 36.5535
#
#
#
# Elastic Compliance Matrix: (Units=1/GPa)
#
#
# Indices 1 2 3 4 5 6 
#
# 1 0.026901 -0.009471 -0.000299 -0.014675 -0.020181 -0.005692
# 2 -0.009471 0.018972 -0.006722 0.001514 0.031743 -0.007374
# 3 -0.000299 -0.006722 0.014748 0.007296 -0.024003 0.005663
# 4 -0.014675 0.001514 0.007296 0.057186 -0.021957 0.012053
# 5 -0.020181 0.031743 -0.024003 -0.021957 0.205514 -0.018444
# 6 -0.005692 -0.007374 0.005663 0.012053 -0.018444 0.035273
#
#
# Mechanical properties :
#
#
# Convention : Reuss Voigt Hill
#
# Bulk Modulus (GPa) = 36.18499 44.30503 40.24501
# Shear Modulus (GPa) = 12.47526 26.11156 19.29341
#
# Velocity S-wave (km/s) = 2.58561 3.74072 3.21546
# Velocity P-wave (km/s) = 5.32025 6.51153 5.94580
#
# Compressibility (1/GPa) = 0.02763577
#
# Stress axis : x y z
#
# Youngs Moduli (GPa) = 37.17277 52.70889 67.80360
#
# Poissons Ratio (x) = 0.49923 0.02029
# Poissons Ratio (y) = 0.35208 0.45580
# Poissons Ratio (z) = 0.01113 0.35433
#
# Static dielectric constant tensor:
#      x y z
#    x 3.317550 0.450640 0.335900 
#    y 0.450640 3.560950 0.219230 
#    z 0.335900 0.219230 3.741130 
# 
# 
# High freq. dielectric constant tensor:
#      x y z
#    x 1.695950 0.031170 0.015100 
#    y 0.031170 1.725510 -0.002820 
#    z 0.015100 -0.002820 1.722940 
# 
# From -- ./inp_files/588.got.cif
#   From: 2010.06.25/outbox.cif.g09.slc.cpg/sg2_1_cif.got.tgz:588.got - 2010.06.27 13:26:56.
