data_PCOD8008249
_publ_section_title
;
Structure prediction by ZEFSAII (Michael W. Deem and Ramdas Pophale) SiO2 
 PCOD8008249
Probable space group: P -1
;
_chemical_formula_sum "Si O2"
_cell_formula_units_Z 16
_cell_length_a 8.371281
_cell_length_b 11.998230
_cell_length_c 14.696114
_cell_angle_alpha 129.707077
_cell_angle_beta 41.424152
_cell_angle_gamma 107.024264
_cell_volume 699.221011
_symmetry_space_group_name_H-M "P -1"
_symmetry_group_IT_number 2
_symmetry_cell_setting 'triclinic'
loop_
_space_group_symop_operation_xyz
x,y,z
-x,-y,-z
loop_
_atom_site_type_symbol
_atom_site_label
_atom_site_fract_x
_atom_site_fract_y
_atom_site_fract_z
Si Si1 0.171568 0.363306 0.790417
Si Si2 0.224476 0.524122 0.670095
Si Si3 0.134439 0.855098 0.194751
Si Si4 0.099918 0.293886 0.489525
Si Si5 0.643202 0.822740 0.868958
Si Si6 0.710654 0.146999 0.532491
Si Si7 0.656623 0.008983 0.668072
Si Si8 0.096919 0.140766 0.048875
O O1 0.252868 0.435127 0.705730
O O2 0.438662 0.238765 0.650040
O O3 0.982153 0.274247 0.801461
O O4 0.000000 0.500000 0.000000
O O5 0.500000 0.500000 0.500000
O O6 0.061183 0.463201 0.634968
O O7 0.093241 0.706735 0.840847
O O8 0.160297 0.921046 0.318317
O O9 0.412940 0.773239 0.983792
O O10 0.936323 0.011449 0.306448
O O11 0.242530 0.276500 0.321820
O O12 0.822028 0.276809 0.587396
O O13 0.276442 0.169735 0.423265
O O14 0.876707 0.813167 0.833170
O O15 0.500000 0.000000 0.000000
O O16 0.668302 0.035388 0.570232
O O17 0.366480 0.105785 0.868463
O O18 0.000000 0.000000 0.000000
#
# Coordination Sequence:
#
# PCOD8008249 Si02
#       8
#     2   2   2   2   2   2   2   2
#     4  12  28  46  65 103 145 188 234 293 355 417
#     4  12  29  46  68 102 145 188 231 298 358 413
#     4  10  22  41  71  97 141 181 237 283 347 419
#     4  11  23  45  71 104 144 174 240 294 356 416
#     4  11  22  42  75 106 133 188 235 296 349 416
#     4  11  22  41  72 101 135 182 238 282 348 418
#     4  10  20  42  69 101 131 187 228 285 351 416
#     4  11  25  45  70 100 140 182 232 288 357 432
#
# _framework density 22.882607
#
# number of rings (size 3 to 8) (size 9 to 14) (size 15 to 20)
#    0.000    1.000    3.750    4.875    3.500    3.500 
#    0.000    4.375    0.000    0.000    0.000    0.000 
#    0.000    0.000    0.000    0.000    0.000    0.000 
#
# Total GULP energy -198318.694927 kJ/mol
# GULP energy per Si atom -12394.918433 kJ/mol
# Density = 2.283053 g / cm^3
# Si number density = 22.882607 Si / 1000 Ang^3
#
#
#
# Elastic Constant Matrix: (Units=GPa)
#
#
# Indices 1 2 3 4 5 6 
#
# 1 94.5360 63.1178 42.2297 -1.9088 -7.5078 -4.5023
# 2 63.1178 143.3172 41.5117 0.4834 0.9427 7.1314
# 3 42.2297 41.5117 73.6286 12.3303 5.4810 -6.0690
# 4 -1.9088 0.4834 12.3303 35.5527 -6.6668 11.0531
# 5 -7.5078 0.9427 5.4810 -6.6668 36.0219 3.1964
# 6 -4.5023 7.1314 -6.0690 11.0531 3.1964 37.8197
#
#
#
# Elastic Compliance Matrix: (Units=1/GPa)
#
#
# Indices 1 2 3 4 5 6 
#
# 1 0.019209 -0.005850 -0.009177 0.005624 0.006619 -0.000286
# 2 -0.005850 0.010671 -0.003234 0.001749 -0.000354 -0.003709
# 3 -0.009177 -0.003234 0.024110 -0.012866 -0.008576 0.007871
# 4 0.005624 0.001749 -0.012866 0.039483 0.011656 -0.014249
# 5 0.006619 -0.000354 -0.008576 0.011656 0.033210 -0.006735
# 6 -0.000286 -0.003709 0.007871 -0.014249 -0.006735 0.033103
#
#
# Mechanical properties :
#
#
# Convention : Reuss Voigt Hill
#
# Bulk Modulus (GPa) = 57.24386 67.24449 62.24417
# Shear Modulus (GPa) = 24.73643 32.85369 28.79506
#
# Velocity S-wave (km/s) = 3.29145 3.79324 3.55122
# Velocity P-wave (km/s) = 6.28613 6.97391 6.63893
#
# Compressibility (1/GPa) = 0.01746912
#
# Stress axis : x y z
#
# Youngs Moduli (GPa) = 52.05965 93.70837 41.47610
#
# Poissons Ratio (x) = 0.54817 0.38063
# Poissons Ratio (y) = 0.30454 0.13412
# Poissons Ratio (z) = 0.47776 0.30302
#
# Static dielectric constant tensor:
#      x y z
#    x 4.718970 0.303420 -0.378730 
#    y 0.303420 3.854860 0.169030 
#    z -0.378730 0.169030 4.305110 
# 
# 
# High freq. dielectric constant tensor:
#      x y z
#    x 1.899120 0.009370 -0.007040 
#    y 0.009370 1.910090 -0.010790 
#    z -0.007040 -0.010790 1.910880 
# 
# From -- ./inp_files/500767.got.cif
#   From: 2010.06.25/outbox.cif.g09.slc.cpg/sg2_251_cif.got.tgz:500767.got - 2010.06.27 13:26:56.
