data_PCOD8008611
_publ_section_title
;
Structure prediction by ZEFSAII (Michael W. Deem and Ramdas Pophale) SiO2 
 PCOD8008611
Probable space group: P -1
;
_chemical_formula_sum "Si O2"
_cell_formula_units_Z 12
_cell_length_a 8.372894
_cell_length_b 15.608947
_cell_length_c 11.139003
_cell_angle_alpha 43.001877
_cell_angle_beta 138.864407
_cell_angle_gamma 144.385678
_cell_volume 530.065293
_symmetry_space_group_name_H-M "P -1"
_symmetry_group_IT_number 2
_symmetry_cell_setting 'triclinic'
loop_
_space_group_symop_operation_xyz
x,y,z
-x,-y,-z
loop_
_atom_site_type_symbol
_atom_site_label
_atom_site_fract_x
_atom_site_fract_y
_atom_site_fract_z
Si Si1 0.704715 0.651238 0.539901
Si Si2 0.407447 0.934485 0.381776
Si Si3 0.735187 0.332166 0.564114
Si Si4 0.827101 0.143932 0.999590
Si Si5 0.778614 0.216837 0.144668
Si Si6 0.844224 0.886892 0.178819
O O1 0.500000 0.500000 0.500000
O O2 0.520147 0.659198 0.533500
O O3 0.854363 0.802368 0.388282
O O4 0.975954 0.654346 0.754134
O O5 0.379587 0.775981 0.509492
O O6 0.085442 0.904623 0.202563
O O7 0.500000 0.000000 0.500000
O O8 0.639552 0.048432 0.295394
O O9 0.000000 0.500000 0.500000
O O10 0.843998 0.261095 0.793845
O O11 0.960800 0.237471 0.104617
O O12 0.973891 0.062462 0.112361
O O13 0.500000 0.000000 0.000000
O O14 0.494826 0.222892 0.953923
#
# Coordination Sequence:
#
# PCOD8008611 Si02
#       6
#     2   2   2   2   2   2
#     4  12  26  46  69 103 146 191 239 298 362 420
#     4  12  24  41  73 113 140 188 235 294 355 422
#     4  12  26  47  70 103 152 181 238 305 357 420
#     4  10  20  44  72 101 131 190 235 290 357 418
#     4  11  23  43  74 100 136 195 237 291 350 419
#     4  11  22  44  72 103 143 176 244 289 349 437
#
# _framework density 22.638719999999999
#
# number of rings (size 3 to 8) (size 9 to 14) (size 15 to 20)
#    0.000    0.667    8.333    1.500    2.333    2.000 
#    0.000    0.833    0.000    0.000    0.000    0.000 
#    0.000    0.000    0.000    0.000    0.000    0.000 
#
# Total GULP energy -148706.642236 kJ/mol
# GULP energy per Si atom -12392.220186 kJ/mol
# Density = 2.258719 g / cm^3
# Si number density = 22.638720 Si / 1000 Ang^3
#
#
#
# Elastic Constant Matrix: (Units=GPa)
#
#
# Indices 1 2 3 4 5 6 
#
# 1 106.7425 53.1910 30.6780 -0.6974 1.1653 -19.8466
# 2 53.1910 122.4125 47.6550 17.5267 -4.1508 -21.0854
# 3 30.6780 47.6550 101.3199 16.2019 -11.0261 -7.8022
# 4 -0.6974 17.5267 16.2019 46.0641 7.0080 -9.7776
# 5 1.1653 -4.1508 -11.0261 7.0080 46.3016 -5.7746
# 6 -19.8466 -21.0854 -7.8022 -9.7776 -5.7746 34.1165
#
#
#
# Elastic Compliance Matrix: (Units=1/GPa)
#
#
# Indices 1 2 3 4 5 6 
#
# 1 0.013357 -0.004637 -0.002238 0.004077 -0.001234 0.005353
# 2 -0.004637 0.012725 -0.003671 -0.003038 0.001302 0.003678
# 3 -0.002238 -0.003671 0.013193 -0.004028 0.003336 -0.001143
# 4 0.004077 -0.003038 -0.004028 0.026384 -0.004533 0.006367
# 5 -0.001234 0.001302 0.003336 -0.004533 0.023669 0.003557
# 6 0.005353 0.003678 -0.001143 0.006367 0.003557 0.036864
#
#
# Mechanical properties :
#
#
# Convention : Reuss Voigt Hill
#
# Bulk Modulus (GPa) = 54.98857 65.94697 60.46777
# Shear Modulus (GPa) = 32.60626 38.55983 35.58305
#
# Velocity S-wave (km/s) = 3.79923 4.13155 3.96887
# Velocity P-wave (km/s) = 6.60211 7.20784 6.91161
#
# Compressibility (1/GPa) = 0.01818560
#
# Stress axis : x y z
#
# Youngs Moduli (GPa) = 74.86587 78.58276 75.79871
#
# Poissons Ratio (x) = 0.36435 0.16962
# Poissons Ratio (y) = 0.34712 0.27823
# Poissons Ratio (z) = 0.16753 0.28845
#
# Static dielectric constant tensor:
#      x y z
#    x 4.838670 -0.717760 -0.141620 
#    y -0.717760 3.721870 -0.111870 
#    z -0.141620 -0.111870 4.113820 
# 
# 
# High freq. dielectric constant tensor:
#      x y z
#    x 1.908100 -0.007940 -0.013020 
#    y -0.007940 1.871620 0.008540 
#    z -0.013020 0.008540 1.889370 
# 
# From -- ./inp_files/393712.got.cif
#   From: 2010.06.25/outbox.cif.g09.slc.cpg/sg2_197_cif.got.tgz:393712.got - 2010.06.27 13:26:56.
