data_PCOD8008632
_publ_section_title
;
Structure prediction by ZEFSAII (Michael W. Deem and Ramdas Pophale) SiO2 
 PCOD8008632
Probable space group: P -1
;
_chemical_formula_sum "Si O2"
_cell_formula_units_Z 16
_cell_length_a 8.683858
_cell_length_b 8.903034
_cell_length_c 10.800935
_cell_angle_alpha 115.028747
_cell_angle_beta 97.962960
_cell_angle_gamma 98.883384
_cell_volume 727.916704
_symmetry_space_group_name_H-M "P -1"
_symmetry_group_IT_number 2
_symmetry_cell_setting 'triclinic'
loop_
_space_group_symop_operation_xyz
x,y,z
-x,-y,-z
loop_
_atom_site_type_symbol
_atom_site_label
_atom_site_fract_x
_atom_site_fract_y
_atom_site_fract_z
Si Si1 0.768255 0.269552 0.982354
Si Si2 0.587828 0.184652 0.458419
Si Si3 0.238079 0.391095 0.761572
Si Si4 0.817920 0.500365 0.479305
Si Si5 0.746965 0.815331 0.694940
Si Si6 0.815813 0.963541 0.004729
Si Si7 0.015959 0.146729 0.811233
Si Si8 0.496587 0.806403 0.278094
O O1 0.931820 0.269529 0.926564
O O2 0.618852 0.195265 0.851296
O O3 0.764548 0.455190 0.092189
O O4 0.756453 0.140279 0.054465
O O5 0.715571 0.313741 0.435929
O O6 0.408630 0.189194 0.403738
O O7 0.610515 0.234665 0.623277
O O8 0.613085 0.995449 0.370999
O O9 0.234117 0.445285 0.639680
O O10 0.400938 0.332299 0.780306
O O11 0.080947 0.240422 0.723225
O O12 0.792458 0.635177 0.625683
O O13 0.000000 0.500000 0.500000
O O14 0.889771 0.967313 0.710047
O O15 0.714990 0.838062 0.845641
O O16 0.818914 0.880780 0.111967
O O17 0.000000 0.000000 0.000000
#
# Coordination Sequence:
#
# PCOD8008632 Si02
#       8
#     2   2   2   2   2   2   2   2
#     4  10  21  44  67  98 131 176 219 268 330 389
#     4  11  24  48  69  92 133 176 222 266 332 399
#     4  12  27  41  64 102 140 164 224 273 326 385
#     4  12  30  42  67 101 132 170 216 282 330 392
#     4  10  20  45  70  94 127 177 224 258 332 392
#     4   8  18  38  70  93 126 170 219 262 317 390
#     4  10  23  42  72  98 133 176 217 276 320 391
#     4  11  24  44  70  98 129 177 222 270 329 389
#
# _framework density 21.980537999999999
#
# number of rings (size 3 to 8) (size 9 to 14) (size 15 to 20)
#    0.000    1.750    3.750    1.125    8.750    1.500 
#    2.250    1.250    0.000    0.000    0.000    0.000 
#    0.000    0.000    0.000    0.000    0.000    0.000 
#
# Total GULP energy -198351.288301 kJ/mol
# GULP energy per Si atom -12396.955519 kJ/mol
# Density = 2.193051 g / cm^3
# Si number density = 21.980538 Si / 1000 Ang^3
#
#
#
# Elastic Constant Matrix: (Units=GPa)
#
#
# Indices 1 2 3 4 5 6 
#
# 1 79.4616 62.8210 29.6947 -4.0267 8.4140 -11.5532
# 2 62.8210 138.5615 41.9188 -3.9435 -1.8192 2.4591
# 3 29.6947 41.9188 59.8360 7.1999 9.7755 0.5274
# 4 -4.0267 -3.9435 7.1999 24.9981 -3.2704 -4.2327
# 5 8.4140 -1.8192 9.7755 -3.2704 24.4100 0.3744
# 6 -11.5532 2.4591 0.5274 -4.2327 0.3744 49.7973
#
#
#
# Elastic Compliance Matrix: (Units=1/GPa)
#
#
# Indices 1 2 3 4 5 6 
#
# 1 0.023501 -0.009370 -0.004543 0.003830 -0.006564 0.006338
# 2 -0.009370 0.013637 -0.006429 0.003007 0.007263 -0.002578
# 3 -0.004543 -0.006429 0.026638 -0.011183 -0.011051 -0.001886
# 4 0.003830 0.003007 -0.011183 0.046362 0.009521 0.004728
# 5 -0.006564 0.007263 -0.011051 0.009521 0.049492 -0.001327
# 6 0.006338 -0.002578 -0.001886 0.004728 -0.001327 0.022111
#
#
# Mechanical properties :
#
#
# Convention : Reuss Voigt Hill
#
# Bulk Modulus (GPa) = 43.30493 60.74759 52.02626
# Shear Modulus (GPa) = 21.72758 29.40273 25.56516
#
# Velocity S-wave (km/s) = 3.14744 3.66139 3.41410
# Velocity P-wave (km/s) = 5.74045 6.75065 6.26594
#
# Compressibility (1/GPa) = 0.02309206
#
# Stress axis : x y z
#
# Youngs Moduli (GPa) = 42.55176 73.33012 37.53965
#
# Poissons Ratio (x) = 0.68711 0.17053
# Poissons Ratio (y) = 0.39871 0.24135
# Poissons Ratio (z) = 0.19330 0.47145
#
# Static dielectric constant tensor:
#      x y z
#    x 3.813390 -0.026300 0.151430 
#    y -0.026300 4.535560 -0.135990 
#    z 0.151430 -0.135990 4.452650 
# 
# 
# High freq. dielectric constant tensor:
#      x y z
#    x 1.849720 -0.021470 0.003120 
#    y -0.021470 1.877420 -0.001300 
#    z 0.003120 -0.001300 1.861960 
# 
# From -- ./inp_files/377194.got.cif
#   From: 2010.06.25/outbox.cif.g09.slc.cpg/sg2_189_cif.got.tgz:377194.got - 2010.06.27 13:26:56.
