data_PCOD8008077
_publ_section_title
;
Structure prediction by ZEFSAII (Michael W. Deem and Ramdas Pophale) SiO2 
 PCOD8008077
Probable space group: P -1
;
_chemical_formula_sum "Si O2"
_cell_formula_units_Z 16
_cell_length_a 8.773776
_cell_length_b 13.372177
_cell_length_c 11.500531
_cell_angle_alpha 36.741880
_cell_angle_beta 86.937579
_cell_angle_gamma 96.909098
_cell_volume 775.382521
_symmetry_space_group_name_H-M "P -1"
_symmetry_group_IT_number 2
_symmetry_cell_setting 'triclinic'
loop_
_space_group_symop_operation_xyz
x,y,z
-x,-y,-z
loop_
_atom_site_type_symbol
_atom_site_label
_atom_site_fract_x
_atom_site_fract_y
_atom_site_fract_z
Si Si1 0.607153 0.906406 0.655649
Si Si2 0.131154 0.431994 0.617217
Si Si3 0.934545 0.174664 0.038601
Si Si4 0.056134 0.950933 0.422486
Si Si5 0.644485 0.311706 0.959166
Si Si6 0.730754 0.836730 0.273989
Si Si7 0.433735 0.663413 0.330374
Si Si8 0.740250 0.707033 0.640528
O O1 0.671128 0.776325 0.692888
O O2 0.500000 0.000000 0.500000
O O3 0.758972 0.046994 0.577038
O O4 0.507987 0.804596 0.861325
O O5 0.183072 0.300882 0.650108
O O6 0.273481 0.609311 0.465327
O O7 0.000000 0.500000 0.500000
O O8 0.066310 0.335288 0.828677
O O9 0.848503 0.030900 0.079324
O O10 0.797024 0.241258 0.044136
O O11 0.033760 0.094088 0.198849
O O12 0.934470 0.763317 0.572660
O O13 0.000000 0.000000 0.500000
O O14 0.607551 0.309380 0.826254
O O15 0.679423 0.501628 0.834923
O O16 0.568005 0.831643 0.215104
O O17 0.679578 0.791022 0.452253
O O18 0.500000 0.500000 0.500000
#
# Coordination Sequence:
#
# PCOD8008077 Si02
#       8
#     2   2   2   2   2   2   2   2
#     4  11  24  43  66  92 122 158 206 255 309 366
#     4  11  20  39  58  89 119 163 202 250 298 358
#     4  11  23  39  63  89 126 164 205 250 303 366
#     4   9  21  41  63  88 119 158 202 254 302 360
#     4  12  22  41  63  93 124 167 202 253 307 357
#     4  10  21  39  61  89 127 162 200 254 306 354
#     4  10  21  38  62  87 131 158 205 253 303 359
#     4  10  20  42  65  90 125 161 202 255 303 363
#
# _framework density 20.634975000000001
#
# number of rings (size 3 to 8) (size 9 to 14) (size 15 to 20)
#    0.000    1.500    3.750    3.000    3.500    0.500 
#    0.000   11.875    0.000    0.000    0.000    0.000 
#    0.000    0.000    0.000    0.000    0.000    0.000 
#
# Total GULP energy -198281.899940 kJ/mol
# GULP energy per Si atom -12392.618746 kJ/mol
# Density = 2.058801 g / cm^3
# Si number density = 20.634975 Si / 1000 Ang^3
#
#
#
# Elastic Constant Matrix: (Units=GPa)
#
#
# Indices 1 2 3 4 5 6 
#
# 1 155.9494 37.4255 56.7164 0.2402 -17.7436 25.3969
# 2 37.4255 65.4253 21.8894 -3.3974 -12.1593 13.4053
# 3 56.7164 21.8894 103.7690 5.3442 -24.9696 14.1823
# 4 0.2402 -3.3974 5.3442 26.3709 -4.8963 -2.3133
# 5 -17.7436 -12.1593 -24.9696 -4.8963 39.9021 3.4461
# 6 25.3969 13.4053 14.1823 -2.3133 3.4461 36.6082
#
#
#
# Elastic Compliance Matrix: (Units=1/GPa)
#
#
# Indices 1 2 3 4 5 6 
#
# 1 0.009235 -0.003012 -0.003544 0.000139 0.001338 -0.004048
# 2 -0.003012 0.019349 -0.000735 0.003145 0.004912 -0.004975
# 3 -0.003544 -0.000735 0.013991 -0.001899 0.007022 -0.003473
# 4 0.000139 0.003145 -0.001899 0.039695 0.004568 0.001566
# 5 0.001338 0.004912 0.007022 0.004568 0.032820 -0.008248
# 6 -0.004048 -0.004975 -0.003473 0.001566 -0.008248 0.034167
#
#
# Mechanical properties :
#
#
# Convention : Reuss Voigt Hill
#
# Bulk Modulus (GPa) = 35.72401 61.91183 48.81792
# Shear Modulus (GPa) = 28.87298 34.51705 31.69502
#
# Velocity S-wave (km/s) = 3.74468 4.09436 3.92342
# Velocity P-wave (km/s) = 6.00390 7.24018 6.65083
#
# Compressibility (1/GPa) = 0.02799238
#
# Stress axis : x y z
#
# Youngs Moduli (GPa) = 108.27857 51.68215 71.47260
#
# Poissons Ratio (x) = 0.15566 0.25333
# Poissons Ratio (y) = 0.32611 0.05257
# Poissons Ratio (z) = 0.38379 0.03801
#
# Static dielectric constant tensor:
#      x y z
#    x 4.556290 0.571060 -0.446330 
#    y 0.571060 4.075130 -0.286670 
#    z -0.446330 -0.286670 3.851040 
# 
# 
# High freq. dielectric constant tensor:
#      x y z
#    x 1.819160 0.013870 -0.012880 
#    y 0.013870 1.790390 0.003570 
#    z -0.012880 0.003570 1.814250 
# 
# From -- ./inp_files/398180.got.cif
#   From: 2010.06.25/outbox.cif.g09.slc.cpg/sg2_200_cif.got.tgz:398180.got - 2010.06.27 13:26:56.
