data_PCOD8008932
_publ_section_title
;
Structure prediction by ZEFSAII (Michael W. Deem and Ramdas Pophale) SiO2 
 PCOD8008932
Probable space group: P -1
;
_chemical_formula_sum "Si O2"
_cell_formula_units_Z 16
_cell_length_a 11.004984
_cell_length_b 10.787792
_cell_length_c 6.509219
_cell_angle_alpha 87.920047
_cell_angle_beta 72.726734
_cell_angle_gamma 93.989422
_cell_volume 734.813825
_symmetry_space_group_name_H-M "P -1"
_symmetry_group_IT_number 2
_symmetry_cell_setting 'triclinic'
loop_
_space_group_symop_operation_xyz
x,y,z
-x,-y,-z
loop_
_atom_site_type_symbol
_atom_site_label
_atom_site_fract_x
_atom_site_fract_y
_atom_site_fract_z
Si Si1 0.374296 0.423928 0.979510
Si Si2 0.551910 0.318500 0.611318
Si Si3 0.757128 0.492428 0.319316
Si Si4 0.794540 0.711460 0.589059
Si Si5 0.405858 0.877683 0.730395
Si Si6 0.052692 0.636663 0.528953
Si Si7 0.741226 0.196903 0.803683
Si Si8 0.321818 0.035041 0.401422
O O1 0.413147 0.340022 0.771123
O O2 0.268747 0.504383 0.915619
O O3 0.500000 0.500000 0.000000
O O4 0.313150 0.343640 0.198233
O O5 0.625642 0.450340 0.506354
O O6 0.540370 0.231622 0.424459
O O7 0.620838 0.255083 0.765096
O O8 0.805251 0.626232 0.385193
O O9 0.855422 0.384938 0.319281
O O10 0.762134 0.848620 0.536184
O O11 0.932515 0.715840 0.635336
O O12 0.536279 0.934881 0.772512
O O13 0.342045 0.980225 0.621142
O O14 0.293184 0.822870 0.939270
O O15 0.132975 0.709396 0.301359
O O16 0.000000 0.500000 0.500000
O O17 0.758698 0.063983 0.696541
#
# Coordination Sequence:
#
# PCOD8008932 Si02
#       8
#     2   2   2   2   2   2   2   2
#     4  12  24  35  62  99 128 168 202 257 332 386
#     4  10  21  35  59  95 124 158 206 254 322 384
#     4  10  22  39  59  90 129 165 213 255 314 383
#     4  11  23  41  62  89 135 169 210 271 307 367
#     4  10  21  38  64  89 131 165 204 262 318 381
#     4   9  22  44  65  90 127 171 220 262 306 375
#     4  10  21  40  64  89 122 172 213 254 314 375
#     4  10  22  37  59  95 126 166 209 260 319 372
#
# _framework density 21.774222000000002
#
# number of rings (size 3 to 8) (size 9 to 14) (size 15 to 20)
#    0.000    1.750    1.250    2.250    3.500    4.000 
#    0.000    6.875    0.000    0.000    0.000    0.000 
#    0.000    0.000    0.000    0.000    0.000    0.000 
#
# Total GULP energy -198305.234101 kJ/mol
# GULP energy per Si atom -12394.077131 kJ/mol
# Density = 2.172466 g / cm^3
# Si number density = 21.774222 Si / 1000 Ang^3
#
#
#
# Elastic Constant Matrix: (Units=GPa)
#
#
# Indices 1 2 3 4 5 6 
#
# 1 107.1386 44.2731 37.8470 -3.7065 -2.9398 -1.3449
# 2 44.2731 110.3786 42.8544 -13.0941 -6.5955 -5.4987
# 3 37.8470 42.8544 80.7358 -11.3585 0.8731 6.0730
# 4 -3.7065 -13.0941 -11.3585 21.5785 1.9242 -4.3835
# 5 -2.9398 -6.5955 0.8731 1.9242 31.7904 -9.9550
# 6 -1.3449 -5.4987 6.0730 -4.3835 -9.9550 33.8118
#
#
#
# Elastic Compliance Matrix: (Units=1/GPa)
#
#
# Indices 1 2 3 4 5 6 
#
# 1 0.012212 -0.003405 -0.004282 -0.002163 0.000885 0.000681
# 2 -0.003405 0.013592 -0.005245 0.005548 0.003837 0.004866
# 3 -0.004282 -0.005245 0.018292 0.005080 -0.003786 -0.004765
# 4 -0.002163 0.005548 0.005080 0.053407 -0.000312 0.006736
# 5 0.000885 0.003837 -0.003786 -0.000312 0.036201 0.011957
# 6 0.000681 0.004866 -0.004765 0.006736 0.011957 0.035643
#
#
# Mechanical properties :
#
#
# Convention : Reuss Voigt Hill
#
# Bulk Modulus (GPa) = 54.85540 60.91134 57.88337
# Shear Modulus (GPa) = 24.83994 28.98804 26.91399
#
# Velocity S-wave (km/s) = 3.38123 3.65266 3.51956
# Velocity P-wave (km/s) = 6.36326 6.76934 6.56944
#
# Compressibility (1/GPa) = 0.01822975
#
# Stress axis : x y z
#
# Youngs Moduli (GPa) = 81.88958 73.57303 54.67014
#
# Poissons Ratio (x) = 0.25055 0.23410
# Poissons Ratio (y) = 0.27887 0.28675
# Poissons Ratio (z) = 0.35065 0.38590
#
# Static dielectric constant tensor:
#      x y z
#    x 4.312400 -0.101300 0.142900 
#    y -0.101300 4.147130 -0.177810 
#    z 0.142900 -0.177810 3.744620 
# 
# 
# High freq. dielectric constant tensor:
#      x y z
#    x 1.849320 -0.003540 0.009150 
#    y -0.003540 1.855920 -0.016680 
#    z 0.009150 -0.016680 1.837960 
# 
# From -- ./inp_files/69789.got.cif
#   From: 2010.06.25/outbox.cif.g09.slc.cpg/sg2_35_cif.got.tgz:69789.got - 2010.06.27 13:26:56.
