data_PCOD8008236
_publ_section_title
;
Structure prediction by ZEFSAII (Michael W. Deem and Ramdas Pophale) SiO2 
 PCOD8008236
Probable space group: P -1
;
_chemical_formula_sum "Si O2"
_cell_formula_units_Z 14
_cell_length_a 12.776695
_cell_length_b 9.038888
_cell_length_c 11.865464
_cell_angle_alpha 82.668866
_cell_angle_beta 133.962225
_cell_angle_gamma 129.270866
_cell_volume 632.859172
_symmetry_space_group_name_H-M "P -1"
_symmetry_group_IT_number 2
_symmetry_cell_setting 'triclinic'
loop_
_space_group_symop_operation_xyz
x,y,z
-x,-y,-z
loop_
_atom_site_type_symbol
_atom_site_label
_atom_site_fract_x
_atom_site_fract_y
_atom_site_fract_z
Si Si1 0.386986 0.271756 0.494214
Si Si2 0.397719 0.992819 0.144920
Si Si3 0.871197 0.051012 0.868946
Si Si4 0.280610 0.584552 0.083370
Si Si5 0.388665 0.139871 0.893331
Si Si6 0.143240 0.758260 0.562574
Si Si7 0.975152 0.928816 0.362195
O O1 0.500000 0.500000 0.500000
O O2 0.563052 0.329499 0.701401
O O3 0.300109 0.094955 0.348337
O O4 0.172157 0.160357 0.414873
O O5 0.281319 0.025458 0.131004
O O6 0.226624 0.719302 0.032032
O O7 0.636220 0.115574 0.358166
O O8 0.470678 0.114902 0.066175
O O9 0.048997 0.315886 0.942746
O O10 0.000000 0.000000 0.000000
O O11 0.407518 0.646661 0.054839
O O12 0.263668 0.190761 0.843430
O O13 0.220941 0.899485 0.722469
O O14 0.000000 0.500000 0.500000
O O15 0.995122 0.764087 0.381466
O O16 0.000000 0.000000 0.500000
#
# Coordination Sequence:
#
# PCOD8008236 Si02
#       7
#     2   2   2   2   2   2   2
#     4  12  24  43  71  96 142 179 223 284 341 403
#     4  11  24  47  66 100 138 179 224 286 342 400
#     4  12  27  44  68 100 138 184 232 269 347 418
#     4  11  23  48  68 101 138 176 229 288 338 402
#     4  10  22  43  73  93 137 176 224 284 341 395
#     4  10  21  38  65 101 136 163 223 281 335 399
#     4  10  20  42  68  96 129 177 223 274 336 402
#
# _framework density 22.121824
#
# number of rings (size 3 to 8) (size 9 to 14) (size 15 to 20)
#    0.000    1.143    5.714    3.000    0.000    6.286 
#    0.000    2.143    0.000    0.000    0.000    0.000 
#    0.000    0.000    0.000    0.000    0.000    0.000 
#
# Total GULP energy -173531.558376 kJ/mol
# GULP energy per Si atom -12395.111313 kJ/mol
# Density = 2.207147 g / cm^3
# Si number density = 22.121824 Si / 1000 Ang^3
#
#
#
# Elastic Constant Matrix: (Units=GPa)
#
#
# Indices 1 2 3 4 5 6 
#
# 1 151.7625 60.6728 43.1264 -5.0465 15.6113 6.2306
# 2 60.6728 152.0641 37.6975 2.1031 1.0294 10.2203
# 3 43.1264 37.6975 78.5104 -3.3262 -5.0426 -1.0788
# 4 -5.0465 2.1031 -3.3262 41.4406 -2.7220 0.6881
# 5 15.6113 1.0294 -5.0426 -2.7220 32.6618 -15.6089
# 6 6.2306 10.2203 -1.0788 0.6881 -15.6089 34.5439
#
#
#
# Elastic Compliance Matrix: (Units=1/GPa)
#
#
# Indices 1 2 3 4 5 6 
#
# 1 0.009909 -0.002401 -0.004820 0.000520 -0.007592 -0.004668
# 2 -0.002401 0.008430 -0.002858 -0.000963 -0.000840 -0.002511
# 3 -0.004820 -0.002858 0.017409 0.001383 0.007988 0.005841
# 4 0.000520 -0.000963 0.001383 0.024501 0.002443 0.000850
# 5 -0.007592 -0.000840 0.007988 0.002443 0.046652 0.022899
# 6 -0.004668 -0.002511 0.005841 0.000850 0.022899 0.041046
#
#
# Mechanical properties :
#
#
# Convention : Reuss Voigt Hill
#
# Bulk Modulus (GPa) = 64.14301 73.92562 69.03432
# Shear Modulus (GPa) = 28.85140 37.78527 33.31833
#
# Velocity S-wave (km/s) = 3.61530 4.13734 3.88510
# Velocity P-wave (km/s) = 6.81802 7.50424 7.16934
#
# Compressibility (1/GPa) = 0.01559016
#
# Stress axis : x y z
#
# Youngs Moduli (GPa) = 100.92245 118.61815 57.44074
#
# Poissons Ratio (x) = 0.28476 0.27686
# Poissons Ratio (y) = 0.24228 0.16419
# Poissons Ratio (z) = 0.48644 0.33907
#
# Static dielectric constant tensor:
#      x y z
#    x 4.073850 0.042780 0.280680 
#    y 0.042780 4.285430 -0.247510 
#    z 0.280680 -0.247510 4.255110 
# 
# 
# High freq. dielectric constant tensor:
#      x y z
#    x 1.871140 0.003580 0.012040 
#    y 0.003580 1.882240 -0.012810 
#    z 0.012040 -0.012810 1.861890 
# 
# From -- ./inp_files/417218.got.cif
#   From: 2010.06.25/outbox.cif.g09.slc.cpg/sg2_209_cif.got.tgz:417218.got - 2010.06.27 13:26:56.
