data_PCOD8008172
_publ_section_title
;
Structure prediction by ZEFSAII (Michael W. Deem and Ramdas Pophale) SiO2 
 PCOD8008172
Probable space group: P -1
;
_chemical_formula_sum "Si O2"
_cell_formula_units_Z 16
_cell_length_a 13.900500
_cell_length_b 11.616688
_cell_length_c 14.300786
_cell_angle_alpha 117.391119
_cell_angle_beta 40.360067
_cell_angle_gamma 146.443172
_cell_volume 721.200928
_symmetry_space_group_name_H-M "P -1"
_symmetry_group_IT_number 2
_symmetry_cell_setting 'triclinic'
loop_
_space_group_symop_operation_xyz
x,y,z
-x,-y,-z
loop_
_atom_site_type_symbol
_atom_site_label
_atom_site_fract_x
_atom_site_fract_y
_atom_site_fract_z
Si Si1 0.505238 0.976042 0.339298
Si Si2 0.193180 0.260623 0.176617
Si Si3 0.643017 0.903555 0.370001
Si Si4 0.862667 0.054622 0.810656
Si Si5 0.278022 0.412901 0.491424
Si Si6 0.580315 0.760793 0.727113
Si Si7 0.966071 0.328229 0.986627
Si Si8 0.089068 0.805258 0.473135
O O1 0.477594 0.083620 0.462366
O O2 0.794989 0.192892 0.156466
O O3 0.515538 0.850231 0.344162
O O4 0.249173 0.794723 0.388964
O O5 0.131590 0.304031 0.328895
O O6 0.142915 0.074993 0.169262
O O7 0.500000 0.500000 0.000000
O O8 0.974767 0.144414 0.214903
O O9 0.560100 0.698125 0.388343
O O10 0.166844 0.305907 0.638055
O O11 0.645555 0.883630 0.822097
O O12 0.804821 0.133925 0.950986
O O13 0.274140 0.272245 0.388548
O O14 0.069494 0.350155 0.561949
O O15 0.684145 0.919140 0.619795
O O16 0.264792 0.491867 0.848750
O O17 0.000000 0.500000 0.000000
#
# Coordination Sequence:
#
# PCOD8008172 Si02
#       8
#     2   2   2   2   2   2   2   2
#     4  10  23  45  58  96 136 178 223 267 323 407
#     4  11  23  41  66  99 131 173 220 278 337 390
#     4  10  24  42  70  92 131 183 227 267 336 400
#     4  11  24  42  67 105 133 171 224 281 341 390
#     4  11  21  41  72 101 123 173 225 282 336 396
#     4  11  22  42  70 100 134 169 223 281 335 397
#     4  12  25  41  67  98 140 180 220 277 333 401
#     4  10  20  42  67  90 135 167 216 274 328 396
#
# _framework density 22.185217000000002
#
# number of rings (size 3 to 8) (size 9 to 14) (size 15 to 20)
#    0.000    1.250    3.750    2.250    3.500    3.000 
#    2.250    1.875    0.000    0.000    0.000    0.000 
#    0.000    0.000    0.000    0.000    0.000    0.000 
#
# Total GULP energy -198311.000607 kJ/mol
# GULP energy per Si atom -12394.437538 kJ/mol
# Density = 2.213472 g / cm^3
# Si number density = 22.185217 Si / 1000 Ang^3
#
#
#
# Elastic Constant Matrix: (Units=GPa)
#
#
# Indices 1 2 3 4 5 6 
#
# 1 126.9795 32.9990 47.2190 -4.1562 4.7513 -4.7467
# 2 32.9990 88.5805 36.0344 -4.0431 5.0594 -9.9347
# 3 47.2190 36.0344 137.4566 -25.6050 7.3028 -2.6165
# 4 -4.1562 -4.0431 -25.6050 29.0005 -2.6293 2.3201
# 5 4.7513 5.0594 7.3028 -2.6293 22.6537 -7.9151
# 6 -4.7467 -9.9347 -2.6165 2.3201 -7.9151 29.3227
#
#
#
# Elastic Compliance Matrix: (Units=1/GPa)
#
#
# Indices 1 2 3 4 5 6 
#
# 1 0.009564 -0.002360 -0.002933 -0.001636 -0.000561 0.000465
# 2 -0.002360 0.013785 -0.002965 -0.001391 -0.000381 0.004031
# 3 -0.002933 -0.002965 0.010726 0.008610 -0.001768 -0.001681
# 4 -0.001636 -0.001391 0.008610 0.042042 0.001774 -0.002816
# 5 -0.000561 -0.000381 -0.001768 0.001774 0.049620 0.012876
# 6 0.000465 0.004031 -0.001681 -0.002816 0.012876 0.039093
#
#
# Mechanical properties :
#
#
# Convention : Reuss Voigt Hill
#
# Bulk Modulus (GPa) = 56.95343 65.05796 61.00570
# Shear Modulus (GPa) = 26.70952 31.97965 29.34458
#
# Velocity S-wave (km/s) = 3.47354 3.80081 3.64085
# Velocity P-wave (km/s) = 6.46644 6.97496 6.72551
#
# Compressibility (1/GPa) = 0.01755820
#
# Stress axis : x y z
#
# Youngs Moduli (GPa) = 104.55767 72.54235 93.23451
#
# Poissons Ratio (x) = 0.17123 0.27343
# Poissons Ratio (y) = 0.24680 0.27646
# Poissons Ratio (z) = 0.30664 0.21510
#
# Static dielectric constant tensor:
#      x y z
#    x 4.392780 -0.064530 0.061770 
#    y -0.064530 3.247030 0.647360 
#    z 0.061770 0.647360 2.857590 
# 
# 
# High freq. dielectric constant tensor:
#      x y z
#    x 1.886590 0.001190 0.002380 
#    y 0.001190 1.858830 -0.008600 
#    z 0.002380 -0.008600 1.865540 
# 
# From -- ./inp_files/209207.got.cif
#   From: 2010.06.25/outbox.cif.g09.slc.cpg/sg2_105_cif.got.tgz:209207.got - 2010.06.27 13:26:56.
