data_PCOD8008887
_publ_section_title
;
Structure prediction by ZEFSAII (Michael W. Deem and Ramdas Pophale) SiO2 
 PCOD8008887
Probable space group: P -1
;
_chemical_formula_sum "Si O2"
_cell_formula_units_Z 14
_cell_length_a 12.030109
_cell_length_b 13.812003
_cell_length_c 8.858401
_cell_angle_alpha 46.369947
_cell_angle_beta 46.189085
_cell_angle_gamma 63.818930
_cell_volume 766.935584
_symmetry_space_group_name_H-M "P -1"
_symmetry_group_IT_number 2
_symmetry_cell_setting 'triclinic'
loop_
_space_group_symop_operation_xyz
x,y,z
-x,-y,-z
loop_
_atom_site_type_symbol
_atom_site_label
_atom_site_fract_x
_atom_site_fract_y
_atom_site_fract_z
Si Si1 0.154192 0.564485 0.473980
Si Si2 0.368294 0.401378 0.654000
Si Si3 0.201915 0.512160 0.146412
Si Si4 0.355463 0.285341 0.089276
Si Si5 0.328724 0.786508 0.211365
Si Si6 0.544363 0.984064 0.646859
Si Si7 0.373914 0.748243 0.551482
O O1 0.236621 0.470762 0.614201
O O2 0.226652 0.552690 0.252882
O O3 0.176042 0.720215 0.342777
O O4 0.974986 0.522251 0.689451
O O5 0.500000 0.500000 0.500000
O O6 0.453517 0.301041 0.571685
O O7 0.278588 0.317226 0.964973
O O8 0.297991 0.381932 0.168895
O O9 0.260039 0.633843 0.854104
O O10 0.329203 0.128735 0.332143
O O11 0.540399 0.314161 0.855642
O O12 0.305922 0.787517 0.411209
O O13 0.386404 0.936256 0.939197
O O14 0.500000 0.000000 0.500000
O O15 0.620939 0.122518 0.486725
#
# Coordination Sequence:
#
# PCOD8008887 Si02
#       7
#     2   2   2   2   2   2   2
#     4  11  22  36  55  85 120 141 194 224 288 326
#     4  11  18  35  57  88 107 144 187 241 269 327
#     4  11  23  35  57  85 114 156 175 237 278 338
#     4   9  20  36  54  85 109 142 192 222 283 320
#     4   9  19  36  56  83 110 145 185 233 265 333
#     4  10  21  35  57  86 114 147 183 234 278 333
#     4  11  20  35  60  83 114 144 188 227 285 321
#
# _framework density 18.254467000000002
#
# number of rings (size 3 to 8) (size 9 to 14) (size 15 to 20)
#    0.857    0.857    4.286    1.286    2.000    3.429 
#    0.000    0.000    3.143    4.286    0.000    0.000 
#    0.000    0.000    0.000    0.000    0.000    0.000 
#
# Total GULP energy -173474.386172 kJ/mol
# GULP energy per Si atom -12391.027584 kJ/mol
# Density = 1.821292 g / cm^3
# Si number density = 18.254467 Si / 1000 Ang^3
#
#
#
# Elastic Constant Matrix: (Units=GPa)
#
#
# Indices 1 2 3 4 5 6 
#
# 1 77.4564 25.5937 18.3278 0.9068 12.2384 14.4314
# 2 25.5937 103.2078 35.9173 -8.4909 1.0119 18.8418
# 3 18.3278 35.9173 73.3877 -1.1190 15.2353 2.6203
# 4 0.9068 -8.4909 -1.1190 28.3573 5.7776 5.9929
# 5 12.2384 1.0119 15.2353 5.7776 25.2623 -4.3323
# 6 14.4314 18.8418 2.6203 5.9929 -4.3323 23.2328
#
#
#
# Elastic Compliance Matrix: (Units=1/GPa)
#
#
# Indices 1 2 3 4 5 6 
#
# 1 0.017666 -0.001231 -0.000991 0.004019 -0.011053 -0.012961
# 2 -0.001231 0.015141 -0.006602 0.006904 0.000248 -0.012505
# 3 -0.000991 -0.006602 0.019293 0.000669 -0.010767 0.001614
# 4 0.004019 0.006904 0.000669 0.045577 -0.017012 -0.023100
# 5 -0.011053 0.000248 -0.010767 -0.017012 0.059314 0.023328
# 6 -0.012961 -0.012505 0.001614 -0.023100 0.023328 0.071361
#
#
# Mechanical properties :
#
#
# Convention : Reuss Voigt Hill
#
# Bulk Modulus (GPa) = 29.02651 45.96994 37.49823
# Shear Modulus (GPa) = 19.41866 26.98470 23.20168
#
# Velocity S-wave (km/s) = 3.26510 3.84898 3.56900
# Velocity P-wave (km/s) = 5.49090 6.70748 6.12945
#
# Compressibility (1/GPa) = 0.03445126
#
# Stress axis : x y z
#
# Youngs Moduli (GPa) = 56.60614 66.04762 51.83264
#
# Poissons Ratio (x) = 0.08129 0.05136
# Poissons Ratio (y) = 0.06967 0.34222
# Poissons Ratio (z) = 0.05608 0.43608
#
# Static dielectric constant tensor:
#      x y z
#    x 3.285310 0.093730 0.262630 
#    y 0.093730 3.360670 -0.031510 
#    z 0.262630 -0.031510 3.468540 
# 
# 
# High freq. dielectric constant tensor:
#      x y z
#    x 1.690530 0.017520 0.025330 
#    y 0.017520 1.697620 -0.003660 
#    z 0.025330 -0.003660 1.709150 
# 
# From -- ./inp_files/261418.got.cif
#   From: 2010.06.25/outbox.cif.g09.slc.cpg/sg2_131_cif.got.tgz:261418.got - 2010.06.27 13:26:56.
