data_PCOD8008929
_publ_section_title
;
Structure prediction by ZEFSAII (Michael W. Deem and Ramdas Pophale) SiO2 
 PCOD8008929
Probable space group: P -1
;
_chemical_formula_sum "Si O2"
_cell_formula_units_Z 14
_cell_length_a 18.492205
_cell_length_b 9.353925
_cell_length_c 21.388083
_cell_angle_alpha 139.836633
_cell_angle_beta 161.665558
_cell_angle_gamma 50.632146
_cell_volume 670.630626
_symmetry_space_group_name_H-M "P -1"
_symmetry_group_IT_number 2
_symmetry_cell_setting 'triclinic'
loop_
_space_group_symop_operation_xyz
x,y,z
-x,-y,-z
loop_
_atom_site_type_symbol
_atom_site_label
_atom_site_fract_x
_atom_site_fract_y
_atom_site_fract_z
Si Si1 0.560076 0.104022 0.749665
Si Si2 0.611597 0.867363 0.831735
Si Si3 0.947178 0.292097 0.836582
Si Si4 0.859341 0.751540 0.265359
Si Si5 0.160185 0.599733 0.760174
Si Si6 0.955648 0.438538 0.750886
Si Si7 0.320267 0.439528 0.715864
O O1 0.414995 0.229452 0.713566
O O2 0.641024 0.940224 0.807136
O O3 0.342232 0.926950 0.462589
O O4 0.821238 0.287637 0.990206
O O5 0.333989 0.625069 0.531851
O O6 0.838652 0.803608 0.016063
O O7 0.638268 0.107667 0.974259
O O8 0.960600 0.404097 0.816713
O O9 0.000000 0.500000 0.000000
O O10 0.861674 0.523116 0.231010
O O11 0.983907 0.763082 0.303833
O O12 0.567919 0.704697 0.998155
O O13 0.000000 0.000000 0.500000
O O14 0.229359 0.440144 0.712918
O O15 0.885489 0.584315 0.512547
#
# Coordination Sequence:
#
# PCOD8008929 Si02
#       7
#     2   2   2   2   2   2   2
#     4  10  22  43  65  94 132 165 210 267 311 388
#     4  11  22  41  68  91 126 171 213 258 324 379
#     4  11  26  45  68  94 126 165 213 275 330 375
#     4  11  23  36  59  91 137 169 207 256 310 372
#     4  11  21  35  62  90 126 179 209 252 311 369
#     4  10  24  40  65  98 127 166 214 260 314 384
#     4  10  21  35  59  91 125 168 214 245 304 376
#
# _framework density 20.875872000000001
#
# number of rings (size 3 to 8) (size 9 to 14) (size 15 to 20)
#    0.000    1.429    4.286    1.286    4.000    6.857 
#    0.000    1.429    0.000    0.000    0.000    0.000 
#    0.000    0.000    0.000    0.000    0.000    0.000 
#
# Total GULP energy -173488.058790 kJ/mol
# GULP energy per Si atom -12392.004199 kJ/mol
# Density = 2.082836 g / cm^3
# Si number density = 20.875872 Si / 1000 Ang^3
#
#
#
# Elastic Constant Matrix: (Units=GPa)
#
#
# Indices 1 2 3 4 5 6 
#
# 1 85.7479 9.8262 40.5904 8.8177 -11.2417 1.0787
# 2 9.8262 36.2503 29.4319 1.1218 -2.4069 1.7290
# 3 40.5904 29.4319 200.0044 5.0289 -0.3682 7.9006
# 4 8.8177 1.1218 5.0289 37.0332 -0.6640 -11.6830
# 5 -11.2417 -2.4069 -0.3682 -0.6640 37.6095 7.5244
# 6 1.0787 1.7290 7.9006 -11.6830 7.5244 17.2238
#
#
#
# Elastic Compliance Matrix: (Units=1/GPa)
#
#
# Indices 1 2 3 4 5 6 
#
# 1 0.014097 -0.001192 -0.002372 -0.004449 0.005013 -0.004883
# 2 -0.001192 0.031690 -0.004288 -0.000905 0.002153 -0.002694
# 3 -0.002372 -0.004288 0.006250 -0.001058 -0.000372 -0.002843
# 4 -0.004449 -0.000905 -0.001058 0.037260 -0.006539 0.028985
# 5 0.005013 0.002153 -0.000372 -0.006539 0.031849 -0.018708
# 6 -0.004883 -0.002694 -0.002843 0.028985 -0.018708 0.087773
#
#
# Mechanical properties :
#
#
# Convention : Reuss Voigt Hill
#
# Bulk Modulus (GPa) = 27.52269 53.52218 40.52243
# Shear Modulus (GPa) = 21.12056 34.51691 27.81873
#
# Velocity S-wave (km/s) = 3.18421 4.07066 3.65441
# Velocity P-wave (km/s) = 5.17025 6.91286 6.10406
#
# Compressibility (1/GPa) = 0.03633366
#
# Stress axis : x y z
#
# Youngs Moduli (GPa) = 70.93471 31.55532 159.98787
#
# Poissons Ratio (x) = 0.03763 0.37943
# Poissons Ratio (y) = 0.08458 0.68608
# Poissons Ratio (z) = 0.16823 0.13532
#
# Static dielectric constant tensor:
#      x y z
#    x 3.579030 0.023590 -0.048810 
#    y 0.023590 3.722570 0.143140 
#    z -0.048810 0.143140 4.787690 
# 
# 
# High freq. dielectric constant tensor:
#      x y z
#    x 1.799820 0.000770 -0.012220 
#    y 0.000770 1.790130 -0.007940 
#    z -0.012220 -0.007940 1.855480 
# 
# From -- ./inp_files/544189.got.cif
#   From: 2010.06.25/outbox.cif.g09.slc.cpg/sg2_273_cif.got.tgz:544189.got - 2010.06.27 13:26:56.
