data_PCOD8008470
_publ_section_title
;
Structure prediction by ZEFSAII (Michael W. Deem and Ramdas Pophale) SiO2 
 PCOD8008470
Probable space group: P -1
;
_chemical_formula_sum "Si O2"
_cell_formula_units_Z 16
_cell_length_a 18.732539
_cell_length_b 27.280260
_cell_length_c 7.302753
_cell_angle_alpha 134.348111
_cell_angle_beta 134.777789
_cell_angle_gamma 16.561595
_cell_volume 749.832200
_symmetry_space_group_name_H-M "P -1"
_symmetry_group_IT_number 2
_symmetry_cell_setting 'triclinic'
loop_
_space_group_symop_operation_xyz
x,y,z
-x,-y,-z
loop_
_atom_site_type_symbol
_atom_site_label
_atom_site_fract_x
_atom_site_fract_y
_atom_site_fract_z
Si Si1 0.710487 0.817039 0.132048
Si Si2 0.564873 0.528524 0.300558
Si Si3 0.810974 0.612300 0.619617
Si Si4 0.943112 0.392250 0.451642
Si Si5 0.832435 0.827298 0.031432
Si Si6 0.772061 0.200389 0.304798
Si Si7 0.723472 0.096501 0.742111
Si Si8 0.115941 0.748717 0.562456
O O1 0.761094 0.844836 0.149301
O O2 0.829561 0.763993 0.402900
O O3 0.839076 0.665702 0.914729
O O4 0.406986 0.997736 0.064964
O O5 0.693279 0.504685 0.341949
O O6 0.322860 0.718706 0.452264
O O7 0.768782 0.380004 0.434029
O O8 0.500000 0.500000 0.000000
O O9 0.878426 0.512647 0.631536
O O10 0.528500 0.776950 0.466220
O O11 0.000000 0.500000 0.500000
O O12 0.025888 0.319854 0.208911
O O13 0.018047 0.775140 0.265523
O O14 0.681669 0.319406 0.315781
O O15 0.650689 0.204477 0.029633
O O16 0.081562 0.000315 0.322008
O O17 0.872741 0.941825 0.717239
#
# Coordination Sequence:
#
# PCOD8008470 Si02
#       8
#     2   2   2   2   2   2   2   2
#     4  11  23  46  66  97 131 183 224 282 336 399
#     4  12  26  40  66 108 140 170 224 289 351 403
#     4  12  25  44  69  96 138 180 230 279 342 400
#     4  12  27  41  67 104 137 177 229 282 342 412
#     4  11  22  43  71  94 137 175 226 279 342 407
#     4   9  21  43  69  95 130 177 232 273 338 415
#     4   9  22  42  73  94 124 189 234 271 340 410
#     4  10  20  43  69  96 129 178 224 277 343 405
#
# _framework density 21.338107999999998
#
# number of rings (size 3 to 8) (size 9 to 14) (size 15 to 20)
#    0.750    0.500    3.750    1.875    5.250    0.000 
#    2.250    2.500    0.000    0.000    0.000    0.000 
#    0.000    0.000    0.000    0.000    0.000    0.000 
#
# Total GULP energy -198276.946004 kJ/mol
# GULP energy per Si atom -12392.309125 kJ/mol
# Density = 2.128954 g / cm^3
# Si number density = 21.338108 Si / 1000 Ang^3
#
#
#
# Elastic Constant Matrix: (Units=GPa)
#
#
# Indices 1 2 3 4 5 6 
#
# 1 73.1218 20.3775 13.7406 -3.2538 2.8606 6.9783
# 2 20.3775 78.1114 27.6265 -0.4175 -5.3684 -5.1429
# 3 13.7406 27.6265 112.6393 11.0099 10.6280 -5.4022
# 4 -3.2538 -0.4175 11.0099 35.6634 1.6605 6.8996
# 5 2.8606 -5.3684 10.6280 1.6605 30.4019 5.8515
# 6 6.9783 -5.1429 -5.4022 6.8996 5.8515 26.1784
#
#
#
# Elastic Compliance Matrix: (Units=1/GPa)
#
#
# Indices 1 2 3 4 5 6 
#
# 1 0.015802 -0.004033 -0.001452 0.003026 -0.000713 -0.005942
# 2 -0.004033 0.015559 -0.003601 0.000271 0.003900 0.002445
# 3 -0.001452 -0.003601 0.011006 -0.004145 -0.004918 0.004142
# 4 0.003026 0.000271 -0.004145 0.031512 0.001462 -0.010241
# 5 -0.000713 0.003900 -0.004918 0.001462 0.036963 -0.008706
# 6 -0.005942 0.002445 0.004142 -0.010241 -0.008706 0.045764
#
#
# Mechanical properties :
#
#
# Convention : Reuss Voigt Hill
#
# Bulk Modulus (GPa) = 41.33185 43.04017 42.18601
# Shear Modulus (GPa) = 27.34587 31.92394 29.63490
#
# Velocity S-wave (km/s) = 3.58376 3.87214 3.73074
# Velocity P-wave (km/s) = 6.04454 6.34079 6.19444
#
# Compressibility (1/GPa) = 0.02419442
#
# Stress axis : x y z
#
# Youngs Moduli (GPa) = 63.28236 64.27345 90.85869
#
# Poissons Ratio (x) = 0.25921 0.13193
# Poissons Ratio (y) = 0.25522 0.32720
# Poissons Ratio (z) = 0.09189 0.23146
#
# Static dielectric constant tensor:
#      x y z
#    x 3.715080 -0.039500 0.219170 
#    y -0.039500 3.844940 0.108340 
#    z 0.219170 0.108340 3.836590 
# 
# 
# High freq. dielectric constant tensor:
#      x y z
#    x 1.824880 -0.002050 0.026500 
#    y -0.002050 1.835570 0.009290 
#    z 0.026500 0.009290 1.838780 
# 
# From -- ./inp_files/113285.got.cif
#   From: 2010.06.25/outbox.cif.g09.slc.cpg/sg2_57_cif.got.tgz:113285.got - 2010.06.27 13:26:56.
