data_PCOD8008290
_publ_section_title
;
Structure prediction by ZEFSAII (Michael W. Deem and Ramdas Pophale) SiO2 
 PCOD8008290
Probable space group: P -1
;
_chemical_formula_sum "Si O2"
_cell_formula_units_Z 16
_cell_length_a 14.181049
_cell_length_b 9.327143
_cell_length_c 9.207719
_cell_angle_alpha 74.978860
_cell_angle_beta 129.716336
_cell_angle_gamma 75.107925
_cell_volume 744.163207
_symmetry_space_group_name_H-M "P -1"
_symmetry_group_IT_number 2
_symmetry_cell_setting 'triclinic'
loop_
_space_group_symop_operation_xyz
x,y,z
-x,-y,-z
loop_
_atom_site_type_symbol
_atom_site_label
_atom_site_fract_x
_atom_site_fract_y
_atom_site_fract_z
Si Si1 0.096958 0.252726 0.305512
Si Si2 0.890792 0.943440 0.366043
Si Si3 0.845532 0.829574 0.057712
Si Si4 0.405501 0.549554 0.540309
Si Si5 0.430284 0.112072 0.123393
Si Si6 0.450689 0.804041 0.046173
Si Si7 0.879614 0.441100 0.798452
Si Si8 0.329331 0.926791 0.438696
O O1 0.069684 0.228281 0.452240
O O2 0.185268 0.349063 0.351330
O O3 0.192908 0.054483 0.380100
O O4 0.937725 0.383223 0.035560
O O5 0.912473 0.889339 0.232439
O O6 0.000000 0.000000 0.500000
O O7 0.720911 0.105584 0.186799
O O8 0.981138 0.673029 0.141922
O O9 0.746649 0.763854 0.046271
O O10 0.725721 0.002254 0.797182
O O11 0.500000 0.500000 0.500000
O O12 0.488765 0.389396 0.778612
O O13 0.243966 0.596297 0.333670
O O14 0.379516 0.722338 0.549605
O O15 0.528543 0.071997 0.374901
O O16 0.472484 0.921941 0.150902
O O17 0.460698 0.219636 0.007742
#
# Coordination Sequence:
#
# PCOD8008290 Si02
#       8
#     2   2   2   2   2   2   2   2
#     4  10  23  45  70  96 130 185 224 274 338 391
#     4  11  24  42  72  97 140 178 222 274 341 404
#     4  10  24  41  68 104 129 184 225 273 344 394
#     4  12  27  42  66 100 140 177 221 282 339 397
#     4  10  20  42  70  96 132 177 222 277 329 404
#     4  10  23  43  68 100 135 179 220 276 339 392
#     4  10  25  44  68  98 138 172 231 282 325 405
#     4  11  23  42  70  97 136 176 225 276 335 397
#
# _framework density 21.500658000000001
#
# number of rings (size 3 to 8) (size 9 to 14) (size 15 to 20)
#    0.000    1.500    1.250    2.625    8.750    5.000 
#    0.000    0.000    0.000    0.000    0.000    0.000 
#    0.000    0.000    0.000    0.000    0.000    0.000 
#
# Total GULP energy -198415.166869 kJ/mol
# GULP energy per Si atom -12400.947929 kJ/mol
# Density = 2.145172 g / cm^3
# Si number density = 21.500658 Si / 1000 Ang^3
#
#
#
# Elastic Constant Matrix: (Units=GPa)
#
#
# Indices 1 2 3 4 5 6 
#
# 1 115.0463 44.5655 61.8928 0.2064 5.2495 4.0546
# 2 44.5655 121.2832 66.9349 1.8967 -2.2913 12.6679
# 3 61.8928 66.9349 137.8505 12.0145 -9.4510 11.8031
# 4 0.2064 1.8967 12.0145 47.3951 6.7333 3.6066
# 5 5.2495 -2.2913 -9.4510 6.7333 40.4051 8.3503
# 6 4.0546 12.6679 11.8031 3.6066 8.3503 28.8160
#
#
#
# Elastic Compliance Matrix: (Units=1/GPa)
#
#
# Indices 1 2 3 4 5 6 
#
# 1 0.012319 -0.002009 -0.005130 0.001683 -0.003627 0.002091
# 2 -0.002009 0.011877 -0.004639 0.000905 0.000372 -0.003259
# 3 -0.005130 -0.004639 0.012715 -0.003419 0.004642 -0.003364
# 4 0.001683 0.000905 -0.003419 0.022630 -0.004586 -0.000738
# 5 -0.003627 0.000372 0.004642 -0.004586 0.029033 -0.009394
# 6 0.002091 -0.003259 -0.003364 -0.000738 -0.009394 0.040034
#
#
# Mechanical properties :
#
#
# Convention : Reuss Voigt Hill
#
# Bulk Modulus (GPa) = 74.88329 80.10738 77.49534
# Shear Modulus (GPa) = 31.92533 36.70902 34.31718
#
# Velocity S-wave (km/s) = 3.85756 4.13648 3.99945
# Velocity P-wave (km/s) = 7.39899 7.75584 7.57951
#
# Compressibility (1/GPa) = 0.01335411
#
# Stress axis : x y z
#
# Youngs Moduli (GPa) = 81.17579 84.19624 78.64961
#
# Poissons Ratio (x) = 0.16912 0.40349
# Poissons Ratio (y) = 0.16305 0.36489
# Poissons Ratio (z) = 0.41645 0.39063
#
# Static dielectric constant tensor:
#      x y z
#    x 3.956570 0.019910 -0.106560 
#    y 0.019910 3.760830 0.146960 
#    z -0.106560 0.146960 4.072170 
# 
# 
# High freq. dielectric constant tensor:
#      x y z
#    x 1.846100 0.002660 -0.003980 
#    y 0.002660 1.832080 0.011400 
#    z -0.003980 0.011400 1.857410 
# 
# From -- ./inp_files/297994.got.cif
#   From: 2010.06.25/outbox.cif.g09.slc.cpg/sg2_149_cif.got.tgz:297994.got - 2010.06.27 13:26:56.
