data_PCOD8008222
_publ_section_title
;
Structure prediction by ZEFSAII (Michael W. Deem and Ramdas Pophale) SiO2 
 PCOD8008222
Probable space group: P -1
;
_chemical_formula_sum "Si O2"
_cell_formula_units_Z 16
_cell_length_a 17.324336
_cell_length_b 12.795156
_cell_length_c 10.364264
_cell_angle_alpha 114.063782
_cell_angle_beta 79.217763
_cell_angle_gamma 156.412385
_cell_volume 721.682626
_symmetry_space_group_name_H-M "P -1"
_symmetry_group_IT_number 2
_symmetry_cell_setting 'triclinic'
loop_
_space_group_symop_operation_xyz
x,y,z
-x,-y,-z
loop_
_atom_site_type_symbol
_atom_site_label
_atom_site_fract_x
_atom_site_fract_y
_atom_site_fract_z
Si Si1 0.232562 0.214687 0.967980
Si Si2 0.165980 0.222122 0.259130
Si Si3 0.454086 0.739354 0.081777
Si Si4 0.862315 0.638910 0.222787
Si Si5 0.441190 0.716252 0.633453
Si Si6 0.348254 0.790509 0.319064
Si Si7 0.845180 0.132576 0.132078
Si Si8 0.127034 0.792320 0.128234
O O1 0.261906 0.272477 0.141733
O O2 0.374954 0.499167 0.984727
O O3 0.286552 0.153172 0.899113
O O4 0.978805 0.881375 0.825744
O O5 0.366749 0.557830 0.442044
O O6 0.026217 0.957534 0.272899
O O7 0.360130 0.677737 0.203446
O O8 0.724422 0.090860 0.174286
O O9 0.365810 0.681658 0.952309
O O10 0.781843 0.566931 0.353685
O O11 0.984982 0.682799 0.211189
O O12 0.557181 0.996224 0.712340
O O13 0.623967 0.884290 0.729260
O O14 0.097998 0.485878 0.283502
O O15 0.500000 0.000000 0.500000
O O16 0.853374 0.117363 0.969338
O O17 0.000000 0.500000 0.000000
#
# Coordination Sequence:
#
# PCOD8008222 Si02
#       8
#     2   2   2   2   2   2   2   2
#     4  10  20  42  68  93 129 170 213 261 320 373
#     4  10  21  42  67  94 129 171 211 266 316 374
#     4  11  23  40  69  94 125 170 217 259 315 385
#     4  11  23  42  66  95 127 170 212 260 321 377
#     4  12  25  40  67  96 129 166 216 261 320 379
#     4  12  26  44  65  94 131 170 209 267 319 376
#     4  12  22  42  67  95 127 168 218 258 317 383
#     4  12  24  42  64  95 131 169 208 264 320 382
#
# _framework density 22.170411000000001
#
# number of rings (size 3 to 8) (size 9 to 14) (size 15 to 20)
#    0.000    0.750    5.000    3.750    1.750    2.000 
#    0.000    3.750    0.000    0.000    0.000    0.000 
#    0.000    0.000    0.000    0.000    0.000    0.000 
#
# Total GULP energy -198353.247581 kJ/mol
# GULP energy per Si atom -12397.077974 kJ/mol
# Density = 2.211995 g / cm^3
# Si number density = 22.170411 Si / 1000 Ang^3
#
#
#
# Elastic Constant Matrix: (Units=GPa)
#
#
# Indices 1 2 3 4 5 6 
#
# 1 109.7705 31.5248 27.6963 9.2612 2.2260 17.4107
# 2 31.5248 58.9054 6.1697 -1.5430 0.0250 10.6831
# 3 27.6963 6.1697 110.4626 5.6620 16.9766 12.3299
# 4 9.2612 -1.5430 5.6620 23.8455 -2.3930 5.6603
# 5 2.2260 0.0250 16.9766 -2.3930 25.7772 7.5294
# 6 17.4107 10.6831 12.3299 5.6603 7.5294 49.2445
#
#
#
# Elastic Compliance Matrix: (Units=1/GPa)
#
#
# Indices 1 2 3 4 5 6 
#
# 1 0.012056 -0.005936 -0.002378 -0.003940 0.000762 -0.002043
# 2 -0.005936 0.020844 0.000186 0.004559 0.001745 -0.003261
# 3 -0.002378 0.000186 0.010895 -0.002210 -0.006999 -0.000603
# 4 -0.003940 0.004559 -0.002210 0.046380 0.007719 -0.005554
# 5 0.000762 0.001745 -0.006999 0.007719 0.046046 -0.006823
# 6 -0.002043 -0.003261 -0.000603 -0.005554 -0.006823 0.023569
#
#
# Mechanical properties :
#
#
# Convention : Reuss Voigt Hill
#
# Bulk Modulus (GPa) = 36.31302 45.54667 40.92984
# Shear Modulus (GPa) = 26.99424 34.02328 30.50876
#
# Velocity S-wave (km/s) = 3.49317 3.92168 3.71361
# Velocity P-wave (km/s) = 5.71701 6.41051 6.07367
#
# Compressibility (1/GPa) = 0.02753833
#
# Stress axis : x y z
#
# Youngs Moduli (GPa) = 82.94836 47.97620 91.78460
#
# Poissons Ratio (x) = 0.28478 0.21829
# Poissons Ratio (y) = 0.49237 -0.01709
# Poissons Ratio (z) = 0.19728 -0.00893
#
# Static dielectric constant tensor:
#      x y z
#    x 4.311760 0.053250 0.138950 
#    y 0.053250 3.921000 0.101760 
#    z 0.138950 0.101760 3.820160 
# 
# 
# High freq. dielectric constant tensor:
#      x y z
#    x 1.889560 -0.003060 0.010990 
#    y -0.003060 1.871130 0.009440 
#    z 0.010990 0.009440 1.852010 
# 
# From -- ./inp_files/452560.got.cif
#   From: 2010.06.25/outbox.cif.g09.slc.cpg/sg2_227_cif.got.tgz:452560.got - 2010.06.27 13:26:56.
