data_PCOD8008477
_publ_section_title
;
Structure prediction by ZEFSAII (Michael W. Deem and Ramdas Pophale) SiO2 
 PCOD8008477
Probable space group: P -1
;
_chemical_formula_sum "Si O2"
_cell_formula_units_Z 16
_cell_length_a 8.833173
_cell_length_b 26.369193
_cell_length_c 25.851757
_cell_angle_alpha 169.167325
_cell_angle_beta 38.760590
_cell_angle_gamma 142.322906
_cell_volume 691.547497
_symmetry_space_group_name_H-M "P -1"
_symmetry_group_IT_number 2
_symmetry_cell_setting 'triclinic'
loop_
_space_group_symop_operation_xyz
x,y,z
-x,-y,-z
loop_
_atom_site_type_symbol
_atom_site_label
_atom_site_fract_x
_atom_site_fract_y
_atom_site_fract_z
Si Si1 0.681908 0.738859 0.660445
Si Si2 0.449093 0.862351 0.655966
Si Si3 0.195193 0.664304 0.418362
Si Si4 0.316261 0.189491 0.846946
Si Si5 0.271233 0.967376 0.956159
Si Si6 0.748954 0.673694 0.771836
Si Si7 0.026339 0.042371 0.674634
Si Si8 0.285176 0.573400 0.096379
O O1 0.500000 0.500000 0.500000
O O2 0.527777 0.864096 0.783663
O O3 0.900193 0.636703 0.470902
O O4 0.797938 0.969646 0.903446
O O5 0.312725 0.729198 0.507926
O O6 0.364733 0.649358 0.512424
O O7 0.739838 0.903573 0.611683
O O8 0.372153 0.147052 0.975471
O O9 0.320787 0.890904 0.569950
O O10 0.238112 0.369500 0.093939
O O11 0.595908 0.327539 0.891764
O O12 0.115299 0.165050 0.830090
O O13 0.046495 0.730853 0.757199
O O14 0.311003 0.244968 0.188948
O O15 0.184439 0.819470 0.395312
O O16 0.071700 0.291768 0.869816
O O17 0.500000 0.500000 0.000000
#
# Coordination Sequence:
#
# PCOD8008477 Si02
#       8
#     2   2   2   2   2   2   2   2
#     4  11  25  42  68  95 137 174 227 281 339 389
#     4  12  26  45  66 100 143 177 217 285 337 397
#     4  12  26  44  65 100 142 178 219 279 348 394
#     4  11  24  43  71  99 133 177 226 272 336 403
#     4  10  25  43  67  96 125 184 230 279 329 402
#     4  11  25  45  68  93 135 180 231 273 338 390
#     4  11  23  42  72 103 131 176 225 273 330 400
#     4  10  20  43  70 101 135 170 220 280 329 393
#
# _framework density 23.136517999999999
#
# number of rings (size 3 to 8) (size 9 to 14) (size 15 to 20)
#    0.000    1.000    1.250    6.000    7.000    1.000 
#    0.000    3.750    0.000    0.000    0.000    0.000 
#    0.000    0.000    0.000    0.000    0.000    0.000 
#
# Total GULP energy -198488.701991 kJ/mol
# GULP energy per Si atom -12405.543874 kJ/mol
# Density = 2.308386 g / cm^3
# Si number density = 23.136518 Si / 1000 Ang^3
#
#
#
# Elastic Constant Matrix: (Units=GPa)
#
#
# Indices 1 2 3 4 5 6 
#
# 1 97.5508 33.5636 9.6168 -1.8028 -13.6191 5.7577
# 2 33.5636 128.8943 16.7994 14.0084 -7.8387 7.4132
# 3 9.6168 16.7994 68.2736 4.1832 2.4448 0.7571
# 4 -1.8028 14.0084 4.1832 58.1173 -10.2368 -1.4212
# 5 -13.6191 -7.8387 2.4448 -10.2368 20.3991 4.2265
# 6 5.7577 7.4132 0.7571 -1.4212 4.2265 24.8666
#
#
#
# Elastic Compliance Matrix: (Units=1/GPa)
#
#
# Indices 1 2 3 4 5 6 
#
# 1 0.013005 -0.002652 -0.001673 0.002844 0.010062 -0.003717
# 2 -0.002652 0.009121 -0.001777 -0.001953 0.001467 -0.002412
# 3 -0.001673 -0.001777 0.015569 -0.001540 -0.004676 0.001150
# 4 0.002844 -0.001953 -0.001540 0.019879 0.011484 -0.000845
# 5 0.010062 0.001467 -0.004676 0.011484 0.065335 -0.013073
# 6 -0.003717 -0.002412 0.001150 -0.000845 -0.013073 0.043933
#
#
# Mechanical properties :
#
#
# Convention : Reuss Voigt Hill
#
# Bulk Modulus (GPa) = 39.22830 46.07536 42.65183
# Shear Modulus (GPa) = 26.66086 36.32584 31.49335
#
# Velocity S-wave (km/s) = 3.39828 3.96670 3.69344
# Velocity P-wave (km/s) = 5.69119 6.39824 6.05504
#
# Compressibility (1/GPa) = 0.02549180
#
# Stress axis : x y z
#
# Youngs Moduli (GPa) = 76.89314 109.64162 64.23103
#
# Poissons Ratio (x) = 0.29076 0.10744
# Poissons Ratio (y) = 0.20391 0.11412
# Poissons Ratio (z) = 0.12862 0.19481
#
# Static dielectric constant tensor:
#      x y z
#    x 4.092030 -0.078830 -0.083730 
#    y -0.078830 4.572680 0.195860 
#    z -0.083730 0.195860 4.323940 
# 
# 
# High freq. dielectric constant tensor:
#      x y z
#    x 1.901100 -0.002260 -0.003800 
#    y -0.002260 1.923720 0.001650 
#    z -0.003800 0.001650 1.929860 
# 
# From -- ./inp_files/617710.got.cif
#   From: 2010.06.25/outbox.cif.g09.slc.cpg/sg2_309_cif.got.tgz:617710.got - 2010.06.27 13:26:56.
