data_PCOD8008430
_publ_section_title
;
Structure prediction by ZEFSAII (Michael W. Deem and Ramdas Pophale) SiO2 
 PCOD8008430
Probable space group: P -1
;
_chemical_formula_sum "Si O2"
_cell_formula_units_Z 14
_cell_length_a 14.162814
_cell_length_b 13.397880
_cell_length_c 12.186638
_cell_angle_alpha 121.676007
_cell_angle_beta 28.507142
_cell_angle_gamma 142.099864
_cell_volume 555.131170
_symmetry_space_group_name_H-M "P -1"
_symmetry_group_IT_number 2
_symmetry_cell_setting 'triclinic'
loop_
_space_group_symop_operation_xyz
x,y,z
-x,-y,-z
loop_
_atom_site_type_symbol
_atom_site_label
_atom_site_fract_x
_atom_site_fract_y
_atom_site_fract_z
Si Si1 0.350957 0.268860 0.804573
Si Si2 0.394067 0.773149 0.656360
Si Si3 0.584998 0.671992 0.544301
Si Si4 0.172805 0.916273 0.936043
Si Si5 0.506761 0.600477 0.827751
Si Si6 0.104557 0.192656 0.238573
Si Si7 0.059046 0.647031 0.587617
O O1 0.538116 0.249270 0.546285
O O2 0.569233 0.490470 0.691108
O O3 0.297732 0.212349 0.955276
O O4 0.982600 0.117949 0.041729
O O5 0.307172 0.624408 0.743335
O O6 0.126742 0.751471 0.903922
O O7 0.713216 0.982582 0.511325
O O8 0.500000 0.500000 0.500000
O O9 0.596333 0.702623 0.679530
O O10 0.955269 0.876347 0.230924
O O11 0.557677 0.134023 0.668019
O O12 0.748921 0.771353 0.771891
O O13 0.119703 0.446111 0.164078
O O14 0.156625 0.356670 0.257690
O O15 0.000000 0.500000 0.500000
#
# Coordination Sequence:
#
# PCOD8008430 Si02
#       7
#     2   2   2   2   2   2   2
#     4  10  20  43  67  98 137 171 222 281 338 387
#     4  10  22  41  71  98 130 180 229 271 336 393
#     4  11  23  48  66  98 139 180 224 274 337 399
#     4  10  23  44  72 102 132 173 234 276 326 408
#     4  11  23  45  66  96 141 175 224 276 336 405
#     4  10  23  43  63 101 134 178 224 271 341 404
#     4  10  23  43  65 104 135 171 223 283 340 388
#
# _framework density 25.219263999999999
#
# number of rings (size 3 to 8) (size 9 to 14) (size 15 to 20)
#    0.000    1.714    2.857    2.143    4.000    6.286 
#   15.429    1.429    0.000    0.000    0.000    0.000 
#    0.000    0.000    0.000    0.000    0.000    0.000 
#
# Total GULP energy -173559.368299 kJ/mol
# GULP energy per Si atom -12397.097736 kJ/mol
# Density = 2.516186 g / cm^3
# Si number density = 25.219264 Si / 1000 Ang^3
#
#
#
# Elastic Constant Matrix: (Units=GPa)
#
#
# Indices 1 2 3 4 5 6 
#
# 1 140.9982 20.7680 73.2334 18.3686 21.7849 9.4650
# 2 20.7680 68.7979 14.2656 22.1192 -1.2197 13.8912
# 3 73.2334 14.2656 114.5883 15.4067 6.4114 7.5062
# 4 18.3686 22.1192 15.4067 40.0655 -5.9898 -1.9312
# 5 21.7849 -1.2197 6.4114 -5.9898 53.2417 10.2137
# 6 9.4650 13.8912 7.5062 -1.9312 10.2137 36.9521
#
#
#
# Elastic Compliance Matrix: (Units=1/GPa)
#
#
# Indices 1 2 3 4 5 6 
#
# 1 0.011852 -0.001351 -0.006790 -0.002732 -0.004353 -0.000088
# 2 -0.001351 0.020006 0.000274 -0.010724 0.001337 -0.008160
# 3 -0.006790 0.000274 0.013339 -0.002056 0.001239 -0.001524
# 4 -0.002732 -0.010724 -0.002056 0.033773 0.003794 0.005865
# 5 -0.004353 0.001337 0.001239 0.003794 0.021927 -0.005502
# 6 -0.000088 -0.008160 -0.001524 0.005865 -0.005502 0.032289
#
#
# Mechanical properties :
#
#
# Convention : Reuss Voigt Hill
#
# Bulk Modulus (GPa) = 33.93944 60.10203 47.02074
# Shear Modulus (GPa) = 31.49790 40.45968 35.97879
#
# Velocity S-wave (km/s) = 3.53790 4.00974 3.78119
# Velocity P-wave (km/s) = 5.49326 6.73208 6.14397
#
# Compressibility (1/GPa) = 0.02946425
#
# Stress axis : x y z
#
# Youngs Moduli (GPa) = 84.37081 49.98608 74.96730
#
# Poissons Ratio (x) = 0.06752 0.50903
# Poissons Ratio (y) = 0.11397 -0.02057
# Poissons Ratio (z) = 0.57288 -0.01372
#
# Static dielectric constant tensor:
#      x y z
#    x 4.946820 -0.497060 -0.109150 
#    y -0.497060 5.041980 0.284990 
#    z -0.109150 0.284990 4.675580 
# 
# 
# High freq. dielectric constant tensor:
#      x y z
#    x 2.008880 -0.013750 -0.007820 
#    y -0.013750 2.023130 0.009530 
#    z -0.007820 0.009530 1.994040 
# 
# From -- ./inp_files/455770.got.cif
#   From: 2010.06.25/outbox.cif.g09.slc.cpg/sg2_228_cif.got.tgz:455770.got - 2010.06.27 13:26:56.
