data_PCOD8008780
_publ_section_title
;
Structure prediction by ZEFSAII (Michael W. Deem and Ramdas Pophale) SiO2 
 PCOD8008780
Probable space group: P -1
;
_chemical_formula_sum "Si O2"
_cell_formula_units_Z 16
_cell_length_a 21.519155
_cell_length_b 13.956675
_cell_length_c 5.082891
_cell_angle_alpha 78.966848
_cell_angle_beta 74.532393
_cell_angle_gamma 29.406462
_cell_volume 719.692808
_symmetry_space_group_name_H-M "P -1"
_symmetry_group_IT_number 2
_symmetry_cell_setting 'triclinic'
loop_
_space_group_symop_operation_xyz
x,y,z
-x,-y,-z
loop_
_atom_site_type_symbol
_atom_site_label
_atom_site_fract_x
_atom_site_fract_y
_atom_site_fract_z
Si Si1 0.860311 0.724428 0.959355
Si Si2 0.703427 0.081861 0.225774
Si Si3 0.841971 0.542423 0.020091
Si Si4 0.443700 0.431416 0.574871
Si Si5 0.994510 0.704263 0.528133
Si Si6 0.668320 0.237972 0.671368
Si Si7 0.238722 0.555425 0.884241
Si Si8 0.928014 0.191482 0.561211
O O1 0.781453 0.731103 0.947765
O O2 0.875010 0.788313 0.684837
O O3 0.000000 0.500000 0.000000
O O4 0.782234 0.878693 0.202024
O O5 0.551916 0.251731 0.339471
O O6 0.755512 0.069245 0.435557
O O7 0.723770 0.134992 0.944083
O O8 0.966259 0.368414 0.778559
O O9 0.888643 0.472693 0.306120
O O10 0.741915 0.587635 0.026830
O O11 0.518007 0.398273 0.730746
O O12 0.335513 0.640183 0.437470
O O13 0.376552 0.428566 0.797908
O O14 0.967296 0.856586 0.516432
O O15 0.179609 0.646238 0.617161
O O16 0.144541 0.724183 0.122116
O O17 0.000000 0.000000 0.500000
#
# Coordination Sequence:
#
# PCOD8008780 Si02
#       8
#     2   2   2   2   2   2   2   2
#     4  10  21  37  60  81 111 151 184 232 285 321
#     4  10  21  36  55  87 114 137 189 235 269 335
#     4   9  19  36  51  77 103 137 184 221 259 326
#     4   9  21  37  60  81 115 147 183 225 286 324
#     4   9  19  34  53  75 105 142 179 216 268 323
#     4   9  21  36  57  80 118 138 183 233 274 324
#     4  10  21  34  59  74 108 152 179 218 281 329
#     4  10  21  36  51  84 114 138 183 226 266 337
#
# _framework density 22.231707
#
# number of rings (size 3 to 8) (size 9 to 14) (size 15 to 20)
#    0.750    1.750    0.000    1.125    1.750    6.000 
#    0.000    1.875    0.000    0.750    0.000    0.000 
#    0.000    0.000    0.000    0.000    0.000    0.000 
#
# Total GULP energy -198215.094151 kJ/mol
# GULP energy per Si atom -12388.443384 kJ/mol
# Density = 2.218111 g / cm^3
# Si number density = 22.231707 Si / 1000 Ang^3
#
#
#
# Elastic Constant Matrix: (Units=GPa)
#
#
# Indices 1 2 3 4 5 6 
#
# 1 126.6153 37.7245 45.6665 7.4600 -24.7908 37.2069
# 2 37.7245 84.5206 28.5323 16.5066 -1.4782 39.1873
# 3 45.6665 28.5323 103.5771 6.2355 -6.9307 16.1955
# 4 7.4600 16.5066 6.2355 32.1072 0.4513 10.8210
# 5 -24.7908 -1.4782 -6.9307 0.4513 35.8505 -7.8770
# 6 37.2069 39.1873 16.1955 10.8210 -7.8770 30.7560
#
#
#
# Elastic Compliance Matrix: (Units=1/GPa)
#
#
# Indices 1 2 3 4 5 6 
#
# 1 0.015241 0.003764 -0.004349 0.002143 0.005361 -0.020324
# 2 0.003764 0.032649 -0.003934 -0.001546 -0.006737 -0.045263
# 3 -0.004349 -0.003934 0.012048 -0.000727 0.000094 0.004209
# 4 0.002143 -0.001546 -0.000727 0.036169 -0.002147 -0.013515
# 5 0.005361 -0.006737 0.000094 -0.002147 0.033892 0.011485
# 6 -0.020324 -0.045263 0.004209 -0.013515 0.011485 0.120252
#
#
# Mechanical properties :
#
#
# Convention : Reuss Voigt Hill
#
# Bulk Modulus (GPa) = 19.64611 59.83995 39.74303
# Shear Modulus (GPa) = 18.09925 33.26204 25.68065
#
# Velocity S-wave (km/s) = 2.85637 3.87221 3.40242
# Velocity P-wave (km/s) = 4.44237 6.85324 5.77501
#
# Compressibility (1/GPa) = 0.05090065
#
# Stress axis : x y z
#
# Youngs Moduli (GPa) = 65.61347 30.62841 83.00440
#
# Poissons Ratio (x) = -0.11528 0.36097
# Poissons Ratio (y) = -0.24696 0.32651
# Poissons Ratio (z) = 0.28534 0.12048
#
# Static dielectric constant tensor:
#      x y z
#    x 4.486360 0.542800 -0.201930 
#    y 0.542800 3.777980 -0.111520 
#    z -0.201930 -0.111520 4.064470 
# 
# 
# High freq. dielectric constant tensor:
#      x y z
#    x 1.871630 0.027680 0.001330 
#    y 0.027680 1.841010 -0.006480 
#    z 0.001330 -0.006480 1.883340 
# 
# From -- ./inp_files/124025.got.cif
#   From: 2010.06.25/outbox.cif.g09.slc.cpg/sg2_63_cif.got.tgz:124025.got - 2010.06.27 13:26:56.
