data_PCOD8008994
_publ_section_title
;
Structure prediction by ZEFSAII (Michael W. Deem and Ramdas Pophale) SiO2 
 PCOD8008994
Probable space group: P -1
;
_chemical_formula_sum "Si O2"
_cell_formula_units_Z 16
_cell_length_a 11.556155
_cell_length_b 9.072210
_cell_length_c 17.562816
_cell_angle_alpha 122.221045
_cell_angle_beta 128.473270
_cell_angle_gamma 100.845714
_cell_volume 755.596365
_symmetry_space_group_name_H-M "P -1"
_symmetry_group_IT_number 2
_symmetry_cell_setting 'triclinic'
loop_
_space_group_symop_operation_xyz
x,y,z
-x,-y,-z
loop_
_atom_site_type_symbol
_atom_site_label
_atom_site_fract_x
_atom_site_fract_y
_atom_site_fract_z
Si Si1 0.726390 0.267417 0.417020
Si Si2 0.437170 0.640273 0.500681
Si Si3 0.580139 0.313995 0.802469
Si Si4 0.451786 0.542172 0.883065
Si Si5 0.173041 0.465268 0.619254
Si Si6 0.101407 0.094348 0.736741
Si Si7 0.311626 0.682046 0.313969
Si Si8 0.916633 0.210019 0.794872
O O1 0.720435 0.432668 0.514010
O O2 0.692415 0.295379 0.323475
O O3 0.977669 0.400526 0.565586
O O4 0.510864 0.944395 0.265270
O O5 0.500000 0.500000 0.500000
O O6 0.279517 0.516769 0.324823
O O7 0.683852 0.975104 0.687759
O O8 0.426412 0.328486 0.776717
O O9 0.568877 0.305797 0.704719
O O10 0.855253 0.604163 0.009610
O O11 0.374691 0.603926 0.802002
O O12 0.259971 0.368067 0.824275
O O13 0.717045 0.826648 0.104679
O O14 0.041796 0.181740 0.445850
O O15 0.913337 0.053999 0.686861
O O16 0.075091 0.580406 0.174015
O O17 0.500000 0.000000 0.500000
#
# Coordination Sequence:
#
# PCOD8008994 Si02
#       8
#     2   2   2   2   2   2   2   2
#     4  11  24  40  61  92 123 162 210 246 315 366
#     4  11  24  41  61  90 125 160 200 257 302 369
#     4  11  21  41  63  92 122 154 209 257 298 370
#     4  10  23  38  68  93 122 165 207 254 308 365
#     4  11  24  41  65  88 130 168 197 262 308 364
#     4  10  21  39  65  97 123 157 213 250 306 373
#     4  10  21  35  62  91 116 159 209 239 304 371
#     4  10  22  38  65  91 123 158 197 261 303 361
#
# _framework density 21.175326999999999
#
# number of rings (size 3 to 8) (size 9 to 14) (size 15 to 20)
#    0.000    1.500    3.750    1.500    7.000    0.000 
#    0.000    6.875    0.000    0.000    0.000    0.000 
#    0.000    0.000    0.000    0.000    0.000    0.000 
#
# Total GULP energy -198309.199685 kJ/mol
# GULP energy per Si atom -12394.324980 kJ/mol
# Density = 2.112713 g / cm^3
# Si number density = 21.175327 Si / 1000 Ang^3
#
#
#
# Elastic Constant Matrix: (Units=GPa)
#
#
# Indices 1 2 3 4 5 6 
#
# 1 127.1078 32.9807 19.7505 -4.4206 -5.4669 6.3168
# 2 32.9807 116.4613 28.9184 -30.5517 4.3219 -4.5794
# 3 19.7505 28.9184 56.2858 -19.2568 -1.8118 5.9628
# 4 -4.4206 -30.5517 -19.2568 28.4089 1.4440 -1.8129
# 5 -5.4669 4.3219 -1.8118 1.4440 23.8620 0.7519
# 6 6.3168 -4.5794 5.9628 -1.8129 0.7519 30.3035
#
#
#
# Elastic Compliance Matrix: (Units=1/GPa)
#
#
# Indices 1 2 3 4 5 6 
#
# 1 0.009202 -0.003214 -0.002661 -0.004111 0.002806 -0.002196
# 2 -0.003214 0.013856 -0.001914 0.013584 -0.004341 0.004061
# 3 -0.002661 -0.001914 0.024961 0.014158 0.000896 -0.003821
# 4 -0.004111 0.013584 0.014158 0.059317 -0.006037 0.003822
# 5 0.002806 -0.004341 0.000896 -0.006037 0.043861 -0.002867
# 6 -0.002196 0.004061 -0.003821 0.003822 -0.002867 0.035123
#
#
# Mechanical properties :
#
#
# Convention : Reuss Voigt Hill
#
# Bulk Modulus (GPa) = 30.82526 51.46155 41.14341
# Shear Modulus (GPa) = 23.50619 31.06191 27.28405
#
# Velocity S-wave (km/s) = 3.33539 3.83416 3.59344
# Velocity P-wave (km/s) = 5.42419 6.62996 6.05716
#
# Compressibility (1/GPa) = 0.03244092
#
# Stress axis : x y z
#
# Youngs Moduli (GPa) = 108.67671 72.16999 40.06248
#
# Poissons Ratio (x) = 0.23195 0.10661
# Poissons Ratio (y) = 0.34929 0.07667
# Poissons Ratio (z) = 0.28920 0.13812
#
# Static dielectric constant tensor:
#      x y z
#    x 3.991150 -1.164450 0.619230 
#    y -1.164450 7.763550 -2.482930 
#    z 0.619230 -2.482930 4.881710 
# 
# 
# High freq. dielectric constant tensor:
#      x y z
#    x 1.855030 -0.001850 0.001010 
#    y -0.001850 1.819210 -0.018500 
#    z 0.001010 -0.018500 1.807310 
# 
# From -- ./inp_files/187428.got.cif
#   From: 2010.06.25/outbox.cif.g09.slc.cpg/sg2_94_cif.got.tgz:187428.got - 2010.06.27 13:26:56.
