data_PCOD8008803
_publ_section_title
;
Structure prediction by ZEFSAII (Michael W. Deem and Ramdas Pophale) SiO2 
 PCOD8008803
Probable space group: P -1
;
_chemical_formula_sum "Si O2"
_cell_formula_units_Z 14
_cell_length_a 11.676665
_cell_length_b 5.504813
_cell_length_c 11.670783
_cell_angle_alpha 71.658962
_cell_angle_beta 69.788970
_cell_angle_gamma 99.296423
_cell_volume 636.722448
_symmetry_space_group_name_H-M "P -1"
_symmetry_group_IT_number 2
_symmetry_cell_setting 'triclinic'
loop_
_space_group_symop_operation_xyz
x,y,z
-x,-y,-z
loop_
_atom_site_type_symbol
_atom_site_label
_atom_site_fract_x
_atom_site_fract_y
_atom_site_fract_z
Si Si1 0.934911 0.843867 0.397134
Si Si2 0.614421 0.034152 0.656962
Si Si3 0.183205 0.243028 0.316143
Si Si4 0.641072 0.381746 0.223421
Si Si5 0.813709 0.335586 0.367654
Si Si6 0.339610 0.644595 0.040587
Si Si7 0.474086 0.222014 0.859199
O O1 0.882700 0.684816 0.556976
O O2 0.904807 0.624560 0.338123
O O3 0.879251 0.099593 0.366847
O O4 0.088077 0.971127 0.333264
O O5 0.691663 0.251776 0.506475
O O6 0.597353 0.164328 0.765108
O O7 0.684349 0.809732 0.687680
O O8 0.469289 0.900782 0.680704
O O9 0.211532 0.485904 0.178977
O O10 0.765815 0.387649 0.250858
O O11 0.581070 0.618533 0.241757
O O12 0.676126 0.467784 0.066030
O O13 0.465114 0.615694 0.070284
O O14 0.358641 0.962002 0.975854
#
# Coordination Sequence:
#
# PCOD8008803 Si02
#       7
#     2   2   2   2   2   2   2
#     4  10  25  45  67  93 119 171 211 268 299 365
#     4  10  22  37  64  96 118 164 201 267 314 371
#     4  10  21  43  67  90 125 152 222 263 313 346
#     4  11  23  39  58  94 131 164 197 255 313 395
#     4  11  25  43  64  91 133 165 211 247 318 374
#     4  10  21  36  58  95 120 164 202 261 310 373
#     4  10  21  34  61  93 129 156 208 249 325 366
#
# _framework density 21.987603
#
# number of rings (size 3 to 8) (size 9 to 14) (size 15 to 20)
#    0.000    1.714    1.429    1.714   10.000    6.857 
#    0.000    1.429    0.000    0.000    0.000    0.000 
#    0.000    0.000    0.000    0.000    0.000    0.000 
#
# Total GULP energy -173467.601901 kJ/mol
# GULP energy per Si atom -12390.542993 kJ/mol
# Density = 2.193756 g / cm^3
# Si number density = 21.987603 Si / 1000 Ang^3
#
#
#
# Elastic Constant Matrix: (Units=GPa)
#
#
# Indices 1 2 3 4 5 6 
#
# 1 50.3905 15.1213 19.5958 0.7523 12.2155 15.1175
# 2 15.1213 87.3146 20.5387 2.0657 4.3800 9.6938
# 3 19.5958 20.5387 94.3325 -8.9438 4.9636 6.2877
# 4 0.7523 2.0657 -8.9438 23.2465 3.9500 6.1400
# 5 12.2155 4.3800 4.9636 3.9500 31.2114 0.8130
# 6 15.1175 9.6938 6.2877 6.1400 0.8130 29.6014
#
#
#
# Elastic Compliance Matrix: (Units=1/GPa)
#
#
# Indices 1 2 3 4 5 6 
#
# 1 0.028377 -0.002116 -0.003706 0.003121 -0.010266 -0.013377
# 2 -0.002116 0.012656 -0.002261 -0.001252 -0.000370 -0.002314
# 3 -0.003706 -0.002261 0.012519 0.005597 -0.000901 -0.001162
# 4 0.003121 -0.001252 0.005597 0.049825 -0.007916 -0.012491
# 5 -0.010266 -0.000370 -0.000901 -0.007916 0.037094 0.006179
# 6 -0.013377 -0.002314 -0.001162 -0.012491 0.006179 0.044040
#
#
# Mechanical properties :
#
#
# Convention : Reuss Voigt Hill
#
# Bulk Modulus (GPa) = 26.74900 38.06102 32.40501
# Shear Modulus (GPa) = 23.45893 28.59730 26.02812
#
# Velocity S-wave (km/s) = 3.26991 3.61031 3.44432
# Velocity P-wave (km/s) = 5.14279 5.89295 5.53061
#
# Compressibility (1/GPa) = 0.03738458
#
# Stress axis : x y z
#
# Youngs Moduli (GPa) = 35.24017 79.01245 79.88145
#
# Poissons Ratio (x) = 0.16721 0.29605
# Poissons Ratio (y) = 0.07458 0.18062
# Poissons Ratio (z) = 0.13061 0.17865
#
# Static dielectric constant tensor:
#      x y z
#    x 3.700790 0.031330 0.014980 
#    y 0.031330 3.990010 -0.118600 
#    z 0.014980 -0.118600 3.981220 
# 
# 
# High freq. dielectric constant tensor:
#      x y z
#    x 1.835540 0.004190 0.001380 
#    y 0.004190 1.870730 -0.009890 
#    z 0.001380 -0.009890 1.859060 
# 
# From -- ./inp_files/65946.got.cif
#   From: 2010.06.25/outbox.cif.g09.slc.cpg/sg2_33_cif.got.tgz:65946.got - 2010.06.27 13:26:56.
