data_PCOD8008602
_publ_section_title
;
Structure prediction by ZEFSAII (Michael W. Deem and Ramdas Pophale) SiO2 
 PCOD8008602
Probable space group: P -1
;
_chemical_formula_sum "Si O2"
_cell_formula_units_Z 16
_cell_length_a 9.433657
_cell_length_b 23.498151
_cell_length_c 13.714601
_cell_angle_alpha 155.045907
_cell_angle_beta 42.000724
_cell_angle_gamma 127.946835
_cell_volume 839.409070
_symmetry_space_group_name_H-M "P -1"
_symmetry_group_IT_number 2
_symmetry_cell_setting 'triclinic'
loop_
_space_group_symop_operation_xyz
x,y,z
-x,-y,-z
loop_
_atom_site_type_symbol
_atom_site_label
_atom_site_fract_x
_atom_site_fract_y
_atom_site_fract_z
Si Si1 0.756728 0.064203 0.691274
Si Si2 0.314194 0.989022 0.153004
Si Si3 0.965444 0.257703 0.776957
Si Si4 0.787470 0.206727 0.593879
Si Si5 0.690259 0.822537 0.218358
Si Si6 0.006664 0.895016 0.026624
Si Si7 0.729294 0.315217 0.583024
Si Si8 0.234619 0.383100 0.971490
O O1 0.768552 0.209705 0.861184
O O2 0.603300 0.080348 0.891727
O O3 0.667045 0.970342 0.512527
O O4 0.000000 0.000000 0.500000
O O5 0.181505 0.140211 0.479415
O O6 0.500000 0.000000 0.000000
O O7 0.164812 0.893576 0.035152
O O8 0.877519 0.293378 0.767853
O O9 0.046786 0.380469 0.982618
O O10 0.540892 0.201586 0.733255
O O11 0.805755 0.290498 0.616766
O O12 0.925198 0.051123 0.273831
O O13 0.810089 0.701820 0.042026
O O14 0.817888 0.823519 0.052933
O O15 0.133481 0.808691 0.740660
O O16 0.474089 0.316811 0.704125
O O17 0.779262 0.459437 0.745566
#
# Coordination Sequence:
#
# PCOD8008602 Si02
#       8
#     2   2   2   2   2   2   2   2
#     4  10  16  31  51  81 106 134 176 217 270 311
#     4  10  18  28  50  83 107 133 168 224 271 309
#     4  10  18  34  55  78 103 139 182 219 260 319
#     4  10  22  35  54  82 108 143 178 217 276 315
#     4  11  19  35  58  81 107 141 179 222 265 323
#     4  11  20  34  54  81 113 134 178 224 272 315
#     4  10  23  37  53  80 110 147 177 218 267 319
#     4  10  20  38  59  75 106 147 183 216 262 323
#
# _framework density 19.061028
#
# number of rings (size 3 to 8) (size 9 to 14) (size 15 to 20)
#    0.000    1.750    6.250    1.500    1.750    1.000 
#    0.000    0.000    0.000    0.750    0.000    0.000 
#    0.000    0.000    0.000    0.000    0.000    0.000 
#
# Total GULP energy -198328.421235 kJ/mol
# GULP energy per Si atom -12395.526327 kJ/mol
# Density = 1.901764 g / cm^3
# Si number density = 19.061028 Si / 1000 Ang^3
#
#
#
# Elastic Constant Matrix: (Units=GPa)
#
#
# Indices 1 2 3 4 5 6 
#
# 1 78.6855 0.0406 7.7201 12.1247 6.5740 -5.3941
# 2 0.0406 80.0110 14.6092 -0.1518 -3.4547 -7.0783
# 3 7.7201 14.6092 32.9837 -2.6304 -4.4052 -2.6199
# 4 12.1247 -0.1518 -2.6304 26.3943 4.1353 5.1785
# 5 6.5740 -3.4547 -4.4052 4.1353 13.5508 -0.3627
# 6 -5.3941 -7.0783 -2.6199 5.1785 -0.3627 23.0974
#
#
#
# Elastic Compliance Matrix: (Units=1/GPa)
#
#
# Indices 1 2 3 4 5 6 
#
# 1 0.015222 0.001064 -0.005091 -0.007453 -0.006364 0.004875
# 2 0.001064 0.014068 -0.006053 -0.002167 0.001881 0.004389
# 3 -0.005091 -0.006053 0.036065 0.004045 0.011425 0.000319
# 4 -0.007453 -0.002167 0.004045 0.045672 -0.009890 -0.012341
# 5 -0.006364 0.001881 0.011425 -0.009890 0.084201 0.003926
# 6 0.004875 0.004389 0.000319 -0.012341 0.003926 0.048643
#
#
# Mechanical properties :
#
#
# Convention : Reuss Voigt Hill
#
# Bulk Modulus (GPa) = 22.12661 26.26889 24.19775
# Shear Modulus (GPa) = 17.91497 23.89585 20.90541
#
# Velocity S-wave (km/s) = 3.06906 3.54453 3.31533
# Velocity P-wave (km/s) = 4.91857 5.52838 5.23237
#
# Compressibility (1/GPa) = 0.04519444
#
# Stress axis : x y z
#
# Youngs Moduli (GPa) = 65.69401 71.08151 27.72803
#
# Poissons Ratio (x) = -0.07565 0.14117
# Poissons Ratio (y) = -0.06991 0.16784
# Poissons Ratio (z) = 0.33447 0.43027
#
# Static dielectric constant tensor:
#      x y z
#    x 3.744800 -0.159000 0.048910 
#    y -0.159000 3.859420 -0.187200 
#    z 0.048910 -0.187200 3.273220 
# 
# 
# High freq. dielectric constant tensor:
#      x y z
#    x 1.745710 -0.000440 0.018080 
#    y -0.000440 1.752270 -0.008140 
#    z 0.018080 -0.008140 1.690690 
# 
# From -- ./inp_files/185864.got.cif
#   From: 2010.06.25/outbox.cif.g09.slc.cpg/sg2_93_cif.got.tgz:185864.got - 2010.06.27 13:26:56.
