data_PCOD8008227
_publ_section_title
;
Structure prediction by ZEFSAII (Michael W. Deem and Ramdas Pophale) SiO2 
 PCOD8008227
Probable space group: P -1
;
_chemical_formula_sum "Si O2"
_cell_formula_units_Z 14
_cell_length_a 16.250564
_cell_length_b 9.440221
_cell_length_c 11.656866
_cell_angle_alpha 65.101252
_cell_angle_beta 151.142746
_cell_angle_gamma 100.113719
_cell_volume 702.545848
_symmetry_space_group_name_H-M "P -1"
_symmetry_group_IT_number 2
_symmetry_cell_setting 'triclinic'
loop_
_space_group_symop_operation_xyz
x,y,z
-x,-y,-z
loop_
_atom_site_type_symbol
_atom_site_label
_atom_site_fract_x
_atom_site_fract_y
_atom_site_fract_z
Si Si1 0.880842 0.727782 0.887965
Si Si2 0.017084 0.611525 0.329210
Si Si3 0.573354 0.925307 0.282101
Si Si4 0.096288 0.663881 0.647997
Si Si5 0.620306 0.310964 0.852183
Si Si6 0.261991 0.242194 0.693312
Si Si7 0.223343 0.577831 0.200986
O O1 0.700639 0.898044 0.560952
O O2 0.842117 0.558711 0.888145
O O3 0.913664 0.751400 0.054514
O O4 0.067438 0.704547 0.055088
O O5 0.070830 0.706813 0.465992
O O6 0.207308 0.447856 0.567138
O O7 0.873177 0.536080 0.228383
O O8 0.412541 0.860475 0.130650
O O9 0.717625 0.809425 0.397977
O O10 0.462358 0.127310 0.041940
O O11 0.907180 0.792397 0.444026
O O12 0.279266 0.684399 0.907178
O O13 0.420821 0.482157 0.542411
O O14 0.756953 0.304416 0.916633
#
# Coordination Sequence:
#
# PCOD8008227 Si02
#       7
#     2   2   2   2   2   2   2
#     4  10  16  31  49  70  91 133 159 198 227 294
#     4   9  17  32  55  66  94 131 170 188 227 283
#     4  10  20  29  52  75 102 120 158 195 257 278
#     4   9  18  32  51  67 100 126 165 194 232 280
#     4  10  17  28  45  80  97 121 151 212 243 279
#     4   9  18  35  47  73  97 131 158 193 235 305
#     4   9  17  26  47  71 102 116 160 201 249 268
#
# _framework density 19.927524999999999
#
# number of rings (size 3 to 8) (size 9 to 14) (size 15 to 20)
#    0.857    1.714    1.429    3.429    0.000    0.571 
#    0.000    3.571    0.000    0.000    0.000    6.000 
#    0.000    0.000    0.000    0.000    0.000    0.000 
#
# Total GULP energy -173514.482820 kJ/mol
# GULP energy per Si atom -12393.891630 kJ/mol
# Density = 1.988217 g / cm^3
# Si number density = 19.927525 Si / 1000 Ang^3
#
#
#
# Elastic Constant Matrix: (Units=GPa)
#
#
# Indices 1 2 3 4 5 6 
#
# 1 101.5079 20.0560 61.8755 17.1505 -20.9270 3.2389
# 2 20.0560 15.6985 22.9010 4.3080 -1.7823 4.6154
# 3 61.8755 22.9010 127.3551 12.9537 -30.9882 0.5642
# 4 17.1505 4.3080 12.9537 25.4060 0.9092 -1.7105
# 5 -20.9270 -1.7823 -30.9882 0.9092 40.4165 2.4791
# 6 3.2389 4.6154 0.5642 -1.7105 2.4791 11.9828
#
#
#
# Elastic Compliance Matrix: (Units=1/GPa)
#
#
# Indices 1 2 3 4 5 6 
#
# 1 0.017391 -0.013283 -0.003859 -0.007841 0.005742 -0.001710
# 2 -0.013283 0.116342 -0.016819 -0.004344 -0.012181 -0.038529
# 3 -0.003859 -0.016819 0.015033 -0.002195 0.008545 0.004732
# 4 -0.007841 -0.004344 -0.002195 0.047615 -0.007760 0.012298
# 5 0.005742 -0.012181 0.008545 -0.007760 0.034239 -0.005454
# 6 -0.001710 -0.038529 0.004732 0.012298 -0.005454 0.101417
#
#
# Mechanical properties :
#
#
# Convention : Reuss Voigt Hill
#
# Bulk Modulus (GPa) = 12.36928 50.46961 31.41944
# Shear Modulus (GPa) = 11.71218 24.87631 18.29425
#
# Velocity S-wave (km/s) = 2.42696 3.53702 3.03320
# Velocity P-wave (km/s) = 3.75155 6.48554 5.29794
#
# Compressibility (1/GPa) = 0.08084547
#
# Stress axis : x y z
#
# Youngs Moduli (GPa) = 57.50068 8.59533 66.52135
#
# Poissons Ratio (x) = 0.11417 0.25669
# Poissons Ratio (y) = 0.76378 1.11880
# Poissons Ratio (z) = 0.22188 0.14456
#
# Static dielectric constant tensor:
#      x y z
#    x 3.621160 0.200910 -0.116280 
#    y 0.200910 2.987710 0.043720 
#    z -0.116280 0.043720 3.663260 
# 
# 
# High freq. dielectric constant tensor:
#      x y z
#    x 1.775640 0.020110 -0.013140 
#    y 0.020110 1.705710 0.003270 
#    z -0.013140 0.003270 1.786820 
# 
# From -- ./inp_files/254512.got.cif
#   From: 2010.06.25/outbox.cif.g09.slc.cpg/sg2_128_cif.got.tgz:254512.got - 2010.06.27 13:26:56.
