data_PCOD8008036
_publ_section_title
;
Structure prediction by ZEFSAII (Michael W. Deem and Ramdas Pophale) SiO2 
 PCOD8008036
Probable space group: P -1
;
_chemical_formula_sum "Si O2"
_cell_formula_units_Z 16
_cell_length_a 8.596577
_cell_length_b 9.490431
_cell_length_c 11.848504
_cell_angle_alpha 117.851999
_cell_angle_beta 110.936952
_cell_angle_gamma 57.512104
_cell_volume 713.553484
_symmetry_space_group_name_H-M "P -1"
_symmetry_group_IT_number 2
_symmetry_cell_setting 'triclinic'
loop_
_space_group_symop_operation_xyz
x,y,z
-x,-y,-z
loop_
_atom_site_type_symbol
_atom_site_label
_atom_site_fract_x
_atom_site_fract_y
_atom_site_fract_z
Si Si1 0.379026 0.485809 0.357544
Si Si2 0.049724 0.400899 0.716021
Si Si3 0.273115 0.805793 0.301218
Si Si4 0.542129 0.078946 0.206766
Si Si5 0.943378 0.257030 0.098805
Si Si6 0.086895 0.202210 0.875669
Si Si7 0.282421 0.915719 0.113194
Si Si8 0.665874 0.955532 0.439405
O O1 0.500000 0.500000 0.500000
O O2 0.160797 0.555165 0.359083
O O3 0.394326 0.606822 0.305354
O O4 0.449318 0.291343 0.246356
O O5 0.094387 0.568619 0.772957
O O6 0.096665 0.337469 0.835245
O O7 0.192652 0.252122 0.613403
O O8 0.378118 0.841975 0.233803
O O9 0.074929 0.846945 0.216733
O O10 0.221298 0.945844 0.441691
O O11 0.724631 0.983073 0.141786
O O12 0.411395 0.983989 0.103310
O O13 0.585276 0.051153 0.338452
O O14 0.752822 0.238682 0.017741
O O15 0.080059 0.084123 0.140325
O O16 0.045485 0.280241 0.020247
O O17 0.500000 0.000000 0.500000
#
# Coordination Sequence:
#
# PCOD8008036 Si02
#       8
#     2   2   2   2   2   2   2   2
#     4  11  22  37  63  97 130 162 211 262 303 385
#     4  10  22  39  65  94 126 170 209 259 315 377
#     4  10  21  40  62  92 129 171 204 256 323 375
#     4  11  21  39  64  97 126 165 214 256 320 368
#     4  10  20  42  64  90 125 167 220 256 313 372
#     4   9  22  37  66  92 127 170 208 261 315 371
#     4  10  21  39  67  86 128 167 208 265 310 372
#     4  11  22  39  65  91 133 164 206 261 326 377
#
# _framework density 22.422986999999999
#
# number of rings (size 3 to 8) (size 9 to 14) (size 15 to 20)
#    0.000    1.750    3.750    0.375    1.750    2.000 
#    0.000    8.750    2.750    0.000    0.000    0.000 
#    0.000    0.000    0.000    0.000    0.000    0.000 
#
# Total GULP energy -198302.230898 kJ/mol
# GULP energy per Si atom -12393.889431 kJ/mol
# Density = 2.237195 g / cm^3
# Si number density = 22.422987 Si / 1000 Ang^3
#
#
#
# Elastic Constant Matrix: (Units=GPa)
#
#
# Indices 1 2 3 4 5 6 
#
# 1 58.7213 43.7193 23.6042 11.3754 -2.9553 -8.9930
# 2 43.7193 134.1132 53.3911 20.2345 9.6900 -3.9652
# 3 23.6042 53.3911 74.2094 9.7667 12.6990 -0.9764
# 4 11.3754 20.2345 9.7667 42.9935 -1.1397 2.2707
# 5 -2.9553 9.6900 12.6990 -1.1397 21.1191 5.5962
# 6 -8.9930 -3.9652 -0.9764 2.2707 5.5962 35.0179
#
#
#
# Elastic Compliance Matrix: (Units=1/GPa)
#
#
# Indices 1 2 3 4 5 6 
#
# 1 0.025209 -0.006565 -0.004206 -0.002660 0.007719 0.004552
# 2 -0.006565 0.012723 -0.006101 -0.002970 -0.003330 0.000309
# 3 -0.004206 -0.006101 0.021204 -0.001151 -0.010765 0.000615
# 4 -0.002660 -0.002970 -0.001151 0.025905 0.003972 -0.003366
# 5 0.007719 -0.003330 -0.010765 0.003972 0.058861 -0.008359
# 6 0.004552 0.000309 0.000615 -0.003366 -0.008359 0.031332
#
#
# Mechanical properties :
#
#
# Convention : Reuss Voigt Hill
#
# Bulk Modulus (GPa) = 39.38157 56.49701 47.93929
# Shear Modulus (GPa) = 22.99454 29.58140 26.28797
#
# Velocity S-wave (km/s) = 3.20580 3.63608 3.42770
# Velocity P-wave (km/s) = 5.59500 6.54819 6.09027
#
# Compressibility (1/GPa) = 0.02539259
#
# Stress axis : x y z
#
# Youngs Moduli (GPa) = 39.66803 78.59669 47.16076
#
# Poissons Ratio (x) = 0.51601 0.19835
# Poissons Ratio (y) = 0.26043 0.28772
# Poissons Ratio (z) = 0.16684 0.47951
#
# Static dielectric constant tensor:
#      x y z
#    x 4.165460 0.211520 0.145040 
#    y 0.211520 4.277820 -0.115870 
#    z 0.145040 -0.115870 4.408580 
# 
# 
# High freq. dielectric constant tensor:
#      x y z
#    x 1.871740 0.008270 0.024000 
#    y 0.008270 1.888860 -0.005010 
#    z 0.024000 -0.005010 1.883130 
# 
# From -- ./inp_files/383314.got.cif
#   From: 2010.06.25/outbox.cif.g09.slc.cpg/sg2_192_cif.got.tgz:383314.got - 2010.06.27 13:26:56.
