data_PCOD8008810
_publ_section_title
;
Structure prediction by ZEFSAII (Michael W. Deem and Ramdas Pophale) SiO2 
 PCOD8008810
Probable space group: P -1
;
_chemical_formula_sum "Si O2"
_cell_formula_units_Z 16
_cell_length_a 13.769632
_cell_length_b 8.915803
_cell_length_c 27.537508
_cell_angle_alpha 136.385761
_cell_angle_beta 158.092737
_cell_angle_gamma 55.194748
_cell_volume 800.386865
_symmetry_space_group_name_H-M "P -1"
_symmetry_group_IT_number 2
_symmetry_cell_setting 'triclinic'
loop_
_space_group_symop_operation_xyz
x,y,z
-x,-y,-z
loop_
_atom_site_type_symbol
_atom_site_label
_atom_site_fract_x
_atom_site_fract_y
_atom_site_fract_z
Si Si1 0.055572 0.398742 0.388373
Si Si2 0.832650 0.058885 0.667530
Si Si3 0.573527 0.256019 0.748842
Si Si4 0.501574 0.121045 0.122898
Si Si5 0.306265 0.531972 0.631368
Si Si6 0.944815 0.147977 0.553949
Si Si7 0.261197 0.242193 0.823484
Si Si8 0.089329 0.287456 0.933674
O O1 0.311696 0.538163 0.577132
O O2 0.037711 0.586891 0.385247
O O3 0.760139 0.311795 0.258580
O O4 0.115985 0.173416 0.344857
O O5 0.980940 0.166551 0.709983
O O6 0.978686 0.268832 0.823214
O O7 0.500000 0.000000 0.500000
O O8 0.384484 0.315887 0.634652
O O9 0.841505 0.230785 0.843873
O O10 0.381133 0.999605 0.619234
O O11 0.670220 0.451467 0.882821
O O12 0.468969 0.226146 0.185288
O O13 0.544638 0.885040 0.095564
O O14 0.219588 0.087289 0.954234
O O15 0.000000 0.500000 0.500000
O O16 0.157759 0.172218 0.703663
O O17 0.000000 0.000000 0.500000
O O18 0.500000 0.500000 0.000000
#
# Coordination Sequence:
#
# PCOD8008810 Si02
#       8
#     2   2   2   2   2   2   2   2
#     4  10  21  34  63  91 119 161 211 249 302 386
#     4  11  24  44  65  86 127 174 209 251 323 383
#     4  10  21  38  63  93 123 158 218 256 308 366
#     4   9  19  37  60  84 118 164 205 248 307 370
#     4   9  15  33  58  84 112 156 205 247 294 362
#     4  12  23  39  64  94 130 161 205 264 314 362
#     4  11  26  40  62  95 131 160 209 265 312 370
#     4  10  21  38  67  86 120 169 211 257 303 381
#
# _framework density 19.990331999999999
#
# number of rings (size 3 to 8) (size 9 to 14) (size 15 to 20)
#    0.000    1.750    0.000    6.750    5.250    1.000 
#    2.250    1.250    0.000    3.750    0.000    0.000 
#    0.000    0.000    0.000    0.000    0.000    0.000 
#
# Total GULP energy -198210.064194 kJ/mol
# GULP energy per Si atom -12388.129012 kJ/mol
# Density = 1.994483 g / cm^3
# Si number density = 19.990332 Si / 1000 Ang^3
#
#
#
# Elastic Constant Matrix: (Units=GPa)
#
#
# Indices 1 2 3 4 5 6 
#
# 1 82.9615 38.9681 45.5980 -2.0556 -12.4334 1.1189
# 2 38.9681 112.5189 50.8514 -4.9428 18.8474 5.3714
# 3 45.5980 50.8514 109.9326 -6.0736 -6.0005 4.9379
# 4 -2.0556 -4.9428 -6.0736 35.5727 6.0532 3.6660
# 5 -12.4334 18.8474 -6.0005 6.0532 32.9958 -2.2519
# 6 1.1189 5.3714 4.9379 3.6660 -2.2519 26.8742
#
#
#
# Elastic Compliance Matrix: (Units=1/GPa)
#
#
# Indices 1 2 3 4 5 6 
#
# 1 0.019226 -0.006669 -0.004564 -0.002724 0.010905 0.002656
# 2 -0.006669 0.016079 -0.005044 0.003666 -0.013536 -0.003644
# 3 -0.004564 -0.005044 0.013609 0.000899 0.003393 -0.001141
# 4 -0.002724 0.003666 0.000899 0.030737 -0.008987 -0.005730
# 5 0.010905 -0.013536 0.003393 -0.008987 0.044865 0.006613
# 6 0.002656 -0.003644 -0.001141 -0.005730 0.006613 0.039373
#
#
# Mechanical properties :
#
#
# Convention : Reuss Voigt Hill
#
# Bulk Modulus (GPa) = 61.12712 64.02756 62.57734
# Shear Modulus (GPa) = 24.76519 30.42158 27.59338
#
# Velocity S-wave (km/s) = 3.52356 3.90528 3.71932
# Velocity P-wave (km/s) = 6.87013 7.24111 7.05806
#
# Compressibility (1/GPa) = 0.01635935
#
# Stress axis : x y z
#
# Youngs Moduli (GPa) = 52.01343 62.19361 73.48015
#
# Poissons Ratio (x) = 0.41475 0.33539
# Poissons Ratio (y) = 0.34686 0.37065
# Poissons Ratio (z) = 0.23741 0.31371
#
# Static dielectric constant tensor:
#      x y z
#    x 3.950460 0.061180 -0.395190 
#    y 0.061180 3.737540 -0.106230 
#    z -0.395190 -0.106230 3.916660 
# 
# 
# High freq. dielectric constant tensor:
#      x y z
#    x 1.765140 -0.010920 -0.020760 
#    y -0.010920 1.778830 -0.010050 
#    z -0.020760 -0.010050 1.786340 
# 
# From -- ./inp_files/596242.got.cif
#   From: 2010.06.25/outbox.cif.g09.slc.cpg/sg2_299_cif.got.tgz:596242.got - 2010.06.27 13:26:56.
