data_PCOD8008893
_publ_section_title
;
Structure prediction by ZEFSAII (Michael W. Deem and Ramdas Pophale) SiO2 
 PCOD8008893
Probable space group: P -1
;
_chemical_formula_sum "Si O2"
_cell_formula_units_Z 14
_cell_length_a 12.508568
_cell_length_b 11.814047
_cell_length_c 8.706741
_cell_angle_alpha 55.164086
_cell_angle_beta 48.149499
_cell_angle_gamma 83.606320
_cell_volume 705.947627
_symmetry_space_group_name_H-M "P -1"
_symmetry_group_IT_number 2
_symmetry_cell_setting 'triclinic'
loop_
_space_group_symop_operation_xyz
x,y,z
-x,-y,-z
loop_
_atom_site_type_symbol
_atom_site_label
_atom_site_fract_x
_atom_site_fract_y
_atom_site_fract_z
Si Si1 0.655713 0.052072 0.707183
Si Si2 0.664441 0.464980 0.178229
Si Si3 0.411669 0.268315 0.036484
Si Si4 0.447145 0.211466 0.377547
Si Si5 0.744138 0.360935 0.500684
Si Si6 0.051336 0.562250 0.234039
Si Si7 0.707058 0.115739 0.257742
O O1 0.780001 0.214500 0.537359
O O2 0.635296 0.088346 0.521257
O O3 0.500000 0.000000 0.000000
O O4 0.700598 0.908059 0.775974
O O5 0.652026 0.624419 0.071728
O O6 0.495557 0.331404 0.379195
O O7 0.694304 0.425581 0.349577
O O8 0.808569 0.481834 0.916569
O O9 0.597517 0.314019 0.793727
O O10 0.399954 0.283856 0.219649
O O11 0.594938 0.171684 0.223894
O O12 0.299210 0.042121 0.685629
O O13 0.903735 0.492551 0.314144
O O14 0.000000 0.500000 0.500000
O O15 0.113212 0.747399 0.026789
#
# Coordination Sequence:
#
# PCOD8008893 Si02
#       7
#     2   2   2   2   2   2   2
#     4   9  18  33  57  85 112 145 193 229 280 332
#     4  11  21  36  58  88 116 148 186 244 290 323
#     4  10  21  35  57  89 118 144 188 241 290 329
#     4   9  17  32  57  79 112 146 188 229 280 325
#     4  11  20  37  60  84 113 151 193 232 281 347
#     4  11  23  38  59  83 114 155 198 226 279 349
#     4   9  17  33  55  83 108 148 193 236 265 332
#
# _framework density 19.831498
#
# number of rings (size 3 to 8) (size 9 to 14) (size 15 to 20)
#    0.000    2.000    2.857    3.000    0.000    1.143 
#    0.000    0.714    0.000    4.286    0.000    0.000 
#    0.000    0.000    0.000    0.000    0.000    0.000 
#
# Total GULP energy -173442.523624 kJ/mol
# GULP energy per Si atom -12388.751687 kJ/mol
# Density = 1.978636 g / cm^3
# Si number density = 19.831498 Si / 1000 Ang^3
#
#
#
# Elastic Constant Matrix: (Units=GPa)
#
#
# Indices 1 2 3 4 5 6 
#
# 1 80.0906 55.9550 48.1189 -29.5670 2.5909 24.3010
# 2 55.9550 91.5314 42.0122 -38.4553 2.3982 4.0369
# 3 48.1189 42.0122 105.0261 -28.1789 6.3666 14.2542
# 4 -29.5670 -38.4553 -28.1789 43.1234 5.5348 -0.5615
# 5 2.5909 2.3982 6.3666 5.5348 32.3091 -2.6372
# 6 24.3010 4.0369 14.2542 -0.5615 -2.6372 27.9628
#
#
#
# Elastic Compliance Matrix: (Units=1/GPa)
#
#
# Indices 1 2 3 4 5 6 
#
# 1 0.039747 -0.016685 -0.004539 0.009679 -0.005170 -0.030113
# 2 -0.016685 0.025909 -0.001187 0.011209 -0.001336 0.011464
# 3 -0.004539 -0.001187 0.014239 0.005549 -0.003579 -0.003368
# 4 0.009679 0.011209 0.005549 0.044745 -0.011431 -0.013038
# 5 -0.005170 -0.001336 -0.003579 -0.011431 0.034910 0.009574
# 6 -0.030113 0.011464 -0.003368 -0.013038 0.009574 0.062634
#
#
# Mechanical properties :
#
#
# Convention : Reuss Voigt Hill
#
# Bulk Modulus (GPa) = 28.51210 63.20226 45.85718
# Shear Modulus (GPa) = 17.94070 29.38318 23.66194
#
# Velocity S-wave (km/s) = 3.01101 3.85339 3.45795
# Velocity P-wave (km/s) = 5.14749 7.19284 6.25434
#
# Compressibility (1/GPa) = 0.03507283
#
# Stress axis : x y z
#
# Youngs Moduli (GPa) = 25.15929 38.59724 70.23003
#
# Poissons Ratio (x) = 0.64398 0.31878
# Poissons Ratio (y) = 0.41978 0.08336
# Poissons Ratio (z) = 0.11420 0.04581
#
# Static dielectric constant tensor:
#      x y z
#    x 3.379350 0.296970 0.040160 
#    y 0.296970 3.877500 -0.479230 
#    z 0.040160 -0.479230 3.847720 
# 
# 
# High freq. dielectric constant tensor:
#      x y z
#    x 1.747700 0.029230 0.024730 
#    y 0.029230 1.766970 -0.032710 
#    z 0.024730 -0.032710 1.773530 
# 
# From -- ./inp_files/195680.got.cif
#   From: 2010.06.25/outbox.cif.g09.slc.cpg/sg2_98_cif.got.tgz:195680.got - 2010.06.27 13:26:56.
