data_PCOD8008501
_publ_section_title
;
Structure prediction by ZEFSAII (Michael W. Deem and Ramdas Pophale) SiO2 
 PCOD8008501
Probable space group: P -1
;
_chemical_formula_sum "Si O2"
_cell_formula_units_Z 14
_cell_length_a 12.110000
_cell_length_b 9.012684
_cell_length_c 9.011737
_cell_angle_alpha 48.886168
_cell_angle_beta 61.604207
_cell_angle_gamma 76.458477
_cell_volume 647.275334
_symmetry_space_group_name_H-M "P -1"
_symmetry_group_IT_number 2
_symmetry_cell_setting 'triclinic'
loop_
_space_group_symop_operation_xyz
x,y,z
-x,-y,-z
loop_
_atom_site_type_symbol
_atom_site_label
_atom_site_fract_x
_atom_site_fract_y
_atom_site_fract_z
Si Si1 0.017406 0.713249 0.770425
Si Si2 0.263030 0.857573 0.928949
Si Si3 0.850504 0.797779 0.063189
Si Si4 0.519114 0.866648 0.933002
Si Si5 0.703461 0.131473 0.431260
Si Si6 0.034471 0.547835 0.280484
Si Si7 0.394018 0.464417 0.714010
O O1 0.157819 0.822602 0.618573
O O2 0.980429 0.664644 0.655533
O O3 0.000000 0.500000 0.000000
O O4 0.921346 0.845271 0.827692
O O5 0.390042 0.824119 0.953800
O O6 0.292310 0.950383 0.685763
O O7 0.183709 0.998847 0.981611
O O8 0.178832 0.645735 0.105786
O O9 0.726482 0.645799 0.219356
O O10 0.942363 0.700608 0.179515
O O11 0.627899 0.968268 0.690278
O O12 0.560616 0.659224 0.096268
O O13 0.500000 0.000000 0.000000
O O14 0.633836 0.327499 0.339220
O O15 0.000000 0.500000 0.500000
O O16 0.500000 0.500000 0.500000
#
# Coordination Sequence:
#
# PCOD8008501 Si02
#       7
#     2   2   2   2   2   2   2
#     4  10  20  43  71  96 136 187 226 280 357 415
#     4  12  25  46  68 102 148 177 235 297 340 416
#     4  11  22  45  69  98 138 187 228 276 365 403
#     4  12  27  45  71 107 134 189 241 285 350 421
#     4  12  24  48  72 100 145 184 234 296 347 416
#     4  11  24  40  69 105 136 176 235 287 345 417
#     4  12  24  44  76  97 138 192 231 284 354 418
#
# _framework density 21.629127
#
# number of rings (size 3 to 8) (size 9 to 14) (size 15 to 20)
#    0.000    0.571    8.571    0.857    4.000    0.571 
#    5.143    1.429    0.000    0.000    0.000    0.000 
#    0.000    0.000    0.000    0.000    0.000    0.000 
#
# Total GULP energy -173643.580318 kJ/mol
# GULP energy per Si atom -12403.112880 kJ/mol
# Density = 2.157990 g / cm^3
# Si number density = 21.629127 Si / 1000 Ang^3
#
#
#
# Elastic Constant Matrix: (Units=GPa)
#
#
# Indices 1 2 3 4 5 6 
#
# 1 146.8640 40.6191 87.3871 2.5962 -32.1366 24.2096
# 2 40.6191 129.4403 53.6496 24.9589 1.7736 -1.4375
# 3 87.3871 53.6496 152.7210 24.9254 -3.4168 -0.8792
# 4 2.5962 24.9589 24.9254 40.2064 -0.3436 5.1964
# 5 -32.1366 1.7736 -3.4168 -0.3436 34.6081 9.8620
# 6 24.2096 -1.4375 -0.8792 5.1964 9.8620 33.5348
#
#
#
# Elastic Compliance Matrix: (Units=1/GPa)
#
#
# Indices 1 2 3 4 5 6 
#
# 1 0.047815 -0.010608 -0.027269 0.028324 0.058889 -0.057396
# 2 -0.010608 0.012113 0.003349 -0.010862 -0.014280 0.014148
# 3 -0.027269 0.003349 0.023618 -0.019520 -0.032793 0.033118
# 4 0.028324 -0.010862 -0.019520 0.047310 0.036668 -0.039540
# 5 0.058889 -0.014280 -0.032793 0.036668 0.104333 -0.080350
# 6 -0.057396 0.014148 0.033118 -0.039540 -0.080350 0.102486
#
#
# Mechanical properties :
#
#
# Convention : Reuss Voigt Hill
#
# Bulk Modulus (GPa) = 69.01118 88.03743 78.52430
# Shear Modulus (GPa) = 12.14883 38.16115 25.15499
#
# Velocity S-wave (km/s) = 2.37257 4.20496 3.41400
# Velocity P-wave (km/s) = 6.28341 8.02291 7.20585
#
# Compressibility (1/GPa) = 0.01449041
#
# Stress axis : x y z
#
# Youngs Moduli (GPa) = 20.91382 82.55301 42.34143
#
# Poissons Ratio (x) = 0.87574 1.15461
# Poissons Ratio (y) = 0.22186 -0.14182
# Poissons Ratio (z) = 0.57030 -0.27650
#
# Static dielectric constant tensor:
#      x y z
#    x 4.109430 0.172550 -0.117840 
#    y 0.172550 4.800260 0.396560 
#    z -0.117840 0.396560 3.992380 
# 
# 
# High freq. dielectric constant tensor:
#      x y z
#    x 1.860160 0.007160 -0.013630 
#    y 0.007160 1.855890 0.017340 
#    z -0.013630 0.017340 1.853000 
# 
# From -- ./inp_files/204893.got.cif
#   From: 2010.06.25/outbox.cif.g09.slc.cpg/sg2_103_cif.got.tgz:204893.got - 2010.06.27 13:26:56.
