data_PCOD8008346
_publ_section_title
;
Structure prediction by ZEFSAII (Michael W. Deem and Ramdas Pophale) SiO2 
 PCOD8008346
Probable space group: P -1
;
_chemical_formula_sum "Si O2"
_cell_formula_units_Z 16
_cell_length_a 8.155970
_cell_length_b 6.024806
_cell_length_c 18.862721
_cell_angle_alpha 118.254030
_cell_angle_beta 83.662994
_cell_angle_gamma 118.572934
_cell_volume 708.900656
_symmetry_space_group_name_H-M "P -1"
_symmetry_group_IT_number 2
_symmetry_cell_setting 'triclinic'
loop_
_space_group_symop_operation_xyz
x,y,z
-x,-y,-z
loop_
_atom_site_type_symbol
_atom_site_label
_atom_site_fract_x
_atom_site_fract_y
_atom_site_fract_z
Si Si1 0.326760 0.897123 0.089484
Si Si2 0.696599 0.427320 0.093196
Si Si3 0.043457 0.426640 0.770689
Si Si4 0.168281 0.269733 0.203931
Si Si5 0.752945 0.813591 0.663880
Si Si6 0.496220 0.753820 0.186737
Si Si7 0.332194 0.644320 0.672686
Si Si8 0.900266 0.679352 0.497133
O O1 0.346080 0.776043 0.145625
O O2 0.537860 0.142852 0.096780
O O3 0.170600 0.998716 0.124486
O O4 0.246023 0.650745 0.996307
O O5 0.884655 0.587997 0.156572
O O6 0.617181 0.647976 0.117869
O O7 0.197175 0.434351 0.708671
O O8 0.007668 0.700717 0.812781
O O9 0.842713 0.159526 0.715953
O O10 0.142483 0.256077 0.288197
O O11 0.376785 0.531205 0.219396
O O12 0.531584 0.651782 0.666260
O O13 0.784239 0.710781 0.571560
O O14 0.640853 0.042538 0.263814
O O15 0.242974 0.548945 0.585618
O O16 0.000000 0.500000 0.500000
O O17 0.000000 0.000000 0.500000
#
# Coordination Sequence:
#
# PCOD8008346 Si02
#       8
#     2   2   2   2   2   2   2   2
#     4  10  20  43  63 102 144 185 247 297 366 432
#     4  10  23  36  69 102 140 193 237 305 362 433
#     4  12  24  43  70 103 142 189 244 293 368 431
#     4  11  23  42  70  98 143 191 237 308 355 442
#     4  12  26  49  72 106 147 186 245 298 365 444
#     4  11  21  43  69 100 139 190 247 294 366 437
#     4  12  24  48  75 105 141 196 235 300 372 439
#     4  12  29  51  79 117 152 192 246 310 374 452
#
# _framework density 22.570157999999999
#
# number of rings (size 3 to 8) (size 9 to 14) (size 15 to 20)
#    0.000    0.750    5.000    2.250    3.500    1.500 
#    0.000    4.375    0.000    0.000    0.000    0.000 
#    0.000    0.000    0.000    0.000    0.000    0.000 
#
# Total GULP energy -198273.182583 kJ/mol
# GULP energy per Si atom -12392.073911 kJ/mol
# Density = 2.251879 g / cm^3
# Si number density = 22.570158 Si / 1000 Ang^3
#
#
#
# Elastic Constant Matrix: (Units=GPa)
#
#
# Indices 1 2 3 4 5 6 
#
# 1 119.0703 24.3165 48.6786 7.5719 -10.7982 -13.2716
# 2 24.3165 73.9767 36.2587 -5.5177 -9.6108 -11.4861
# 3 48.6786 36.2587 188.7707 -1.6534 -1.0195 -2.5162
# 4 7.5719 -5.5177 -1.6534 23.0938 10.3102 -8.9780
# 5 -10.7982 -9.6108 -1.0195 10.3102 29.2439 6.0512
# 6 -13.2716 -11.4861 -2.5162 -8.9780 6.0512 33.4039
#
#
#
# Elastic Compliance Matrix: (Units=1/GPa)
#
#
# Indices 1 2 3 4 5 6 
#
# 1 0.010751 -0.002019 -0.002400 -0.006228 0.005259 0.000770
# 2 -0.002019 0.017099 -0.002614 0.006552 0.001141 0.006435
# 3 -0.002400 -0.002614 0.006409 0.001115 -0.001760 -0.000752
# 4 -0.006228 0.006552 0.001115 0.069461 -0.029538 0.023883
# 5 0.005259 0.001141 -0.001760 -0.029538 0.049891 -0.014628
# 6 0.000770 0.006435 -0.000752 0.023883 -0.014628 0.041467
#
#
# Mechanical properties :
#
#
# Convention : Reuss Voigt Hill
#
# Bulk Modulus (GPa) = 49.52723 66.70282 58.11503
# Shear Modulus (GPa) = 23.16147 35.31927 29.24037
#
# Velocity S-wave (km/s) = 3.20691 3.96013 3.60326
# Velocity P-wave (km/s) = 5.97525 7.10830 6.56626
#
# Compressibility (1/GPa) = 0.02019091
#
# Stress axis : x y z
#
# Youngs Moduli (GPa) = 93.01625 58.48327 156.03489
#
# Poissons Ratio (x) = 0.11808 0.37454
# Poissons Ratio (y) = 0.18781 0.40793
# Poissons Ratio (z) = 0.22328 0.15289
#
# Static dielectric constant tensor:
#      x y z
#    x 3.985910 -0.108090 -0.155950 
#    y -0.108090 4.342120 0.023400 
#    z -0.155950 0.023400 4.221480 
# 
# 
# High freq. dielectric constant tensor:
#      x y z
#    x 1.890470 0.000770 -0.011650 
#    y 0.000770 1.892420 -0.003730 
#    z -0.011650 -0.003730 1.898540 
# 
# From -- ./inp_files/53223.got.cif
#   From: 2010.06.25/outbox.cif.g09.slc.cpg/sg2_27_cif.got.tgz:53223.got - 2010.06.27 13:26:56.
