data_PCOD8008459
_publ_section_title
;
Structure prediction by ZEFSAII (Michael W. Deem and Ramdas Pophale) SiO2 
 PCOD8008459
Probable space group: P -1
;
_chemical_formula_sum "Si O2"
_cell_formula_units_Z 14
_cell_length_a 7.678957
_cell_length_b 8.982575
_cell_length_c 20.170527
_cell_angle_alpha 149.617496
_cell_angle_beta 118.066739
_cell_angle_gamma 71.588367
_cell_volume 608.155976
_symmetry_space_group_name_H-M "P -1"
_symmetry_group_IT_number 2
_symmetry_cell_setting 'triclinic'
loop_
_space_group_symop_operation_xyz
x,y,z
-x,-y,-z
loop_
_atom_site_type_symbol
_atom_site_label
_atom_site_fract_x
_atom_site_fract_y
_atom_site_fract_z
Si Si1 0.485052 0.392765 0.784794
Si Si2 0.647318 0.487598 0.701515
Si Si3 0.133624 0.247835 0.937012
Si Si4 0.924846 0.642119 0.243341
Si Si5 0.882959 0.077012 0.945534
Si Si6 0.439944 0.228273 0.435787
Si Si7 0.006746 0.851471 0.645954
O O1 0.553954 0.431075 0.735793
O O2 0.258318 0.451066 0.773031
O O3 0.466411 0.052919 0.677644
O O4 0.641568 0.611780 0.943573
O O5 0.497896 0.302107 0.550776
O O6 0.865464 0.394605 0.700076
O O7 0.671299 0.836853 0.816861
O O8 0.012530 0.027269 0.885891
O O9 0.162769 0.032881 0.797490
O O10 0.000000 0.500000 0.000000
O O11 0.865161 0.425391 0.084564
O O12 0.948420 0.984695 0.353974
O O13 0.000000 0.000000 0.000000
O O14 0.500000 0.500000 0.500000
O O15 0.203355 0.105698 0.345226
O O16 0.000000 0.500000 0.500000
#
# Coordination Sequence:
#
# PCOD8008459 Si02
#       7
#     2   2   2   2   2   2   2
#     4  12  25  44  75 103 135 199 243 290 369 422
#     4  11  24  47  72 100 151 185 238 310 349 432
#     4  12  21  46  77  94 147 191 233 302 356 420
#     4  11  24  45  71 105 142 185 251 290 357 434
#     4  10  20  43  69 101 138 185 233 296 356 411
#     4  12  25  46  71 103 148 194 236 293 374 425
#     4  12  26  46  69 110 149 186 244 302 357 428
#
# _framework density 23.020410999999999
#
# number of rings (size 3 to 8) (size 9 to 14) (size 15 to 20)
#    0.000    0.571    7.143    2.143    0.000    2.857 
#    7.714    0.000    0.000    0.000    0.000    0.000 
#    0.000    0.000    0.000    0.000    0.000    0.000 
#
# Total GULP energy -173527.261166 kJ/mol
# GULP energy per Si atom -12394.804369 kJ/mol
# Density = 2.296802 g / cm^3
# Si number density = 23.020411 Si / 1000 Ang^3
#
#
#
# Elastic Constant Matrix: (Units=GPa)
#
#
# Indices 1 2 3 4 5 6 
#
# 1 120.4292 28.7811 9.5704 -5.7832 13.1334 9.3367
# 2 28.7811 89.7210 42.4900 1.6666 6.3020 15.8902
# 3 9.5704 42.4900 135.5086 1.9725 -2.3849 5.6180
# 4 -5.7832 1.6666 1.9725 48.5788 2.0222 5.2668
# 5 13.1334 6.3020 -2.3849 2.0222 32.6296 8.0793
# 6 9.3367 15.8902 5.6180 5.2668 8.0793 25.6770
#
#
#
# Elastic Compliance Matrix: (Units=1/GPa)
#
#
# Indices 1 2 3 4 5 6 
#
# 1 0.009431 -0.002712 0.000155 0.001459 -0.003075 -0.001117
# 2 -0.002712 0.015428 -0.004342 0.000155 -0.000350 -0.007533
# 3 0.000155 -0.004342 0.008743 -0.000282 0.001345 0.000352
# 4 0.001459 0.000155 -0.000282 0.021306 -0.000798 -0.004684
# 5 -0.003075 -0.000350 0.001345 -0.000798 0.034489 -0.009648
# 6 -0.001117 -0.007533 0.000352 -0.004684 -0.009648 0.047933
#
#
# Mechanical properties :
#
#
# Convention : Reuss Voigt Hill
#
# Bulk Modulus (GPa) = 50.49390 56.37131 53.43260
# Shear Modulus (GPa) = 31.69971 39.03156 35.36564
#
# Velocity S-wave (km/s) = 3.71486 4.12214 3.92378
# Velocity P-wave (km/s) = 6.35470 6.86999 6.61736
#
# Compressibility (1/GPa) = 0.01980437
#
# Stress axis : x y z
#
# Youngs Moduli (GPa) = 106.02816 64.81758 114.37300
#
# Poissons Ratio (x) = 0.17581 -0.01777
# Poissons Ratio (y) = 0.28759 0.49662
# Poissons Ratio (z) = -0.01647 0.28144
#
# Static dielectric constant tensor:
#      x y z
#    x 3.855860 -0.086910 0.090480 
#    y -0.086910 4.027970 0.245190 
#    z 0.090480 0.245190 5.071400 
# 
# 
# High freq. dielectric constant tensor:
#      x y z
#    x 1.897040 0.016710 0.014080 
#    y 0.016710 1.907460 0.008860 
#    z 0.014080 0.008860 1.925520 
# 
# From -- ./inp_files/182259.got.cif
#   From: 2010.06.25/outbox.cif.g09.slc.cpg/sg2_92_cif.got.tgz:182259.got - 2010.06.27 13:26:56.
