data_PCOD8008779
_publ_section_title
;
Structure prediction by ZEFSAII (Michael W. Deem and Ramdas Pophale) SiO2 
 PCOD8008779
Probable space group: P -1
;
_chemical_formula_sum "Si O2"
_cell_formula_units_Z 12
_cell_length_a 7.625612
_cell_length_b 11.973392
_cell_length_c 14.223651
_cell_angle_alpha 42.447207
_cell_angle_beta 128.938035
_cell_angle_gamma 134.070579
_cell_volume 611.705658
_symmetry_space_group_name_H-M "P -1"
_symmetry_group_IT_number 2
_symmetry_cell_setting 'triclinic'
loop_
_space_group_symop_operation_xyz
x,y,z
-x,-y,-z
loop_
_atom_site_type_symbol
_atom_site_label
_atom_site_fract_x
_atom_site_fract_y
_atom_site_fract_z
Si Si1 0.402607 0.790059 0.123929
Si Si2 0.654378 0.507133 0.846865
Si Si3 0.546320 0.225626 0.464085
Si Si4 0.578056 0.706652 0.423344
Si Si5 0.146459 0.814144 0.561260
Si Si6 0.095932 0.533358 0.871788
O O1 0.497059 0.683811 0.144964
O O2 0.525516 0.806954 0.256423
O O3 0.097104 0.674312 0.099908
O O4 0.500000 0.000000 0.000000
O O5 0.526586 0.642215 0.707491
O O6 0.940358 0.609212 0.839949
O O7 0.672660 0.468402 0.988573
O O8 0.590827 0.292835 0.544901
O O9 0.797056 0.228054 0.500613
O O10 0.329247 0.020212 0.521934
O O11 0.500000 0.500000 0.500000
O O12 0.870325 0.798001 0.490938
O O13 0.199601 0.673384 0.733287
#
# Coordination Sequence:
#
# PCOD8008779 Si02
#       6
#     2   2   2   2   2   2
#     4  10  21  34  58  94 111 152 202 229 298 358
#     4   9  19  37  58  85 115 156 192 236 292 343
#     4  11  24  39  61  90 117 157 203 240 288 352
#     4  12  21  40  62  88 119 158 190 248 304 338
#     4  11  24  39  61  90 117 157 203 240 288 352
#     4   9  19  37  58  85 115 156 192 236 292 343
#
# _framework density 19.617277999999999
#
# number of rings (size 3 to 8) (size 9 to 14) (size 15 to 20)
#    1.000    0.667    5.000    0.500    4.667    1.333 
#    0.000    0.000    0.000    2.000    0.000    0.000 
#    0.000    0.000    0.000    0.000    0.000    0.000 
#
# Total GULP energy -148701.820686 kJ/mol
# GULP energy per Si atom -12391.818391 kJ/mol
# Density = 1.957263 g / cm^3
# Si number density = 19.617278 Si / 1000 Ang^3
#
#
#
# Elastic Constant Matrix: (Units=GPa)
#
#
# Indices 1 2 3 4 5 6 
#
# 1 58.1224 15.9968 14.3968 1.2846 -14.6420 -21.1482
# 2 15.9968 76.6539 53.1114 -9.9804 -12.1817 -17.3446
# 3 14.3968 53.1114 150.5876 3.4283 -18.1013 -11.7945
# 4 1.2846 -9.9804 3.4283 44.5378 -5.4184 -1.4620
# 5 -14.6420 -12.1817 -18.1013 -5.4184 19.5744 6.0484
# 6 -21.1482 -17.3446 -11.7945 -1.4620 6.0484 19.3504
#
#
#
# Elastic Compliance Matrix: (Units=1/GPa)
#
#
# Indices 1 2 3 4 5 6 
#
# 1 0.032946 0.004007 0.000171 0.003199 0.017532 0.034464
# 2 0.004007 0.023050 -0.006249 0.007084 0.007525 0.019415
# 3 0.000171 -0.006249 0.009342 -0.001578 0.004861 -0.001359
# 4 0.003199 0.007084 -0.001578 0.025543 0.010041 0.007675
# 5 0.017532 0.007525 0.004861 0.010041 0.074168 0.006445
# 6 0.034464 0.019415 -0.001359 0.007675 0.006445 0.104484
#
#
# Mechanical properties :
#
#
# Convention : Reuss Voigt Hill
#
# Bulk Modulus (GPa) = 16.34080 50.26378 33.30229
# Shear Modulus (GPa) = 17.00251 30.14975 23.57613
#
# Velocity S-wave (km/s) = 2.94719 3.92458 3.47047
# Velocity P-wave (km/s) = 4.46420 6.79811 5.75080
#
# Compressibility (1/GPa) = 0.06119650
#
# Stress axis : x y z
#
# Youngs Moduli (GPa) = 30.35283 43.38347 107.04239
#
# Poissons Ratio (x) = -0.17384 -0.01830
# Poissons Ratio (y) = -0.12163 0.66889
# Poissons Ratio (z) = -0.00519 0.27110
#
# Static dielectric constant tensor:
#      x y z
#    x 3.444620 -0.228290 -0.283660 
#    y -0.228290 3.606610 0.319980 
#    z -0.283660 0.319980 4.048800 
# 
# 
# High freq. dielectric constant tensor:
#      x y z
#    x 1.739200 -0.014450 -0.014450 
#    y -0.014450 1.756050 -0.002060 
#    z -0.014450 -0.002060 1.772380 
# 
# From -- ./inp_files/420173.got.cif
#   From: 2010.06.25/outbox.cif.g09.slc.cpg/sg2_211_cif.got.tgz:420173.got - 2010.06.27 13:26:56.
