data_PCOD8008126
_publ_section_title
;
Structure prediction by ZEFSAII (Michael W. Deem and Ramdas Pophale) SiO2 
 PCOD8008126
Probable space group: P -1
;
_chemical_formula_sum "Si O2"
_cell_formula_units_Z 16
_cell_length_a 26.984658
_cell_length_b 21.240428
_cell_length_c 8.662757
_cell_angle_alpha 152.627086
_cell_angle_beta 151.266737
_cell_angle_gamma 20.232407
_cell_volume 759.192006
_symmetry_space_group_name_H-M "P -1"
_symmetry_group_IT_number 2
_symmetry_cell_setting 'triclinic'
loop_
_space_group_symop_operation_xyz
x,y,z
-x,-y,-z
loop_
_atom_site_type_symbol
_atom_site_label
_atom_site_fract_x
_atom_site_fract_y
_atom_site_fract_z
Si Si1 0.178665 0.018538 0.226009
Si Si2 0.347702 0.350728 0.115653
Si Si3 0.345231 0.678471 0.382596
Si Si4 0.838132 0.362240 0.049839
Si Si5 0.342809 0.605516 0.859475
Si Si6 0.171869 0.370863 0.197251
Si Si7 0.326207 0.140982 0.807596
Si Si8 0.320675 0.974754 0.817107
O O1 0.279910 0.025099 0.411918
O O2 0.007709 0.194837 0.092242
O O3 0.194297 0.047769 0.510305
O O4 0.227172 0.813695 0.903235
O O5 0.318616 0.472913 0.453132
O O6 0.521987 0.175529 0.168551
O O7 0.259830 0.495753 0.050032
O O8 0.285794 0.260403 0.798854
O O9 0.500000 0.500000 0.500000
O O10 0.322965 0.865381 0.727097
O O11 0.212891 0.738620 0.251626
O O12 0.338040 0.626197 0.075869
O O13 0.808386 0.494446 0.396714
O O14 0.500000 0.500000 0.000000
O O15 0.238477 0.293238 0.040516
O O16 0.000000 0.500000 0.000000
O O17 0.265232 0.181121 0.158729
O O18 0.500000 0.000000 0.000000
#
# Coordination Sequence:
#
# PCOD8008126 Si02
#       8
#     2   2   2   2   2   2   2   2
#     4  10  22  40  64  94 127 167 218 272 324 387
#     4  12  23  41  64  97 130 170 223 270 322 397
#     4  11  22  42  67  96 130 170 216 274 328 389
#     4  12  25  42  64  97 138 168 216 283 329 387
#     4  11  20  40  68  90 127 175 216 266 330 395
#     4  11  22  44  69  95 133 174 220 276 337 385
#     4  11  20  42  70  91 124 174 222 265 327 397
#     4  10  20  42  66  93 131 166 227 264 323 398
#
# _framework density 21.075037999999999
#
# number of rings (size 3 to 8) (size 9 to 14) (size 15 to 20)
#    0.000    1.000    8.750    0.750    0.000    3.500 
#    2.250    1.250    0.000    0.000    0.000    0.000 
#    0.000    0.000    0.000    0.000    0.000    0.000 
#
# Total GULP energy -198297.630155 kJ/mol
# GULP energy per Si atom -12393.601885 kJ/mol
# Density = 2.102707 g / cm^3
# Si number density = 21.075038 Si / 1000 Ang^3
#
#
#
# Elastic Constant Matrix: (Units=GPa)
#
#
# Indices 1 2 3 4 5 6 
#
# 1 123.5141 48.6305 28.0786 -1.4091 34.0775 12.4275
# 2 48.6305 121.1163 35.5396 10.4917 15.3246 -5.8385
# 3 28.0786 35.5396 51.8547 2.7370 23.7477 2.0404
# 4 -1.4091 10.4917 2.7370 31.2583 6.2767 9.4695
# 5 34.0775 15.3246 23.7477 6.2767 42.9878 6.0030
# 6 12.4275 -5.8385 2.0404 9.4695 6.0030 39.1461
#
#
#
# Elastic Compliance Matrix: (Units=1/GPa)
#
#
# Indices 1 2 3 4 5 6 
#
# 1 0.012910 -0.004846 0.000247 0.005399 -0.008761 -0.004797
# 2 -0.004846 0.012731 -0.007698 -0.006003 0.003775 0.004712
# 3 0.000247 -0.007698 0.031155 0.003279 -0.014953 -0.001351
# 4 0.005399 -0.006003 0.003279 0.038907 -0.008103 -0.010949
# 5 -0.008761 0.003775 -0.014953 -0.008103 0.038276 0.000215
# 6 -0.004797 0.004712 -0.001351 -0.010949 0.000215 0.030457
#
#
# Mechanical properties :
#
#
# Convention : Reuss Voigt Hill
#
# Bulk Modulus (GPa) = 31.05542 57.88694 44.47118
# Shear Modulus (GPa) = 25.02957 34.96085 29.99521
#
# Velocity S-wave (km/s) = 3.44995 4.07735 3.77670
# Velocity P-wave (km/s) = 5.53509 7.04933 6.33760
#
# Compressibility (1/GPa) = 0.03220050
#
# Stress axis : x y z
#
# Youngs Moduli (GPa) = 77.46159 78.54857 32.09759
#
# Poissons Ratio (x) = 0.38068 -0.00794
# Poissons Ratio (y) = 0.37541 0.24710
# Poissons Ratio (z) = -0.01916 0.60470
#
# Static dielectric constant tensor:
#      x y z
#    x 3.292020 0.143820 0.536450 
#    y 0.143820 4.545150 1.025420 
#    z 0.536450 1.025420 4.756110 
# 
# 
# High freq. dielectric constant tensor:
#      x y z
#    x 1.817220 0.010390 0.024450 
#    y 0.010390 1.838500 0.010670 
#    z 0.024450 0.010670 1.813090 
# 
# From -- ./inp_files/357777.got.cif
#   From: 2010.06.25/outbox.cif.g09.slc.cpg/sg2_179_cif.got.tgz:357777.got - 2010.06.27 13:26:56.
