data_PCOD8008556
_publ_section_title
;
Structure prediction by ZEFSAII (Michael W. Deem and Ramdas Pophale) SiO2 
 PCOD8008556
Probable space group: P -1
;
_chemical_formula_sum "Si O2"
_cell_formula_units_Z 14
_cell_length_a 9.202370
_cell_length_b 16.760751
_cell_length_c 20.375922
_cell_angle_alpha 20.138302
_cell_angle_beta 140.251094
_cell_angle_gamma 140.774588
_cell_volume 671.658707
_symmetry_space_group_name_H-M "P -1"
_symmetry_group_IT_number 2
_symmetry_cell_setting 'triclinic'
loop_
_space_group_symop_operation_xyz
x,y,z
-x,-y,-z
loop_
_atom_site_type_symbol
_atom_site_label
_atom_site_fract_x
_atom_site_fract_y
_atom_site_fract_z
Si Si1 0.458662 0.194942 0.986611
Si Si2 0.562541 0.854003 0.529312
Si Si3 0.606718 0.357653 0.594176
Si Si4 0.554595 0.501273 0.907483
Si Si5 0.899795 0.508991 0.386718
Si Si6 0.215563 0.605233 0.806775
Si Si7 0.293133 0.420534 0.318053
O O1 0.542729 0.284705 0.019830
O O2 0.211008 0.261488 0.836007
O O3 0.639453 0.326032 0.892109
O O4 0.446749 0.918215 0.190933
O O5 0.618897 0.752032 0.697759
O O6 0.292874 0.733365 0.509953
O O7 0.734337 0.788199 0.584543
O O8 0.606582 0.135060 0.332733
O O9 0.500000 0.500000 0.500000
O O10 0.500639 0.394723 0.458162
O O11 0.885401 0.462328 0.611016
O O12 0.303461 0.463169 0.887620
O O13 0.759116 0.511417 0.023667
O O14 0.000000 0.500000 0.500000
O O15 0.945428 0.607481 0.701872
#
# Coordination Sequence:
#
# PCOD8008556 Si02
#       7
#     2   2   2   2   2   2   2
#     4  10  23  44  65  89 128 173 203 255 321 371
#     4  10  21  39  64  87 125 168 199 253 312 369
#     4  12  25  42  64  98 124 165 214 261 315 365
#     4   9  22  38  60  89 123 163 214 241 318 376
#     4  10  20  44  66  92 125 167 214 250 309 385
#     4  11  21  39  61  96 125 158 208 265 301 371
#     4  10  23  40  61  94 129 159 213 254 317 369
#
# _framework density 20.843917999999999
#
# number of rings (size 3 to 8) (size 9 to 14) (size 15 to 20)
#    0.000    2.000    2.857    2.143    4.000    4.000 
#    5.143    0.000    0.000    0.000    0.000    0.000 
#    0.000    0.000    0.000    0.000    0.000    0.000 
#
# Total GULP energy -173575.353652 kJ/mol
# GULP energy per Si atom -12398.239547 kJ/mol
# Density = 2.079648 g / cm^3
# Si number density = 20.843918 Si / 1000 Ang^3
#
#
#
# Elastic Constant Matrix: (Units=GPa)
#
#
# Indices 1 2 3 4 5 6 
#
# 1 99.8435 28.8907 43.7572 -9.5826 6.5723 6.2532
# 2 28.8907 71.5682 48.2041 -6.6433 -1.1377 14.7970
# 3 43.7572 48.2041 91.1094 -6.2865 -5.5489 -2.0227
# 4 -9.5826 -6.6433 -6.2865 33.8394 -1.7177 -5.1593
# 5 6.5723 -1.1377 -5.5489 -1.7177 31.5928 11.0088
# 6 6.2532 14.7970 -2.0227 -5.1593 11.0088 34.5015
#
#
#
# Elastic Compliance Matrix: (Units=1/GPa)
#
#
# Indices 1 2 3 4 5 6 
#
# 1 0.013431 -0.001073 -0.005963 0.002173 -0.003449 -0.000898
# 2 -0.001073 0.026155 -0.013366 0.000568 0.003300 -0.012774
# 3 -0.005963 -0.013366 0.021257 0.000889 0.001897 0.007587
# 4 0.002173 0.000568 0.000889 0.031062 -0.000001 0.004060
# 5 -0.003449 0.003300 0.001897 -0.000001 0.037194 -0.012547
# 6 -0.000898 -0.012774 0.007587 0.004060 -0.012547 0.039681
#
#
# Mechanical properties :
#
#
# Convention : Reuss Voigt Hill
#
# Bulk Modulus (GPa) = 49.90367 56.02500 52.96433
# Shear Modulus (GPa) = 23.11981 29.43134 26.27557
#
# Velocity S-wave (km/s) = 3.33406 3.76172 3.55433
# Velocity P-wave (km/s) = 6.23016 6.76787 6.50457
#
# Compressibility (1/GPa) = 0.02003861
#
# Stress axis : x y z
#
# Youngs Moduli (GPa) = 74.45255 38.23396 47.04382
#
# Poissons Ratio (x) = 0.04103 0.28052
# Poissons Ratio (y) = 0.07989 0.62879
# Poissons Ratio (z) = 0.44396 0.51104
#
# Static dielectric constant tensor:
#      x y z
#    x 3.953510 -0.016720 -0.132760 
#    y -0.016720 3.624120 0.189090 
#    z -0.132760 0.189090 3.753290 
# 
# 
# High freq. dielectric constant tensor:
#      x y z
#    x 1.828670 -0.002120 -0.009020 
#    y -0.002120 1.797690 0.014280 
#    z -0.009020 0.014280 1.817610 
# 
# From -- ./inp_files/204374.got.cif
#   From: 2010.06.25/outbox.cif.g09.slc.cpg/sg2_103_cif.got.tgz:204374.got - 2010.06.27 13:26:56.
