data_PCOD8008184
_publ_section_title
;
Structure prediction by ZEFSAII (Michael W. Deem and Ramdas Pophale) SiO2 
 PCOD8008184
Probable space group: P -1
;
_chemical_formula_sum "Si O2"
_cell_formula_units_Z 16
_cell_length_a 9.478782
_cell_length_b 8.740533
_cell_length_c 11.874815
_cell_angle_alpha 114.974777
_cell_angle_beta 120.157893
_cell_angle_gamma 65.381818
_cell_volume 744.419205
_symmetry_space_group_name_H-M "P -1"
_symmetry_group_IT_number 2
_symmetry_cell_setting 'triclinic'
loop_
_space_group_symop_operation_xyz
x,y,z
-x,-y,-z
loop_
_atom_site_type_symbol
_atom_site_label
_atom_site_fract_x
_atom_site_fract_y
_atom_site_fract_z
Si Si1 0.644865 0.949456 0.401052
Si Si2 0.337108 0.817410 0.326919
Si Si3 0.301091 0.500256 0.914482
Si Si4 0.447134 0.508496 0.610116
Si Si5 0.745226 0.802477 0.034174
Si Si6 0.821659 0.587159 0.401794
Si Si7 0.933262 0.171572 0.951906
Si Si8 0.591289 0.125673 0.205508
O O1 0.479803 0.895977 0.357020
O O2 0.811018 0.786950 0.426943
O O3 0.689233 0.109610 0.533614
O O4 0.600801 0.995076 0.270247
O O5 0.390582 0.604278 0.288514
O O6 0.166875 0.883362 0.209273
O O7 0.262546 0.334498 0.911872
O O8 0.237735 0.503761 0.760436
O O9 0.500000 0.500000 0.000000
O O10 0.192329 0.679031 0.980232
O O11 0.500000 0.500000 0.500000
O O12 0.303967 0.406751 0.540717
O O13 0.358633 0.700673 0.682138
O O14 0.919276 0.752576 0.018988
O O15 0.713936 0.005677 0.125601
O O16 0.599769 0.799858 0.887172
O O17 0.000000 0.500000 0.500000
O O18 0.000000 0.000000 0.000000
#
# Coordination Sequence:
#
# PCOD8008184 Si02
#       8
#     2   2   2   2   2   2   2   2
#     4  10  20  42  67  93 132 178 223 282 339 424
#     4  10  22  41  65  96 134 176 227 275 349 414
#     4  12  26  50  75  97 142 190 233 286 354 431
#     4  11  23  42  67  97 132 179 221 279 342 421
#     4  11  26  43  70  99 140 180 231 293 346 414
#     4  11  26  42  67 100 134 177 228 285 351 401
#     4  12  28  43  69 106 139 180 235 290 350 407
#     4  11  22  42  69  99 132 177 238 273 349 415
#
# _framework density 21.493265999999998
#
# number of rings (size 3 to 8) (size 9 to 14) (size 15 to 20)
#    0.000    1.000    2.500    4.125    7.000    2.000 
#    0.000    1.250    0.000    0.000    0.000    0.000 
#    0.000    0.000    0.000    0.000    0.000    0.000 
#
# Total GULP energy -198269.885238 kJ/mol
# GULP energy per Si atom -12391.867827 kJ/mol
# Density = 2.144435 g / cm^3
# Si number density = 21.493266 Si / 1000 Ang^3
#
#
#
# Elastic Constant Matrix: (Units=GPa)
#
#
# Indices 1 2 3 4 5 6 
#
# 1 107.9355 43.3641 40.4323 -12.9436 -8.4069 -7.9088
# 2 43.3641 130.8121 30.9117 -8.3330 -2.0830 -3.9679
# 3 40.4323 30.9117 80.2680 -25.0749 2.5028 -4.8493
# 4 -12.9436 -8.3330 -25.0749 48.3135 -5.7982 -2.9376
# 5 -8.4069 -2.0830 2.5028 -5.7982 23.9847 -4.6189
# 6 -7.9088 -3.9679 -4.8493 -2.9376 -4.6189 34.5368
#
#
#
# Elastic Compliance Matrix: (Units=1/GPa)
#
#
# Indices 1 2 3 4 5 6 
#
# 1 0.013151 -0.002891 -0.005139 0.001218 0.005734 0.002828
# 2 -0.002891 0.009088 -0.002140 -0.000323 -0.000070 0.000045
# 3 -0.005139 -0.002140 0.018428 0.007706 -0.001741 0.001588
# 4 0.001218 -0.000323 0.007706 0.026048 0.006747 0.004442
# 5 0.005734 -0.000070 -0.001741 0.006747 0.047036 0.007925
# 6 0.002828 0.000045 0.001588 0.004442 0.007925 0.031268
#
#
# Mechanical properties :
#
#
# Convention : Reuss Voigt Hill
#
# Bulk Modulus (GPa) = 49.19072 60.93689 55.06380
# Shear Modulus (GPa) = 29.04716 34.98748 32.01732
#
# Velocity S-wave (km/s) = 3.68020 4.03902 3.86378
# Velocity P-wave (km/s) = 6.40272 7.08271 6.75128
#
# Compressibility (1/GPa) = 0.02032904
#
# Stress axis : x y z
#
# Youngs Moduli (GPa) = 76.04053 110.03397 54.26430
#
# Poissons Ratio (x) = 0.31806 0.27884
# Poissons Ratio (y) = 0.21980 0.11612
# Poissons Ratio (z) = 0.39074 0.23547
#
# Static dielectric constant tensor:
#      x y z
#    x 3.733170 -0.096220 -0.147040 
#    y -0.096220 4.286710 -0.082740 
#    z -0.147040 -0.082740 3.735590 
# 
# 
# High freq. dielectric constant tensor:
#      x y z
#    x 1.827290 -0.002990 -0.014880 
#    y -0.002990 1.868780 -0.005770 
#    z -0.014880 -0.005770 1.848650 
# 
# From -- ./inp_files/380072.got.cif
#   From: 2010.06.25/outbox.cif.g09.slc.cpg/sg2_191_cif.got.tgz:380072.got - 2010.06.27 13:26:56.
