data_PCOD8008943
_publ_section_title
;
Structure prediction by ZEFSAII (Michael W. Deem and Ramdas Pophale) SiO2 
 PCOD8008943
Probable space group: P -1
;
_chemical_formula_sum "Si O2"
_cell_formula_units_Z 16
_cell_length_a 7.056383
_cell_length_b 8.562255
_cell_length_c 16.437247
_cell_angle_alpha 83.954007
_cell_angle_beta 73.965707
_cell_angle_gamma 122.449764
_cell_volume 765.082821
_symmetry_space_group_name_H-M "P -1"
_symmetry_group_IT_number 2
_symmetry_cell_setting 'triclinic'
loop_
_space_group_symop_operation_xyz
x,y,z
-x,-y,-z
loop_
_atom_site_type_symbol
_atom_site_label
_atom_site_fract_x
_atom_site_fract_y
_atom_site_fract_z
Si Si1 0.161604 0.217889 0.498040
Si Si2 0.873966 0.641703 0.661978
Si Si3 0.753333 0.032638 0.970857
Si Si4 0.186864 0.731127 0.361921
Si Si5 0.291419 0.083483 0.632211
Si Si6 0.884106 0.059484 0.777895
Si Si7 0.187726 0.298396 0.006209
Si Si8 0.366976 0.375029 0.151292
O O1 0.996845 0.276751 0.552831
O O2 0.278702 0.347213 0.394985
O O3 0.347035 0.229474 0.541605
O O4 0.000000 0.000000 0.500000
O O5 0.928691 0.489950 0.637307
O O6 0.699660 0.552666 0.766226
O O7 0.128949 0.855091 0.637152
O O8 0.906013 0.128604 0.864138
O O9 0.708186 0.829252 0.006046
O O10 0.908676 0.181537 0.017503
O O11 0.500000 0.000000 0.000000
O O12 0.452608 0.848683 0.365451
O O13 0.212052 0.846120 0.271767
O O14 0.144413 0.113163 0.715701
O O15 0.679789 0.827743 0.809949
O O16 0.202661 0.358611 0.095224
O O17 0.350962 0.479783 0.916220
#
# Coordination Sequence:
#
# PCOD8008943 Si02
#       8
#     2   2   2   2   2   2   2   2
#     4   9  20  41  60  88 128 155 198 251 293 359
#     4  10  21  36  62  91 118 154 208 250 289 361
#     4  10  21  35  60  89 117 153 202 249 299 360
#     4  11  22  38  64  88 122 161 200 247 299 354
#     4   9  21  41  61  84 122 165 195 245 305 351
#     4   9  21  39  54  89 123 151 198 251 295 356
#     4   9  20  39  61  81 119 161 197 247 305 357
#     4   9  19  40  60  84 120 161 199 249 306 356
#
# _framework density 20.912768
#
# number of rings (size 3 to 8) (size 9 to 14) (size 15 to 20)
#    0.000    2.500    0.000    1.125    3.500    5.500 
#    2.250   11.875    0.000    0.000    0.000    0.000 
#    0.000    0.000    0.000    0.000    0.000    0.000 
#
# Total GULP energy -198316.483045 kJ/mol
# GULP energy per Si atom -12394.780190 kJ/mol
# Density = 2.086517 g / cm^3
# Si number density = 20.912768 Si / 1000 Ang^3
#
#
#
# Elastic Constant Matrix: (Units=GPa)
#
#
# Indices 1 2 3 4 5 6 
#
# 1 103.8259 35.9857 24.0444 -0.2129 13.9552 2.6389
# 2 35.9857 77.0421 40.0839 8.2884 4.3243 -8.2814
# 3 24.0444 40.0839 126.6674 3.4840 13.1395 -7.0337
# 4 -0.2129 8.2884 3.4840 29.2013 -7.1678 -0.1379
# 5 13.9552 4.3243 13.1395 -7.1678 21.8220 -0.0463
# 6 2.6389 -8.2814 -7.0337 -0.1379 -0.0463 26.9082
#
#
#
# Elastic Compliance Matrix: (Units=1/GPa)
#
#
# Indices 1 2 3 4 5 6 
#
# 1 0.012674 -0.005863 -0.000002 0.000040 -0.006935 -0.003060
# 2 -0.005863 0.019123 -0.004654 -0.004579 0.001269 0.005222
# 3 -0.000002 -0.004654 0.010040 -0.001227 -0.005522 0.001176
# 4 0.000040 -0.004579 -0.001227 0.039245 0.014508 -0.001508
# 5 -0.006935 0.001269 -0.005522 0.014508 0.058099 -0.000198
# 6 -0.003060 0.005222 0.001176 -0.001508 -0.000198 0.039370
#
#
# Mechanical properties :
#
#
# Convention : Reuss Voigt Hill
#
# Bulk Modulus (GPa) = 48.08085 56.41815 52.24950
# Shear Modulus (GPa) = 24.21054 29.41439 26.81247
#
# Velocity S-wave (km/s) = 3.40618 3.75444 3.58454
# Velocity P-wave (km/s) = 6.20568 6.76985 6.49389
#
# Compressibility (1/GPa) = 0.02079830
#
# Stress axis : x y z
#
# Youngs Moduli (GPa) = 78.90157 52.29425 99.60377
#
# Poissons Ratio (x) = 0.30659 0.00021
# Poissons Ratio (y) = 0.46258 0.46357
# Poissons Ratio (z) = 0.00017 0.24339
#
# Static dielectric constant tensor:
#      x y z
#    x 3.496200 -0.137950 0.373520 
#    y -0.137950 3.852990 0.003660 
#    z 0.373520 0.003660 4.787470 
# 
# 
# High freq. dielectric constant tensor:
#      x y z
#    x 1.790320 -0.007470 0.020470 
#    y -0.007470 1.821620 0.003650 
#    z 0.020470 0.003650 1.836840 
# 
# From -- ./inp_files/548031.got.cif
#   From: 2010.06.25/outbox.cif.g09.slc.cpg/sg2_275_cif.got.tgz:548031.got - 2010.06.27 13:26:56.
