data_PCOD8008099
_publ_section_title
;
Structure prediction by ZEFSAII (Michael W. Deem and Ramdas Pophale) SiO2 
 PCOD8008099
Probable space group: P -1
;
_chemical_formula_sum "Si O2"
_cell_formula_units_Z 16
_cell_length_a 13.924704
_cell_length_b 12.722591
_cell_length_c 8.559679
_cell_angle_alpha 123.730133
_cell_angle_beta 111.489704
_cell_angle_gamma 114.083800
_cell_volume 719.171366
_symmetry_space_group_name_H-M "P -1"
_symmetry_group_IT_number 2
_symmetry_cell_setting 'triclinic'
loop_
_space_group_symop_operation_xyz
x,y,z
-x,-y,-z
loop_
_atom_site_type_symbol
_atom_site_label
_atom_site_fract_x
_atom_site_fract_y
_atom_site_fract_z
Si Si1 0.374867 0.783336 0.828225
Si Si2 0.005991 0.405838 0.285276
Si Si3 0.096586 0.969462 0.081069
Si Si4 0.443755 0.376702 0.522222
Si Si5 0.525389 0.694174 0.986984
Si Si6 0.315745 0.783813 0.150120
Si Si7 0.659411 0.456680 0.946659
Si Si8 0.151204 0.112627 0.571413
O O1 0.193509 0.599819 0.478515
O O2 0.471227 0.741744 0.860700
O O3 0.334563 0.789365 0.982004
O O4 0.500000 0.000000 0.000000
O O5 0.000000 0.500000 0.500000
O O6 0.996621 0.250144 0.205531
O O7 0.843515 0.274337 0.965648
O O8 0.268959 0.132576 0.217037
O O9 0.109719 0.988774 0.292917
O O10 0.000000 0.000000 0.000000
O O11 0.500000 0.500000 0.500000
O O12 0.588445 0.419052 0.700569
O O13 0.420184 0.463217 0.709266
O O14 0.493101 0.709857 0.157027
O O15 0.721544 0.847696 0.214264
O O16 0.251405 0.593618 0.041823
O O17 0.500000 0.000000 0.500000
O O18 0.777139 0.681525 0.266970
O O19 0.000000 0.000000 0.500000
#
# Coordination Sequence:
#
# PCOD8008099 Si02
#       8
#     2   2   2   2   2   2   2   2
#     4  10  23  43  66  93 132 179 229 287 345 410
#     4  10  24  44  68 101 140 181 226 285 360 416
#     4  12  25  41  68  97 142 176 229 288 351 416
#     4  11  22  37  64 101 128 170 226 279 338 413
#     4  10  20  42  66  85 135 178 223 282 355 398
#     4  10  22  41  71  95 131 181 228 275 347 421
#     4  10  20  42  66  87 129 180 221 275 347 407
#     4  11  24  41  64 100 130 181 233 286 344 412
#
# _framework density 22.247824999999999
#
# number of rings (size 3 to 8) (size 9 to 14) (size 15 to 20)
#    0.000    1.500    2.500    2.250    8.750    4.000 
#    2.250    0.625    0.000    0.000    0.000    0.000 
#    0.000    0.000    0.000    0.000    0.000    0.000 
#
# Total GULP energy -198218.788824 kJ/mol
# GULP energy per Si atom -12388.674301 kJ/mol
# Density = 2.219719 g / cm^3
# Si number density = 22.247825 Si / 1000 Ang^3
#
#
#
# Elastic Constant Matrix: (Units=GPa)
#
#
# Indices 1 2 3 4 5 6 
#
# 1 96.7494 49.3564 45.9900 9.0970 24.7674 -25.3648
# 2 49.3564 130.7541 45.6882 9.4500 17.9334 -16.8445
# 3 45.9900 45.6882 118.4682 16.1094 23.6535 -13.4383
# 4 9.0970 9.4500 16.1094 37.8937 -4.0656 1.7410
# 5 24.7674 17.9334 23.6535 -4.0656 44.4489 -0.3708
# 6 -25.3648 -16.8445 -13.4383 1.7410 -0.3708 48.9148
#
#
#
# Elastic Compliance Matrix: (Units=1/GPa)
#
#
# Indices 1 2 3 4 5 6 
#
# 1 0.017404 -0.003487 -0.002755 -0.003222 -0.007060 0.007128
# 2 -0.003487 0.010042 -0.002041 -0.000969 -0.001102 0.001115
# 3 -0.002755 -0.002041 0.011917 -0.004424 -0.004377 0.001267
# 4 -0.003222 -0.000969 -0.004424 0.030261 0.007273 -0.004242
# 5 -0.007060 -0.001102 -0.004377 0.007273 0.029826 -0.005275
# 6 0.007128 0.001115 0.001267 -0.004242 -0.005275 0.024983
#
#
# Mechanical properties :
#
#
# Convention : Reuss Voigt Hill
#
# Bulk Modulus (GPa) = 43.86685 69.78232 56.82459
# Shear Modulus (GPa) = 33.64791 39.91396 36.78093
#
# Velocity S-wave (km/s) = 3.89320 4.24023 4.07041
# Velocity P-wave (km/s) = 6.32214 7.44357 6.90566
#
# Compressibility (1/GPa) = 0.02279626
#
# Stress axis : x y z
#
# Youngs Moduli (GPa) = 57.45947 99.57914 83.91533
#
# Poissons Ratio (x) = 0.34727 0.23119
# Poissons Ratio (y) = 0.20038 0.17125
# Poissons Ratio (z) = 0.15830 0.20322
#
# Static dielectric constant tensor:
#      x y z
#    x 2.948220 -1.573280 -0.354240 
#    y -1.573280 2.817340 -0.570960 
#    z -0.354240 -0.570960 4.074370 
# 
# 
# High freq. dielectric constant tensor:
#      x y z
#    x 1.874230 -0.024280 0.011860 
#    y -0.024280 1.861820 0.003960 
#    z 0.011860 0.003960 1.878120 
# 
# From -- ./inp_files/308378.got.cif
#   From: 2010.06.25/outbox.cif.g09.slc.cpg/sg2_155_cif.got.tgz:308378.got - 2010.06.27 13:26:56.
