data_PCOD8008866
_publ_section_title
;
Structure prediction by ZEFSAII (Michael W. Deem and Ramdas Pophale) SiO2 
 PCOD8008866
Probable space group: P -1
;
_chemical_formula_sum "Si O2"
_cell_formula_units_Z 16
_cell_length_a 11.279660
_cell_length_b 9.609162
_cell_length_c 11.279762
_cell_angle_alpha 112.777044
_cell_angle_beta 64.448573
_cell_angle_gamma 67.222991
_cell_volume 758.503370
_symmetry_space_group_name_H-M "P -1"
_symmetry_group_IT_number 2
_symmetry_cell_setting 'triclinic'
loop_
_space_group_symop_operation_xyz
x,y,z
-x,-y,-z
loop_
_atom_site_type_symbol
_atom_site_label
_atom_site_fract_x
_atom_site_fract_y
_atom_site_fract_z
Si Si1 0.283079 0.220421 0.459653
Si Si2 0.048230 0.715393 0.401403
Si Si3 0.459642 0.779587 0.283085
Si Si4 0.598586 0.715400 0.951780
Si Si5 0.110225 0.944878 0.593664
Si Si6 0.348900 0.444385 0.651103
Si Si7 0.406343 0.944875 0.889764
Si Si8 0.722886 0.183073 0.277116
O O1 0.241069 0.386789 0.624532
O O2 0.395481 0.200930 0.296459
O O3 0.097014 0.302303 0.519108
O O4 0.399254 0.000002 0.399259
O O5 0.242279 0.499997 0.242266
O O6 0.027679 0.845265 0.564467
O O7 0.010706 0.828167 0.329695
O O8 0.296447 0.799080 0.395490
O O9 0.624525 0.613212 0.241069
O O10 0.519085 0.697714 0.097028
O O11 0.435530 0.845270 0.972318
O O12 0.670295 0.828172 0.989307
O O13 0.128994 0.953001 0.730083
O O14 0.535722 0.316140 0.464283
O O15 0.244330 0.680914 0.755672
O O16 0.269921 0.953001 0.870997
#
# Coordination Sequence:
#
# PCOD8008866 Si02
#       8
#     2   2   2   2   2   2   2   2
#     4   9  18  34  55  82 108 141 182 230 263 315
#     4  10  21  35  56  83 112 146 175 219 276 329
#     4   9  18  34  55  82 108 141 182 230 263 315
#     4  10  21  35  56  83 112 146 175 219 276 329
#     4   9  20  38  56  84 108 139 185 227 269 312
#     4   9  17  30  56  85 102 140 187 226 271 305
#     4   9  20  38  56  84 108 139 185 227 269 312
#     4   9  18  34  58  79 107 137 184 238 261 306
#
# _framework density 21.094173000000001
#
# number of rings (size 3 to 8) (size 9 to 14) (size 15 to 20)
#    0.000    2.750    0.000    0.375    7.000    4.000 
#    0.000    2.500    0.000    1.500    0.000    0.000 
#    0.000    0.000    0.000    0.000    0.000    0.000 
#
# Total GULP energy -198364.579223 kJ/mol
# GULP energy per Si atom -12397.786201 kJ/mol
# Density = 2.104616 g / cm^3
# Si number density = 21.094173 Si / 1000 Ang^3
#
#
#
# Elastic Constant Matrix: (Units=GPa)
#
#
# Indices 1 2 3 4 5 6 
#
# 1 119.0719 38.4386 12.5786 -7.7224 30.2790 -4.3799
# 2 38.4386 91.5433 17.1094 -11.4750 19.3669 -13.4557
# 3 12.5786 17.1094 33.9571 -2.2310 11.3899 -3.6218
# 4 -7.7224 -11.4750 -2.2310 30.2660 -2.6688 5.2864
# 5 30.2790 19.3669 11.3899 -2.6688 30.0993 -6.5955
# 6 -4.3799 -13.4557 -3.6218 5.2864 -6.5955 28.9516
#
#
#
# Elastic Compliance Matrix: (Units=1/GPa)
#
#
# Indices 1 2 3 4 5 6 
#
# 1 0.012066 -0.003043 0.000521 0.001405 -0.010741 -0.002227
# 2 -0.003043 0.014873 -0.004480 0.003442 -0.003531 0.004459
# 3 0.000521 -0.004480 0.035188 0.000081 -0.010975 -0.000117
# 4 0.001405 0.003442 0.000081 0.035444 -0.001616 -0.005018
# 5 -0.010741 -0.003531 -0.010975 -0.001616 0.051951 0.007491
# 6 -0.002227 0.004459 -0.000117 -0.005018 0.007491 0.038884
#
#
# Mechanical properties :
#
#
# Convention : Reuss Voigt Hill
#
# Bulk Modulus (GPa) = 20.78056 42.31392 31.54724
# Shear Modulus (GPa) = 22.88851 29.62643 26.25747
#
# Velocity S-wave (km/s) = 3.29760 3.75171 3.53196
# Velocity P-wave (km/s) = 4.93676 6.23460 5.62325
#
# Compressibility (1/GPa) = 0.04812190
#
# Stress axis : x y z
#
# Youngs Moduli (GPa) = 82.87752 67.23758 28.41914
#
# Poissons Ratio (x) = 0.20458 -0.01481
# Poissons Ratio (y) = 0.25217 0.12733
# Poissons Ratio (z) = -0.04318 0.30125
#
# Static dielectric constant tensor:
#      x y z
#    x 3.867750 0.030820 0.257170 
#    y 0.030820 3.960440 -0.081060 
#    z 0.257170 -0.081060 3.367860 
# 
# 
# High freq. dielectric constant tensor:
#      x y z
#    x 1.822500 0.001630 0.022450 
#    y 0.001630 1.832890 -0.003070 
#    z 0.022450 -0.003070 1.783520 
# 
# From -- ./inp_files/387141.got.cif
#   From: 2010.06.25/outbox.cif.g09.slc.cpg/sg2_194_cif.got.tgz:387141.got - 2010.06.27 13:26:56.
