data_PCOD8008967
_publ_section_title
;
Structure prediction by ZEFSAII (Michael W. Deem and Ramdas Pophale) SiO2 
 PCOD8008967
Probable space group: P -1
;
_chemical_formula_sum "Si O2"
_cell_formula_units_Z 16
_cell_length_a 14.753681
_cell_length_b 15.876492
_cell_length_c 14.863321
_cell_angle_alpha 42.243057
_cell_angle_beta 20.057997
_cell_angle_gamma 37.800990
_cell_volume 731.837382
_symmetry_space_group_name_H-M "P -1"
_symmetry_group_IT_number 2
_symmetry_cell_setting 'triclinic'
loop_
_space_group_symop_operation_xyz
x,y,z
-x,-y,-z
loop_
_atom_site_type_symbol
_atom_site_label
_atom_site_fract_x
_atom_site_fract_y
_atom_site_fract_z
Si Si1 0.063538 0.346536 0.528075
Si Si2 0.916653 0.071770 0.316130
Si Si3 0.304106 0.272346 0.047788
Si Si4 0.608446 0.327550 0.287203
Si Si5 0.395516 0.171135 0.850370
Si Si6 0.092340 0.767073 0.406693
Si Si7 0.913459 0.573390 0.176466
Si Si8 0.393444 0.653588 0.937536
O O1 0.413707 0.271446 0.257712
O O2 0.000000 0.500000 0.500000
O O3 0.924349 0.341138 0.565598
O O4 0.937850 0.271594 0.778251
O O5 0.732024 0.169090 0.330292
O O6 0.204504 0.093790 0.053326
O O7 0.720876 0.099018 0.566669
O O8 0.017677 0.915107 0.313875
O O9 0.407781 0.168666 0.948909
O O10 0.054623 0.417255 0.134217
O O11 0.154964 0.208436 0.307968
O O12 0.581019 0.293169 0.812210
O O13 0.574840 0.339195 0.203329
O O14 0.295523 0.414258 0.554030
O O15 0.828255 0.390102 0.061915
O O16 0.263285 0.330066 0.816307
O O17 0.500000 0.500000 0.000000
#
# Coordination Sequence:
#
# PCOD8008967 Si02
#       8
#     2   2   2   2   2   2   2   2
#     4  10  23  39  58  86 128 153 193 260 313 366
#     4  10  23  43  64  84 130 166 214 243 295 376
#     4  12  25  37  65  94 129 158 210 258 307 362
#     4  10  21  39  63  91 119 170 201 247 315 362
#     4  10  22  43  63  92 122 171 203 256 304 352
#     4  12  26  41  60  95 123 168 206 257 302 363
#     4  10  22  37  63  91 129 156 204 255 306 376
#     4  10  21  35  61  89 119 152 198 256 306 372
#
# _framework density 21.862780999999998
#
# number of rings (size 3 to 8) (size 9 to 14) (size 15 to 20)
#    0.000    1.500    0.000    4.125   10.500    3.000 
#    0.000    6.250    0.000    0.000    0.000    0.000 
#    0.000    0.000    0.000    0.000    0.000    0.000 
#
# Total GULP energy -198343.369378 kJ/mol
# GULP energy per Si atom -12396.460586 kJ/mol
# Density = 2.181302 g / cm^3
# Si number density = 21.862781 Si / 1000 Ang^3
#
#
#
# Elastic Constant Matrix: (Units=GPa)
#
#
# Indices 1 2 3 4 5 6 
#
# 1 103.5277 12.9378 35.8221 -1.0263 10.3188 14.4035
# 2 12.9378 79.1090 1.6813 -9.8805 6.2273 0.1758
# 3 35.8221 1.6813 175.7892 10.6132 1.2753 4.0035
# 4 -1.0263 -9.8805 10.6132 24.2998 -4.4929 -3.8319
# 5 10.3188 6.2273 1.2753 -4.4929 43.9263 -1.5998
# 6 14.4035 0.1758 4.0035 -3.8319 -1.5998 13.8935
#
#
#
# Elastic Compliance Matrix: (Units=1/GPa)
#
#
# Indices 1 2 3 4 5 6 
#
# 1 0.012873 -0.002029 -0.002139 -0.002131 -0.003391 -0.013682
# 2 -0.002029 0.013776 -0.000157 0.006009 -0.000728 0.003548
# 3 -0.002139 -0.000157 0.006315 -0.002974 0.000022 -0.000418
# 4 -0.002131 0.006009 -0.002974 0.048463 0.005310 0.016968
# 5 -0.003391 -0.000728 0.000022 0.005310 0.024492 0.007803
# 6 -0.013682 0.003548 -0.000418 0.016968 0.007803 0.091814
#
#
# Mechanical properties :
#
#
# Convention : Reuss Voigt Hill
#
# Bulk Modulus (GPa) = 41.12654 51.03426 46.08040
# Shear Modulus (GPa) = 23.31147 36.95624 30.13385
#
# Velocity S-wave (km/s) = 3.26891 4.11587 3.71660
# Velocity P-wave (km/s) = 5.75324 6.78092 6.28811
#
# Compressibility (1/GPa) = 0.02431520
#
# Stress axis : x y z
#
# Youngs Moduli (GPa) = 77.68019 72.59084 158.35498
#
# Poissons Ratio (x) = 0.14727 0.33872
# Poissons Ratio (y) = 0.15760 0.02480
# Poissons Ratio (z) = 0.16616 0.01137
#
# Static dielectric constant tensor:
#      x y z
#    x 3.674580 -0.135760 0.473220 
#    y -0.135760 3.813110 -0.223370 
#    z 0.473220 -0.223370 2.296850 
# 
# 
# High freq. dielectric constant tensor:
#      x y z
#    x 1.846510 -0.005210 -0.001200 
#    y -0.005210 1.834540 0.001830 
#    z -0.001200 0.001830 1.898320 
# 
# From -- ./inp_files/99312.got.cif
#   From: 2010.06.25/outbox.cif.g09.slc.cpg/sg2_50_cif.got.tgz:99312.got - 2010.06.27 13:26:56.
