data_PCOD8008895
_publ_section_title
;
Structure prediction by ZEFSAII (Michael W. Deem and Ramdas Pophale) SiO2 
 PCOD8008895
Probable space group: P -1
;
_chemical_formula_sum "Si O2"
_cell_formula_units_Z 14
_cell_length_a 13.428261
_cell_length_b 13.338374
_cell_length_c 13.442736
_cell_angle_alpha 33.596626
_cell_angle_beta 147.565010
_cell_angle_gamma 147.187942
_cell_volume 633.330336
_symmetry_space_group_name_H-M "P -1"
_symmetry_group_IT_number 2
_symmetry_cell_setting 'triclinic'
loop_
_space_group_symop_operation_xyz
x,y,z
-x,-y,-z
loop_
_atom_site_type_symbol
_atom_site_label
_atom_site_fract_x
_atom_site_fract_y
_atom_site_fract_z
Si Si1 0.207298 0.383837 0.225926
Si Si2 0.987863 0.571283 0.166910
Si Si3 0.899095 0.996156 0.022765
Si Si4 0.437182 0.789761 0.841803
Si Si5 0.782500 0.970748 0.567944
Si Si6 0.471796 0.174998 0.884772
Si Si7 0.901485 0.748011 0.538018
O O1 0.311357 0.267586 0.343879
O O2 0.384679 0.604717 0.225755
O O3 0.094133 0.263859 0.329175
O O4 0.041029 0.402079 0.997399
O O5 0.763857 0.436945 0.146891
O O6 0.105449 0.788898 0.140282
O O7 0.138580 0.462055 0.380253
O O8 0.658639 0.812317 0.968190
O O9 0.037069 0.960787 0.252830
O O10 0.000000 0.000000 0.000000
O O11 0.390735 0.958736 0.604107
O O12 0.472660 0.845613 0.940058
O O13 0.868836 0.090288 0.437600
O O14 0.241040 0.152283 0.702398
O O15 0.500000 0.000000 0.000000
#
# Coordination Sequence:
#
# PCOD8008895 Si02
#       7
#     2   2   2   2   2   2   2
#     4  10  21  35  57  91 128 168 205 248 307 375
#     4   9  23  40  61  94 124 167 209 256 318 372
#     4  11  24  44  69  92 121 164 212 271 323 367
#     4  10  22  43  62  90 135 158 209 266 304 378
#     4  10  22  41  63  92 125 165 209 258 319 370
#     4  11  23  35  57  94 128 173 208 244 307 372
#     4  11  20  36  60  88 129 168 207 254 303 372
#
# _framework density 22.105366
#
# number of rings (size 3 to 8) (size 9 to 14) (size 15 to 20)
#    0.000    1.714    1.429    2.143    4.000    3.429 
#    0.000    2.857    0.000    0.000    0.000    0.000 
#    0.000    0.000    0.000    0.000    0.000    0.000 
#
# Total GULP energy -173472.178353 kJ/mol
# GULP energy per Si atom -12390.869882 kJ/mol
# Density = 2.205505 g / cm^3
# Si number density = 22.105366 Si / 1000 Ang^3
#
#
#
# Elastic Constant Matrix: (Units=GPa)
#
#
# Indices 1 2 3 4 5 6 
#
# 1 83.2483 11.3722 28.2028 10.9140 -9.0003 6.9223
# 2 11.3722 49.1856 21.8256 -0.1623 -2.9926 2.1492
# 3 28.2028 21.8256 114.6967 -8.1614 15.8680 2.4878
# 4 10.9140 -0.1623 -8.1614 21.3855 6.0328 8.4028
# 5 -9.0003 -2.9926 15.8680 6.0328 23.7718 -2.3709
# 6 6.9223 2.1492 2.4878 8.4028 -2.3709 24.4418
#
#
#
# Elastic Compliance Matrix: (Units=1/GPa)
#
#
# Indices 1 2 3 4 5 6 
#
# 1 0.019375 0.000422 -0.009010 -0.020341 0.018987 0.004227
# 2 0.000422 0.023429 -0.006159 -0.005264 0.008666 0.001098
# 3 -0.009010 -0.006159 0.016573 0.019707 -0.020989 -0.007404
# 4 -0.020341 -0.005264 0.019707 0.090424 -0.047607 -0.031487
# 5 0.018987 0.008666 -0.020989 -0.047607 0.078430 0.019971
# 6 0.004227 0.001098 -0.007404 -0.031487 0.019971 0.053135
#
#
# Mechanical properties :
#
#
# Convention : Reuss Voigt Hill
#
# Bulk Modulus (GPa) = 33.46573 41.10354 37.28463
# Shear Modulus (GPa) = 15.58498 26.30181 20.94339
#
# Velocity S-wave (km/s) = 2.65812 3.45315 3.08138
# Velocity P-wave (km/s) = 4.95912 5.87654 5.43721
#
# Compressibility (1/GPa) = 0.02988132
#
# Stress axis : x y z
#
# Youngs Moduli (GPa) = 51.61273 42.68286 60.33960
#
# Poissons Ratio (x) = -0.01801 0.54368
# Poissons Ratio (y) = -0.02178 0.37165
# Poissons Ratio (z) = 0.46505 0.26289
#
# Static dielectric constant tensor:
#      x y z
#    x 3.907520 0.427680 0.270890 
#    y 0.427680 4.403180 -0.043190 
#    z 0.270890 -0.043190 4.422650 
# 
# 
# High freq. dielectric constant tensor:
#      x y z
#    x 1.843140 0.009770 0.010200 
#    y 0.009770 1.855560 -0.015680 
#    z 0.010200 -0.015680 1.885050 
# 
# From -- ./inp_files/342152.got.cif
#   From: 2010.06.25/outbox.cif.g09.slc.cpg/sg2_172_cif.got.tgz:342152.got - 2010.06.27 13:26:56.
