data_PCOD8008471
_publ_section_title
;
Structure prediction by ZEFSAII (Michael W. Deem and Ramdas Pophale) SiO2 
 PCOD8008471
Probable space group: P -1
;
_chemical_formula_sum "Si O2"
_cell_formula_units_Z 14
_cell_length_a 5.288142
_cell_length_b 15.244801
_cell_length_c 8.958033
_cell_angle_alpha 86.809407
_cell_angle_beta 116.981915
_cell_angle_gamma 64.811656
_cell_volume 553.965645
_symmetry_space_group_name_H-M "P -1"
_symmetry_group_IT_number 2
_symmetry_cell_setting 'triclinic'
loop_
_space_group_symop_operation_xyz
x,y,z
-x,-y,-z
loop_
_atom_site_type_symbol
_atom_site_label
_atom_site_fract_x
_atom_site_fract_y
_atom_site_fract_z
Si Si1 0.845217 0.255756 0.559312
Si Si2 0.239313 0.544639 0.058275
Si Si3 0.202796 0.287478 0.261878
Si Si4 0.000708 0.135540 0.898020
Si Si5 0.289830 0.907266 0.898056
Si Si6 0.190828 0.111234 0.421434
Si Si7 0.173287 0.562581 0.583737
O O1 0.554589 0.280072 0.361870
O O2 0.864090 0.359020 0.566421
O O3 0.788452 0.222996 0.710355
O O4 0.165287 0.158603 0.576141
O O5 0.441589 0.519730 0.270248
O O6 0.500000 0.500000 0.000000
O O7 0.000000 0.500000 0.000000
O O8 0.991470 0.666300 0.951555
O O9 0.241263 0.178268 0.305449
O O10 0.987893 0.367120 0.324135
O O11 0.109346 0.026722 0.867008
O O12 0.323869 0.141781 0.023672
O O13 0.770512 0.152246 0.976841
O O14 0.138646 0.891485 0.707255
O O15 0.500000 0.000000 0.500000
O O16 0.000000 0.500000 0.500000
#
# Coordination Sequence:
#
# PCOD8008471 Si02
#       7
#     2   2   2   2   2   2   2
#     4  11  24  43  70 102 140 188 240 296 355 428
#     4  10  20  43  69  96 136 180 222 291 355 418
#     4  10  23  42  67  99 141 184 237 290 356 430
#     4  10  24  42  68  93 142 179 232 290 355 413
#     4  10  24  44  63  98 134 188 231 288 349 415
#     4  11  26  42  70 101 140 187 244 290 344 424
#     4  10  23  43  69 105 140 182 238 300 368 429
#
# _framework density 25.272324999999999
#
# number of rings (size 3 to 8) (size 9 to 14) (size 15 to 20)
#    0.000    1.714    1.429    0.857   12.000    2.857 
#    0.000    0.000    0.000    0.000    0.000    0.000 
#    0.000    0.000    0.000    0.000    0.000    0.000 
#
# Total GULP energy -173555.239385 kJ/mol
# GULP energy per Si atom -12396.802813 kJ/mol
# Density = 2.521480 g / cm^3
# Si number density = 25.272325 Si / 1000 Ang^3
#
#
#
# Elastic Constant Matrix: (Units=GPa)
#
#
# Indices 1 2 3 4 5 6 
#
# 1 122.3569 48.0231 33.0556 -5.8019 4.9796 36.0805
# 2 48.0231 128.3592 64.5495 -32.3237 6.5182 28.1436
# 3 33.0556 64.5495 119.7363 -26.6703 11.4945 22.4425
# 4 -5.8019 -32.3237 -26.6703 43.3798 10.0335 -2.1325
# 5 4.9796 6.5182 11.4945 10.0335 45.7291 5.6019
# 6 36.0805 28.1436 22.4425 -2.1325 5.6019 38.9235
#
#
#
# Elastic Compliance Matrix: (Units=1/GPa)
#
#
# Indices 1 2 3 4 5 6 
#
# 1 0.011896 -0.002525 -0.000555 -0.001209 0.000575 -0.009030
# 2 -0.002525 0.013778 -0.003977 0.007672 -0.001803 -0.004648
# 3 -0.000555 -0.003977 0.012788 0.005452 -0.003392 -0.003197
# 4 -0.001209 0.007672 0.005452 0.033878 -0.009228 -0.004386
# 5 0.000575 -0.001803 -0.003392 -0.009228 0.025110 -0.001394
# 6 -0.009030 -0.004648 -0.003197 -0.004386 -0.001394 0.039227
#
#
# Mechanical properties :
#
#
# Convention : Reuss Voigt Hill
#
# Bulk Modulus (GPa) = 41.07176 73.52322 57.29749
# Shear Modulus (GPa) = 31.46478 40.59476 36.02977
#
# Velocity S-wave (km/s) = 3.53233 4.01221 3.77989
# Velocity P-wave (km/s) = 5.73789 7.11472 6.46307
#
# Compressibility (1/GPa) = 0.02434763
#
# Stress axis : x y z
#
# Youngs Moduli (GPa) = 84.06232 72.57724 78.19788
#
# Poissons Ratio (x) = 0.18329 0.04337
# Poissons Ratio (y) = 0.21229 0.31103
# Poissons Ratio (z) = 0.04662 0.28867
#
# Static dielectric constant tensor:
#      x y z
#    x 3.863810 0.000080 0.237390 
#    y 0.000080 4.683290 -0.446480 
#    z 0.237390 -0.446480 4.838920 
# 
# 
# High freq. dielectric constant tensor:
#      x y z
#    x 2.014070 0.010520 0.005130 
#    y 0.010520 2.012530 -0.013980 
#    z 0.005130 -0.013980 2.002270 
# 
# From -- ./inp_files/135430.got.cif
#   From: 2010.06.25/outbox.cif.g09.slc.cpg/sg2_68_cif.got.tgz:135430.got - 2010.06.27 13:26:56.
