data_PCOD8008233
_publ_section_title
;
Structure prediction by ZEFSAII (Michael W. Deem and Ramdas Pophale) SiO2 
 PCOD8008233
Probable space group: P -1
;
_chemical_formula_sum "Si O2"
_cell_formula_units_Z 16
_cell_length_a 12.255246
_cell_length_b 19.855004
_cell_length_c 5.546319
_cell_angle_alpha 117.799163
_cell_angle_beta 86.328316
_cell_angle_gamma 141.449199
_cell_volume 623.581012
_symmetry_space_group_name_H-M "P -1"
_symmetry_group_IT_number 2
_symmetry_cell_setting 'triclinic'
loop_
_space_group_symop_operation_xyz
x,y,z
-x,-y,-z
loop_
_atom_site_type_symbol
_atom_site_label
_atom_site_fract_x
_atom_site_fract_y
_atom_site_fract_z
Si Si1 0.633541 0.788746 0.890385
Si Si2 0.044836 0.647334 0.798810
Si Si3 0.267512 0.307364 0.086532
Si Si4 0.338083 0.570060 0.194684
Si Si5 0.721876 0.620914 0.301359
Si Si6 0.196174 0.954678 0.759557
Si Si7 0.807316 0.101202 0.834820
Si Si8 0.231535 0.615290 0.905009
O O1 0.711626 0.772486 0.044585
O O2 0.569083 0.709199 0.515126
O O3 0.427021 0.712284 0.869247
O O4 0.812975 0.958629 0.110520
O O5 0.182896 0.676405 0.007040
O O6 0.836271 0.556901 0.798711
O O7 0.976951 0.555243 0.427970
O O8 0.177644 0.799522 0.958935
O O9 0.373989 0.403484 0.476183
O O10 0.376227 0.402729 0.978547
O O11 0.026464 0.187186 0.915662
O O12 0.319472 0.494603 0.865067
O O13 0.287234 0.623131 0.181307
O O14 0.966089 0.783809 0.531826
O O15 0.307234 0.985911 0.552159
O O16 0.309701 0.999562 0.074272
#
# Coordination Sequence:
#
# PCOD8008233 Si02
#       8
#     2   2   2   2   2   2   2   2
#     4  11  27  39  59  97 137 167 201 266 328 382
#     4  10  20  42  68  95 118 168 223 270 306 385
#     4  10  22  40  63  98 129 167 213 262 314 379
#     4  11  22  41  64  95 127 166 212 268 321 379
#     4  10  22  40  67  92 123 175 221 254 306 380
#     4  10  22  41  65  92 132 167 217 258 313 381
#     4  10  21  41  69  94 120 172 223 260 307 375
#     4  10  23  40  65  93 131 166 214 259 333 374
#
# _framework density 25.658256999999999
#
# number of rings (size 3 to 8) (size 9 to 14) (size 15 to 20)
#    0.000    1.750    2.500    1.875    5.250    5.000 
#    0.000    1.250    0.000    0.000    0.000    0.000 
#    0.000    0.000    0.000    0.000    0.000    0.000 
#
# Total GULP energy -198341.623370 kJ/mol
# GULP energy per Si atom -12396.351461 kJ/mol
# Density = 2.559986 g / cm^3
# Si number density = 25.658257 Si / 1000 Ang^3
#
#
#
# Elastic Constant Matrix: (Units=GPa)
#
#
# Indices 1 2 3 4 5 6 
#
# 1 92.6047 16.1040 3.9677 13.7127 -9.6902 -36.3400
# 2 16.1040 97.3478 46.0900 -19.0147 -9.5232 -43.9616
# 3 3.9677 46.0900 87.6844 -11.6237 -17.6041 -14.4741
# 4 13.7127 -19.0147 -11.6237 50.3980 -9.9723 -2.3437
# 5 -9.6902 -9.5232 -17.6041 -9.9723 32.7586 2.7892
# 6 -36.3400 -43.9616 -14.4741 -2.3437 2.7892 47.2383
#
#
#
# Elastic Compliance Matrix: (Units=1/GPa)
#
#
# Indices 1 2 3 4 5 6 
#
# 1 0.017841 0.005888 0.000193 -0.000664 0.005280 0.018919
# 2 0.005888 0.028720 -0.007979 0.010002 0.006384 0.028931
# 3 0.000193 -0.007979 0.017071 0.002310 0.007818 -0.002394
# 4 -0.000664 0.010002 0.002310 0.027042 0.011318 0.010179
# 5 0.005280 0.006384 0.007818 0.011318 0.040692 0.010557
# 6 0.018919 0.028931 -0.002394 0.010179 0.010557 0.061796
#
#
# Mechanical properties :
#
#
# Convention : Reuss Voigt Hill
#
# Bulk Modulus (GPa) = 16.71273 45.55114 31.13193
# Shear Modulus (GPa) = 23.05168 40.17732 31.61450
#
# Velocity S-wave (km/s) = 3.00060 3.96139 3.51399
# Velocity P-wave (km/s) = 4.30495 6.22214 5.35012
#
# Compressibility (1/GPa) = 0.05983464
#
# Stress axis : x y z
#
# Youngs Moduli (GPa) = 56.04910 34.81928 58.58044
#
# Poissons Ratio (x) = -0.20501 -0.01130
# Poissons Ratio (y) = -0.33000 0.46742
# Poissons Ratio (z) = -0.01081 0.27783
#
# Static dielectric constant tensor:
#      x y z
#    x 4.394780 -0.275640 0.049680 
#    y -0.275640 4.878930 -0.672920 
#    z 0.049680 -0.672920 5.366420 
# 
# 
# High freq. dielectric constant tensor:
#      x y z
#    x 2.009860 -0.020180 -0.002140 
#    y -0.020180 2.027580 -0.013840 
#    z -0.002140 -0.013840 2.028780 
# 
# From -- ./inp_files/70182.got.cif
#   From: 2010.06.25/outbox.cif.g09.slc.cpg/sg2_36_cif.got.tgz:70182.got - 2010.06.27 13:26:56.
