data_PCOD8008002
_publ_section_title
;
Structure prediction by ZEFSAII (Michael W. Deem and Ramdas Pophale) SiO2 
 PCOD8008002
Probable space group: P -1
;
_chemical_formula_sum "Si O2"
_cell_formula_units_Z 16
_cell_length_a 9.395347
_cell_length_b 26.156798
_cell_length_c 20.420004
_cell_angle_alpha 17.864799
_cell_angle_beta 147.528035
_cell_angle_gamma 149.798245
_cell_volume 767.170667
_symmetry_space_group_name_H-M "P -1"
_symmetry_group_IT_number 2
_symmetry_cell_setting 'triclinic'
loop_
_space_group_symop_operation_xyz
x,y,z
-x,-y,-z
loop_
_atom_site_type_symbol
_atom_site_label
_atom_site_fract_x
_atom_site_fract_y
_atom_site_fract_z
Si Si1 0.783056 0.041975 0.515668
Si Si2 0.031442 0.747821 0.287421
Si Si3 0.539931 0.859750 0.000139
Si Si4 0.214884 0.289933 0.894086
Si Si5 0.639457 0.350891 0.357670
Si Si6 0.020663 0.268740 0.989634
Si Si7 0.787688 0.596635 0.781045
Si Si8 0.503331 0.972310 0.711135
O O1 0.036075 0.228434 0.408451
O O2 0.500000 0.000000 0.500000
O O3 0.885893 0.878106 0.759800
O O4 0.731836 0.074749 0.379524
O O5 0.153163 0.625121 0.527445
O O6 0.976230 0.674319 0.281293
O O7 0.266791 0.946662 0.134325
O O8 0.732460 0.741483 0.209254
O O9 0.302887 0.762073 0.080800
O O10 0.381744 0.880088 0.846291
O O11 0.522680 0.453358 0.814349
O O12 0.046037 0.261248 0.930852
O O13 0.249781 0.099836 0.125490
O O14 0.328085 0.332689 0.285565
O O15 0.635597 0.187666 0.509520
O O16 0.774028 0.534769 0.144360
O O17 0.000000 0.500000 0.000000
#
# Coordination Sequence:
#
# PCOD8008002 Si02
#       8
#     2   2   2   2   2   2   2   2
#     4  12  22  40  64  90 130 164 205 264 307 368
#     4   9  19  41  64  87 124 170 207 248 318 365
#     4   9  20  38  63  91 123 161 208 262 303 375
#     4  10  21  42  66  92 127 166 207 257 309 373
#     4  10  23  41  66  92 128 164 209 257 303 380
#     4  11  23  38  58  98 129 159 214 257 306 358
#     4  11  22  41  63  90 125 164 205 251 314 367
#     4  10  20  42  63  89 122 172 199 249 318 366
#
# _framework density 20.855854999999998
#
# number of rings (size 3 to 8) (size 9 to 14) (size 15 to 20)
#    0.000    1.750    2.500    3.000    0.000    5.500 
#    4.500    1.250    0.000    0.000    0.000    0.000 
#    0.000    0.000    0.000    0.000    0.000    0.000 
#
# Total GULP energy -198353.815752 kJ/mol
# GULP energy per Si atom -12397.113484 kJ/mol
# Density = 2.080839 g / cm^3
# Si number density = 20.855855 Si / 1000 Ang^3
#
#
#
# Elastic Constant Matrix: (Units=GPa)
#
#
# Indices 1 2 3 4 5 6 
#
# 1 114.1497 66.9878 31.6541 -6.4210 4.1609 18.9730
# 2 66.9878 86.9045 33.0204 -0.1783 -6.9665 9.9227
# 3 31.6541 33.0204 109.4849 -11.1687 4.3383 11.1571
# 4 -6.4210 -0.1783 -11.1687 40.6830 -6.7163 -6.7925
# 5 4.1609 -6.9665 4.3383 -6.7163 28.8082 3.3913
# 6 18.9730 9.9227 11.1571 -6.7925 3.3913 47.0058
#
#
#
# Elastic Compliance Matrix: (Units=1/GPa)
#
#
# Indices 1 2 3 4 5 6 
#
# 1 0.017576 -0.013399 -0.000349 0.001181 -0.005021 -0.003650
# 2 -0.013399 0.023872 -0.003858 -0.001696 0.007838 0.000474
# 3 -0.000349 -0.003858 0.010832 0.002412 -0.001818 -0.001136
# 4 0.001181 -0.001696 0.002412 0.026708 0.004952 0.002811
# 5 -0.005021 0.007838 -0.001818 0.004952 0.038913 -0.001288
# 6 -0.003650 0.000474 -0.001136 0.002811 -0.001288 0.023416
#
#
# Mechanical properties :
#
#
# Convention : Reuss Voigt Hill
#
# Bulk Modulus (GPa) = 58.58775 63.76263 61.17519
# Shear Modulus (GPa) = 27.43967 35.22452 31.33209
#
# Velocity S-wave (km/s) = 3.63117 4.11414 3.88018
# Velocity P-wave (km/s) = 6.76264 7.29436 7.03352
#
# Compressibility (1/GPa) = 0.01706842
#
# Stress axis : x y z
#
# Youngs Moduli (GPa) = 56.89417 41.89095 92.31983
#
# Poissons Ratio (x) = 0.56130 0.03223
# Poissons Ratio (y) = 0.76232 0.35613
# Poissons Ratio (z) = 0.01987 0.16160
#
# Static dielectric constant tensor:
#      x y z
#    x 3.749060 -0.060710 0.137020 
#    y -0.060710 3.874770 -0.061030 
#    z 0.137020 -0.061030 4.015110 
# 
# 
# High freq. dielectric constant tensor:
#      x y z
#    x 1.803960 -0.001910 0.016210 
#    y -0.001910 1.807680 -0.005330 
#    z 0.016210 -0.005330 1.831310 
# 
# From -- ./inp_files/299247.got.cif
#   From: 2010.06.25/outbox.cif.g09.slc.cpg/sg2_150_cif.got.tgz:299247.got - 2010.06.27 13:26:56.
