data_PCOD8008509
_publ_section_title
;
Structure prediction by ZEFSAII (Michael W. Deem and Ramdas Pophale) SiO2 
 PCOD8008509
Probable space group: P -1
;
_chemical_formula_sum "Si O2"
_cell_formula_units_Z 14
_cell_length_a 14.152102
_cell_length_b 13.957197
_cell_length_c 6.351849
_cell_angle_alpha 70.829592
_cell_angle_beta 80.475704
_cell_angle_gamma 31.111015
_cell_volume 594.871272
_symmetry_space_group_name_H-M "P -1"
_symmetry_group_IT_number 2
_symmetry_cell_setting 'triclinic'
loop_
_space_group_symop_operation_xyz
x,y,z
-x,-y,-z
loop_
_atom_site_type_symbol
_atom_site_label
_atom_site_fract_x
_atom_site_fract_y
_atom_site_fract_z
Si Si1 0.145842 0.601365 0.091393
Si Si2 0.482037 0.632460 0.977103
Si Si3 0.333311 0.273371 0.503506
Si Si4 0.057127 0.051465 0.829337
Si Si5 0.315548 0.062484 0.685483
Si Si6 0.075906 0.159544 0.386871
Si Si7 0.580457 0.169497 0.794248
O O1 0.355649 0.456512 0.143327
O O2 0.151336 0.492961 0.302130
O O3 0.991050 0.819618 0.076988
O O4 0.082148 0.642607 0.843421
O O5 0.276393 0.857594 0.824172
O O6 0.500000 0.500000 0.000000
O O7 0.493284 0.655794 0.203616
O O8 0.271838 0.219142 0.647315
O O9 0.405001 0.274783 0.671910
O O10 0.489251 0.122203 0.375267
O O11 0.971623 0.160452 0.552749
O O12 0.000000 0.000000 0.000000
O O13 0.143840 0.179137 0.520512
O O14 0.334880 0.983138 0.951217
O O15 0.253898 0.954917 0.339160
#
# Coordination Sequence:
#
# PCOD8008509 Si02
#       7
#     2   2   2   2   2   2   2
#     4  12  25  45  70 105 148 186 235 291 353 424
#     4  12  24  47  73 103 137 186 238 290 358 421
#     4  10  23  39  72 110 139 193 237 289 355 419
#     4  12  26  50  70 101 143 183 243 295 353 421
#     4  10  20  43  72 103 148 187 240 290 351 421
#     4  11  24  44  72 101 144 192 225 300 353 417
#     4  11  21  46  72 102 150 182 238 299 350 420
#
# _framework density 23.534503999999998
#
# number of rings (size 3 to 8) (size 9 to 14) (size 15 to 20)
#    0.000    0.857    5.714    1.286    2.000    1.143 
#    0.000    6.429    0.000    0.000    0.000    0.000 
#    0.000    0.000    0.000    0.000    0.000    0.000 
#
# Total GULP energy -173452.764343 kJ/mol
# GULP energy per Si atom -12389.483167 kJ/mol
# Density = 2.348094 g / cm^3
# Si number density = 23.534504 Si / 1000 Ang^3
#
#
#
# Elastic Constant Matrix: (Units=GPa)
#
#
# Indices 1 2 3 4 5 6 
#
# 1 128.7004 51.9107 80.7654 -2.2848 -4.2219 27.7797
# 2 51.9107 77.3974 37.1459 -5.1112 0.7744 11.2845
# 3 80.7654 37.1459 182.0487 -12.6458 1.0011 14.6464
# 4 -2.2848 -5.1112 -12.6458 42.4502 -4.8155 -1.7084
# 5 -4.2219 0.7744 1.0011 -4.8155 37.2293 5.6904
# 6 27.7797 11.2845 14.6464 -1.7084 5.6904 44.3083
#
#
#
# Elastic Compliance Matrix: (Units=1/GPa)
#
#
# Indices 1 2 3 4 5 6 
#
# 1 0.015108 -0.006969 -0.004872 -0.001421 0.002799 -0.006501
# 2 -0.006969 0.017906 -0.000461 0.001539 -0.000974 0.000146
# 3 -0.004872 -0.000461 0.007830 0.001975 -0.000611 0.000738
# 4 -0.001421 0.001539 0.001975 0.024597 0.002870 0.000426
# 5 0.002799 -0.000974 -0.000611 0.002870 0.028324 -0.004832
# 6 -0.006501 0.000146 0.000738 0.000426 -0.004832 0.027001
#
#
# Mechanical properties :
#
#
# Convention : Reuss Voigt Hill
#
# Bulk Modulus (GPa) = 61.57767 80.86561 71.22164
# Shear Modulus (GPa) = 33.16029 39.35252 36.25641
#
# Velocity S-wave (km/s) = 3.75775 4.09359 3.92926
# Velocity P-wave (km/s) = 6.71187 7.53514 7.13539
#
# Compressibility (1/GPa) = 0.01623965
#
# Stress axis : x y z
#
# Youngs Moduli (GPa) = 66.19057 55.84762 127.71964
#
# Poissons Ratio (x) = 0.38919 0.62221
# Poissons Ratio (y) = 0.46127 0.05893
# Poissons Ratio (z) = 0.32246 0.02577
#
# Static dielectric constant tensor:
#      x y z
#    x 4.543560 0.125510 -0.054460 
#    y 0.125510 4.405100 0.106530 
#    z -0.054460 0.106530 4.416280 
# 
# 
# High freq. dielectric constant tensor:
#      x y z
#    x 1.920690 -0.003000 -0.001060 
#    y -0.003000 1.939380 0.007090 
#    z -0.001060 0.007090 1.937230 
# 
# From -- ./inp_files/97698.got.cif
#   From: 2010.06.25/outbox.cif.g09.slc.cpg/sg2_49_cif.got.tgz:97698.got - 2010.06.27 13:26:56.
