data_PCOD8008705
_publ_section_title
;
Structure prediction by ZEFSAII (Michael W. Deem and Ramdas Pophale) SiO2 
 PCOD8008705
Probable space group: P -1
;
_chemical_formula_sum "Si O2"
_cell_formula_units_Z 16
_cell_length_a 14.461442
_cell_length_b 10.969891
_cell_length_c 17.615566
_cell_angle_alpha 58.108793
_cell_angle_beta 157.383350
_cell_angle_gamma 121.951075
_cell_volume 905.053676
_symmetry_space_group_name_H-M "P -1"
_symmetry_group_IT_number 2
_symmetry_cell_setting 'triclinic'
loop_
_space_group_symop_operation_xyz
x,y,z
-x,-y,-z
loop_
_atom_site_type_symbol
_atom_site_label
_atom_site_fract_x
_atom_site_fract_y
_atom_site_fract_z
Si Si1 0.707817 0.051574 0.699709
Si Si2 0.678608 0.684968 0.031112
Si Si3 0.497083 0.527058 0.251011
Si Si4 0.153660 0.619519 0.338209
Si Si5 0.773705 0.997876 0.934147
Si Si6 0.959810 0.496496 0.860028
Si Si7 0.247436 0.707948 0.102869
Si Si8 0.731273 0.535504 0.268789
O O1 0.764274 0.223809 0.686061
O O2 0.500000 0.000000 0.500000
O O3 0.633120 0.001712 0.745620
O O4 0.940795 0.978850 0.874050
O O5 0.687526 0.852055 0.961754
O O6 0.416417 0.607827 0.832772
O O7 0.724052 0.668726 0.161016
O O8 0.883938 0.608568 0.169786
O O9 0.665175 0.414078 0.447840
O O10 0.484689 0.666707 0.250867
O O11 0.604098 0.582805 0.233127
O O12 0.224876 0.440209 0.067672
O O13 0.159960 0.500766 0.314724
O O14 0.717382 0.123613 0.907503
O O15 0.784213 0.384688 0.813658
O O16 0.008576 0.655074 0.885629
O O17 0.000000 0.500000 0.500000
#
# Coordination Sequence:
#
# PCOD8008705 Si02
#       8
#     2   2   2   2   2   2   2   2
#     4  10  23  31  55  82 115 154 183 219 279 332
#     4  10  22  35  59  83 107 143 182 237 291 321
#     4  10  21  33  59  79 114 140 192 233 271 320
#     4  11  19  34  56  85 109 147 186 226 278 326
#     4  10  21  39  52  78 122 147 182 226 276 341
#     4   9  19  35  54  82 115 148 185 220 269 321
#     4   9  19  38  54  80 117 156 175 224 273 327
#     4  11  21  38  61  84 104 137 193 246 282 325
#
# _framework density 17.678508999999998
#
# number of rings (size 3 to 8) (size 9 to 14) (size 15 to 20)
#    0.750    1.250    3.750    0.000    3.500    0.500 
#    2.250    0.625    0.000    0.750    0.000    0.000 
#    0.000    0.000    0.000    0.000    0.000    0.000 
#
# Total GULP energy -198287.667369 kJ/mol
# GULP energy per Si atom -12392.979211 kJ/mol
# Density = 1.763827 g / cm^3
# Si number density = 17.678509 Si / 1000 Ang^3
#
#
#
# Elastic Constant Matrix: (Units=GPa)
#
#
# Indices 1 2 3 4 5 6 
#
# 1 143.7501 54.3594 41.9446 -7.4887 -14.9521 4.8904
# 2 54.3594 79.9407 30.9236 -10.0944 -5.0208 3.6381
# 3 41.9446 30.9236 87.6812 4.4393 -14.5877 3.2634
# 4 -7.4887 -10.0944 4.4393 21.3165 1.0680 -1.1473
# 5 -14.9521 -5.0208 -14.5877 1.0680 27.9164 -3.3330
# 6 4.8904 3.6381 3.2634 -1.1473 -3.3330 28.9036
#
#
#
# Elastic Compliance Matrix: (Units=1/GPa)
#
#
# Indices 1 2 3 4 5 6 
#
# 1 0.010189 -0.005622 -0.002428 0.001250 0.003089 -0.000336
# 2 -0.005622 0.019124 -0.004857 0.008172 -0.002527 -0.000875
# 3 -0.002428 -0.004857 0.015670 -0.006745 0.006237 -0.000296
# 4 0.001250 0.008172 -0.006745 0.052856 -0.003259 0.001244
# 5 0.003089 -0.002527 0.006237 -0.003259 0.040844 0.003672
# 6 -0.000336 -0.000875 -0.000296 0.001244 0.003672 0.035271
#
#
# Mechanical properties :
#
#
# Convention : Reuss Voigt Hill
#
# Bulk Modulus (GPa) = 52.16886 62.86969 57.51927
# Shear Modulus (GPa) = 24.25343 27.90358 26.07851
#
# Velocity S-wave (km/s) = 3.70796 3.97721 3.84494
# Velocity P-wave (km/s) = 6.92140 7.53199 7.23314
#
# Compressibility (1/GPa) = 0.01916852
#
# Stress axis : x y z
#
# Youngs Moduli (GPa) = 98.14643 52.29032 63.81793
#
# Poissons Ratio (x) = 0.29397 0.15496
# Poissons Ratio (y) = 0.55177 0.30996
# Poissons Ratio (z) = 0.23832 0.25397
#
# Static dielectric constant tensor:
#      x y z
#    x 3.448450 -0.010300 -0.089540 
#    y -0.010300 3.025790 0.049810 
#    z -0.089540 0.049810 3.204210 
# 
# 
# High freq. dielectric constant tensor:
#      x y z
#    x 1.694180 -0.002970 -0.012420 
#    y -0.002970 1.651960 0.007140 
#    z -0.012420 0.007140 1.678280 
# 
# From -- ./inp_files/573421.got.cif
#   From: 2010.06.25/outbox.cif.g09.slc.cpg/sg2_287_cif.got.tgz:573421.got - 2010.06.27 13:26:56.
