data_PCOD8008513
_publ_section_title
;
Structure prediction by ZEFSAII (Michael W. Deem and Ramdas Pophale) SiO2 
 PCOD8008513
Probable space group: P -1
;
_chemical_formula_sum "Si O2"
_cell_formula_units_Z 14
_cell_length_a 10.193582
_cell_length_b 9.787125
_cell_length_c 10.799043
_cell_angle_alpha 122.543110
_cell_angle_beta 125.859367
_cell_angle_gamma 46.436722
_cell_volume 615.960325
_symmetry_space_group_name_H-M "P -1"
_symmetry_group_IT_number 2
_symmetry_cell_setting 'triclinic'
loop_
_space_group_symop_operation_xyz
x,y,z
-x,-y,-z
loop_
_atom_site_type_symbol
_atom_site_label
_atom_site_fract_x
_atom_site_fract_y
_atom_site_fract_z
Si Si1 0.085457 0.283553 0.289995
Si Si2 0.439151 0.914695 0.219579
Si Si3 0.720213 0.551560 0.367268
Si Si4 0.628944 0.415672 0.685801
Si Si5 0.431794 0.795778 0.642275
Si Si6 0.340253 0.956062 0.922389
Si Si7 0.976482 0.348506 0.984424
O O1 0.236270 0.047741 0.249660
O O2 0.199823 0.377793 0.446095
O O3 0.898994 0.354086 0.308746
O O4 0.996145 0.372291 0.150984
O O5 0.506404 0.061086 0.297782
O O6 0.603271 0.730011 0.293513
O O7 0.403009 0.839959 0.032395
O O8 0.577862 0.499852 0.322495
O O9 0.617701 0.577322 0.665837
O O10 0.691461 0.223666 0.544854
O O11 0.773694 0.372710 0.856421
O O12 0.319941 0.853464 0.740721
O O13 0.133243 0.142979 0.918260
O O14 0.500000 0.000000 0.000000
O O15 0.000000 0.500000 0.000000
#
# Coordination Sequence:
#
# PCOD8008513 Si02
#       7
#     2   2   2   2   2   2   2
#     4  10  23  42  64  98 130 174 220 264 325 405
#     4  10  20  43  72  93 131 176 220 266 330 399
#     4  11  24  42  70  95 133 181 216 268 334 396
#     4  11  24  42  65  99 134 170 215 282 332 378
#     4  10  22  41  66  95 135 167 217 278 327 387
#     4   9  20  39  63  97 122 168 217 268 324 391
#     4  11  24  41  68  94 131 174 223 271 334 393
#
# _framework density 22.728736000000001
#
# number of rings (size 3 to 8) (size 9 to 14) (size 15 to 20)
#    0.000    1.714    1.429    3.000    8.000    1.143 
#    2.571    1.429    0.000    0.000    0.000    0.000 
#    0.000    0.000    0.000    0.000    0.000    0.000 
#
# Total GULP energy -173460.279654 kJ/mol
# GULP energy per Si atom -12390.019975 kJ/mol
# Density = 2.267700 g / cm^3
# Si number density = 22.728736 Si / 1000 Ang^3
#
#
#
# Elastic Constant Matrix: (Units=GPa)
#
#
# Indices 1 2 3 4 5 6 
#
# 1 84.6875 27.8234 45.5367 -4.1069 -2.9519 -20.5322
# 2 27.8234 70.5646 37.9234 -12.5202 -2.6641 -4.9297
# 3 45.5367 37.9234 142.0076 -16.5965 -21.2229 -18.6719
# 4 -4.1069 -12.5202 -16.5965 34.3992 -13.1589 -1.1691
# 5 -2.9519 -2.6641 -21.2229 -13.1589 32.4201 2.2543
# 6 -20.5322 -4.9297 -18.6719 -1.1691 2.2543 39.0760
#
#
#
# Elastic Compliance Matrix: (Units=1/GPa)
#
#
# Indices 1 2 3 4 5 6 
#
# 1 0.016827 -0.004559 -0.004080 -0.002545 -0.002992 0.006413
# 2 -0.004559 0.018369 -0.002759 0.005361 0.001556 -0.001326
# 3 -0.004080 -0.002759 0.012018 0.008416 0.010484 0.002898
# 4 -0.002545 0.005361 0.008416 0.043789 0.023260 0.003329
# 5 -0.002992 0.001556 0.010484 0.023260 0.046891 0.001624
# 6 0.006413 -0.001326 0.002898 0.003329 0.001624 0.030184
#
#
# Mechanical properties :
#
#
# Convention : Reuss Voigt Hill
#
# Bulk Modulus (GPa) = 40.95103 57.75853 49.35478
# Shear Modulus (GPa) = 25.12397 33.57747 29.35072
#
# Velocity S-wave (km/s) = 3.32834 3.84775 3.59743
# Velocity P-wave (km/s) = 5.72947 6.72366 6.24638
#
# Compressibility (1/GPa) = 0.02441941
#
# Stress axis : x y z
#
# Youngs Moduli (GPa) = 59.42941 54.43999 83.20669
#
# Poissons Ratio (x) = 0.24818 0.33946
# Poissons Ratio (y) = 0.27092 0.22955
# Poissons Ratio (z) = 0.24245 0.15019
#
# Static dielectric constant tensor:
#      x y z
#    x 4.137260 -0.434720 -0.379840 
#    y -0.434720 4.306250 0.092730 
#    z -0.379840 0.092730 4.696740 
# 
# 
# High freq. dielectric constant tensor:
#      x y z
#    x 1.884590 -0.008060 -0.019600 
#    y -0.008060 1.882710 -0.000590 
#    z -0.019600 -0.000590 1.919390 
# 
# From -- ./inp_files/424305.got.cif
#   From: 2010.06.25/outbox.cif.g09.slc.cpg/sg2_213_cif.got.tgz:424305.got - 2010.06.27 13:26:56.
