data_PCOD8008712
_publ_section_title
;
Structure prediction by ZEFSAII (Michael W. Deem and Ramdas Pophale) SiO2 
 PCOD8008712
Probable space group: P -1
;
_chemical_formula_sum "Si O2"
_cell_formula_units_Z 16
_cell_length_a 13.870243
_cell_length_b 14.635951
_cell_length_c 10.786417
_cell_angle_alpha 107.938291
_cell_angle_beta 55.569500
_cell_angle_gamma 151.405883
_cell_volume 759.536507
_symmetry_space_group_name_H-M "P -1"
_symmetry_group_IT_number 2
_symmetry_cell_setting 'triclinic'
loop_
_space_group_symop_operation_xyz
x,y,z
-x,-y,-z
loop_
_atom_site_type_symbol
_atom_site_label
_atom_site_fract_x
_atom_site_fract_y
_atom_site_fract_z
Si Si1 0.198227 0.745553 0.775640
Si Si2 0.779237 0.454742 0.399141
Si Si3 0.261214 0.514563 0.124321
Si Si4 0.328059 0.892087 0.266862
Si Si5 0.606063 0.779207 0.216926
Si Si6 0.936222 0.674776 0.142351
Si Si7 0.464973 0.121929 0.054854
Si Si8 0.808001 0.718637 0.049185
O O1 0.162668 0.608507 0.716489
O O2 0.056754 0.698398 0.744496
O O3 0.512366 0.003233 0.674825
O O4 0.053865 0.671823 0.977305
O O5 0.502734 0.258242 0.591131
O O6 0.758674 0.505916 0.313865
O O7 0.009334 0.662084 0.414340
O O8 0.393335 0.647923 0.210280
O O9 0.300542 0.428809 0.045125
O O10 0.395777 0.671892 0.976522
O O11 0.446313 0.076462 0.194017
O O12 0.361083 0.827560 0.123301
O O13 0.635096 0.686236 0.169194
O O14 0.882337 0.031835 0.090630
O O15 0.767395 0.625055 0.162815
O O16 0.173086 0.912635 0.124500
#
# Coordination Sequence:
#
# PCOD8008712 Si02
#       8
#     2   2   2   2   2   2   2   2
#     4  10  21  33  61  93 120 154 193 229 287 361
#     4  11  22  37  60  89 126 152 183 247 300 342
#     4  11  21  37  64  85 111 157 206 234 282 354
#     4   9  19  33  53  88 127 148 183 235 286 347
#     4  11  25  43  58  84 120 155 199 249 298 339
#     4   9  19  37  64  90 113 151 202 238 284 350
#     4   9  16  32  59  88 115 152 190 234 283 346
#     4  10  23  43  66  81 108 159 209 247 285 350
#
# _framework density 21.065477000000001
#
# number of rings (size 3 to 8) (size 9 to 14) (size 15 to 20)
#    0.000    2.000    2.500    1.500    3.500    2.000 
#    0.000    3.125    0.000    1.500    0.000    0.000 
#    0.000    0.000    0.000    0.000    0.000    0.000 
#
# Total GULP energy -198258.931231 kJ/mol
# GULP energy per Si atom -12391.183202 kJ/mol
# Density = 2.101753 g / cm^3
# Si number density = 21.065477 Si / 1000 Ang^3
#
#
#
# Elastic Constant Matrix: (Units=GPa)
#
#
# Indices 1 2 3 4 5 6 
#
# 1 80.4250 30.1540 28.6811 0.1373 -5.7941 -4.7916
# 2 30.1540 91.1572 17.5992 5.5550 -3.8997 -4.8613
# 3 28.6811 17.5992 50.1714 -2.0020 0.8037 3.0305
# 4 0.1373 5.5550 -2.0020 11.6264 2.0707 -6.3184
# 5 -5.7941 -3.8997 0.8037 2.0707 8.8803 2.1935
# 6 -4.7916 -4.8613 3.0305 -6.3184 2.1935 38.0879
#
#
#
# Elastic Compliance Matrix: (Units=1/GPa)
#
#
# Indices 1 2 3 4 5 6 
#
# 1 0.017982 -0.003511 -0.009373 -0.001137 0.010873 0.001745
# 2 -0.003511 0.013466 -0.003122 -0.008044 0.005816 -0.000144
# 3 -0.009373 -0.003122 0.026965 0.007205 -0.011141 -0.001886
# 4 -0.001137 -0.008044 0.007205 0.106993 -0.034317 0.017983
# 5 0.010873 0.005816 -0.011141 -0.034317 0.133838 -0.010404
# 6 0.001745 -0.000144 -0.001886 0.017983 -0.010404 0.030189
#
#
# Mechanical properties :
#
#
# Convention : Reuss Voigt Hill
#
# Bulk Modulus (GPa) = 37.87778 41.62468 39.75123
# Shear Modulus (GPa) = 13.50456 21.40685 17.45570
#
# Velocity S-wave (km/s) = 2.53469 3.19126 2.88173
# Velocity P-wave (km/s) = 5.15618 5.77766 5.47575
#
# Compressibility (1/GPa) = 0.02640070
#
# Stress axis : x y z
#
# Youngs Moduli (GPa) = 55.61012 74.26355 37.08535
#
# Poissons Ratio (x) = 0.26076 0.34760
# Poissons Ratio (y) = 0.19526 0.11577
# Poissons Ratio (z) = 0.52124 0.23182
#
# Static dielectric constant tensor:
#      x y z
#    x 3.939440 0.111950 0.036430 
#    y 0.111950 3.959380 -0.093820 
#    z 0.036430 -0.093820 3.276580 
# 
# 
# High freq. dielectric constant tensor:
#      x y z
#    x 1.825920 0.007900 0.003590 
#    y 0.007900 1.841120 -0.007820 
#    z 0.003590 -0.007820 1.770660 
# 
# From -- ./inp_files/454837.got.cif
#   From: 2010.06.25/outbox.cif.g09.slc.cpg/sg2_228_cif.got.tgz:454837.got - 2010.06.27 13:26:56.
