data_PCOD8008605
_publ_section_title
;
Structure prediction by ZEFSAII (Michael W. Deem and Ramdas Pophale) SiO2 
 PCOD8008605
Probable space group: P -1
;
_chemical_formula_sum "Si O2"
_cell_formula_units_Z 16
_cell_length_a 12.079650
_cell_length_b 13.653687
_cell_length_c 8.046647
_cell_angle_alpha 132.850272
_cell_angle_beta 116.523640
_cell_angle_gamma 92.540623
_cell_volume 737.937804
_symmetry_space_group_name_H-M "P -1"
_symmetry_group_IT_number 2
_symmetry_cell_setting 'triclinic'
loop_
_space_group_symop_operation_xyz
x,y,z
-x,-y,-z
loop_
_atom_site_type_symbol
_atom_site_label
_atom_site_fract_x
_atom_site_fract_y
_atom_site_fract_z
Si Si1 0.156381 0.369157 0.826969
Si Si2 0.251045 0.155068 0.675505
Si Si3 0.481297 0.833236 0.287598
Si Si4 0.694949 0.678155 0.750342
Si Si5 0.673353 0.358524 0.357234
Si Si6 0.990126 0.201056 0.846519
Si Si7 0.442956 0.686190 0.444889
Si Si8 0.995710 0.481444 0.284436
O O1 0.184028 0.237877 0.613524
O O2 0.039656 0.274859 0.783055
O O3 0.095759 0.444747 0.751301
O O4 0.312690 0.503847 0.157912
O O5 0.365773 0.146688 0.628073
O O6 0.127284 0.982266 0.452478
O O7 0.322539 0.260415 0.010492
O O8 0.427603 0.758201 0.347100
O O9 0.500000 0.000000 0.500000
O O10 0.365452 0.728890 0.946914
O O11 0.631041 0.491226 0.484228
O O12 0.602687 0.709238 0.588882
O O13 0.867082 0.769536 0.921997
O O14 0.585345 0.242198 0.321568
O O15 0.844397 0.431136 0.590057
O O16 0.918159 0.293942 0.983245
O O17 0.000000 0.500000 0.500000
#
# Coordination Sequence:
#
# PCOD8008605 Si02
#       8
#     2   2   2   2   2   2   2   2
#     4  11  22  42  71 104 125 183 239 276 346 405
#     4  11  23  45  69 103 147 173 226 297 343 410
#     4  12  30  46  65 104 146 182 226 291 353 404
#     4  10  20  44  71 107 128 180 236 280 349 406
#     4  11  23  46  71  99 142 177 236 288 332 422
#     4  10  23  41  70 101 143 178 218 295 348 405
#     4  12  23  43  75  99 132 185 235 280 343 409
#     4  11  24  41  67 101 137 186 232 282 338 412
#
# _framework density 21.682043
#
# number of rings (size 3 to 8) (size 9 to 14) (size 15 to 20)
#    0.000    1.000    5.000    3.750    3.500    4.500 
#    4.500    1.250    0.000    0.000    0.000    0.000 
#    0.000    0.000    0.000    0.000    0.000    0.000 
#
# Total GULP energy -198264.374922 kJ/mol
# GULP energy per Si atom -12391.523433 kJ/mol
# Density = 2.163269 g / cm^3
# Si number density = 21.682043 Si / 1000 Ang^3
#
#
#
# Elastic Constant Matrix: (Units=GPa)
#
#
# Indices 1 2 3 4 5 6 
#
# 1 78.7339 37.8100 27.4357 6.6209 -13.3524 -14.8241
# 2 37.8100 114.8196 58.3335 -2.3812 -9.6454 -18.4895
# 3 27.4357 58.3335 104.2666 4.0367 -10.1399 -8.0654
# 4 6.6209 -2.3812 4.0367 32.4940 -4.8319 -1.4610
# 5 -13.3524 -9.6454 -10.1399 -4.8319 37.1773 3.5656
# 6 -14.8241 -18.4895 -8.0654 -1.4610 3.5656 41.7250
#
#
#
# Elastic Compliance Matrix: (Units=1/GPa)
#
#
# Indices 1 2 3 4 5 6 
#
# 1 0.016624 -0.003923 -0.001428 -0.002766 0.003872 0.003464
# 2 -0.003923 0.014039 -0.006610 0.002880 0.000458 0.003611
# 3 -0.001428 -0.006610 0.013794 -0.001742 0.001399 -0.000950
# 4 -0.002766 0.002880 -0.001742 0.032308 0.003401 0.000797
# 5 0.003872 0.000458 0.001399 0.003401 0.029283 -0.000534
# 6 0.003464 0.003611 -0.000950 0.000797 -0.000534 0.026687
#
#
# Mechanical properties :
#
#
# Convention : Reuss Voigt Hill
#
# Bulk Modulus (GPa) = 48.69472 60.55315 54.62393
# Shear Modulus (GPa) = 30.58087 33.89532 32.23809
#
# Velocity S-wave (km/s) = 3.75964 3.95814 3.86016
# Velocity P-wave (km/s) = 6.43069 6.99125 6.71682
#
# Compressibility (1/GPa) = 0.02053611
#
# Stress axis : x y z
#
# Youngs Moduli (GPa) = 60.15424 71.23065 72.49360
#
# Poissons Ratio (x) = 0.27945 0.10351
# Poissons Ratio (y) = 0.23599 0.47915
# Poissons Ratio (z) = 0.08589 0.47080
#
# Static dielectric constant tensor:
#      x y z
#    x 4.452210 -0.531020 -0.021320 
#    y -0.531020 4.357770 0.017220 
#    z -0.021320 0.017220 3.600650 
# 
# 
# High freq. dielectric constant tensor:
#      x y z
#    x 1.865980 -0.011930 0.001040 
#    y -0.011930 1.839400 -0.000380 
#    z 0.001040 -0.000380 1.844250 
# 
# From -- ./inp_files/271270.got.cif
#   From: 2010.06.25/outbox.cif.g09.slc.cpg/sg2_136_cif.got.tgz:271270.got - 2010.06.27 13:26:56.
