data_PCOD8008910
_publ_section_title
;
Structure prediction by ZEFSAII (Michael W. Deem and Ramdas Pophale) SiO2 
 PCOD8008910
Probable space group: P -1
;
_chemical_formula_sum "Si O2"
_cell_formula_units_Z 16
_cell_length_a 17.825766
_cell_length_b 11.886666
_cell_length_c 6.576848
_cell_angle_alpha 72.493707
_cell_angle_beta 112.411688
_cell_angle_gamma 149.231409
_cell_volume 658.002053
_symmetry_space_group_name_H-M "P -1"
_symmetry_group_IT_number 2
_symmetry_cell_setting 'triclinic'
loop_
_space_group_symop_operation_xyz
x,y,z
-x,-y,-z
loop_
_atom_site_type_symbol
_atom_site_label
_atom_site_fract_x
_atom_site_fract_y
_atom_site_fract_z
Si Si1 0.319210 0.774645 0.463853
Si Si2 0.908140 0.625869 0.000928
Si Si3 0.340673 0.256872 0.902298
Si Si4 0.757696 0.022695 0.356952
Si Si5 0.924531 0.693494 0.445202
Si Si6 0.958058 0.981539 0.196565
Si Si7 0.776405 0.099551 0.789607
Si Si8 0.329779 0.834610 0.899296
O O1 0.225088 0.536245 0.457473
O O2 0.269217 0.742585 0.659042
O O3 0.500000 0.000000 0.500000
O O4 0.258889 0.807432 0.243183
O O5 0.886224 0.653756 0.186814
O O6 0.760139 0.365916 0.932827
O O7 0.046200 0.703955 0.106559
O O8 0.942058 0.774118 0.789552
O O9 0.319365 0.102511 0.058876
O O10 0.500000 0.500000 0.000000
O O11 0.325608 0.202094 0.677571
O O12 0.218423 0.201084 0.881426
O O13 0.715585 0.992241 0.561383
O O14 0.702256 0.067026 0.138454
O O15 0.938893 0.227981 0.402581
O O16 0.978863 0.898102 0.425523
O O17 0.000000 0.000000 0.000000
O O18 0.500000 0.000000 0.000000
#
# Coordination Sequence:
#
# PCOD8008910 Si02
#       8
#     2   2   2   2   2   2   2   2
#     4  10  21  35  58  89 124 163 197 256 317 358
#     4   8  16  36  62  86 116 164 201 249 308 366
#     4  11  25  40  65  93 125 166 211 265 319 377
#     4  10  22  41  63  89 121 163 211 258 317 373
#     4   9  18  36  62  84 122 160 207 254 298 374
#     4   9  19  38  63  91 119 165 213 253 314 368
#     4   9  20  41  61  87 125 160 209 254 312 375
#     4  10  21  37  60  91 125 159 203 259 319 373
#
# _framework density 24.316033000000001
#
# number of rings (size 3 to 8) (size 9 to 14) (size 15 to 20)
#    0.000    2.500    0.000    1.500    3.500    6.000 
#    4.500    5.625    0.000    0.000    0.000    0.000 
#    0.000    0.000    0.000    0.000    0.000    0.000 
#
# Total GULP energy -198257.401613 kJ/mol
# GULP energy per Si atom -12391.087601 kJ/mol
# Density = 2.426069 g / cm^3
# Si number density = 24.316033 Si / 1000 Ang^3
#
#
#
# Elastic Constant Matrix: (Units=GPa)
#
#
# Indices 1 2 3 4 5 6 
#
# 1 114.5902 71.3302 29.4684 -4.0350 35.5357 -12.8968
# 2 71.3302 162.6156 21.9379 13.7473 35.4879 5.7270
# 3 29.4684 21.9379 65.2622 -18.5715 31.9993 -2.0119
# 4 -4.0350 13.7473 -18.5715 41.1813 -8.3799 0.3965
# 5 35.5357 35.4879 31.9993 -8.3799 42.4592 1.2505
# 6 -12.8968 5.7270 -2.0119 0.3965 1.2505 29.2254
#
#
#
# Elastic Compliance Matrix: (Units=1/GPa)
#
#
# Indices 1 2 3 4 5 6 
#
# 1 0.015819 -0.005480 -0.000676 0.001340 -0.008131 0.008338
# 2 -0.005480 0.010142 -0.000219 -0.004912 -0.004573 -0.004159
# 3 -0.000676 -0.000219 0.027018 0.008506 -0.018002 0.002260
# 4 0.001340 -0.004912 0.008506 0.030388 0.002523 0.001619
# 5 -0.008131 -0.004573 -0.018002 0.002523 0.048422 -0.006037
# 6 0.008338 -0.004159 0.002260 0.001619 -0.006037 0.039103
#
#
# Mechanical properties :
#
#
# Convention : Reuss Voigt Hill
#
# Bulk Modulus (GPa) = 24.85664 65.32678 45.09171
# Shear Modulus (GPa) = 25.37408 37.22194 31.29801
#
# Velocity S-wave (km/s) = 3.23385 3.91673 3.59156
# Velocity P-wave (km/s) = 4.91815 6.88320 5.98192
#
# Compressibility (1/GPa) = 0.04023069
#
# Stress axis : x y z
#
# Youngs Moduli (GPa) = 63.21557 98.59575 37.01195
#
# Poissons Ratio (x) = 0.54032 0.02500
# Poissons Ratio (y) = 0.34643 0.00810
# Poissons Ratio (z) = 0.04270 0.02157
#
# Static dielectric constant tensor:
#      x y z
#    x 4.542610 -0.285820 -0.211480 
#    y -0.285820 4.277070 -0.468770 
#    z -0.211480 -0.468770 4.681880 
# 
# 
# High freq. dielectric constant tensor:
#      x y z
#    x 1.979850 -0.020520 -0.025390 
#    y -0.020520 1.957880 -0.015100 
#    z -0.025390 -0.015100 1.987130 
# 
# From -- ./inp_files/331856.got.cif
#   From: 2010.06.25/outbox.cif.g09.slc.cpg/sg2_166_cif.got.tgz:331856.got - 2010.06.27 13:26:56.
