data_PCOD8008423
_publ_section_title
;
Structure prediction by ZEFSAII (Michael W. Deem and Ramdas Pophale) SiO2 
 PCOD8008423
Probable space group: P -1
;
_chemical_formula_sum "Si O2"
_cell_formula_units_Z 16
_cell_length_a 8.268484
_cell_length_b 13.570383
_cell_length_c 12.902889
_cell_angle_alpha 32.643768
_cell_angle_beta 52.169647
_cell_angle_gamma 59.126595
_cell_volume 616.805170
_symmetry_space_group_name_H-M "P -1"
_symmetry_group_IT_number 2
_symmetry_cell_setting 'triclinic'
loop_
_space_group_symop_operation_xyz
x,y,z
-x,-y,-z
loop_
_atom_site_type_symbol
_atom_site_label
_atom_site_fract_x
_atom_site_fract_y
_atom_site_fract_z
Si Si1 0.293704 0.556051 0.881111
Si Si2 0.272197 0.341886 0.579130
Si Si3 0.700242 0.370253 0.429583
Si Si4 0.610134 0.851093 0.500832
Si Si5 0.060554 0.915259 0.300051
Si Si6 0.992120 0.332644 0.945451
Si Si7 0.428039 0.766082 0.895364
Si Si8 0.836235 0.260370 0.802051
O O1 0.298262 0.586412 0.730803
O O2 0.449889 0.705758 0.742985
O O3 0.373051 0.356745 0.059182
O O4 0.065807 0.589927 0.984929
O O5 0.461414 0.366185 0.564702
O O6 0.350248 0.200761 0.587515
O O7 0.230808 0.532694 0.370771
O O8 0.055162 0.262123 0.780418
O O9 0.798675 0.173611 0.588095
O O10 0.834404 0.530038 0.293216
O O11 0.827838 0.855072 0.470036
O O12 0.513419 0.058161 0.354846
O O13 0.135491 0.843475 0.223780
O O14 0.086281 0.132795 0.098536
O O15 0.776726 0.347792 0.956519
O O16 0.343744 0.841483 0.973112
#
# Coordination Sequence:
#
# PCOD8008423 Si02
#       8
#     2   2   2   2   2   2   2   2
#     4  11  23  44  65  94 125 168 217 267 311 367
#     4   9  20  38  66  91 121 169 203 255 314 369
#     4  11  23  42  63  92 131 173 206 254 322 381
#     4   9  20  39  66  92 123 163 215 261 313 364
#     4  10  24  41  61  96 131 166 209 257 316 381
#     4  11  26  41  65  94 130 167 215 261 315 376
#     4  11  22  41  69  97 124 163 217 266 311 374
#     4  10  20  43  67  93 129 162 210 265 312 373
#
# _framework density 25.94012
#
# number of rings (size 3 to 8) (size 9 to 14) (size 15 to 20)
#    0.000    1.750    2.500    1.500    3.500   10.500 
#    0.000    0.625    0.000    0.000    0.000    0.000 
#    0.000    0.000    0.000    0.000    0.000    0.000 
#
# Total GULP energy -198373.524722 kJ/mol
# GULP energy per Si atom -12398.345295 kJ/mol
# Density = 2.588108 g / cm^3
# Si number density = 25.940120 Si / 1000 Ang^3
#
#
#
# Elastic Constant Matrix: (Units=GPa)
#
#
# Indices 1 2 3 4 5 6 
#
# 1 104.2567 33.7042 37.5940 -22.0878 13.1477 -30.7771
# 2 33.7042 94.9994 54.3416 -22.6457 -1.9921 -17.9695
# 3 37.5940 54.3416 119.4923 -10.0445 13.3558 -36.2598
# 4 -22.0878 -22.6457 -10.0445 40.4344 -12.8273 2.0750
# 5 13.1477 -1.9921 13.3558 -12.8273 37.6039 -1.1013
# 6 -30.7771 -17.9695 -36.2598 2.0750 -1.1013 31.4073
#
#
#
# Elastic Compliance Matrix: (Units=1/GPa)
#
#
# Indices 1 2 3 4 5 6 
#
# 1 0.016207 -0.002442 0.001822 0.005852 -0.003976 0.016062
# 2 -0.002442 0.018070 -0.008050 0.009351 0.007811 -0.001692
# 3 0.001822 -0.008050 0.017245 -0.002493 -0.007541 0.016990
# 4 0.005852 0.009351 -0.002493 0.035965 0.011786 0.006244
# 5 -0.003976 0.007811 -0.007541 0.011786 0.034871 -0.007690
# 6 0.016062 -0.001692 0.016990 0.006244 -0.007690 0.065544
#
#
# Mechanical properties :
#
#
# Convention : Reuss Voigt Hill
#
# Bulk Modulus (GPa) = 29.25468 63.33645 46.29556
# Shear Modulus (GPa) = 23.08008 34.76302 28.92155
#
# Velocity S-wave (km/s) = 2.98609 3.66474 3.34269
# Velocity P-wave (km/s) = 4.81573 6.50973 5.72572
#
# Compressibility (1/GPa) = 0.03418257
#
# Stress axis : x y z
#
# Youngs Moduli (GPa) = 61.70082 55.33885 57.98731
#
# Poissons Ratio (x) = 0.13516 -0.10566
# Poissons Ratio (y) = 0.15070 0.46679
# Poissons Ratio (z) = -0.11243 0.44547
#
# Static dielectric constant tensor:
#      x y z
#    x 4.944590 -0.165730 -0.437880 
#    y -0.165730 5.135570 0.235060 
#    z -0.437880 0.235060 4.852870 
# 
# 
# High freq. dielectric constant tensor:
#      x y z
#    x 2.024900 0.001650 -0.002990 
#    y 0.001650 2.072260 0.008780 
#    z -0.002990 0.008780 2.032110 
# 
# From -- ./inp_files/504884.got.cif
#   From: 2010.06.25/outbox.cif.g09.slc.cpg/sg2_253_cif.got.tgz:504884.got - 2010.06.27 13:26:56.
