data_PCOD8008962
_publ_section_title
;
Structure prediction by ZEFSAII (Michael W. Deem and Ramdas Pophale) SiO2 
 PCOD8008962
Probable space group: P -1
;
_chemical_formula_sum "Si O2"
_cell_formula_units_Z 14
_cell_length_a 20.292806
_cell_length_b 9.348582
_cell_length_c 12.029372
_cell_angle_alpha 142.460972
_cell_angle_beta 28.985428
_cell_angle_gamma 127.182798
_cell_volume 642.280560
_symmetry_space_group_name_H-M "P -1"
_symmetry_group_IT_number 2
_symmetry_cell_setting 'triclinic'
loop_
_space_group_symop_operation_xyz
x,y,z
-x,-y,-z
loop_
_atom_site_type_symbol
_atom_site_label
_atom_site_fract_x
_atom_site_fract_y
_atom_site_fract_z
Si Si1 0.297439 0.327081 0.871078
Si Si2 0.438615 0.169515 0.340079
Si Si3 0.999751 0.204745 0.890544
Si Si4 0.309872 0.863397 0.194347
Si Si5 0.194261 0.090102 0.061080
Si Si6 0.210526 0.642759 0.888232
Si Si7 0.033746 0.509359 0.236805
O O1 0.415100 0.205209 0.528700
O O2 0.304574 0.591663 0.062751
O O3 0.316075 0.145610 0.838576
O O4 0.138346 0.348564 0.076030
O O5 0.345793 0.404364 0.550779
O O6 0.394781 0.934908 0.216937
O O7 0.603529 0.139262 0.050564
O O8 0.157313 0.064035 0.526894
O O9 0.004219 0.327332 0.077376
O O10 0.919832 0.996371 0.897413
O O11 0.905360 0.399051 0.057364
O O12 0.115106 0.336778 0.397130
O O13 0.263860 0.874469 0.916199
O O14 0.123165 0.684537 0.159858
#
# Coordination Sequence:
#
# PCOD8008962 Si02
#       7
#     2   2   2   2   2   2   2
#     4  11  21  38  56  89 120 149 191 236 291 343
#     4  10  23  40  62  85 112 154 200 235 283 336
#     4  10  21  35  61  88 116 146 193 240 286 334
#     4  11  21  38  62  85 115 152 196 240 278 342
#     4  10  23  34  57  90 123 145 187 239 295 342
#     4   9  20  39  56  88 117 147 194 240 279 344
#     4  11  19  34  58  87 119 149 190 235 288 334
#
# _framework density 21.797328
#
# number of rings (size 3 to 8) (size 9 to 14) (size 15 to 20)
#    0.857    0.857    4.286    1.714    0.000    1.714 
#    0.000    0.714    0.000    3.429    0.000    0.000 
#    0.000    0.000    0.000    0.000    0.000    0.000 
#
# Total GULP energy -173520.264325 kJ/mol
# GULP energy per Si atom -12394.304595 kJ/mol
# Density = 2.174772 g / cm^3
# Si number density = 21.797328 Si / 1000 Ang^3
#
#
#
# Elastic Constant Matrix: (Units=GPa)
#
#
# Indices 1 2 3 4 5 6 
#
# 1 25.7439 31.4598 23.4230 -4.2328 5.1588 -0.4306
# 2 31.4598 104.2051 59.7590 -16.7047 10.8961 -13.0494
# 3 23.4230 59.7590 129.7506 -8.2472 19.0763 2.7348
# 4 -4.2328 -16.7047 -8.2472 19.9809 5.9648 4.9703
# 5 5.1588 10.8961 19.0763 5.9648 25.3401 -3.9949
# 6 -0.4306 -13.0494 2.7348 4.9703 -3.9949 21.2689
#
#
#
# Elastic Compliance Matrix: (Units=1/GPa)
#
#
# Indices 1 2 3 4 5 6 
#
# 1 0.065263 -0.019354 -0.001622 0.001729 -0.006023 -0.011880
# 2 -0.019354 0.022003 -0.006095 0.009321 -0.001319 0.011466
# 3 -0.001622 -0.006095 0.012548 0.004369 -0.008794 -0.008059
# 4 0.001729 0.009321 0.004369 0.072364 -0.027340 -0.016854
# 5 -0.006023 -0.001319 -0.008794 -0.027340 0.057040 0.017302
# 6 -0.011880 0.011466 -0.008059 -0.016854 0.017302 0.062036
#
#
# Mechanical properties :
#
#
# Convention : Reuss Voigt Hill
#
# Bulk Modulus (GPa) = 21.89530 54.33148 38.11339
# Shear Modulus (GPa) = 13.86500 22.98849 18.42674
#
# Velocity S-wave (km/s) = 2.52481 3.25106 2.91067
# Velocity P-wave (km/s) = 4.30887 6.25079 5.36836
#
# Compressibility (1/GPa) = 0.04567190
#
# Stress axis : x y z
#
# Youngs Moduli (GPa) = 15.32255 45.44869 79.69582
#
# Poissons Ratio (x) = 0.87960 0.12927
# Poissons Ratio (y) = 0.29655 0.48577
# Poissons Ratio (z) = 0.02485 0.27702
#
# Static dielectric constant tensor:
#      x y z
#    x 3.720870 0.113110 0.083940 
#    y 0.113110 3.849350 0.034790 
#    z 0.083940 0.034790 3.818850 
# 
# 
# High freq. dielectric constant tensor:
#      x y z
#    x 1.838820 0.013380 0.009890 
#    y 0.013380 1.850290 0.001890 
#    z 0.009890 0.001890 1.852820 
# 
# From -- ./inp_files/473737.got.cif
#   From: 2010.06.25/outbox.cif.g09.slc.cpg/sg2_237_cif.got.tgz:473737.got - 2010.06.27 13:26:56.
