data_PCOD8008621
_publ_section_title
;
Structure prediction by ZEFSAII (Michael W. Deem and Ramdas Pophale) SiO2 
 PCOD8008621
Probable space group: P -1
;
_chemical_formula_sum "Si O2"
_cell_formula_units_Z 16
_cell_length_a 5.118687
_cell_length_b 11.485827
_cell_length_c 11.813634
_cell_angle_alpha 85.086056
_cell_angle_beta 89.977691
_cell_angle_gamma 92.146154
_cell_volume 691.508592
_symmetry_space_group_name_H-M "P -1"
_symmetry_group_IT_number 2
_symmetry_cell_setting 'triclinic'
loop_
_space_group_symop_operation_xyz
x,y,z
-x,-y,-z
loop_
_atom_site_type_symbol
_atom_site_label
_atom_site_fract_x
_atom_site_fract_y
_atom_site_fract_z
Si Si1 0.579720 0.274082 0.973245
Si Si2 0.341433 0.115867 0.500608
Si Si3 0.717514 0.310331 0.543375
Si Si4 0.553379 0.600232 0.262262
Si Si5 0.969314 0.734721 0.653856
Si Si6 0.068844 0.186788 0.702563
Si Si7 0.554889 0.344958 0.216714
Si Si8 0.058662 0.128764 0.950426
O O1 0.530232 0.347680 0.080512
O O2 0.597801 0.354366 0.853447
O O3 0.353698 0.172824 0.972394
O O4 0.857939 0.217341 0.996378
O O5 0.499932 0.241023 0.472716
O O6 0.108775 0.135454 0.405692
O O7 0.241156 0.108098 0.629068
O O8 0.500000 0.000000 0.500000
O O9 0.617131 0.411422 0.618798
O O10 0.952143 0.344709 0.451632
O O11 0.797729 0.209633 0.639453
O O12 0.798883 0.686531 0.278865
O O13 0.657274 0.472788 0.247632
O O14 0.733867 0.678260 0.731181
O O15 0.227104 0.745529 0.733606
O O16 0.006282 0.113957 0.819125
O O17 0.000000 0.000000 0.000000
#
# Coordination Sequence:
#
# PCOD8008621 Si02
#       8
#     2   2   2   2   2   2   2   2
#     4  11  24  46  67 101 135 173 233 268 322 416
#     4  10  22  44  70  95 133 181 222 273 339 397
#     4  10  20  45  66  96 133 173 229 273 315 414
#     4  10  23  42  72  93 132 184 225 270 335 390
#     4  11  25  44  63 101 139 167 227 274 335 396
#     4   9  21  40  65 102 129 170 232 274 315 416
#     4  12  26  44  66 101 141 177 214 285 338 383
#     4  11  23  44  70  99 134 174 218 280 341 380
#
# _framework density 23.137816000000001
#
# number of rings (size 3 to 8) (size 9 to 14) (size 15 to 20)
#    0.000    1.500    2.500    1.500    1.750    4.000 
#    6.750    3.125    0.000    0.000    0.000    0.000 
#    0.000    0.000    0.000    0.000    0.000    0.000 
#
# Total GULP energy -198230.542459 kJ/mol
# GULP energy per Si atom -12389.408904 kJ/mol
# Density = 2.308515 g / cm^3
# Si number density = 23.137816 Si / 1000 Ang^3
#
#
#
# Elastic Constant Matrix: (Units=GPa)
#
#
# Indices 1 2 3 4 5 6 
#
# 1 87.5150 6.7317 28.2734 0.9863 -7.2985 -11.4946
# 2 6.7317 66.6724 13.2200 10.6852 -5.6720 -13.9475
# 3 28.2734 13.2200 121.3970 15.2287 -12.8048 -4.6262
# 4 0.9863 10.6852 15.2287 30.1701 -4.0858 -2.0766
# 5 -7.2985 -5.6720 -12.8048 -4.0858 39.9761 -1.3008
# 6 -11.4946 -13.9475 -4.6262 -2.0766 -1.3008 21.7379
#
#
#
# Elastic Compliance Matrix: (Units=1/GPa)
#
#
# Indices 1 2 3 4 5 6 
#
# 1 0.013404 0.000637 -0.002904 0.001565 0.002000 0.007148
# 2 0.000637 0.018563 -0.000843 -0.005045 0.002346 0.011726
# 3 -0.002904 -0.000843 0.009744 -0.004271 0.002025 -0.000289
# 4 0.001565 -0.005045 -0.004271 0.037337 0.002030 0.000370
# 5 0.002000 0.002346 0.002025 0.002030 0.026725 0.004787
# 6 0.007148 0.011726 -0.000289 0.000370 0.004787 0.057566
#
#
# Mechanical properties :
#
#
# Convention : Reuss Voigt Hill
#
# Bulk Modulus (GPa) = 28.17625 41.33719 34.75672
# Shear Modulus (GPa) = 27.56525 33.53411 30.54968
#
# Velocity S-wave (km/s) = 3.45534 3.81112 3.63758
# Velocity P-wave (km/s) = 5.30313 6.10497 5.71812
#
# Compressibility (1/GPa) = 0.03549089
#
# Stress axis : x y z
#
# Youngs Moduli (GPa) = 74.60598 53.87173 102.62833
#
# Poissons Ratio (x) = -0.03432 0.29804
# Poissons Ratio (y) = -0.04753 0.08648
# Poissons Ratio (z) = 0.21666 0.04539
#
# Static dielectric constant tensor:
#      x y z
#    x 4.313690 -0.221480 -0.013830 
#    y -0.221480 3.761690 0.133030 
#    z -0.013830 0.133030 4.667330 
# 
# 
# High freq. dielectric constant tensor:
#      x y z
#    x 1.922650 -0.020480 -0.002480 
#    y -0.020480 1.875960 0.003230 
#    z -0.002480 0.003230 1.937470 
# 
# From -- ./inp_files/123710.got.cif
#   From: 2010.06.25/outbox.cif.g09.slc.cpg/sg2_62_cif.got.tgz:123710.got - 2010.06.27 13:26:56.
