data_PCOD8008287
_publ_section_title
;
Structure prediction by ZEFSAII (Michael W. Deem and Ramdas Pophale) SiO2 
 PCOD8008287
Probable space group: P -1
;
_chemical_formula_sum "Si O2"
_cell_formula_units_Z 10
_cell_length_a 15.609446
_cell_length_b 10.441564
_cell_length_c 10.611950
_cell_angle_alpha 41.242870
_cell_angle_beta 34.132281
_cell_angle_gamma 21.130296
_cell_volume 348.110064
_symmetry_space_group_name_H-M "P -1"
_symmetry_group_IT_number 2
_symmetry_cell_setting 'triclinic'
loop_
_space_group_symop_operation_xyz
x,y,z
-x,-y,-z
loop_
_atom_site_type_symbol
_atom_site_label
_atom_site_fract_x
_atom_site_fract_y
_atom_site_fract_z
Si Si1 0.147112 0.201277 0.867823
Si Si2 0.342570 0.678895 0.423810
Si Si3 0.256995 0.681863 0.011097
Si Si4 0.999002 0.338171 0.482236
Si Si5 0.387124 0.220227 0.757974
O O1 0.184157 0.292704 0.629197
O O2 0.318292 0.101363 0.851438
O O3 0.287497 0.838755 0.948377
O O4 0.810996 0.557429 0.040438
O O5 0.500000 0.500000 0.500000
O O6 0.487821 0.628235 0.165837
O O7 0.293493 0.506603 0.574916
O O8 0.063982 0.102503 0.473119
O O9 0.197450 0.547491 0.257626
O O10 0.000000 0.000000 0.000000
O O11 0.284291 0.122523 0.353157
#
# Coordination Sequence:
#
# PCOD8008287 Si02
#       5
#     2   2   2   2   2
#     4  11  25  42  72 104 132 182 230 276 340 409
#     4  10  20  42  70  95 136 181 216 282 342 391
#     4  12  22  44  71  98 139 178 228 282 337 405
#     4  11  23  47  73  96 135 188 223 274 348 404
#     4  10  21  45  68 100 142 174 222 290 334 396
#
# _framework density 28.726545000000002
#
# number of rings (size 3 to 8) (size 9 to 14) (size 15 to 20)
#    0.000    1.200    6.000    1.800    0.000    2.400 
#    3.600    1.000    0.000    0.000    0.000    0.000 
#    0.000    0.000    0.000    0.000    0.000    0.000 
#
# Total GULP energy -123993.740376 kJ/mol
# GULP energy per Si atom -12399.374038 kJ/mol
# Density = 2.866116 g / cm^3
# Si number density = 28.726545 Si / 1000 Ang^3
#
#
#
# Elastic Constant Matrix: (Units=GPa)
#
#
# Indices 1 2 3 4 5 6 
#
# 1 94.3790 32.6518 38.8417 11.5324 4.5382 25.8000
# 2 32.6518 93.5793 44.9372 -14.2398 -2.3554 7.1624
# 3 38.8417 44.9372 203.6704 -9.1916 42.0272 -2.9180
# 4 11.5324 -14.2398 -9.1916 35.5316 1.0756 6.1436
# 5 4.5382 -2.3554 42.0272 1.0756 44.1156 -3.2642
# 6 25.8000 7.1624 -2.9180 6.1436 -3.2642 35.7832
#
#
#
# Elastic Compliance Matrix: (Units=1/GPa)
#
#
# Indices 1 2 3 4 5 6 
#
# 1 0.016946 -0.004854 -0.002557 -0.006305 -0.000182 -0.010389
# 2 -0.004854 0.014921 -0.002853 0.006795 0.003809 -0.000539
# 3 -0.002557 -0.002853 0.007563 0.001484 -0.006973 0.002141
# 4 -0.006305 0.006795 0.001484 0.033794 -0.001420 -0.002625
# 5 -0.000182 0.003809 -0.006973 -0.001420 0.029697 0.001753
# 6 -0.010389 -0.000539 0.002141 -0.002625 0.001753 0.036330
#
#
# Mechanical properties :
#
#
# Convention : Reuss Voigt Hill
#
# Bulk Modulus (GPa) = 52.90288 69.38779 61.14533
# Shear Modulus (GPa) = 30.10576 41.43261 35.76919
#
# Velocity S-wave (km/s) = 3.24081 3.80190 3.53251
# Velocity P-wave (km/s) = 5.69735 6.59391 6.16196
#
# Compressibility (1/GPa) = 0.01890256
#
# Stress axis : x y z
#
# Youngs Moduli (GPa) = 59.00948 67.01904 132.21417
#
# Poissons Ratio (x) = 0.32531 0.33804
# Poissons Ratio (y) = 0.28643 0.37727
# Poissons Ratio (z) = 0.15087 0.19124
#
# Static dielectric constant tensor:
#      x y z
#    x 5.256380 0.654250 -0.395590 
#    y 0.654250 5.312300 -0.168990 
#    z -0.395590 -0.168990 5.484270 
# 
# 
# High freq. dielectric constant tensor:
#      x y z
#    x 2.168840 0.019360 0.000710 
#    y 0.019360 2.169250 -0.006500 
#    z 0.000710 -0.006500 2.175150 
# 
# From -- ./inp_files/462669.got.cif
#   From: 2010.06.25/outbox.cif.g09.slc.cpg/sg2_232_cif.got.tgz:462669.got - 2010.06.27 13:26:56.
