data_PCOD8008884
_publ_section_title
;
Structure prediction by ZEFSAII (Michael W. Deem and Ramdas Pophale) SiO2 
 PCOD8008884
Probable space group: P -1
;
_chemical_formula_sum "Si O2"
_cell_formula_units_Z 16
_cell_length_a 19.634490
_cell_length_b 9.469156
_cell_length_c 9.311927
_cell_angle_alpha 135.853605
_cell_angle_beta 90.331593
_cell_angle_gamma 119.324078
_cell_volume 850.184290
_symmetry_space_group_name_H-M "P -1"
_symmetry_group_IT_number 2
_symmetry_cell_setting 'triclinic'
loop_
_space_group_symop_operation_xyz
x,y,z
-x,-y,-z
loop_
_atom_site_type_symbol
_atom_site_label
_atom_site_fract_x
_atom_site_fract_y
_atom_site_fract_z
Si Si1 0.718298 0.370172 0.168911
Si Si2 0.866826 0.792449 0.259704
Si Si3 0.035988 0.415314 0.822581
Si Si4 0.461606 0.044830 0.318286
Si Si5 0.798497 0.123619 0.040330
Si Si6 0.462443 0.631015 0.157059
Si Si7 0.260310 0.289451 0.038873
Si Si8 0.345678 0.499323 0.479562
O O1 0.798900 0.674717 0.312261
O O2 0.664624 0.381159 0.297325
O O3 0.771143 0.297200 0.194526
O O4 0.643036 0.129083 0.874425
O O5 0.907100 0.647883 0.143901
O O6 0.805627 0.702252 0.049524
O O7 0.949355 0.135295 0.525322
O O8 0.102646 0.679828 0.904998
O O9 0.000000 0.500000 0.000000
O O10 0.469488 0.174445 0.564865
O O11 0.540497 0.297915 0.392139
O O12 0.474962 0.830617 0.182318
O O13 0.806879 0.032618 0.130132
O O14 0.712258 0.832478 0.735960
O O15 0.349239 0.380546 0.016855
O O16 0.500000 0.500000 0.000000
O O17 0.304740 0.510092 0.336234
#
# Coordination Sequence:
#
# PCOD8008884 Si02
#       8
#     2   2   2   2   2   2   2   2
#     4  11  20  37  60  85 116 161 193 240 296 338
#     4  10  21  40  64  84 119 149 194 250 287 358
#     4  10  21  41  64  88 112 149 196 244 306 352
#     4  10  21  35  57  85 119 157 206 235 286 347
#     4   9  22  38  57  84 121 146 195 246 287 353
#     4  10  21  38  57  86 125 159 198 247 279 338
#     4   9  20  43  55  88 121 152 195 241 286 349
#     4   9  21  36  56  82 127 149 196 243 287 339
#
# _framework density 18.819448999999999
#
# number of rings (size 3 to 8) (size 9 to 14) (size 15 to 20)
#    0.750    1.500    1.250    1.125    1.750    2.000 
#    6.750    0.625    0.000    0.000    0.000    0.000 
#    0.000    0.000    0.000    0.000    0.000    0.000 
#
# Total GULP energy -198305.513741 kJ/mol
# GULP energy per Si atom -12394.094609 kJ/mol
# Density = 1.877662 g / cm^3
# Si number density = 18.819449 Si / 1000 Ang^3
#
#
#
# Elastic Constant Matrix: (Units=GPa)
#
#
# Indices 1 2 3 4 5 6 
#
# 1 76.3196 37.3246 31.5698 -4.9447 0.2526 4.3324
# 2 37.3246 113.5581 34.8851 17.9547 3.5161 12.3029
# 3 31.5698 34.8851 63.2697 6.5922 -0.1268 4.1944
# 4 -4.9447 17.9547 6.5922 31.4770 3.4470 8.3352
# 5 0.2526 3.5161 -0.1268 3.4470 29.2773 -1.3194
# 6 4.3324 12.3029 4.1944 8.3352 -1.3194 29.4601
#
#
#
# Elastic Compliance Matrix: (Units=1/GPa)
#
#
# Indices 1 2 3 4 5 6 
#
# 1 0.019365 -0.005089 -0.007573 0.008122 -0.000634 -0.001971
# 2 -0.005089 0.012968 -0.003762 -0.006716 -0.000841 -0.002269
# 3 -0.007573 -0.003762 0.022027 -0.003969 0.001113 0.000722
# 4 0.008122 -0.006716 -0.003969 0.040730 -0.004507 -0.009550
# 5 -0.000634 -0.000841 0.001113 -0.004507 0.034939 0.003126
# 6 -0.001971 -0.002269 0.000722 -0.009550 0.003126 0.037921
#
#
# Mechanical properties :
#
#
# Convention : Reuss Voigt Hill
#
# Bulk Modulus (GPa) = 46.49089 51.18963 48.84026
# Shear Modulus (GPa) = 24.04200 28.00073 26.02136
#
# Velocity S-wave (km/s) = 3.57810 3.86146 3.72248
# Velocity P-wave (km/s) = 6.46743 6.86590 6.66965
#
# Compressibility (1/GPa) = 0.02150959
#
# Stress axis : x y z
#
# Youngs Moduli (GPa) = 51.64038 77.11019 45.39965
#
# Poissons Ratio (x) = 0.39245 0.34382
# Poissons Ratio (y) = 0.26282 0.17081
# Poissons Ratio (z) = 0.39108 0.29012
#
# Static dielectric constant tensor:
#      x y z
#    x 3.193640 0.066380 0.120400 
#    y 0.066380 3.628040 0.201380 
#    z 0.120400 0.201380 3.289680 
# 
# 
# High freq. dielectric constant tensor:
#      x y z
#    x 1.713430 0.008490 0.007270 
#    y 0.008490 1.743570 0.011950 
#    z 0.007270 0.011950 1.719510 
# 
# From -- ./inp_files/328062.got.cif
#   From: 2010.06.25/outbox.cif.g09.slc.cpg/sg2_165_cif.got.tgz:328062.got - 2010.06.27 13:26:56.
