data_PCOD8008801
_publ_section_title
;
Structure prediction by ZEFSAII (Michael W. Deem and Ramdas Pophale) SiO2 
 PCOD8008801
Probable space group: P -1
;
_chemical_formula_sum "Si O2"
_cell_formula_units_Z 16
_cell_length_a 14.215702
_cell_length_b 8.706552
_cell_length_c 9.695237
_cell_angle_alpha 70.368140
_cell_angle_beta 124.139281
_cell_angle_gamma 72.479171
_cell_volume 727.949341
_symmetry_space_group_name_H-M "P -1"
_symmetry_group_IT_number 2
_symmetry_cell_setting 'triclinic'
loop_
_space_group_symop_operation_xyz
x,y,z
-x,-y,-z
loop_
_atom_site_type_symbol
_atom_site_label
_atom_site_fract_x
_atom_site_fract_y
_atom_site_fract_z
Si Si1 0.727207 0.337863 0.085129
Si Si2 0.006085 0.978181 0.783996
Si Si3 0.682785 0.911137 0.799790
Si Si4 0.991750 0.753406 0.078490
Si Si5 0.876445 0.638936 0.547751
Si Si6 0.525955 0.730436 0.652399
Si Si7 0.798570 0.602746 0.211555
Si Si8 0.277909 0.901463 0.616740
O O1 0.730434 0.496115 0.134864
O O2 0.664626 0.249657 0.156037
O O3 0.884614 0.138698 0.219232
O O4 0.620563 0.478136 0.824109
O O5 0.840632 0.103498 0.558721
O O6 0.055240 0.805291 0.993066
O O7 0.019750 0.143535 0.814275
O O8 0.632687 0.789605 0.722641
O O9 0.565693 0.164082 0.598659
O O10 0.833495 0.832292 0.877270
O O11 0.713420 0.837840 0.006794
O O12 0.103880 0.503551 0.266018
O O13 0.782616 0.634810 0.352471
O O14 0.033491 0.550546 0.648077
O O15 0.794403 0.867867 0.465273
O O16 0.412821 0.831438 0.655356
#
# Coordination Sequence:
#
# PCOD8008801 Si02
#       8
#     2   2   2   2   2   2   2   2
#     4  11  23  39  61  89 127 167 202 248 303 371
#     4  11  23  39  65  96 121 158 204 252 320 356
#     4   9  19  39  65  81 120 167 199 248 302 358
#     4  10  22  40  64  93 128 152 199 267 302 366
#     4  10  21  34  61  92 121 156 200 257 308 349
#     4  10  22  41  61  90 123 169 205 247 303 357
#     4   9  19  36  59  90 120 159 199 251 309 352
#     4  12  23  38  64  95 123 161 208 251 302 367
#
# _framework density 21.979551000000001
#
# number of rings (size 3 to 8) (size 9 to 14) (size 15 to 20)
#    0.000    1.750    2.500    1.500    5.250    3.500 
#    0.000    3.125    5.500    0.000    0.000    0.000 
#    0.000    0.000    0.000    0.000    0.000    0.000 
#
# Total GULP energy -198303.373197 kJ/mol
# GULP energy per Si atom -12393.960825 kJ/mol
# Density = 2.192952 g / cm^3
# Si number density = 21.979551 Si / 1000 Ang^3
#
#
#
# Elastic Constant Matrix: (Units=GPa)
#
#
# Indices 1 2 3 4 5 6 
#
# 1 74.5346 32.6527 14.5026 -4.4714 -0.3869 9.1241
# 2 32.6527 62.1557 29.8897 -7.6417 2.7090 11.1789
# 3 14.5026 29.8897 84.9619 -27.3323 -6.1684 3.0318
# 4 -4.4714 -7.6417 -27.3323 27.6094 10.1040 -11.7805
# 5 -0.3869 2.7090 -6.1684 10.1040 27.4176 -7.9828
# 6 9.1241 11.1789 3.0318 -11.7805 -7.9828 18.6992
#
#
#
# Elastic Compliance Matrix: (Units=1/GPa)
#
#
# Indices 1 2 3 4 5 6 
#
# 1 0.017675 -0.008477 -0.000526 -0.002133 0.000403 -0.004643
# 2 -0.008477 0.029602 -0.012826 -0.012753 -0.007893 -0.022885
# 3 -0.000526 -0.012826 0.025814 0.031492 0.002657 0.024714
# 4 -0.002133 -0.012753 0.031492 0.091106 -0.008578 0.057294
# 5 0.000403 -0.007893 0.002657 -0.008578 0.046403 0.018497
# 6 -0.004643 -0.022885 0.024714 0.057294 0.018497 0.109409
#
#
# Mechanical properties :
#
#
# Convention : Reuss Voigt Hill
#
# Bulk Modulus (GPa) = 33.97601 41.74913 37.86257
# Shear Modulus (GPa) = 13.38763 24.38572 18.88668
#
# Velocity S-wave (km/s) = 2.47066 3.33449 2.93453
# Velocity P-wave (km/s) = 4.86112 5.81901 5.36150
#
# Compressibility (1/GPa) = 0.02943253
#
# Stress axis : x y z
#
# Youngs Moduli (GPa) = 56.57641 33.78168 38.73851
#
# Poissons Ratio (x) = 0.28637 0.02038
# Poissons Ratio (y) = 0.47961 0.49686
# Poissons Ratio (z) = 0.02977 0.43328
#
# Static dielectric constant tensor:
#      x y z
#    x 3.959420 0.222120 -0.175540 
#    y 0.222120 3.594940 -0.102780 
#    z -0.175540 -0.102780 4.637590 
# 
# 
# High freq. dielectric constant tensor:
#      x y z
#    x 1.860710 0.018780 -0.016610 
#    y 0.018780 1.824350 -0.010940 
#    z -0.016610 -0.010940 1.887030 
# 
# From -- ./inp_files/298347.got.cif
#   From: 2010.06.25/outbox.cif.g09.slc.cpg/sg2_150_cif.got.tgz:298347.got - 2010.06.27 13:26:56.
