data_PCOD8008072
_publ_section_title
;
Structure prediction by ZEFSAII (Michael W. Deem and Ramdas Pophale) SiO2 
 PCOD8008072
Probable space group: P -1
;
_chemical_formula_sum "Si O2"
_cell_formula_units_Z 14
_cell_length_a 9.450744
_cell_length_b 6.407377
_cell_length_c 18.211754
_cell_angle_alpha 113.527207
_cell_angle_beta 119.209252
_cell_angle_gamma 46.813246
_cell_volume 698.145153
_symmetry_space_group_name_H-M "P -1"
_symmetry_group_IT_number 2
_symmetry_cell_setting 'triclinic'
loop_
_space_group_symop_operation_xyz
x,y,z
-x,-y,-z
loop_
_atom_site_type_symbol
_atom_site_label
_atom_site_fract_x
_atom_site_fract_y
_atom_site_fract_z
Si Si1 0.637314 0.422881 0.786594
Si Si2 0.903024 0.061808 0.206728
Si Si3 0.619741 0.683771 0.197743
Si Si4 0.076569 0.762433 0.600869
Si Si5 0.544464 0.033176 0.097947
Si Si6 0.330388 0.099033 0.531598
Si Si7 0.365357 0.874261 0.657475
O O1 0.537302 0.283816 0.777227
O O2 0.620035 0.637090 0.872262
O O3 0.532848 0.585446 0.705494
O O4 0.872435 0.172810 0.797903
O O5 0.796400 0.353384 0.173366
O O6 0.893818 0.171939 0.300760
O O7 0.773645 0.940147 0.151151
O O8 0.514608 0.838758 0.115303
O O9 0.708386 0.841814 0.275994
O O10 0.215572 0.421534 0.575949
O O11 0.165994 0.890116 0.591646
O O12 0.838419 0.925650 0.548408
O O13 0.500000 0.000000 0.000000
O O14 0.500000 0.000000 0.500000
O O15 0.447720 0.879238 0.598929
#
# Coordination Sequence:
#
# PCOD8008072 Si02
#       7
#     2   2   2   2   2   2   2
#     4  10  23  39  64  97 124 164 210 251 305 373
#     4  11  22  41  66  93 125 165 207 253 312 370
#     4  10  20  42  65  89 125 164 204 250 312 366
#     4  11  23  43  61  92 124 162 213 258 311 365
#     4  10  23  44  66  94 129 160 202 256 309 370
#     4  11  26  42  61  90 127 165 209 265 309 358
#     4  11  20  44  62  88 128 164 212 256 306 367
#
# _framework density 20.053137
#
# number of rings (size 3 to 8) (size 9 to 14) (size 15 to 20)
#    0.000    1.429    5.714    0.429    4.000    5.714 
#    5.143    1.429    0.000    0.000    0.000    0.000 
#    0.000    0.000    0.000    0.000    0.000    0.000 
#
# Total GULP energy -173525.592860 kJ/mol
# GULP energy per Si atom -12394.685204 kJ/mol
# Density = 2.000750 g / cm^3
# Si number density = 20.053137 Si / 1000 Ang^3
#
#
#
# Elastic Constant Matrix: (Units=GPa)
#
#
# Indices 1 2 3 4 5 6 
#
# 1 149.7703 80.5716 64.6304 -9.8487 -7.9940 -6.9026
# 2 80.5716 91.5057 32.5814 -7.0369 2.6560 -6.0641
# 3 64.6304 32.5814 133.4696 -2.8973 -11.2206 5.5367
# 4 -9.8487 -7.0369 -2.8973 18.7862 9.6095 -4.0660
# 5 -7.9940 2.6560 -11.2206 9.6095 24.5436 -8.1050
# 6 -6.9026 -6.0641 5.5367 -4.0660 -8.1050 46.3274
#
#
#
# Elastic Compliance Matrix: (Units=1/GPa)
#
#
# Indices 1 2 3 4 5 6 
#
# 1 0.015290 -0.011896 -0.004174 0.000984 0.004675 0.002124
# 2 -0.011896 0.022300 -0.000301 0.006710 -0.008987 0.000199
# 3 -0.004174 -0.000301 0.009911 -0.003100 0.003947 -0.001427
# 4 0.000984 0.006710 -0.003100 0.071072 -0.028792 0.002596
# 5 0.004675 -0.008987 0.003947 -0.028792 0.058550 0.006765
# 6 0.002124 0.000199 -0.001427 0.002596 0.006765 0.023510
#
#
# Mechanical properties :
#
#
# Convention : Reuss Voigt Hill
#
# Bulk Modulus (GPa) = 67.75704 81.14582 74.45143
# Shear Modulus (GPa) = 20.98248 31.06225 26.02237
#
# Velocity S-wave (km/s) = 3.23823 3.94000 3.60623
# Velocity P-wave (km/s) = 6.91691 7.82633 7.38563
#
# Compressibility (1/GPa) = 0.01475861
#
# Stress axis : x y z
#
# Youngs Moduli (GPa) = 65.40350 44.84272 100.90209
#
# Poissons Ratio (x) = 0.53345 0.42112
# Poissons Ratio (y) = 0.77804 0.03042
# Poissons Ratio (z) = 0.27297 0.01352
#
# Static dielectric constant tensor:
#      x y z
#    x 3.846600 0.326130 0.007170 
#    y 0.326130 3.843020 0.019760 
#    z 0.007170 0.019760 3.739150 
# 
# 
# High freq. dielectric constant tensor:
#      x y z
#    x 1.785810 0.021080 -0.003250 
#    y 0.021080 1.779670 0.004260 
#    z -0.003250 0.004260 1.778880 
# 
# From -- ./inp_files/44834.got.cif
#   From: 2010.06.25/outbox.cif.g09.slc.cpg/sg2_23_cif.got.tgz:44834.got - 2010.06.27 13:26:56.
