data_PCOD8008713
_publ_section_title
;
Structure prediction by ZEFSAII (Michael W. Deem and Ramdas Pophale) SiO2 
 PCOD8008713
Probable space group: P -1
;
_chemical_formula_sum "Si O2"
_cell_formula_units_Z 16
_cell_length_a 11.023551
_cell_length_b 14.892620
_cell_length_c 11.277945
_cell_angle_alpha 38.815515
_cell_angle_beta 55.034142
_cell_angle_gamma 39.912277
_cell_volume 743.232450
_symmetry_space_group_name_H-M "P -1"
_symmetry_group_IT_number 2
_symmetry_cell_setting 'triclinic'
loop_
_space_group_symop_operation_xyz
x,y,z
-x,-y,-z
loop_
_atom_site_type_symbol
_atom_site_label
_atom_site_fract_x
_atom_site_fract_y
_atom_site_fract_z
Si Si1 0.205132 0.580335 0.957877
Si Si2 0.631693 0.024584 0.255117
Si Si3 0.966207 0.814338 0.643740
Si Si4 0.228557 0.261218 0.348068
Si Si5 0.435158 0.551226 0.246242
Si Si6 0.272070 0.901523 0.108616
Si Si7 0.166875 0.812103 0.947247
Si Si8 0.709163 0.154796 0.584171
O O1 0.406676 0.455367 0.908462
O O2 0.190791 0.735499 0.880767
O O3 0.038371 0.678427 0.854185
O O4 0.173957 0.461332 0.181511
O O5 0.745771 0.816850 0.453590
O O6 0.414647 0.132392 0.297021
O O7 0.715832 0.112310 0.185059
O O8 0.646557 0.028257 0.100222
O O9 0.932650 0.731448 0.636922
O O10 0.126566 0.829045 0.497999
O O11 0.773537 0.012010 0.588648
O O12 0.371604 0.687537 0.252112
O O13 0.514165 0.350731 0.452872
O O14 0.253860 0.643878 0.165123
O O15 0.316666 0.916922 0.204005
O O16 0.051215 0.024577 0.072997
#
# Coordination Sequence:
#
# PCOD8008713 Si02
#       8
#     2   2   2   2   2   2   2   2
#     4  11  21  39  62  94 121 160 208 254 299 360
#     4  10  23  37  62  91 120 167 198 252 309 361
#     4  10  22  38  62  93 121 164 202 256 307 355
#     4  11  22  38  60  89 129 159 205 247 306 373
#     4  10  21  33  62  95 122 151 205 254 302 356
#     4  11  20  41  61  91 127 161 199 256 312 355
#     4  11  21  38  67  90 127 155 208 257 302 354
#     4  10  21  38  64  93 122 157 212 255 297 363
#
# _framework density 21.527584000000001
#
# number of rings (size 3 to 8) (size 9 to 14) (size 15 to 20)
#    0.000    1.500    3.750    3.375    3.500    1.000 
#    0.000    1.250    0.000    0.000    0.000    0.000 
#    0.000    0.000    0.000    0.000    0.000    0.000 
#
# Total GULP energy -198365.656359 kJ/mol
# GULP energy per Si atom -12397.853522 kJ/mol
# Density = 2.147859 g / cm^3
# Si number density = 21.527584 Si / 1000 Ang^3
#
#
#
# Elastic Constant Matrix: (Units=GPa)
#
#
# Indices 1 2 3 4 5 6 
#
# 1 19.8759 -0.9693 10.8203 4.4944 -4.7995 -3.5925
# 2 -0.9693 81.0379 20.2756 -8.7412 3.6550 -5.4548
# 3 10.8203 20.2756 151.8341 -0.5639 21.2323 -1.5171
# 4 4.4944 -8.7412 -0.5639 30.7439 -0.4597 10.1167
# 5 -4.7995 3.6550 21.2323 -0.4597 28.9660 -6.2478
# 6 -3.5925 -5.4548 -1.5171 10.1167 -6.2478 24.5075
#
#
#
# Elastic Compliance Matrix: (Units=1/GPa)
#
#
# Indices 1 2 3 4 5 6 
#
# 1 0.067444 0.001505 -0.007811 -0.016478 0.021182 0.021940
# 2 0.001505 0.013259 -0.001910 0.002868 0.000450 0.001984
# 3 -0.007811 -0.001910 0.008498 0.001916 -0.008093 -0.003898
# 4 -0.016478 0.002868 0.001916 0.042717 -0.008445 -0.021445
# 5 0.021182 0.000450 -0.008093 -0.008445 0.047734 0.018359
# 6 0.021940 0.001984 -0.003898 -0.021445 0.018359 0.057753
#
#
# Mechanical properties :
#
#
# Convention : Reuss Voigt Hill
#
# Bulk Modulus (GPa) = 13.74236 34.77789 24.26013
# Shear Modulus (GPa) = 17.97959 31.68491 24.83225
#
# Velocity S-wave (km/s) = 2.89310 3.84060 3.40002
# Velocity P-wave (km/s) = 4.19016 5.98808 5.16791
#
# Compressibility (1/GPa) = 0.07276771
#
# Stress axis : x y z
#
# Youngs Moduli (GPa) = 14.82704 75.42323 117.67868
#
# Poissons Ratio (x) = -0.11352 0.91923
# Poissons Ratio (y) = -0.02232 0.22479
# Poissons Ratio (z) = 0.11582 0.14408
#
# Static dielectric constant tensor:
#      x y z
#    x 3.571500 -0.112400 0.272140 
#    y -0.112400 3.793670 -0.108880 
#    z 0.272140 -0.108880 4.164020 
# 
# 
# High freq. dielectric constant tensor:
#      x y z
#    x 1.818380 -0.005500 0.027100 
#    y -0.005500 1.834380 -0.009190 
#    z 0.027100 -0.009190 1.854460 
# 
# From -- ./inp_files/433707.got.cif
#   From: 2010.06.25/outbox.cif.g09.slc.cpg/sg2_217_cif.got.tgz:433707.got - 2010.06.27 13:26:56.
