data_PCOD8008700
_publ_section_title
;
Structure prediction by ZEFSAII (Michael W. Deem and Ramdas Pophale) SiO2 
 PCOD8008700
Probable space group: P -1
;
_chemical_formula_sum "Si O2"
_cell_formula_units_Z 14
_cell_length_a 11.887454
_cell_length_b 11.297604
_cell_length_c 15.164930
_cell_angle_alpha 85.393728
_cell_angle_beta 26.844010
_cell_angle_gamma 102.258937
_cell_volume 711.215763
_symmetry_space_group_name_H-M "P -1"
_symmetry_group_IT_number 2
_symmetry_cell_setting 'triclinic'
loop_
_space_group_symop_operation_xyz
x,y,z
-x,-y,-z
loop_
_atom_site_type_symbol
_atom_site_label
_atom_site_fract_x
_atom_site_fract_y
_atom_site_fract_z
Si Si1 0.740915 0.337234 0.989522
Si Si2 0.147281 0.380056 0.865219
Si Si3 0.270988 0.575572 0.490188
Si Si4 0.247200 0.930297 0.758621
Si Si5 0.356447 0.350256 0.394407
Si Si6 0.632231 0.900121 0.162229
Si Si7 0.698211 0.086919 0.942558
O O1 0.600662 0.188248 0.038444
O O2 0.995809 0.358853 0.878262
O O3 0.939532 0.489900 0.781199
O O4 0.440528 0.312805 0.245701
O O5 0.429852 0.364844 0.656027
O O6 0.311236 0.546856 0.785609
O O7 0.884863 0.242710 0.122584
O O8 0.242415 0.452461 0.451500
O O9 0.341797 0.717063 0.379094
O O10 0.500000 0.000000 0.500000
O O11 0.408018 0.024376 0.731059
O O12 0.972925 0.938251 0.920396
O O13 0.079566 0.194781 0.648222
O O14 0.598165 0.961275 0.092408
O O15 0.500000 0.000000 0.000000
#
# Coordination Sequence:
#
# PCOD8008700 Si02
#       7
#     2   2   2   2   2   2   2
#     4  11  19  37  60  85 120 154 193 242 300 346
#     4   9  18  34  53  91 118 150 184 233 299 369
#     4   8  20  33  55  85 115 147 185 234 298 362
#     4  10  21  33  56  93 128 151 183 238 311 363
#     4   9  22  36  57  86 115 152 199 240 292 357
#     4  10  21  38  58  85 122 156 192 241 298 345
#     4  11  25  42  60  83 116 163 212 244 277 341
#
# _framework density 19.684602999999999
#
# number of rings (size 3 to 8) (size 9 to 14) (size 15 to 20)
#    0.857    1.429    1.429    0.857    4.000    0.571 
#    0.000    2.857    0.000    1.714    0.000    0.000 
#    0.000    0.000    0.000    0.000    0.000    0.000 
#
# Total GULP energy -173514.767416 kJ/mol
# GULP energy per Si atom -12393.911958 kJ/mol
# Density = 1.963980 g / cm^3
# Si number density = 19.684603 Si / 1000 Ang^3
#
#
#
# Elastic Constant Matrix: (Units=GPa)
#
#
# Indices 1 2 3 4 5 6 
#
# 1 92.6395 50.5647 42.5278 -15.2473 22.5378 12.5026
# 2 50.5647 96.6933 64.7188 -11.6406 21.8758 14.4524
# 3 42.5278 64.7188 123.5489 -6.5082 38.5410 1.1758
# 4 -15.2473 -11.6406 -6.5082 40.9736 -0.2526 9.9078
# 5 22.5378 21.8758 38.5410 -0.2526 26.3279 -4.3179
# 6 12.5026 14.4524 1.1758 9.9078 -4.3179 27.2770
#
#
#
# Elastic Compliance Matrix: (Units=1/GPa)
#
#
# Indices 1 2 3 4 5 6 
#
# 1 0.020292 -0.004419 0.001657 0.009697 -0.018237 -0.013440
# 2 -0.004419 0.021435 -0.007937 0.006025 -0.004296 -0.011858
# 3 0.001657 -0.007937 0.018842 0.001584 -0.022642 -0.001526
# 4 0.009697 0.006025 0.001584 0.035582 -0.019166 -0.023664
# 5 -0.018237 -0.004296 -0.022642 -0.019166 0.095654 0.033714
# 6 -0.013440 -0.011858 -0.001526 -0.023664 0.033714 0.063102
#
#
# Mechanical properties :
#
#
# Convention : Reuss Voigt Hill
#
# Bulk Modulus (GPa) = 25.52813 69.83380 47.68097
# Shear Modulus (GPa) = 17.27951 29.25374 23.26662
#
# Velocity S-wave (km/s) = 2.96601 3.85921 3.44171
# Velocity P-wave (km/s) = 4.97256 7.44388 6.33000
#
# Compressibility (1/GPa) = 0.03917247
#
# Stress axis : x y z
#
# Youngs Moduli (GPa) = 49.28035 46.65347 53.07260
#
# Poissons Ratio (x) = 0.20615 -0.08797
# Poissons Ratio (y) = 0.21776 0.42123
# Poissons Ratio (z) = -0.08168 0.37028
#
# Static dielectric constant tensor:
#      x y z
#    x 3.085990 0.053440 0.182450 
#    y 0.053440 3.651870 -0.199400 
#    z 0.182450 -0.199400 3.601580 
# 
# 
# High freq. dielectric constant tensor:
#      x y z
#    x 1.716930 0.006190 0.019800 
#    y 0.006190 1.769050 -0.012750 
#    z 0.019800 -0.012750 1.773960 
# 
# From -- ./inp_files/395561.got.cif
#   From: 2010.06.25/outbox.cif.g09.slc.cpg/sg2_198_cif.got.tgz:395561.got - 2010.06.27 13:26:56.
