data_PCOD8008201
_publ_section_title
;
Structure prediction by ZEFSAII (Michael W. Deem and Ramdas Pophale) SiO2 
 PCOD8008201
Probable space group: P -1
;
_chemical_formula_sum "Si O2"
_cell_formula_units_Z 16
_cell_length_a 12.407224
_cell_length_b 12.193225
_cell_length_c 8.820751
_cell_angle_alpha 63.098539
_cell_angle_beta 48.230432
_cell_angle_gamma 90.479693
_cell_volume 785.425690
_symmetry_space_group_name_H-M "P -1"
_symmetry_group_IT_number 2
_symmetry_cell_setting 'triclinic'
loop_
_space_group_symop_operation_xyz
x,y,z
-x,-y,-z
loop_
_atom_site_type_symbol
_atom_site_label
_atom_site_fract_x
_atom_site_fract_y
_atom_site_fract_z
Si Si1 0.673299 0.329639 0.654580
Si Si2 0.262706 0.138350 0.648946
Si Si3 0.949204 0.178721 0.945308
Si Si4 0.161712 0.247644 0.177191
Si Si5 0.083322 0.415138 0.902176
Si Si6 0.854257 0.173815 0.699225
Si Si7 0.638782 0.866278 0.114149
Si Si8 0.560893 0.652155 0.907619
O O1 0.760011 0.482530 0.406237
O O2 0.812565 0.285508 0.588551
O O3 0.539239 0.223219 0.731620
O O4 0.589306 0.336449 0.883877
O O5 0.372468 0.174371 0.673918
O O6 0.376710 0.228011 0.351111
O O7 0.122898 0.181799 0.781633
O O8 0.188262 0.974771 0.780820
O O9 0.916310 0.220548 0.783222
O O10 0.954415 0.290458 0.994035
O O11 0.300526 0.330487 0.116080
O O12 0.992132 0.159049 0.480187
O O13 0.150390 0.358705 0.008755
O O14 0.213878 0.149739 0.093386
O O15 0.000000 0.500000 0.000000
O O16 0.689559 0.028255 0.947169
O O17 0.500000 0.500000 0.000000
#
# Coordination Sequence:
#
# PCOD8008201 Si02
#       8
#     2   2   2   2   2   2   2   2
#     4  11  26  42  61  95 137 170 210 268 333 389
#     4  10  20  42  67  98 123 166 221 269 319 373
#     4  10  22  40  69  93 127 166 220 274 311 382
#     4  11  23  39  68  95 126 172 222 266 317 391
#     4  12  25  43  62  97 130 174 213 269 331 383
#     4  11  22  44  65  99 128 171 215 271 326 384
#     4  10  23  41  69  95 131 168 214 274 324 388
#     4  11  25  41  65  97 131 175 215 266 323 395
#
# _framework density 20.371120000000001
#
# number of rings (size 3 to 8) (size 9 to 14) (size 15 to 20)
#    0.000    1.250    3.750    1.500    1.750    4.500 
#    2.250    1.250    0.000    0.000    0.000    0.000 
#    0.000    0.000    0.000    0.000    0.000    0.000 
#
# Total GULP energy -198447.608300 kJ/mol
# GULP energy per Si atom -12402.975519 kJ/mol
# Density = 2.032475 g / cm^3
# Si number density = 20.371120 Si / 1000 Ang^3
#
#
#
# Elastic Constant Matrix: (Units=GPa)
#
#
# Indices 1 2 3 4 5 6 
#
# 1 94.2224 40.0712 35.7980 -2.5632 21.2709 3.0035
# 2 40.0712 106.0901 35.9986 -5.1846 7.9390 19.5078
# 3 35.7980 35.9986 123.9580 0.1689 20.8494 12.4495
# 4 -2.5632 -5.1846 0.1689 28.2841 -1.5351 -0.2071
# 5 21.2709 7.9390 20.8494 -1.5351 32.0145 2.8627
# 6 3.0035 19.5078 12.4495 -0.2071 2.8627 29.1168
#
#
#
# Elastic Compliance Matrix: (Units=1/GPa)
#
#
# Indices 1 2 3 4 5 6 
#
# 1 0.015196 -0.005134 -0.001920 0.000045 -0.007881 0.003468
# 2 -0.005134 0.013416 -0.002000 0.002067 0.002183 -0.007804
# 3 -0.001920 -0.002000 0.010238 -0.000876 -0.004724 -0.002381
# 4 0.000045 0.002067 -0.000876 0.035836 0.001830 -0.000940
# 5 -0.007881 0.002183 -0.004724 0.001830 0.039317 -0.002482
# 6 0.003468 -0.007804 -0.002381 -0.000940 -0.002482 0.040471
#
#
# Mechanical properties :
#
#
# Convention : Reuss Voigt Hill
#
# Bulk Modulus (GPa) = 48.21255 60.88955 54.55105
# Shear Modulus (GPa) = 27.85586 32.04327 29.94956
#
# Velocity S-wave (km/s) = 3.70187 3.97038 3.83847
# Velocity P-wave (km/s) = 6.47999 7.13958 6.81777
#
# Compressibility (1/GPa) = 0.02074149
#
# Stress axis : x y z
#
# Youngs Moduli (GPa) = 65.80754 74.53632 97.67921
#
# Poissons Ratio (x) = 0.38265 0.18759
# Poissons Ratio (y) = 0.33784 0.19535
# Poissons Ratio (z) = 0.12638 0.14907
#
# Static dielectric constant tensor:
#      x y z
#    x 3.629430 0.181510 0.171020 
#    y 0.181510 3.684120 0.008050 
#    z 0.171020 0.008050 3.790910 
# 
# 
# High freq. dielectric constant tensor:
#      x y z
#    x 1.803990 0.007410 0.011980 
#    y 0.007410 1.796330 -0.004270 
#    z 0.011980 -0.004270 1.802430 
# 
# From -- ./inp_files/189278.got.cif
#   From: 2010.06.25/outbox.cif.g09.slc.cpg/sg2_95_cif.got.tgz:189278.got - 2010.06.27 13:26:56.
