data_PCOD8008641
_publ_section_title
;
Structure prediction by ZEFSAII (Michael W. Deem and Ramdas Pophale) SiO2 
 PCOD8008641
Probable space group: P -1
;
_chemical_formula_sum "Si O2"
_cell_formula_units_Z 12
_cell_length_a 9.469161
_cell_length_b 9.041007
_cell_length_c 13.809641
_cell_angle_alpha 50.626718
_cell_angle_beta 37.710282
_cell_angle_gamma 68.170089
_cell_volume 537.469598
_symmetry_space_group_name_H-M "P -1"
_symmetry_group_IT_number 2
_symmetry_cell_setting 'triclinic'
loop_
_space_group_symop_operation_xyz
x,y,z
-x,-y,-z
loop_
_atom_site_type_symbol
_atom_site_label
_atom_site_fract_x
_atom_site_fract_y
_atom_site_fract_z
Si Si1 0.976714 0.930560 0.730913
Si Si2 0.897979 0.302348 0.697234
Si Si3 0.500092 0.967170 0.678581
Si Si4 0.843617 0.790433 0.214412
Si Si5 0.028026 0.688682 0.973655
Si Si6 0.446809 0.286413 0.067922
O O1 0.822290 0.769992 0.805838
O O2 0.936495 0.849318 0.895693
O O3 0.887171 0.128283 0.697739
O O4 0.256424 0.979742 0.535211
O O5 0.064572 0.285822 0.705400
O O6 0.000000 0.500000 0.500000
O O7 0.631478 0.295550 0.877097
O O8 0.307852 0.783892 0.807541
O O9 0.539493 0.890772 0.795049
O O10 0.416791 0.171926 0.643717
O O11 0.861601 0.635038 0.183363
O O12 0.000000 0.000000 0.000000
O O13 0.000000 0.500000 0.000000
O O14 0.500000 0.500000 0.000000
#
# Coordination Sequence:
#
# PCOD8008641 Si02
#       6
#     2   2   2   2   2   2
#     4  12  25  43  72 105 141 190 236 292 356 421
#     4  12  25  45  74 104 142 187 241 291 355 423
#     4  11  22  45  72  99 144 187 236 286 355 423
#     4  10  20  45  74  96 140 191 228 294 355 410
#     4  11  22  42  72 101 140 186 237 288 353 418
#     4  12  25  46  70 100 147 187 235 297 357 421
#
# _framework density 22.326843
#
# number of rings (size 3 to 8) (size 9 to 14) (size 15 to 20)
#    0.000    0.667    6.667    3.500    0.000    0.000 
#    0.000    2.500    0.000    0.000    0.000    0.000 
#    0.000    0.000    0.000    0.000    0.000    0.000 
#
# Total GULP energy -148784.609741 kJ/mol
# GULP energy per Si atom -12398.717478 kJ/mol
# Density = 2.227603 g / cm^3
# Si number density = 22.326843 Si / 1000 Ang^3
#
#
#
# Elastic Constant Matrix: (Units=GPa)
#
#
# Indices 1 2 3 4 5 6 
#
# 1 125.1846 24.0410 56.5301 3.2293 5.1150 5.4844
# 2 24.0410 138.5465 63.6818 32.7705 -12.7322 9.4442
# 3 56.5301 63.6818 92.1137 11.0091 0.9936 0.1981
# 4 3.2293 32.7705 11.0091 28.0255 -13.1855 2.6461
# 5 5.1150 -12.7322 0.9936 -13.1855 48.0433 -3.6843
# 6 5.4844 9.4442 0.1981 2.6461 -3.6843 39.7934
#
#
#
# Elastic Compliance Matrix: (Units=1/GPa)
#
#
# Indices 1 2 3 4 5 6 
#
# 1 0.011539 0.002099 -0.008439 -0.000668 -0.000841 -0.002080
# 2 0.002099 0.014743 -0.009882 -0.013324 0.000013 -0.002852
# 3 -0.008439 -0.009882 0.022535 0.002832 -0.001172 0.003100
# 4 -0.000668 -0.013324 0.002832 0.055730 0.011825 0.000629
# 5 -0.000841 0.000013 -0.001172 0.011825 0.024298 0.001582
# 6 -0.002080 -0.002852 0.003100 0.000629 0.001582 0.026182
#
#
# Mechanical properties :
#
#
# Convention : Reuss Voigt Hill
#
# Bulk Modulus (GPa) = 61.07957 71.59451 66.33704
# Shear Modulus (GPa) = 25.91626 37.27858 31.59742
#
# Velocity S-wave (km/s) = 3.41070 4.09060 3.76602
# Velocity P-wave (km/s) = 6.55186 7.37881 6.97760
#
# Compressibility (1/GPa) = 0.01637209
#
# Stress axis : x y z
#
# Youngs Moduli (GPa) = 86.66498 67.82942 44.37562
#
# Poissons Ratio (x) = -0.14240 0.37450
# Poissons Ratio (y) = -0.18195 0.43854
# Poissons Ratio (z) = 0.73139 0.67031
#
# Static dielectric constant tensor:
#      x y z
#    x 4.369690 0.113000 -0.005710 
#    y 0.113000 4.647270 0.188590 
#    z -0.005710 0.188590 4.230560 
# 
# 
# High freq. dielectric constant tensor:
#      x y z
#    x 1.888890 -0.004700 0.012660 
#    y -0.004700 1.888000 0.014520 
#    z 0.012660 0.014520 1.871330 
# 
# From -- ./inp_files/156101.got.cif
#   From: 2010.06.25/outbox.cif.g09.slc.cpg/sg2_79_cif.got.tgz:156101.got - 2010.06.27 13:26:56.
