data_PCOD8008484
_publ_section_title
;
Structure prediction by ZEFSAII (Michael W. Deem and Ramdas Pophale) SiO2 
 PCOD8008484
Probable space group: P -1
;
_chemical_formula_sum "Si O2"
_cell_formula_units_Z 10
_cell_length_a 12.969649
_cell_length_b 24.943952
_cell_length_c 9.330727
_cell_angle_alpha 151.464094
_cell_angle_beta 146.408081
_cell_angle_gamma 16.157731
_cell_volume 399.959892
_symmetry_space_group_name_H-M "P -1"
_symmetry_group_IT_number 2
_symmetry_cell_setting 'triclinic'
loop_
_space_group_symop_operation_xyz
x,y,z
-x,-y,-z
loop_
_atom_site_type_symbol
_atom_site_label
_atom_site_fract_x
_atom_site_fract_y
_atom_site_fract_z
Si Si1 0.076806 0.511697 0.271153
Si Si2 0.802162 0.082934 0.277565
Si Si3 0.682847 0.736497 0.615707
Si Si4 0.140618 0.694321 0.138613
Si Si5 0.365655 0.596982 0.728488
O O1 0.436540 0.266105 0.183817
O O2 0.142829 0.609497 0.565609
O O3 0.711646 0.691882 0.374100
O O4 0.000000 0.500000 0.000000
O O5 0.700685 0.102612 0.372875
O O6 0.988116 0.109277 0.542158
O O7 0.105232 0.840632 0.998227
O O8 0.000000 0.500000 0.500000
O O9 0.784187 0.814876 0.946997
O O10 0.259279 0.579189 0.158177
O O11 0.500000 0.500000 0.000000
O O12 0.500000 0.500000 0.500000
#
# Coordination Sequence:
#
# PCOD8008484 Si02
#       5
#     2   2   2   2   2
#     4  10  23  43  65 100 134 167 221 273 326 399
#     4  10  24  45  69  97 131 180 221 269 337 385
#     4  10  20  43  70  95 134 170 219 276 323 397
#     4  11  21  45  66 100 134 168 224 275 321 401
#     4  11  26  44  66  96 136 177 221 275 333 387
#
# _framework density 25.002509
#
# number of rings (size 3 to 8) (size 9 to 14) (size 15 to 20)
#    0.000    1.600    6.000    0.000    5.600    5.600 
#    3.600    0.000    0.000    0.000    0.000    0.000 
#    0.000    0.000    0.000    0.000    0.000    0.000 
#
# Total GULP energy -123986.496647 kJ/mol
# GULP energy per Si atom -12398.649665 kJ/mol
# Density = 2.494560 g / cm^3
# Si number density = 25.002509 Si / 1000 Ang^3
#
#
#
# Elastic Constant Matrix: (Units=GPa)
#
#
# Indices 1 2 3 4 5 6 
#
# 1 141.5142 57.7600 77.0129 7.8822 -30.1116 3.1919
# 2 57.7600 91.4935 66.5494 14.0574 7.0890 10.1346
# 3 77.0129 66.5494 183.4894 21.4214 -12.3114 3.6801
# 4 7.8822 14.0574 21.4214 47.9119 2.1817 1.0680
# 5 -30.1116 7.0890 -12.3114 2.1817 58.7410 -10.3166
# 6 3.1919 10.1346 3.6801 1.0680 -10.3166 47.0643
#
#
#
# Elastic Compliance Matrix: (Units=1/GPa)
#
#
# Indices 1 2 3 4 5 6 
#
# 1 0.012814 -0.007331 -0.002357 0.000705 0.007371 0.002494
# 2 -0.007331 0.020360 -0.004471 -0.002288 -0.007987 -0.005236
# 3 -0.002357 -0.004471 0.008381 -0.002125 0.001308 0.000802
# 4 0.000705 -0.002288 -0.002125 0.022407 -0.000647 -0.000039
# 5 0.007371 -0.007987 0.001308 -0.000647 0.023155 0.006208
# 6 0.002494 -0.005236 0.000802 -0.000039 0.006208 0.023505
#
#
# Mechanical properties :
#
#
# Convention : Reuss Voigt Hill
#
# Bulk Modulus (GPa) = 75.54896 91.01573 83.28234
# Shear Modulus (GPa) = 34.87881 45.08843 39.98362
#
# Velocity S-wave (km/s) = 3.73904 4.25120 4.00332
# Velocity P-wave (km/s) = 6.99448 7.78323 7.39937
#
# Compressibility (1/GPa) = 0.01323645
#
# Stress axis : x y z
#
# Youngs Moduli (GPa) = 78.03755 49.11491 119.32149
#
# Poissons Ratio (x) = 0.36005 0.28128
# Poissons Ratio (y) = 0.57208 0.53353
# Poissons Ratio (z) = 0.18396 0.21961
#
# Static dielectric constant tensor:
#      x y z
#    x 0.241430 3.148570 -0.545670 
#    y 3.148570 3.320530 -0.166140 
#    z -0.545670 -0.166140 5.004800 
# 
# 
# High freq. dielectric constant tensor:
#      x y z
#    x 2.012760 0.010950 0.013030 
#    y 0.010950 2.004810 -0.000470 
#    z 0.013030 -0.000470 2.001070 
# 
# From -- ./inp_files/151097.got.cif
#   From: 2010.06.25/outbox.cif.g09.slc.cpg/sg2_76_cif.got.tgz:151097.got - 2010.06.27 13:26:56.
