data_PCOD8008576
_publ_section_title
;
Structure prediction by ZEFSAII (Michael W. Deem and Ramdas Pophale) SiO2 
 PCOD8008576
Probable space group: P -1
;
_chemical_formula_sum "Si O2"
_cell_formula_units_Z 14
_cell_length_a 9.251972
_cell_length_b 19.323025
_cell_length_c 6.093486
_cell_angle_alpha 58.984777
_cell_angle_beta 71.423758
_cell_angle_gamma 40.184846
_cell_volume 596.847460
_symmetry_space_group_name_H-M "P -1"
_symmetry_group_IT_number 2
_symmetry_cell_setting 'triclinic'
loop_
_space_group_symop_operation_xyz
x,y,z
-x,-y,-z
loop_
_atom_site_type_symbol
_atom_site_label
_atom_site_fract_x
_atom_site_fract_y
_atom_site_fract_z
Si Si1 0.969266 0.693198 0.429767
Si Si2 0.570626 0.882162 0.613097
Si Si3 0.807757 0.670737 0.139448
Si Si4 0.481875 0.317839 0.431364
Si Si5 0.714311 0.281296 0.765464
Si Si6 0.782834 0.107922 0.293041
Si Si7 0.767470 0.537142 0.078339
O O1 0.712384 0.817820 0.420973
O O2 0.979686 0.628455 0.320110
O O3 0.111020 0.716883 0.262320
O O4 0.080941 0.600965 0.727783
O O5 0.332343 0.929496 0.664782
O O6 0.500000 0.000000 0.500000
O O7 0.728965 0.785873 0.886355
O O8 0.597059 0.708236 0.290194
O O9 0.883409 0.575017 0.068260
O O10 0.665444 0.303288 0.488958
O O11 0.595512 0.222214 0.345302
O O12 0.270860 0.443064 0.202195
O O13 0.476922 0.387921 0.826123
O O14 0.832150 0.150396 0.998888
O O15 0.000000 0.000000 0.500000
#
# Coordination Sequence:
#
# PCOD8008576 Si02
#       7
#     2   2   2   2   2   2   2
#     4  12  26  42  69 106 137 174 222 282 338 387
#     4  12  28  45  65 103 135 172 230 280 329 398
#     4  11  22  45  68  98 139 172 224 275 339 395
#     4  10  20  44  68  94 136 178 222 270 336 401
#     4  10  24  43  66 105 134 175 221 274 341 403
#     4  11  24  45  69  93 132 182 226 274 331 404
#     4  10  22  44  72  98 136 180 223 271 335 408
#
# _framework density 23.456578
#
# number of rings (size 3 to 8) (size 9 to 14) (size 15 to 20)
#    0.000    1.143    5.714    0.857    4.000    8.571 
#    0.000    0.000    0.000    0.000    0.000    0.000 
#    0.000    0.000    0.000    0.000    0.000    0.000 
#
# Total GULP energy -173525.377905 kJ/mol
# GULP energy per Si atom -12394.669850 kJ/mol
# Density = 2.340319 g / cm^3
# Si number density = 23.456578 Si / 1000 Ang^3
#
#
#
# Elastic Constant Matrix: (Units=GPa)
#
#
# Indices 1 2 3 4 5 6 
#
# 1 158.8817 31.9192 58.3102 -10.2051 -7.4900 7.2106
# 2 31.9192 89.2252 52.7979 -15.1097 -3.7217 18.8589
# 3 58.3102 52.7979 138.0201 -16.0221 9.5886 10.5712
# 4 -10.2051 -15.1097 -16.0221 39.1453 1.8441 6.2007
# 5 -7.4900 -3.7217 9.5886 1.8441 46.5913 -1.4828
# 6 7.2106 18.8589 10.5712 6.2007 -1.4828 31.6203
#
#
#
# Elastic Compliance Matrix: (Units=1/GPa)
#
#
# Indices 1 2 3 4 5 6 
#
# 1 0.007672 -0.000758 -0.002999 0.000444 0.001763 -0.000299
# 2 -0.000758 0.017651 -0.005117 0.005978 0.001795 -0.009732
# 3 -0.002999 -0.005117 0.010957 0.001953 -0.003238 -0.000462
# 4 0.000444 0.005978 0.001953 0.030475 -0.001389 -0.010361
# 5 0.001763 0.001795 -0.003238 -0.001389 0.022641 0.000944
# 6 -0.000299 -0.009732 -0.000462 -0.010361 0.000944 0.039728
#
#
# Mechanical properties :
#
#
# Convention : Reuss Voigt Hill
#
# Bulk Modulus (GPa) = 53.96283 74.68686 64.32485
# Shear Modulus (GPa) = 32.66870 39.67804 36.17337
#
# Velocity S-wave (km/s) = 3.73598 4.11731 3.93127
# Velocity P-wave (km/s) = 6.45488 7.38326 6.93462
#
# Compressibility (1/GPa) = 0.01853127
#
# Stress axis : x y z
#
# Youngs Moduli (GPa) = 130.33948 56.65401 91.26411
#
# Poissons Ratio (x) = 0.04293 0.27374
# Poissons Ratio (y) = 0.09876 0.46704
# Poissons Ratio (z) = 0.39095 0.28992
#
# Static dielectric constant tensor:
#      x y z
#    x 3.474670 0.879800 -1.068300 
#    y 0.879800 3.258080 1.347450 
#    z -1.068300 1.347450 3.052940 
# 
# 
# High freq. dielectric constant tensor:
#      x y z
#    x 1.935240 -0.009480 0.002930 
#    y -0.009480 1.921670 0.007360 
#    z 0.002930 0.007360 1.942000 
# 
# From -- ./inp_files/46392.got.cif
#   From: 2010.06.25/outbox.cif.g09.slc.cpg/sg2_24_cif.got.tgz:46392.got - 2010.06.27 13:26:56.
