data_PCOD8008142
_publ_section_title
;
Structure prediction by ZEFSAII (Michael W. Deem and Ramdas Pophale) SiO2 
 PCOD8008142
Probable space group: P -1
;
_chemical_formula_sum "Si O2"
_cell_formula_units_Z 16
_cell_length_a 8.472064
_cell_length_b 23.645902
_cell_length_c 14.339602
_cell_angle_alpha 30.091789
_cell_angle_beta 33.500339
_cell_angle_gamma 50.606622
_cell_volume 754.798510
_symmetry_space_group_name_H-M "P -1"
_symmetry_group_IT_number 2
_symmetry_cell_setting 'triclinic'
loop_
_space_group_symop_operation_xyz
x,y,z
-x,-y,-z
loop_
_atom_site_type_symbol
_atom_site_label
_atom_site_fract_x
_atom_site_fract_y
_atom_site_fract_z
Si Si1 0.208699 0.566639 0.720571
Si Si2 0.544896 0.167498 0.816503
Si Si3 0.784152 0.960081 0.011366
Si Si4 0.774404 0.449176 0.939432
Si Si5 0.457102 0.992335 0.642191
Si Si6 0.360638 0.206702 0.057727
Si Si7 0.688014 0.186192 0.397662
Si Si8 0.337782 0.527349 0.449742
O O1 0.286243 0.707465 0.493816
O O2 0.517338 0.530214 0.622485
O O3 0.022994 0.529297 0.771410
O O4 0.000000 0.500000 0.000000
O O5 0.277780 0.093565 0.985587
O O6 0.399990 0.184665 0.961073
O O7 0.783496 0.096219 0.815697
O O8 0.535259 0.886651 0.310336
O O9 0.106304 0.957594 0.890986
O O10 0.972648 0.464968 0.723154
O O11 0.500000 0.500000 0.000000
O O12 0.636640 0.312552 0.230257
O O13 0.587890 0.894017 0.759425
O O14 0.500000 0.000000 0.500000
O O15 0.633158 0.117885 0.423597
O O16 0.023076 0.207144 0.239746
O O17 0.589346 0.331714 0.800374
O O18 0.500000 0.500000 0.500000
#
# Coordination Sequence:
#
# PCOD8008142 Si02
#       8
#     2   2   2   2   2   2   2   2
#     4  11  22  42  69 100 131 177 222 275 332 408
#     4  11  23  42  73  92 138 175 227 268 342 399
#     4  11  27  42  65 104 132 176 228 281 328 404
#     4  11  24  41  69 100 134 173 221 276 338 402
#     4  12  29  44  66  98 138 174 230 283 337 387
#     4  12  23  45  73  94 133 184 221 277 339 405
#     4  12  24  44  70  98 135 179 226 270 343 407
#     4  10  20  42  66  97 130 172 224 265 330 407
#
# _framework density 21.197711000000002
#
# number of rings (size 3 to 8) (size 9 to 14) (size 15 to 20)
#    0.000    0.750    6.250    2.250    7.000    0.000 
#    0.000    0.625    0.000    0.000    0.000    0.000 
#    0.000    0.000    0.000    0.000    0.000    0.000 
#
# Total GULP energy -198430.503048 kJ/mol
# GULP energy per Si atom -12401.906441 kJ/mol
# Density = 2.114946 g / cm^3
# Si number density = 21.197711 Si / 1000 Ang^3
#
#
#
# Elastic Constant Matrix: (Units=GPa)
#
#
# Indices 1 2 3 4 5 6 
#
# 1 64.0651 41.6289 30.4924 2.0407 6.3887 -19.2927
# 2 41.6289 147.5410 73.4249 -6.4226 11.8968 -28.0317
# 3 30.4924 73.4249 126.2487 0.2825 15.7140 -17.7448
# 4 2.0407 -6.4226 0.2825 54.4938 2.3172 2.8292
# 5 6.3887 11.8968 15.7140 2.3172 25.1135 1.1936
# 6 -19.2927 -28.0317 -17.7448 2.8292 1.1936 34.4409
#
#
#
# Elastic Compliance Matrix: (Units=1/GPa)
#
#
# Indices 1 2 3 4 5 6 
#
# 1 0.021595 -0.003467 -0.001584 -0.001527 -0.003132 0.008693
# 2 -0.003467 0.011248 -0.004830 0.001313 -0.001768 0.004678
# 3 -0.001584 -0.004830 0.011926 -0.000447 -0.004803 0.001529
# 4 -0.001527 0.001313 -0.000447 0.018711 -0.001609 -0.001498
# 5 -0.003132 -0.001768 -0.004803 -0.001609 0.044944 -0.007093
# 6 0.008693 0.004678 0.001529 -0.001498 -0.007093 0.038869
#
#
# Mechanical properties :
#
#
# Convention : Reuss Voigt Hill
#
# Bulk Modulus (GPa) = 39.98901 69.88304 54.93602
# Shear Modulus (GPa) = 28.50777 35.63020 32.06899
#
# Velocity S-wave (km/s) = 3.67120 4.10427 3.89376
# Velocity P-wave (km/s) = 6.07256 7.44975 6.79613
#
# Compressibility (1/GPa) = 0.02500687
#
# Stress axis : x y z
#
# Youngs Moduli (GPa) = 46.30773 88.90483 83.84872
#
# Poissons Ratio (x) = 0.30823 0.13284
# Poissons Ratio (y) = 0.16054 0.40497
# Poissons Ratio (z) = 0.07337 0.42939
#
# Static dielectric constant tensor:
#      x y z
#    x 3.655750 -0.005600 0.103910 
#    y -0.005600 4.594640 0.637020 
#    z 0.103910 0.637020 4.627930 
# 
# 
# High freq. dielectric constant tensor:
#      x y z
#    x 1.806460 -0.003360 0.005210 
#    y -0.003360 1.852210 0.000940 
#    z 0.005210 0.000940 1.845220 
# 
# From -- ./inp_files/297609.got.cif
#   From: 2010.06.25/outbox.cif.g09.slc.cpg/sg2_149_cif.got.tgz:297609.got - 2010.06.27 13:26:56.
