data_PCOD8008207
_publ_section_title
;
Structure prediction by ZEFSAII (Michael W. Deem and Ramdas Pophale) SiO2 
 PCOD8008207
Probable space group: P -1
;
_chemical_formula_sum "Si O2"
_cell_formula_units_Z 16
_cell_length_a 14.046137
_cell_length_b 14.895070
_cell_length_c 9.917682
_cell_angle_alpha 96.586948
_cell_angle_beta 107.902360
_cell_angle_gamma 147.134348
_cell_volume 741.214821
_symmetry_space_group_name_H-M "P -1"
_symmetry_group_IT_number 2
_symmetry_cell_setting 'triclinic'
loop_
_space_group_symop_operation_xyz
x,y,z
-x,-y,-z
loop_
_atom_site_type_symbol
_atom_site_label
_atom_site_fract_x
_atom_site_fract_y
_atom_site_fract_z
Si Si1 0.705447 0.216201 0.526701
Si Si2 0.718323 0.691799 0.012335
Si Si3 0.666655 0.464905 0.813533
Si Si4 0.247223 0.583502 0.917093
Si Si5 0.790050 0.492943 0.592072
Si Si6 0.624537 0.448369 0.258021
Si Si7 0.055846 0.953297 0.442812
Si Si8 0.637310 0.063592 0.191687
O O1 0.669057 0.293131 0.531113
O O2 0.652013 0.141602 0.338674
O O3 0.997053 0.432755 0.737865
O O4 0.500000 0.000000 0.500000
O O5 0.998123 0.920365 0.251772
O O6 0.500000 0.500000 0.000000
O O7 0.692707 0.593249 0.871865
O O8 0.655890 0.734767 0.919553
O O9 0.809942 0.562161 0.753313
O O10 0.359719 0.178218 0.628440
O O11 0.822057 0.543371 0.014475
O O12 0.360011 0.624146 0.846004
O O13 0.469075 0.835137 0.116666
O O14 0.609021 0.399250 0.395209
O O15 0.073767 0.725500 0.687384
O O16 0.876146 0.724283 0.389984
O O17 0.000000 0.000000 0.500000
O O18 0.500000 0.000000 0.000000
#
# Coordination Sequence:
#
# PCOD8008207 Si02
#       8
#     2   2   2   2   2   2   2   2
#     4  12  28  48  71 103 141 180 238 290 337 423
#     4  10  20  42  67  99 136 175 231 278 326 420
#     4  12  25  41  70 104 137 175 236 284 341 412
#     4  12  24  45  74  98 133 190 239 276 343 416
#     4  12  27  45  68 107 142 181 229 292 355 405
#     4  11  22  44  71  99 139 180 234 282 342 414
#     4  11  20  43  74  99 133 187 234 279 340 411
#     4  12  25  47  71  96 142 185 227 290 355 404
#
# _framework density 21.586186999999999
#
# number of rings (size 3 to 8) (size 9 to 14) (size 15 to 20)
#    0.000    0.500    7.500    2.625    3.500    1.500 
#    2.250    0.625    0.000    0.000    0.000    0.000 
#    0.000    0.000    0.000    0.000    0.000    0.000 
#
# Total GULP energy -198462.616430 kJ/mol
# GULP energy per Si atom -12403.913527 kJ/mol
# Density = 2.153706 g / cm^3
# Si number density = 21.586187 Si / 1000 Ang^3
#
#
#
# Elastic Constant Matrix: (Units=GPa)
#
#
# Indices 1 2 3 4 5 6 
#
# 1 116.6634 36.7161 38.3049 -13.5887 -21.0498 -7.3810
# 2 36.7161 69.1599 32.6780 -15.8370 0.5004 -4.6214
# 3 38.3049 32.6780 115.9815 -21.1763 -6.0739 -4.7810
# 4 -13.5887 -15.8370 -21.1763 44.0225 -6.1806 -5.7049
# 5 -21.0498 0.5004 -6.0739 -6.1806 41.4056 -18.6822
# 6 -7.3810 -4.6214 -4.7810 -5.7049 -18.6822 31.9324
#
#
#
# Elastic Compliance Matrix: (Units=1/GPa)
#
#
# Indices 1 2 3 4 5 6 
#
# 1 0.014129 -0.005156 -0.001184 0.005090 0.012633 0.010643
# 2 -0.005156 0.019596 -0.003317 0.003498 -0.002748 0.000165
# 3 -0.001184 -0.003317 0.011168 0.004807 0.003527 0.003841
# 4 0.005090 0.003498 0.004807 0.032378 0.016001 0.017548
# 5 0.012633 -0.002748 0.003527 0.016001 0.049155 0.034667
# 6 0.010643 0.000165 0.003841 0.017548 0.034667 0.057792
#
#
# Mechanical properties :
#
#
# Convention : Reuss Voigt Hill
#
# Bulk Modulus (GPa) = 39.09450 57.46698 48.28074
# Shear Modulus (GPa) = 23.57859 36.41249 29.99554
#
# Velocity S-wave (km/s) = 3.30858 4.11157 3.73174
# Velocity P-wave (km/s) = 5.72240 7.01569 6.40179
#
# Compressibility (1/GPa) = 0.02557905
#
# Stress axis : x y z
#
# Youngs Moduli (GPa) = 70.77799 51.03195 89.54039
#
# Poissons Ratio (x) = 0.26313 0.10601
# Poissons Ratio (y) = 0.36494 0.29698
# Poissons Ratio (z) = 0.08379 0.16926
#
# Static dielectric constant tensor:
#      x y z
#    x 4.048450 -0.200770 0.141480 
#    y -0.200770 3.804390 -0.209490 
#    z 0.141480 -0.209490 4.892300 
# 
# 
# High freq. dielectric constant tensor:
#      x y z
#    x 1.861740 -0.012960 0.000730 
#    y -0.012960 1.825400 -0.011000 
#    z 0.000730 -0.011000 1.867220 
# 
# From -- ./inp_files/314955.got.cif
#   From: 2010.06.25/outbox.cif.g09.slc.cpg/sg2_158_cif.got.tgz:314955.got - 2010.06.27 13:26:56.
