data_PCOD8008006
_publ_section_title
;
Structure prediction by ZEFSAII (Michael W. Deem and Ramdas Pophale) SiO2 
 PCOD8008006
Probable space group: P -1
;
_chemical_formula_sum "Si O2"
_cell_formula_units_Z 14
_cell_length_a 14.179063
_cell_length_b 14.366675
_cell_length_c 8.897833
_cell_angle_alpha 103.085618
_cell_angle_beta 85.309654
_cell_angle_gamma 28.282304
_cell_volume 663.372134
_symmetry_space_group_name_H-M "P -1"
_symmetry_group_IT_number 2
_symmetry_cell_setting 'triclinic'
loop_
_space_group_symop_operation_xyz
x,y,z
-x,-y,-z
loop_
_atom_site_type_symbol
_atom_site_label
_atom_site_fract_x
_atom_site_fract_y
_atom_site_fract_z
Si Si1 0.735934 0.212442 0.052293
Si Si2 0.501982 0.744730 0.758916
Si Si3 0.592284 0.136900 0.501900
Si Si4 0.299229 0.139698 0.968652
Si Si5 0.745205 0.677536 0.202116
Si Si6 0.525563 0.357785 0.833381
Si Si7 0.849356 0.416440 0.862011
O O1 0.655757 0.202382 0.167879
O O2 0.535878 0.486270 0.186918
O O3 0.743439 0.169055 0.861452
O O4 0.000000 0.000000 0.000000
O O5 0.583285 0.667337 0.544134
O O6 0.753396 0.512451 0.739036
O O7 0.331442 0.995993 0.913256
O O8 0.474845 0.152288 0.597940
O O9 0.624110 0.190408 0.638431
O O10 0.854495 0.870709 0.290385
O O11 0.335005 0.145697 0.794553
O O12 0.012586 0.432055 0.165172
O O13 0.500000 0.000000 0.000000
O O14 0.776082 0.580298 0.018590
O O15 0.273513 0.557918 0.024527
#
# Coordination Sequence:
#
# PCOD8008006 Si02
#       7
#     2   2   2   2   2   2   2
#     4  10  21  40  67  90 124 168 208 253 308 374
#     4  11  23  39  64  95 125 164 212 257 310 368
#     4  11  23  40  65  94 128 162 207 261 309 369
#     4  11  22  42  67  91 124 167 209 258 307 370
#     4  10  23  41  65  88 124 168 206 251 319 365
#     4   9  22  41  62  93 125 167 207 250 316 365
#     4  10  20  42  63  90 128 164 206 257 306 370
#
# _framework density 21.104292999999998
#
# number of rings (size 3 to 8) (size 9 to 14) (size 15 to 20)
#    0.000    1.714    2.857    0.857    2.000    3.429 
#    0.000   11.429    0.000    0.000    0.000    0.000 
#    0.000    0.000    0.000    0.000    0.000    0.000 
#
# Total GULP energy -173575.426681 kJ/mol
# GULP energy per Si atom -12398.244763 kJ/mol
# Density = 2.105626 g / cm^3
# Si number density = 21.104293 Si / 1000 Ang^3
#
#
#
# Elastic Constant Matrix: (Units=GPa)
#
#
# Indices 1 2 3 4 5 6 
#
# 1 102.5238 44.7221 25.5658 -2.3820 -28.4332 3.0487
# 2 44.7221 97.0926 26.6424 -14.4981 -14.4072 -7.4295
# 3 25.5658 26.6424 80.8875 -9.7820 -14.6271 -3.2893
# 4 -2.3820 -14.4981 -9.7820 24.9882 -0.8080 -0.8678
# 5 -28.4332 -14.4072 -14.6271 -0.8080 21.2769 -6.3759
# 6 3.0487 -7.4295 -3.2893 -0.8678 -6.3759 54.8128
#
#
#
# Elastic Compliance Matrix: (Units=1/GPa)
#
#
# Indices 1 2 3 4 5 6 
#
# 1 0.017554 -0.005102 -0.000328 -0.000749 0.019935 0.000619
# 2 -0.005102 0.014956 -0.001678 0.007734 0.003262 0.002712
# 3 -0.000328 -0.001678 0.015554 0.005473 0.009914 0.001964
# 4 -0.000749 0.007734 0.005473 0.047045 0.010809 0.003421
# 5 0.019935 0.003262 0.009914 0.010809 0.086105 0.010115
# 6 0.000619 0.002712 0.001964 0.003421 0.010115 0.019926
#
#
# Mechanical properties :
#
#
# Convention : Reuss Voigt Hill
#
# Bulk Modulus (GPa) = 29.54445 52.70715 41.12580
# Shear Modulus (GPa) = 22.06146 32.45382 27.25764
#
# Velocity S-wave (km/s) = 3.23670 3.92571 3.59774
# Velocity P-wave (km/s) = 5.29131 6.75108 6.06527
#
# Compressibility (1/GPa) = 0.03384731
#
# Stress axis : x y z
#
# Youngs Moduli (GPa) = 56.96717 66.86087 64.29283
#
# Poissons Ratio (x) = 0.34112 0.02111
# Poissons Ratio (y) = 0.29064 0.10790
# Poissons Ratio (z) = 0.01870 0.11221
#
# Static dielectric constant tensor:
#      x y z
#    x 4.154860 -0.028880 -0.027350 
#    y -0.028880 4.047210 -0.304450 
#    z -0.027350 -0.304450 3.503690 
# 
# 
# High freq. dielectric constant tensor:
#      x y z
#    x 1.852510 -0.002570 0.000550 
#    y -0.002570 1.839470 -0.019310 
#    z 0.000550 -0.019310 1.789990 
# 
# From -- ./inp_files/315414.got.cif
#   From: 2010.06.25/outbox.cif.g09.slc.cpg/sg2_158_cif.got.tgz:315414.got - 2010.06.27 13:26:56.
