data_PCOD8008582
_publ_section_title
;
Structure prediction by ZEFSAII (Michael W. Deem and Ramdas Pophale) SiO2 
 PCOD8008582
Probable space group: P -1
;
_chemical_formula_sum "Si O2"
_cell_formula_units_Z 16
_cell_length_a 8.316210
_cell_length_b 23.018413
_cell_length_c 8.739661
_cell_angle_alpha 128.809711
_cell_angle_beta 114.175259
_cell_angle_gamma 36.001673
_cell_volume 748.736715
_symmetry_space_group_name_H-M "P -1"
_symmetry_group_IT_number 2
_symmetry_cell_setting 'triclinic'
loop_
_space_group_symop_operation_xyz
x,y,z
-x,-y,-z
loop_
_atom_site_type_symbol
_atom_site_label
_atom_site_fract_x
_atom_site_fract_y
_atom_site_fract_z
Si Si1 0.304431 0.502811 0.006122
Si Si2 0.747286 0.366741 0.187920
Si Si3 0.284403 0.124209 0.836946
Si Si4 0.838083 0.988711 0.004790
Si Si5 0.740842 0.040677 0.400392
Si Si6 0.188747 0.736380 0.657590
Si Si7 0.257126 0.458897 0.601453
Si Si8 0.811792 0.768154 0.341610
O O1 0.482040 0.415499 0.077016
O O2 0.007546 0.633339 0.158664
O O3 0.500000 0.500000 0.000000
O O4 0.247826 0.457879 0.782253
O O5 0.722076 0.355966 0.338714
O O6 0.745388 0.455696 0.315932
O O7 0.035393 0.240715 0.028810
O O8 0.290574 0.157240 0.726883
O O9 0.246131 0.048490 0.684773
O O10 0.573815 0.048368 0.905359
O O11 0.735912 0.049367 0.230094
O O12 0.054313 0.849716 0.881839
O O13 0.000000 0.000000 0.000000
O O14 0.458582 0.171775 0.571690
O O15 0.000000 0.000000 0.500000
O O16 0.461868 0.673375 0.566942
O O17 0.971877 0.775925 0.517192
O O18 0.000000 0.500000 0.500000
#
# Coordination Sequence:
#
# PCOD8008582 Si02
#       8
#     2   2   2   2   2   2   2   2
#     4  10  20  44  68  98 132 175 227 276 338 416
#     4  11  22  44  71  95 138 182 229 282 342 416
#     4  12  23  45  73  96 142 184 224 292 353 407
#     4  12  28  47  69 103 141 182 237 292 346 417
#     4  12  27  46  68 107 138 181 241 286 350 422
#     4  12  24  44  72  98 135 185 234 281 352 414
#     4  11  24  42  69 104 137 176 235 285 347 410
#     4  12  23  43  76  98 134 186 231 281 351 413
#
# _framework density 21.369326000000001
#
# number of rings (size 3 to 8) (size 9 to 14) (size 15 to 20)
#    0.000    0.500    7.500    2.625    3.500    1.000 
#    0.000    0.625    0.000    0.000    0.000    0.000 
#    0.000    0.000    0.000    0.000    0.000    0.000 
#
# Total GULP energy -198456.396881 kJ/mol
# GULP energy per Si atom -12403.524805 kJ/mol
# Density = 2.132069 g / cm^3
# Si number density = 21.369326 Si / 1000 Ang^3
#
#
#
# Elastic Constant Matrix: (Units=GPa)
#
#
# Indices 1 2 3 4 5 6 
#
# 1 92.4980 53.4070 52.4555 -2.0024 -7.3537 -29.0881
# 2 53.4070 127.8768 58.0274 -2.4314 -1.2828 -25.4954
# 3 52.4555 58.0274 120.3981 -10.5669 -19.7650 -21.3968
# 4 -2.0024 -2.4314 -10.5669 40.5161 -17.9620 -0.5342
# 5 -7.3537 -1.2828 -19.7650 -17.9620 38.4969 0.2729
# 6 -29.0881 -25.4954 -21.3968 -0.5342 0.2729 45.9210
#
#
#
# Elastic Compliance Matrix: (Units=1/GPa)
#
#
# Indices 1 2 3 4 5 6 
#
# 1 0.017986 -0.004071 -0.004465 -0.000003 0.000956 0.007046
# 2 -0.004071 0.011814 -0.004380 -0.002247 -0.003695 0.001935
# 3 -0.004465 -0.004380 0.015141 0.008179 0.010578 0.001827
# 4 -0.000003 -0.002247 0.008179 0.035979 0.020891 0.002856
# 5 0.000956 -0.003695 0.010578 0.020891 0.041189 0.003481
# 6 0.007046 0.001935 0.001827 0.002856 0.003481 0.028178
#
#
# Mechanical properties :
#
#
# Convention : Reuss Voigt Hill
#
# Bulk Modulus (GPa) = 52.33269 74.28364 63.30816
# Shear Modulus (GPa) = 27.39891 36.77898 32.08895
#
# Velocity S-wave (km/s) = 3.58461 4.15313 3.87930
# Velocity P-wave (km/s) = 6.45565 7.60495 7.05374
#
# Compressibility (1/GPa) = 0.01910852
#
# Stress axis : x y z
#
# Youngs Moduli (GPa) = 55.60034 84.64608 66.04465
#
# Poissons Ratio (x) = 0.34460 0.29489
# Poissons Ratio (y) = 0.22635 0.28928
# Poissons Ratio (z) = 0.24825 0.37075
#
# Static dielectric constant tensor:
#      x y z
#    x 3.760040 -0.120130 -0.348700 
#    y -0.120130 4.392960 -0.085900 
#    z -0.348700 -0.085900 4.067110 
# 
# 
# High freq. dielectric constant tensor:
#      x y z
#    x 1.820250 -0.012230 -0.021100 
#    y -0.012230 1.856120 -0.003390 
#    z -0.021100 -0.003390 1.857020 
# 
# From -- ./inp_files/226536.got.cif
#   From: 2010.06.25/outbox.cif.g09.slc.cpg/sg2_114_cif.got.tgz:226536.got - 2010.06.27 13:26:56.
