data_PCOD8008334
_publ_section_title
;
Structure prediction by ZEFSAII (Michael W. Deem and Ramdas Pophale) SiO2 
 PCOD8008334
Probable space group: P -1
;
_chemical_formula_sum "Si O2"
_cell_formula_units_Z 14
_cell_length_a 22.216624
_cell_length_b 16.694749
_cell_length_c 18.079498
_cell_angle_alpha 24.413285
_cell_angle_beta 161.895214
_cell_angle_gamma 163.159575
_cell_volume 603.674796
_symmetry_space_group_name_H-M "P -1"
_symmetry_group_IT_number 2
_symmetry_cell_setting 'triclinic'
loop_
_space_group_symop_operation_xyz
x,y,z
-x,-y,-z
loop_
_atom_site_type_symbol
_atom_site_label
_atom_site_fract_x
_atom_site_fract_y
_atom_site_fract_z
Si Si1 0.910285 0.294935 0.227513
Si Si2 0.510476 0.273825 0.851507
Si Si3 0.256551 0.402698 0.008814
Si Si4 0.928715 0.159152 0.525996
Si Si5 0.568771 0.690980 0.985939
Si Si6 0.729928 0.244205 0.510617
Si Si7 0.503831 0.317520 0.479260
O O1 0.892020 0.156181 0.398155
O O2 0.216742 0.566879 0.328607
O O3 0.755247 0.055787 0.185619
O O4 0.744739 0.376337 0.979730
O O5 0.421191 0.432126 0.598257
O O6 0.640032 0.351715 0.020765
O O7 0.946927 0.224357 0.767630
O O8 0.451963 0.523362 0.065939
O O9 0.285010 0.218618 0.241218
O O10 0.097699 0.077655 0.808395
O O11 0.109634 0.463603 0.511986
O O12 0.635629 0.935706 0.414919
O O13 0.500000 0.500000 0.000000
O O14 0.431185 0.803353 0.712746
O O15 0.500000 0.000000 0.500000
#
# Coordination Sequence:
#
# PCOD8008334 Si02
#       7
#     2   2   2   2   2   2   2
#     4  11  20  43  68  96 135 177 211 272 324 391
#     4   9  22  40  68  95 133 173 219 262 332 390
#     4  10  20  43  61  94 130 170 217 275 319 395
#     4  11  21  43  62  97 132 164 227 267 324 396
#     4  10  22  39  62  91 124 173 220 268 327 388
#     4  11  23  42  61  90 127 170 219 275 330 383
#     4  10  22  39  66  95 135 174 213 266 332 375
#
# _framework density 23.191295
#
# number of rings (size 3 to 8) (size 9 to 14) (size 15 to 20)
#    0.857    0.857    2.857    1.714    0.000    0.571 
#   10.286    7.143    0.000    0.000    0.000    0.000 
#    0.000    0.000    0.000    0.000    0.000    0.000 
#
# Total GULP energy -173458.913476 kJ/mol
# GULP energy per Si atom -12389.922391 kJ/mol
# Density = 2.313851 g / cm^3
# Si number density = 23.191295 Si / 1000 Ang^3
#
#
#
# Elastic Constant Matrix: (Units=GPa)
#
#
# Indices 1 2 3 4 5 6 
#
# 1 91.3648 45.0783 -5.0958 13.2608 5.6228 19.7903
# 2 45.0783 106.8322 17.1531 19.0543 7.8966 30.4879
# 3 -5.0958 17.1531 80.4709 29.0511 6.9339 17.4324
# 4 13.2608 19.0543 29.0511 26.3746 8.2121 9.6070
# 5 5.6228 7.8966 6.9339 8.2121 35.7372 2.5961
# 6 19.7903 30.4879 17.4324 9.6070 2.5961 37.8295
#
#
#
# Elastic Compliance Matrix: (Units=1/GPa)
#
#
# Indices 1 2 3 4 5 6 
#
# 1 0.016306 -0.004569 0.007022 -0.010650 -0.000081 -0.005374
# 2 -0.004569 0.014567 0.000407 -0.005502 -0.000727 -0.008090
# 3 0.007022 0.000407 0.024734 -0.028413 0.001135 -0.008262
# 4 -0.010650 -0.005502 -0.028413 0.080541 -0.010347 0.003355
# 5 -0.000081 -0.000727 0.001135 -0.010347 0.030265 0.000656
# 6 -0.005374 -0.008090 -0.008262 0.003355 0.000656 0.038676
#
#
# Mechanical properties :
#
#
# Convention : Reuss Voigt Hill
#
# Bulk Modulus (GPa) = 16.30573 43.65989 29.98281
# Shear Modulus (GPa) = 22.74694 34.75708 28.75201
#
# Velocity S-wave (km/s) = 3.13523 3.87552 3.52487
# Velocity P-wave (km/s) = 4.48915 6.23643 5.43349
#
# Compressibility (1/GPa) = 0.06132812
#
# Stress axis : x y z
#
# Youngs Moduli (GPa) = 61.32823 68.64993 40.42974
#
# Poissons Ratio (x) = 0.31364 -0.28391
# Poissons Ratio (y) = 0.28019 -0.01646
# Poissons Ratio (z) = -0.43067 -0.02795
#
# Static dielectric constant tensor:
#      x y z
#    x 3.449230 0.262370 0.263080 
#    y 0.262370 3.672590 0.096060 
#    z 0.263080 0.096060 4.977180 
# 
# 
# High freq. dielectric constant tensor:
#      x y z
#    x 1.907930 0.004860 0.006240 
#    y 0.004860 1.886780 0.013090 
#    z 0.006240 0.013090 1.932930 
# 
# From -- ./inp_files/578334.got.cif
#   From: 2010.06.25/outbox.cif.g09.slc.cpg/sg2_290_cif.got.tgz:578334.got - 2010.06.27 13:26:56.
