data_PCOD8008816
_publ_section_title
;
Structure prediction by ZEFSAII (Michael W. Deem and Ramdas Pophale) SiO2 
 PCOD8008816
Probable space group: P -1
;
_chemical_formula_sum "Si O2"
_cell_formula_units_Z 12
_cell_length_a 19.776875
_cell_length_b 9.638909
_cell_length_c 8.930911
_cell_angle_alpha 82.563468
_cell_angle_beta 43.172216
_cell_angle_gamma 48.497073
_cell_volume 630.956093
_symmetry_space_group_name_H-M "P -1"
_symmetry_group_IT_number 2
_symmetry_cell_setting 'triclinic'
loop_
_space_group_symop_operation_xyz
x,y,z
-x,-y,-z
loop_
_atom_site_type_symbol
_atom_site_label
_atom_site_fract_x
_atom_site_fract_y
_atom_site_fract_z
Si Si1 0.914134 0.461207 0.585949
Si Si2 0.178843 0.770482 0.648559
Si Si3 0.717302 0.639457 0.592192
Si Si4 0.140751 0.932401 0.359295
Si Si5 0.493827 0.556673 0.333520
Si Si6 0.473293 0.170009 0.836286
O O1 0.885870 0.491513 0.445651
O O2 0.000000 0.500000 0.500000
O O3 0.717173 0.660327 0.951367
O O4 0.066992 0.174682 0.433305
O O5 0.221166 0.555247 0.592260
O O6 0.160710 0.865570 0.506464
O O7 0.332611 0.667251 0.502267
O O8 0.000000 0.000000 0.000000
O O9 0.634388 0.865705 0.597110
O O10 0.559484 0.767256 0.940437
O O11 0.327753 0.698891 0.004942
O O12 0.000000 0.000000 0.500000
O O13 0.500000 0.500000 0.500000
O O14 0.465468 0.757935 0.347707
#
# Coordination Sequence:
#
# PCOD8008816 Si02
#       6
#     2   2   2   2   2   2
#     4  10  21  34  68  96 129 164 218 261 336 382
#     4  12  26  41  66  96 131 176 221 269 325 387
#     4   9  20  40  63  93 131 165 216 263 327 382
#     4  12  21  42  66  94 135 168 218 272 322 390
#     4  12  26  41  66  96 131 176 221 269 325 387
#     4   9  20  40  63  93 131 165 216 263 327 382
#
# _framework density 19.018757000000001
#
# number of rings (size 3 to 8) (size 9 to 14) (size 15 to 20)
#    1.000    0.333    5.000    1.500    4.667    0.000 
#    0.000    3.333    0.000    0.000    0.000    0.000 
#    0.000    0.000    0.000    0.000    0.000    0.000 
#
# Total GULP energy -148739.710214 kJ/mol
# GULP energy per Si atom -12394.975851 kJ/mol
# Density = 1.897547 g / cm^3
# Si number density = 19.018757 Si / 1000 Ang^3
#
#
#
# Elastic Constant Matrix: (Units=GPa)
#
#
# Indices 1 2 3 4 5 6 
#
# 1 166.2346 83.9421 73.6163 -0.7656 -22.3665 13.4879
# 2 83.9421 187.1931 74.9227 20.6419 7.9923 13.5206
# 3 73.6163 74.9227 136.8959 10.1120 1.2654 -0.4030
# 4 -0.7656 20.6419 10.1120 35.0546 -1.0984 6.9759
# 5 -22.3665 7.9923 1.2654 -1.0984 31.7896 0.9173
# 6 13.4879 13.5206 -0.4030 6.9759 0.9173 43.4127
#
#
#
# Elastic Compliance Matrix: (Units=1/GPa)
#
#
# Indices 1 2 3 4 5 6 
#
# 1 0.011724 -0.004185 -0.004483 0.004994 0.009750 -0.003389
# 2 -0.004185 0.008899 -0.002224 -0.004731 -0.005239 -0.000621
# 3 -0.004483 -0.002224 0.011166 -0.002643 -0.003208 0.002682
# 4 0.004994 -0.004731 -0.002643 0.033493 0.006127 -0.005614
# 5 0.009750 -0.005239 -0.003208 0.006127 0.040067 -0.003259
# 6 -0.003389 -0.000621 0.002682 -0.005614 -0.003259 0.025277
#
#
# Mechanical properties :
#
#
# Convention : Reuss Voigt Hill
#
# Bulk Modulus (GPa) = 99.95491 106.14288 103.04890
# Shear Modulus (GPa) = 32.10375 39.24090 35.67232
#
# Velocity S-wave (km/s) = 4.11299 4.54725 4.33556
# Velocity P-wave (km/s) = 8.67327 9.13788 8.90860
#
# Compressibility (1/GPa) = 0.01000451
#
# Stress axis : x y z
#
# Youngs Moduli (GPa) = 85.29476 112.37142 89.56153
#
# Poissons Ratio (x) = 0.47029 0.40151
# Poissons Ratio (y) = 0.35697 0.19917
# Poissons Ratio (z) = 0.38238 0.24989
#
# Static dielectric constant tensor:
#      x y z
#    x 3.375050 -0.127420 -0.150790 
#    y -0.127420 3.038130 -0.017260 
#    z -0.150790 -0.017260 3.252120 
# 
# 
# High freq. dielectric constant tensor:
#      x y z
#    x 1.738350 0.003740 -0.011600 
#    y 0.003740 1.751840 0.020280 
#    z -0.011600 0.020280 1.724880 
# 
# From -- ./inp_files/324846.got.cif
#   From: 2010.06.25/outbox.cif.g09.slc.cpg/sg2_163_cif.got.tgz:324846.got - 2010.06.27 13:26:56.
