data_PCOD8008673
_publ_section_title
;
Structure prediction by ZEFSAII (Michael W. Deem and Ramdas Pophale) SiO2 
 PCOD8008673
Probable space group: P -1
;
_chemical_formula_sum "Si O2"
_cell_formula_units_Z 16
_cell_length_a 9.792010
_cell_length_b 17.335488
_cell_length_c 5.122537
_cell_angle_alpha 101.327237
_cell_angle_beta 76.499762
_cell_angle_gamma 92.514304
_cell_volume 829.049083
_symmetry_space_group_name_H-M "P -1"
_symmetry_group_IT_number 2
_symmetry_cell_setting 'triclinic'
loop_
_space_group_symop_operation_xyz
x,y,z
-x,-y,-z
loop_
_atom_site_type_symbol
_atom_site_label
_atom_site_fract_x
_atom_site_fract_y
_atom_site_fract_z
Si Si1 0.992737 0.178132 0.397290
Si Si2 0.390020 0.277231 0.724146
Si Si3 0.067765 0.647007 0.496933
Si Si4 0.821296 0.852879 0.206191
Si Si5 0.091415 0.984789 0.699224
Si Si6 0.506718 0.652491 0.763288
Si Si7 0.224515 0.402361 0.619818
Si Si8 0.208511 0.578574 0.888048
O O1 0.909047 0.259451 0.465044
O O2 0.071204 0.174539 0.636509
O O3 0.872639 0.108813 0.381883
O O4 0.110856 0.169892 0.116193
O O5 0.490365 0.282766 0.428452
O O6 0.258836 0.338406 0.789105
O O7 0.328138 0.189997 0.728026
O O8 0.485710 0.300041 0.940576
O O9 0.106759 0.618149 0.748657
O O10 0.905999 0.626562 0.510661
O O11 0.166264 0.605169 0.213341
O O12 0.787561 0.947774 0.304345
O O13 0.000000 0.000000 0.500000
O O14 0.000000 0.000000 0.000000
O O15 0.639994 0.593177 0.630941
O O16 0.368266 0.600793 0.775535
O O17 0.191531 0.485098 0.822647
#
# Coordination Sequence:
#
# PCOD8008673 Si02
#       8
#     2   2   2   2   2   2   2   2
#     4  10  18  32  50  76 115 145 169 212 280 328
#     4  10  20  33  61  78 105 138 183 226 275 313
#     4  12  24  37  57  82 114 145 180 225 279 326
#     4  10  16  31  52  83 108 134 180 223 269 312
#     4   8  16  26  47  76 109 139 166 214 268 324
#     4  10  23  39  58  77 106 148 189 227 276 313
#     4  10  24  38  61  78 109 141 193 228 278 312
#     4  12  26  39  54  81 112 148 184 230 271 328
#
# _framework density 19.299219999999998
#
# number of rings (size 3 to 8) (size 9 to 14) (size 15 to 20)
#    0.750    1.000    1.250    4.125    3.500    0.500 
#    0.000    0.000    0.000    0.000    0.000    5.250 
#    0.000    0.000    0.000    0.000    0.000    0.000 
#
# Total GULP energy -198267.108669 kJ/mol
# GULP energy per Si atom -12391.694292 kJ/mol
# Density = 1.925529 g / cm^3
# Si number density = 19.299220 Si / 1000 Ang^3
#
#
#
# Elastic Constant Matrix: (Units=GPa)
#
#
# Indices 1 2 3 4 5 6 
#
# 1 50.0923 23.2029 16.1041 3.1433 2.2117 10.9443
# 2 23.2029 133.0283 -0.6769 9.5320 9.5505 14.1850
# 3 16.1041 -0.6769 63.2845 -0.6260 20.1754 -0.2487
# 4 3.1433 9.5320 -0.6260 25.6362 2.5991 3.4062
# 5 2.2117 9.5505 20.1754 2.5991 26.6484 2.1048
# 6 10.9443 14.1850 -0.2487 3.4062 2.1048 10.6514
#
#
#
# Elastic Compliance Matrix: (Units=1/GPa)
#
#
# Indices 1 2 3 4 5 6 
#
# 1 0.030987 -0.002919 -0.010942 0.000085 0.009123 -0.030038
# 2 -0.002919 0.009283 0.002011 -0.001587 -0.003816 -0.008055
# 3 -0.010942 0.002011 0.025016 0.001550 -0.019897 0.012585
# 4 0.000085 -0.001587 0.001550 0.041397 -0.003826 -0.010419
# 5 0.009123 -0.003816 -0.019897 -0.003826 0.054706 -0.014342
# 6 -0.030038 -0.008055 0.012585 -0.010419 -0.014342 0.141935
#
#
# Mechanical properties :
#
#
# Convention : Reuss Voigt Hill
#
# Bulk Modulus (GPa) = 24.04566 35.96281 30.00423
# Shear Modulus (GPa) = 14.66764 26.43888 20.55326
#
# Velocity S-wave (km/s) = 2.75982 3.70529 3.26694
# Velocity P-wave (km/s) = 4.75835 6.08115 5.45996
#
# Compressibility (1/GPa) = 0.04158755
#
# Stress axis : x y z
#
# Youngs Moduli (GPa) = 32.27115 107.72165 39.97487
#
# Poissons Ratio (x) = 0.31439 0.43741
# Poissons Ratio (y) = 0.09419 -0.08040
# Poissons Ratio (z) = 0.35312 -0.21667
#
# Static dielectric constant tensor:
#      x y z
#    x 3.114170 0.131430 0.219340 
#    y 0.131430 4.094220 -0.021650 
#    z 0.219340 -0.021650 3.556150 
# 
# 
# High freq. dielectric constant tensor:
#      x y z
#    x 1.704740 0.019430 0.026550 
#    y 0.019430 1.766550 -0.004850 
#    z 0.026550 -0.004850 1.762130 
# 
# From -- ./inp_files/48192.got.cif
#   From: 2010.06.25/outbox.cif.g09.slc.cpg/sg2_25_cif.got.tgz:48192.got - 2010.06.27 13:26:56.
