data_PCOD8008446
_publ_section_title
;
Structure prediction by ZEFSAII (Michael W. Deem and Ramdas Pophale) SiO2 
 PCOD8008446
Probable space group: P -1
;
_chemical_formula_sum "Si O2"
_cell_formula_units_Z 14
_cell_length_a 14.292830
_cell_length_b 23.197907
_cell_length_c 6.960821
_cell_angle_alpha 80.163878
_cell_angle_beta 84.651212
_cell_angle_gamma 156.919954
_cell_volume 678.807654
_symmetry_space_group_name_H-M "P -1"
_symmetry_group_IT_number 2
_symmetry_cell_setting 'triclinic'
loop_
_space_group_symop_operation_xyz
x,y,z
-x,-y,-z
loop_
_atom_site_type_symbol
_atom_site_label
_atom_site_fract_x
_atom_site_fract_y
_atom_site_fract_z
Si Si1 0.484037 0.309656 0.670661
Si Si2 0.134768 0.004210 0.145253
Si Si3 0.470745 0.815565 0.738182
Si Si4 0.246536 0.900546 0.622383
Si Si5 0.699169 0.556433 0.644210
Si Si6 0.948772 0.774763 0.117554
Si Si7 0.911036 0.475555 0.330085
O O1 0.622576 0.442664 0.700426
O O2 0.755458 0.446729 0.402947
O O3 0.369925 0.188145 0.891843
O O4 0.207280 0.170540 0.670063
O O5 0.254983 0.064285 0.304593
O O6 0.120362 0.935012 0.069221
O O7 0.336009 0.713186 0.621506
O O8 0.612627 0.963154 0.602874
O O9 0.214077 0.666120 0.037921
O O10 0.912561 0.685239 0.718414
O O11 0.500000 0.000000 0.500000
O O12 0.181725 0.880727 0.865498
O O13 0.884873 0.691606 0.348477
O O14 0.378390 0.402396 0.823318
O O15 0.000000 0.500000 0.500000
#
# Coordination Sequence:
#
# PCOD8008446 Si02
#       7
#     2   2   2   2   2   2   2
#     4  10  22  39  69  96 124 164 211 274 313 371
#     4  10  20  43  68  95 122 164 221 261 319 374
#     4  11  25  42  63  92 127 174 213 255 324 386
#     4  12  27  39  63  98 130 169 219 259 313 389
#     4  10  23  43  67  92 127 168 215 265 320 375
#     4  10  22  45  67  89 129 173 209 265 324 371
#     4  11  24  42  65  90 132 170 204 264 327 375
#
# _framework density 20.624399
#
# number of rings (size 3 to 8) (size 9 to 14) (size 15 to 20)
#    0.000    1.429    2.857    1.286    4.000    1.143 
#    0.000    0.000    0.000    0.000    0.000    0.000 
#    0.000    0.000    0.000    0.000    0.000    0.000 
#
# Total GULP energy -173634.951999 kJ/mol
# GULP energy per Si atom -12402.496571 kJ/mol
# Density = 2.057746 g / cm^3
# Si number density = 20.624399 Si / 1000 Ang^3
#
#
#
# Elastic Constant Matrix: (Units=GPa)
#
#
# Indices 1 2 3 4 5 6 
#
# 1 120.4576 49.8434 53.4505 -1.2842 -3.0865 2.4191
# 2 49.8434 126.7337 37.1305 7.6525 10.4454 2.8074
# 3 53.4505 37.1305 78.3412 12.6358 -9.3471 -0.1489
# 4 -1.2842 7.6525 12.6358 23.6482 -3.0003 10.4322
# 5 -3.0865 10.4454 -9.3471 -3.0003 37.3175 -7.3075
# 6 2.4191 2.8074 -0.1489 10.4322 -7.3075 34.4191
#
#
#
# Elastic Compliance Matrix: (Units=1/GPa)
#
#
# Indices 1 2 3 4 5 6 
#
# 1 0.013893 -0.003115 -0.009367 0.008188 -0.000316 -0.003312
# 2 -0.003115 0.010506 -0.003035 -0.002082 -0.004309 -0.000935
# 3 -0.009367 -0.003035 0.023650 -0.014318 0.006150 0.006654
# 4 0.008188 -0.002082 -0.014318 0.059127 -0.001224 -0.018649
# 5 -0.000316 -0.004309 0.006150 -0.001224 0.030853 0.007322
# 6 -0.003312 -0.000935 0.006654 -0.018649 0.007322 0.036598
#
#
# Mechanical properties :
#
#
# Convention : Reuss Voigt Hill
#
# Bulk Modulus (GPa) = 58.76830 67.37571 63.07201
# Shear Modulus (GPa) = 23.65958 31.41749 27.53853
#
# Velocity S-wave (km/s) = 3.39066 3.90720 3.65806
# Velocity P-wave (km/s) = 6.62459 7.28655 6.96344
#
# Compressibility (1/GPa) = 0.01701598
#
# Stress axis : x y z
#
# Youngs Moduli (GPa) = 71.98078 95.18265 42.28366
#
# Poissons Ratio (x) = 0.29645 0.39608
# Poissons Ratio (y) = 0.22419 0.12832
# Poissons Ratio (z) = 0.67425 0.28884
#
# Static dielectric constant tensor:
#      x y z
#    x 3.816490 0.074520 -0.027030 
#    y 0.074520 3.961130 -0.144700 
#    z -0.027030 -0.144700 3.636250 
# 
# 
# High freq. dielectric constant tensor:
#      x y z
#    x 1.814480 0.001060 0.002040 
#    y 0.001060 1.822420 -0.011560 
#    z 0.002040 -0.011560 1.797820 
# 
# From -- ./inp_files/65697.got.cif
#   From: 2010.06.25/outbox.cif.g09.slc.cpg/sg2_33_cif.got.tgz:65697.got - 2010.06.27 13:26:56.
