data_PCOD8008024
_publ_section_title
;
Structure prediction by ZEFSAII (Michael W. Deem and Ramdas Pophale) SiO2 
 PCOD8008024
Probable space group: P -1
;
_chemical_formula_sum "Si O2"
_cell_formula_units_Z 16
_cell_length_a 20.123921
_cell_length_b 8.782228
_cell_length_c 8.738884
_cell_angle_alpha 59.527230
_cell_angle_beta 80.701251
_cell_angle_gamma 127.254984
_cell_volume 773.822859
_symmetry_space_group_name_H-M "P -1"
_symmetry_group_IT_number 2
_symmetry_cell_setting 'triclinic'
loop_
_space_group_symop_operation_xyz
x,y,z
-x,-y,-z
loop_
_atom_site_type_symbol
_atom_site_label
_atom_site_fract_x
_atom_site_fract_y
_atom_site_fract_z
Si Si1 0.010787 0.624011 0.274995
Si Si2 0.837501 0.715226 0.673016
Si Si3 0.443066 0.704977 0.727430
Si Si4 0.409437 0.687127 0.104933
Si Si5 0.056576 0.385537 0.188686
Si Si6 0.577497 0.672303 0.732917
Si Si7 0.185608 0.640069 0.696710
Si Si8 0.200611 0.280994 0.964690
O O1 0.036614 0.538654 0.177697
O O2 0.000000 0.500000 0.500000
O O3 0.895725 0.488173 0.350593
O O4 0.110777 0.978621 0.057356
O O5 0.716194 0.489857 0.749417
O O6 0.868348 0.571568 0.739776
O O7 0.840441 0.784516 0.812502
O O8 0.935128 0.029951 0.385531
O O9 0.515100 0.689909 0.644910
O O10 0.500000 0.000000 0.500000
O O11 0.443421 0.726248 0.898489
O O12 0.317514 0.418960 0.850279
O O13 0.412555 0.495108 0.273443
O O14 0.500000 0.000000 0.000000
O O15 0.122723 0.553256 0.921369
O O16 0.704630 0.006060 0.553421
O O17 0.500000 0.500000 0.000000
O O18 0.219563 0.506075 0.755068
#
# Coordination Sequence:
#
# PCOD8008024 Si02
#       8
#     2   2   2   2   2   2   2   2
#     4  12  24  38  62  98 126 157 206 260 308 362
#     4   9  19  40  64  83 126 168 200 244 316 370
#     4  10  20  42  64  87 118 164 207 251 311 360
#     4  10  22  40  61  90 122 158 207 256 304 366
#     4  10  21  40  62  90 120 168 202 251 308 368
#     4  10  22  40  66  88 121 167 207 249 314 369
#     4  11  23  42  63  88 127 164 209 250 312 375
#     4  10  21  40  65  89 124 163 208 254 302 370
#
# _framework density 20.676566000000001
#
# number of rings (size 3 to 8) (size 9 to 14) (size 15 to 20)
#    0.000    1.750    2.500    1.500    3.500    1.000 
#    6.750    0.625    0.000    0.000    0.000    0.000 
#    0.000    0.000    0.000    0.000    0.000    0.000 
#
# Total GULP energy -198352.613119 kJ/mol
# GULP energy per Si atom -12397.038320 kJ/mol
# Density = 2.062951 g / cm^3
# Si number density = 20.676566 Si / 1000 Ang^3
#
#
#
# Elastic Constant Matrix: (Units=GPa)
#
#
# Indices 1 2 3 4 5 6 
#
# 1 160.1493 57.6549 32.6089 -30.7535 -1.8411 19.2806
# 2 57.6549 90.9089 37.4201 -38.3974 -1.0903 14.0741
# 3 32.6089 37.4201 110.8410 -29.6459 -2.0310 12.6502
# 4 -30.7535 -38.3974 -29.6459 38.7779 3.4782 1.3506
# 5 -1.8411 -1.0903 -2.0310 3.4782 34.1962 -12.2471
# 6 19.2806 14.0741 12.6502 1.3506 -12.2471 27.7387
#
#
#
# Elastic Compliance Matrix: (Units=1/GPa)
#
#
# Indices 1 2 3 4 5 6 
#
# 1 0.008825 -0.002683 0.000310 0.005002 -0.002314 -0.006179
# 2 -0.002683 0.025050 0.000436 0.024204 -0.007316 -0.015452
# 3 0.000310 0.000436 0.012552 0.010846 -0.003234 -0.008117
# 4 0.005002 0.024204 0.010846 0.064518 -0.015937 -0.030881
# 5 -0.002314 -0.007316 -0.003234 -0.015937 0.039229 0.024891
# 6 -0.006179 -0.015452 -0.008117 -0.030881 0.024891 0.064381
#
#
# Mechanical properties :
#
#
# Convention : Reuss Voigt Hill
#
# Bulk Modulus (GPa) = 23.50071 68.58521 46.04296
# Shear Modulus (GPa) = 21.49513 35.75692 28.62603
#
# Velocity S-wave (km/s) = 3.22776 4.16305 3.72488
# Velocity P-wave (km/s) = 5.02810 7.50670 6.38875
#
# Compressibility (1/GPa) = 0.04255190
#
# Stress axis : x y z
#
# Youngs Moduli (GPa) = 113.31827 39.92094 79.67132
#
# Poissons Ratio (x) = 0.10710 -0.02472
# Poissons Ratio (y) = 0.30400 -0.03470
# Poissons Ratio (z) = -0.03516 -0.01739
#
# Static dielectric constant tensor:
#      x y z
#    x 4.220430 -0.036220 0.006920 
#    y -0.036220 3.466390 -0.213120 
#    z 0.006920 -0.213120 3.962490 
# 
# 
# High freq. dielectric constant tensor:
#      x y z
#    x 1.839500 0.001300 0.002020 
#    y 0.001300 1.772020 -0.017740 
#    z 0.002020 -0.017740 1.814900 
# 
# From -- ./inp_files/216003.got.cif
#   From: 2010.06.25/outbox.cif.g09.slc.cpg/sg2_109_cif.got.tgz:216003.got - 2010.06.27 13:26:56.
