data_PCOD8008533
_publ_section_title
;
Structure prediction by ZEFSAII (Michael W. Deem and Ramdas Pophale) SiO2 
 PCOD8008533
Probable space group: P -1
;
_chemical_formula_sum "Si O2"
_cell_formula_units_Z 14
_cell_length_a 7.620501
_cell_length_b 15.546742
_cell_length_c 18.665279
_cell_angle_alpha 158.905523
_cell_angle_beta 73.634371
_cell_angle_gamma 115.919149
_cell_volume 659.327593
_symmetry_space_group_name_H-M "P -1"
_symmetry_group_IT_number 2
_symmetry_cell_setting 'triclinic'
loop_
_space_group_symop_operation_xyz
x,y,z
-x,-y,-z
loop_
_atom_site_type_symbol
_atom_site_label
_atom_site_fract_x
_atom_site_fract_y
_atom_site_fract_z
Si Si1 0.369991 0.928216 0.356898
Si Si2 0.319244 0.189606 0.296776
Si Si3 0.989838 0.611301 0.511438
Si Si4 0.172879 0.649006 0.815989
Si Si5 0.260391 0.569509 0.222258
Si Si6 0.826429 0.884312 0.592492
Si Si7 0.727578 0.900456 0.221803
O O1 0.228819 0.726159 0.279906
O O2 0.505569 0.797699 0.207321
O O3 0.534784 0.231097 0.600777
O O4 0.209474 0.952105 0.339740
O O5 0.500000 0.500000 0.500000
O O6 0.100486 0.183503 0.304141
O O7 0.311222 0.107702 0.317736
O O8 0.334013 0.964002 0.068765
O O9 0.847759 0.364301 0.279322
O O10 0.000000 0.500000 0.500000
O O11 0.217150 0.817148 0.608943
O O12 0.253952 0.439088 0.667680
O O13 0.946396 0.552937 0.801331
O O14 0.308074 0.334046 0.011033
O O15 0.079017 0.033944 0.694903
#
# Coordination Sequence:
#
# PCOD8008533 Si02
#       7
#     2   2   2   2   2   2   2
#     4  11  24  39  64  97 122 167 217 252 306 383
#     4  10  22  40  62  88 125 165 208 258 313 374
#     4  10  22  38  62  91 118 164 206 254 318 370
#     4  10  20  44  62  86 133 163 201 266 314 367
#     4  11  21  42  64  90 128 168 206 260 318 361
#     4  10  23  40  63  92 126 165 210 260 311 370
#     4  10  21  44  60  89 135 159 205 267 307 370
#
# _framework density 21.233753
#
# number of rings (size 3 to 8) (size 9 to 14) (size 15 to 20)
#    0.000    2.000    5.714    0.429    2.000    5.143 
#    2.571    0.000    0.000    0.000    0.000    0.000 
#    0.000    0.000    0.000    0.000    0.000    0.000 
#
# Total GULP energy -173493.464836 kJ/mol
# GULP energy per Si atom -12392.390345 kJ/mol
# Density = 2.118542 g / cm^3
# Si number density = 21.233753 Si / 1000 Ang^3
#
#
#
# Elastic Constant Matrix: (Units=GPa)
#
#
# Indices 1 2 3 4 5 6 
#
# 1 67.3889 39.2812 12.1763 -5.3025 -8.5834 -12.1228
# 2 39.2812 81.7652 12.4054 -11.2771 -2.3053 -23.4814
# 3 12.1763 12.4054 130.1198 -26.8924 -15.1045 0.8374
# 4 -5.3025 -11.2771 -26.8924 28.4316 12.2376 0.4441
# 5 -8.5834 -2.3053 -15.1045 12.2376 19.1920 3.5127
# 6 -12.1228 -23.4814 0.8374 0.4441 3.5127 29.6603
#
#
#
# Elastic Compliance Matrix: (Units=1/GPa)
#
#
# Indices 1 2 3 4 5 6 
#
# 1 0.022643 -0.011690 -0.000918 -0.006631 0.012476 -0.001352
# 2 -0.011690 0.023626 -0.000226 0.012474 -0.013327 0.015324
# 3 -0.000918 -0.000226 0.009714 0.007922 0.002381 -0.001229
# 4 -0.006631 0.012474 0.007922 0.061992 -0.036656 0.010354
# 5 0.012476 -0.013327 0.002381 -0.036656 0.084064 -0.014925
# 6 -0.001352 0.015324 -0.001229 0.010354 -0.014925 0.046941
#
#
# Mechanical properties :
#
#
# Convention : Reuss Voigt Hill
#
# Bulk Modulus (GPa) = 32.98660 45.22219 39.10439
# Shear Modulus (GPa) = 17.55904 29.81751 23.68827
#
# Velocity S-wave (km/s) = 2.87878 3.75140 3.34368
# Velocity P-wave (km/s) = 5.15931 6.33305 5.77607
#
# Compressibility (1/GPa) = 0.03031534
#
# Stress axis : x y z
#
# Youngs Moduli (GPa) = 44.16318 42.32635 102.94181
#
# Poissons Ratio (x) = 0.49480 0.09449
# Poissons Ratio (y) = 0.51627 0.02328
# Poissons Ratio (z) = 0.04054 0.00957
#
# Static dielectric constant tensor:
#      x y z
#    x 3.539880 0.315490 -0.093700 
#    y 0.315490 4.682030 -0.113540 
#    z -0.093700 -0.113540 4.166460 
# 
# 
# High freq. dielectric constant tensor:
#      x y z
#    x 1.802000 0.014650 -0.006950 
#    y 0.014650 1.837460 -0.006460 
#    z -0.006950 -0.006460 1.842070 
# 
# From -- ./inp_files/534158.got.cif
#   From: 2010.06.25/outbox.cif.g09.slc.cpg/sg2_268_cif.got.tgz:534158.got - 2010.06.27 13:26:56.
