data_PCOD8008540
_publ_section_title
;
Structure prediction by ZEFSAII (Michael W. Deem and Ramdas Pophale) SiO2 
 PCOD8008540
Probable space group: P -1
;
_chemical_formula_sum "Si O2"
_cell_formula_units_Z 16
_cell_length_a 8.349872
_cell_length_b 11.745606
_cell_length_c 9.139120
_cell_angle_alpha 65.786636
_cell_angle_beta 86.417917
_cell_angle_gamma 88.203767
_cell_volume 815.846097
_symmetry_space_group_name_H-M "P -1"
_symmetry_group_IT_number 2
_symmetry_cell_setting 'triclinic'
loop_
_space_group_symop_operation_xyz
x,y,z
-x,-y,-z
loop_
_atom_site_type_symbol
_atom_site_label
_atom_site_fract_x
_atom_site_fract_y
_atom_site_fract_z
Si Si1 0.175560 0.061377 0.184650
Si Si2 0.372596 0.915354 0.473683
Si Si3 0.473937 0.293301 0.599122
Si Si4 0.352943 0.059233 0.893981
Si Si5 0.022930 0.502701 0.744849
Si Si6 0.747210 0.478098 0.545667
Si Si7 0.166876 0.909199 0.757970
Si Si8 0.038906 0.309599 0.098724
O O1 0.182120 0.206569 0.161808
O O2 0.997192 0.007692 0.259480
O O3 0.315536 0.979530 0.292541
O O4 0.200074 0.061416 0.008655
O O5 0.453405 0.782223 0.502980
O O6 0.216662 0.900697 0.590541
O O7 0.500000 0.000000 0.500000
O O8 0.394292 0.198803 0.768106
O O9 0.616013 0.370011 0.628257
O O10 0.335697 0.386755 0.501342
O O11 0.311330 0.970934 0.806065
O O12 0.500000 0.000000 0.000000
O O13 0.171118 0.533053 0.613414
O O14 0.874076 0.458097 0.678685
O O15 0.972930 0.621932 0.781049
O O16 0.076086 0.397033 0.912806
O O17 0.126354 0.766968 0.885575
#
# Coordination Sequence:
#
# PCOD8008540 Si02
#       8
#     2   2   2   2   2   2   2   2
#     4  10  23  39  61  95 124 168 207 259 315 377
#     4  12  22  41  61  93 135 166 203 257 320 386
#     4  11  24  40  64  92 132 165 212 250 324 381
#     4  12  22  41  61  93 135 166 203 257 320 386
#     4  10  20  44  64  90 118 164 218 271 303 360
#     4  10  24  42  66  90 119 171 214 265 304 372
#     4  10  23  39  61  95 124 168 207 259 315 377
#     4   9  22  36  66  90 124 151 216 262 318 363
#
# _framework density 19.611542
#
# number of rings (size 3 to 8) (size 9 to 14) (size 15 to 20)
#    0.750    0.750    2.500    2.250    3.500    0.000 
#    4.500    0.000    0.000    4.500    0.000    0.000 
#    0.000    0.000    0.000    0.000    0.000    0.000 
#
# Total GULP energy -198327.248618 kJ/mol
# GULP energy per Si atom -12395.453039 kJ/mol
# Density = 1.956691 g / cm^3
# Si number density = 19.611542 Si / 1000 Ang^3
#
#
#
# Elastic Constant Matrix: (Units=GPa)
#
#
# Indices 1 2 3 4 5 6 
#
# 1 55.5806 3.5297 19.2383 14.9855 -7.9544 -3.2581
# 2 3.5297 88.6931 27.4594 10.5842 -0.9130 -7.4113
# 3 19.2383 27.4594 87.3523 18.3454 -18.3838 -1.9440
# 4 14.9855 10.5842 18.3454 27.4466 -2.0793 -6.9046
# 5 -7.9544 -0.9130 -18.3838 -2.0793 33.9632 4.2409
# 6 -3.2581 -7.4113 -1.9440 -6.9046 4.2409 37.7814
#
#
#
# Elastic Compliance Matrix: (Units=1/GPa)
#
#
# Indices 1 2 3 4 5 6 
#
# 1 0.022074 0.001111 -0.002237 -0.010818 0.003370 -0.000349
# 2 0.001111 0.012986 -0.004215 -0.002396 -0.002097 0.002224
# 3 -0.002237 -0.004215 0.016687 -0.008341 0.008210 -0.002607
# 4 -0.010818 -0.002396 -0.008341 0.050460 -0.005016 0.007953
# 5 0.003370 -0.002097 0.008210 -0.005016 0.034879 -0.004530
# 6 -0.000349 0.002224 -0.002607 0.007953 -0.004530 0.028702
#
#
# Mechanical properties :
#
#
# Convention : Reuss Voigt Hill
#
# Bulk Modulus (GPa) = 24.35269 36.89786 30.62528
# Shear Modulus (GPa) = 26.29358 31.93148 29.11253
#
# Velocity S-wave (km/s) = 3.66556 4.03947 3.85705
# Velocity P-wave (km/s) = 5.50995 6.37273 5.95698
#
# Compressibility (1/GPa) = 0.04106322
#
# Stress axis : x y z
#
# Youngs Moduli (GPa) = 45.30167 77.00683 59.92587
#
# Poissons Ratio (x) = -0.08553 0.13408
# Poissons Ratio (y) = -0.05032 0.25261
# Poissons Ratio (z) = 0.10136 0.32461
#
# Static dielectric constant tensor:
#      x y z
#    x 3.475070 -0.179970 -0.291480 
#    y -0.179970 3.665100 0.082070 
#    z -0.291480 0.082070 3.621480 
# 
# 
# High freq. dielectric constant tensor:
#      x y z
#    x 1.763400 -0.008280 -0.017710 
#    y -0.008280 1.767870 0.006290 
#    z -0.017710 0.006290 1.762860 
# 
# From -- ./inp_files/185083.got.cif
#   From: 2010.06.25/outbox.cif.g09.slc.cpg/sg2_93_cif.got.tgz:185083.got - 2010.06.27 13:26:56.
