data_PCOD8008648
_publ_section_title
;
Structure prediction by ZEFSAII (Michael W. Deem and Ramdas Pophale) SiO2 
 PCOD8008648
Probable space group: P -1
;
_chemical_formula_sum "Si O2"
_cell_formula_units_Z 16
_cell_length_a 12.393141
_cell_length_b 19.247861
_cell_length_c 8.958928
_cell_angle_alpha 123.001436
_cell_angle_beta 83.914921
_cell_angle_gamma 145.113591
_cell_volume 721.427282
_symmetry_space_group_name_H-M "P -1"
_symmetry_group_IT_number 2
_symmetry_cell_setting 'triclinic'
loop_
_space_group_symop_operation_xyz
x,y,z
-x,-y,-z
loop_
_atom_site_type_symbol
_atom_site_label
_atom_site_fract_x
_atom_site_fract_y
_atom_site_fract_z
Si Si1 0.310560 0.882529 0.030327
Si Si2 0.014061 0.775346 0.723532
Si Si3 0.485601 0.854523 0.118227
Si Si4 0.720805 0.620578 0.996696
Si Si5 0.656971 0.963224 0.553390
Si Si6 0.093962 0.136688 0.996312
Si Si7 0.542908 0.334068 0.250885
Si Si8 0.536093 0.726165 0.479789
O O1 0.252213 0.753598 0.971027
O O2 0.431080 0.025882 0.307996
O O3 0.055829 0.752887 0.846563
O O4 0.500000 0.000000 0.000000
O O5 0.001635 0.864093 0.865442
O O6 0.743795 0.548840 0.429512
O O7 0.245257 0.925644 0.744348
O O8 0.523636 0.890845 0.330669
O O9 0.410803 0.707983 0.920452
O O10 0.020374 0.822625 0.258636
O O11 0.500000 0.500000 0.000000
O O12 0.713561 0.678959 0.928339
O O13 0.627873 0.466157 0.776748
O O14 0.512181 0.780218 0.422489
O O15 0.246436 0.166946 0.087252
O O16 0.851003 0.926717 0.692917
O O17 0.580433 0.325172 0.402608
#
# Coordination Sequence:
#
# PCOD8008648 Si02
#       8
#     2   2   2   2   2   2   2   2
#     4  10  20  46  71  91 125 172 225 271 325 373
#     4  11  22  43  66  97 126 175 218 273 319 381
#     4  11  26  39  68  96 131 170 215 275 325 383
#     4  11  26  39  64  97 138 180 206 265 330 389
#     4  11  24  44  64  98 135 167 218 267 331 386
#     4  11  23  39  64  98 133 171 220 262 321 390
#     4  12  24  38  67 100 129 171 223 263 322 391
#     4  11  22  41  65  92 132 175 215 261 319 392
#
# _framework density 22.178258
#
# number of rings (size 3 to 8) (size 9 to 14) (size 15 to 20)
#    0.000    1.000    5.000    1.875    5.250    1.500 
#    0.000    2.500    0.000    7.500    0.000    0.000 
#    0.000    0.000    0.000    0.000    0.000    0.000 
#
# Total GULP energy -198350.077350 kJ/mol
# GULP energy per Si atom -12396.879834 kJ/mol
# Density = 2.212778 g / cm^3
# Si number density = 22.178258 Si / 1000 Ang^3
#
#
#
# Elastic Constant Matrix: (Units=GPa)
#
#
# Indices 1 2 3 4 5 6 
#
# 1 107.4744 14.8075 30.7915 -15.4516 -11.3017 -24.9181
# 2 14.8075 91.1350 27.1575 -17.0943 -8.9920 -11.8954
# 3 30.7915 27.1575 96.0765 -9.9441 -13.5736 -8.0810
# 4 -15.4516 -17.0943 -9.9441 45.7772 1.0058 -1.5717
# 5 -11.3017 -8.9920 -13.5736 1.0058 22.9759 -9.1166
# 6 -24.9181 -11.8954 -8.0810 -1.5717 -9.1166 34.0754
#
#
#
# Elastic Compliance Matrix: (Units=1/GPa)
#
#
# Indices 1 2 3 4 5 6 
#
# 1 0.015332 0.002507 -0.001818 0.005955 0.013338 0.015499
# 2 0.002507 0.014371 -0.002265 0.005834 0.008811 0.008939
# 3 -0.001818 -0.002265 0.012997 0.001310 0.006988 0.002892
# 4 0.005955 0.005834 0.001310 0.026476 0.008918 0.010309
# 5 0.013338 0.008811 0.006988 0.008918 0.070686 0.033809
# 6 0.015499 0.008939 0.002892 0.010309 0.033809 0.054008
#
#
# Mechanical properties :
#
#
# Convention : Reuss Voigt Hill
#
# Bulk Modulus (GPa) = 25.28599 48.91099 37.09849
# Shear Modulus (GPa) = 23.78625 35.36100 29.57363
#
# Velocity S-wave (km/s) = 3.27846 3.99733 3.65561
# Velocity P-wave (km/s) = 5.07514 6.58834 5.88062
#
# Compressibility (1/GPa) = 0.03954760
#
# Stress axis : x y z
#
# Youngs Moduli (GPa) = 65.22173 69.58588 76.93872
#
# Poissons Ratio (x) = -0.17443 0.13987
# Poissons Ratio (y) = -0.16349 0.17427
# Poissons Ratio (z) = 0.11857 0.15762
#
# Static dielectric constant tensor:
#      x y z
#    x 4.238510 -0.181430 0.068670 
#    y -0.181430 4.092050 -0.084150 
#    z 0.068670 -0.084150 4.010440 
# 
# 
# High freq. dielectric constant tensor:
#      x y z
#    x 1.872750 -0.013320 -0.008760 
#    y -0.013320 1.878290 0.000600 
#    z -0.008760 0.000600 1.866820 
# 
# From -- ./inp_files/279858.got.cif
#   From: 2010.06.25/outbox.cif.g09.slc.cpg/sg2_140_cif.got.tgz:279858.got - 2010.06.27 13:26:56.
