data_PCOD8008527
_publ_section_title
;
Structure prediction by ZEFSAII (Michael W. Deem and Ramdas Pophale) SiO2 
 PCOD8008527
Probable space group: P -1
;
_chemical_formula_sum "Si O2"
_cell_formula_units_Z 12
_cell_length_a 7.503778
_cell_length_b 7.435367
_cell_length_c 12.195146
_cell_angle_alpha 73.780900
_cell_angle_beta 59.387702
_cell_angle_gamma 105.844809
_cell_volume 486.127016
_symmetry_space_group_name_H-M "P -1"
_symmetry_group_IT_number 2
_symmetry_cell_setting 'triclinic'
loop_
_space_group_symop_operation_xyz
x,y,z
-x,-y,-z
loop_
_atom_site_type_symbol
_atom_site_label
_atom_site_fract_x
_atom_site_fract_y
_atom_site_fract_z
Si Si1 0.806228 0.615763 0.355204
Si Si2 0.418356 0.320871 0.386027
Si Si3 0.535599 0.859542 0.337966
Si Si4 0.660685 0.079742 0.829780
Si Si5 0.796935 0.156564 0.391429
Si Si6 0.676346 0.669278 0.828633
O O1 0.690209 0.417964 0.333396
O O2 0.681252 0.549863 0.527905
O O3 0.738244 0.793419 0.300442
O O4 0.089185 0.706644 0.255854
O O5 0.438303 0.404149 0.242799
O O6 0.236831 0.065437 0.503666
O O7 0.279651 0.724989 0.508046
O O8 0.493940 0.883514 0.220090
O O9 0.638112 0.086829 0.339455
O O10 0.726320 0.906207 0.796986
O O11 0.500000 0.000000 0.000000
O O12 0.071611 0.322983 0.249418
O O13 0.500000 0.500000 0.000000
#
# Coordination Sequence:
#
# PCOD8008527 Si02
#       6
#     2   2   2   2   2   2
#     4  10  23  44  71 100 130 167 227 281 322 384
#     4  10  20  43  74  96 130 173 220 279 328 378
#     4  10  21  41  75  97 125 174 226 270 331 383
#     4  12  26  45  64  97 142 180 213 269 338 397
#     4  10  20  44  72  97 127 172 227 275 327 386
#     4  12  25  44  66  99 139 178 217 271 332 399
#
# _framework density 24.684908
#
# number of rings (size 3 to 8) (size 9 to 14) (size 15 to 20)
#    0.000    1.333    5.000    1.500    2.333    2.000 
#   12.000   10.000    0.000    0.000    0.000    0.000 
#    0.000    0.000    0.000    0.000    0.000    0.000 
#
# Total GULP energy -148722.352741 kJ/mol
# GULP energy per Si atom -12393.529395 kJ/mol
# Density = 2.462872 g / cm^3
# Si number density = 24.684908 Si / 1000 Ang^3
#
#
#
# Elastic Constant Matrix: (Units=GPa)
#
#
# Indices 1 2 3 4 5 6 
#
# 1 132.2245 24.8847 97.9615 19.7894 20.1745 30.5206
# 2 24.8847 96.7118 30.2111 14.9612 0.3306 8.6059
# 3 97.9615 30.2111 183.6435 20.0839 21.9870 42.4072
# 4 19.7894 14.9612 20.0839 33.5688 7.3271 1.4382
# 5 20.1745 0.3306 21.9870 7.3271 35.1007 3.1219
# 6 30.5206 8.6059 42.4072 1.4382 3.1219 37.7523
#
#
#
# Elastic Compliance Matrix: (Units=1/GPa)
#
#
# Indices 1 2 3 4 5 6 
#
# 1 0.013816 -0.000908 -0.005381 -0.003583 -0.003414 -0.004499
# 2 -0.000908 0.011641 -0.001005 -0.004464 0.002044 -0.000790
# 3 -0.005381 -0.001005 0.010623 -0.001880 -0.002530 -0.007072
# 4 -0.003583 -0.004464 -0.001880 0.035814 -0.004646 0.005046
# 5 -0.003414 0.002044 -0.002530 -0.004646 0.032755 0.002604
# 6 -0.004499 -0.000790 -0.007072 0.005046 0.002604 0.037843
#
#
# Mechanical properties :
#
#
# Convention : Reuss Voigt Hill
#
# Bulk Modulus (GPa) = 46.52736 79.85495 63.19116
# Shear Modulus (GPa) = 30.44248 38.58587 34.51417
#
# Velocity S-wave (km/s) = 3.51557 3.95794 3.74329
# Velocity P-wave (km/s) = 5.94713 7.30116 6.65865
#
# Compressibility (1/GPa) = 0.02149273
#
# Stress axis : x y z
#
# Youngs Moduli (GPa) = 72.37972 85.90017 94.13676
#
# Poissons Ratio (x) = 0.07797 0.50656
# Poissons Ratio (y) = 0.06570 0.09460
# Poissons Ratio (z) = 0.38948 0.08633
#
# Static dielectric constant tensor:
#      x y z
#    x 4.436420 -0.213440 0.014660 
#    y -0.213440 5.392260 -0.068630 
#    z 0.014660 -0.068630 3.914250 
# 
# 
# High freq. dielectric constant tensor:
#      x y z
#    x 1.991610 -0.013660 0.004720 
#    y -0.013660 2.036540 0.003520 
#    z 0.004720 0.003520 1.945570 
# 
# From -- ./inp_files/373755.got.cif
#   From: 2010.06.25/outbox.cif.g09.slc.cpg/sg2_187_cif.got.tgz:373755.got - 2010.06.27 13:26:56.
