data_PCOD8008019
_publ_section_title
;
Structure prediction by ZEFSAII (Michael W. Deem and Ramdas Pophale) SiO2 
 PCOD8008019
Probable space group: P -1
;
_chemical_formula_sum "Si O2"
_cell_formula_units_Z 16
_cell_length_a 9.895328
_cell_length_b 6.917187
_cell_length_c 24.559205
_cell_angle_alpha 39.033999
_cell_angle_beta 131.311355
_cell_angle_gamma 116.139383
_cell_volume 785.883674
_symmetry_space_group_name_H-M "P -1"
_symmetry_group_IT_number 2
_symmetry_cell_setting 'triclinic'
loop_
_space_group_symop_operation_xyz
x,y,z
-x,-y,-z
loop_
_atom_site_type_symbol
_atom_site_label
_atom_site_fract_x
_atom_site_fract_y
_atom_site_fract_z
Si Si1 0.537234 0.850716 0.601295
Si Si2 0.488550 0.165591 0.716238
Si Si3 0.118533 0.895514 0.317576
Si Si4 0.107903 0.825836 0.017587
Si Si5 0.708721 0.167634 0.172450
Si Si6 0.646207 0.692176 0.470290
Si Si7 0.561165 0.875381 0.985054
Si Si8 0.863865 0.876677 0.841947
O O1 0.539930 0.485298 0.682222
O O2 0.500000 0.000000 0.500000
O O3 0.734196 0.909341 0.661095
O O4 0.373025 0.995798 0.566743
O O5 0.386583 0.216645 0.620723
O O6 0.362271 0.024336 0.755870
O O7 0.672355 0.921099 0.812699
O O8 0.158888 0.531708 0.425904
O O9 0.135737 0.881394 0.259808
O O10 0.922611 0.053884 0.250457
O O11 0.100800 0.462441 0.101670
O O12 0.312285 0.899222 0.057870
O O13 0.020866 0.936072 0.912249
O O14 0.000000 0.000000 0.000000
O O15 0.615715 0.111398 0.102617
O O16 0.672768 0.531731 0.096335
O O17 0.500000 0.500000 0.500000
O O18 0.500000 0.000000 0.000000
#
# Coordination Sequence:
#
# PCOD8008019 Si02
#       8
#     2   2   2   2   2   2   2   2
#     4  11  21  40  68  93 124 170 214 258 320 381
#     4  12  23  40  67  94 129 167 212 265 321 382
#     4  11  22  43  65  93 131 166 214 265 317 378
#     4  11  24  40  65  97 124 164 220 275 313 377
#     4  11  27  42  64  97 130 170 216 265 320 386
#     4  10  20  42  63  94 131 160 206 270 318 372
#     4  11  24  47  63  85 137 176 208 260 334 379
#     4  11  23  39  65  98 127 162 222 270 311 382
#
# _framework density 20.359248999999998
#
# number of rings (size 3 to 8) (size 9 to 14) (size 15 to 20)
#    0.000    1.000    5.000    3.000    5.250    5.500 
#    2.250    0.625    0.000    0.000    0.000    0.000 
#    0.000    0.000    0.000    0.000    0.000    0.000 
#
# Total GULP energy -198442.625228 kJ/mol
# GULP energy per Si atom -12402.664077 kJ/mol
# Density = 2.031291 g / cm^3
# Si number density = 20.359249 Si / 1000 Ang^3
#
#
#
# Elastic Constant Matrix: (Units=GPa)
#
#
# Indices 1 2 3 4 5 6 
#
# 1 103.2293 40.6042 34.4828 -0.6487 9.5196 -17.6755
# 2 40.6042 126.5268 45.0856 -3.0069 10.3042 -26.5820
# 3 34.4828 45.0856 114.0876 3.7212 14.5270 -13.2526
# 4 -0.6487 -3.0069 3.7212 22.6916 -4.7497 3.5137
# 5 9.5196 10.3042 14.5270 -4.7497 39.7814 -1.7597
# 6 -17.6755 -26.5820 -13.2526 3.5137 -1.7597 32.2117
#
#
#
# Elastic Compliance Matrix: (Units=1/GPa)
#
#
# Indices 1 2 3 4 5 6 
#
# 1 0.012056 -0.002184 -0.002128 -0.000501 -0.001429 0.003914
# 2 -0.002184 0.011118 -0.002859 0.000649 -0.000940 0.006678
# 3 -0.002128 -0.002859 0.011186 -0.003127 -0.003153 0.001244
# 4 -0.000501 0.000649 -0.003127 0.046898 0.006437 -0.005790
# 5 -0.001429 -0.000940 -0.003153 0.006437 0.027552 -0.002054
# 6 0.003914 0.006678 0.001244 -0.005790 -0.002054 0.039735
#
#
# Mechanical properties :
#
#
# Convention : Reuss Voigt Hill
#
# Bulk Modulus (GPa) = 49.95448 64.90988 57.43218
# Shear Modulus (GPa) = 29.48820 33.84834 31.66827
#
# Velocity S-wave (km/s) = 3.80991 4.08187 3.94823
# Velocity P-wave (km/s) = 6.62900 7.35982 7.00395
#
# Compressibility (1/GPa) = 0.02001823
#
# Stress axis : x y z
#
# Youngs Moduli (GPa) = 82.94755 89.94284 89.39483
#
# Poissons Ratio (x) = 0.19642 0.19022
# Poissons Ratio (y) = 0.18114 0.25561
# Poissons Ratio (z) = 0.17650 0.25718
#
# Static dielectric constant tensor:
#      x y z
#    x 3.942160 0.539200 0.652750 
#    y 0.539200 5.430170 0.847690 
#    z 0.652750 0.847690 4.586920 
# 
# 
# High freq. dielectric constant tensor:
#      x y z
#    x 1.782810 -0.021990 0.001810 
#    y -0.021990 1.803690 0.000380 
#    z 0.001810 0.000380 1.813340 
# 
# From -- ./inp_files/323563.got.cif
#   From: 2010.06.25/outbox.cif.g09.slc.cpg/sg2_162_cif.got.tgz:323563.got - 2010.06.27 13:26:56.
