data_PCOD8008601
_publ_section_title
;
Structure prediction by ZEFSAII (Michael W. Deem and Ramdas Pophale) SiO2 
 PCOD8008601
Probable space group: P -1
;
_chemical_formula_sum "Si O2"
_cell_formula_units_Z 10
_cell_length_a 11.460987
_cell_length_b 14.091320
_cell_length_c 9.825143
_cell_angle_alpha 127.405471
_cell_angle_beta 62.491943
_cell_angle_gamma 160.413867
_cell_volume 384.488326
_symmetry_space_group_name_H-M "P -1"
_symmetry_group_IT_number 2
_symmetry_cell_setting 'triclinic'
loop_
_space_group_symop_operation_xyz
x,y,z
-x,-y,-z
loop_
_atom_site_type_symbol
_atom_site_label
_atom_site_fract_x
_atom_site_fract_y
_atom_site_fract_z
Si Si1 0.818351 0.642618 0.445257
Si Si2 0.098883 0.544733 0.834985
Si Si3 0.956881 0.262348 0.057653
Si Si4 0.137905 0.248766 0.182299
Si Si5 0.061227 0.148282 0.720565
O O1 0.035802 0.702791 0.350482
O O2 0.967302 0.816147 0.660655
O O3 0.954708 0.850596 0.434577
O O4 0.351944 0.244125 0.338863
O O5 0.909063 0.484152 0.784486
O O6 0.000000 0.500000 0.000000
O O7 0.551755 0.924481 0.905725
O O8 0.938730 0.183823 0.145557
O O9 0.198758 0.389011 0.929913
O O10 0.592863 0.648071 0.256109
O O11 0.000000 0.000000 0.000000
#
# Coordination Sequence:
#
# PCOD8008601 Si02
#       5
#     2   2   2   2   2
#     4  11  25  45  73 102 138 187 230 278 349 416
#     4  10  20  44  70  94 134 182 230 280 345 413
#     4  10  23  40  71  99 133 180 228 285 347 400
#     4  12  26  44  68 106 144 178 229 291 342 408
#     4  11  23  46  70 101 141 185 225 279 348 424
#
# _framework density 26.008592
#
# number of rings (size 3 to 8) (size 9 to 14) (size 15 to 20)
#    0.000    1.200    2.000    4.200    0.000    4.000 
#    0.000    1.000    0.000    0.000    0.000    0.000 
#    0.000    0.000    0.000    0.000    0.000    0.000 
#
# Total GULP energy -123934.497433 kJ/mol
# GULP energy per Si atom -12393.449743 kJ/mol
# Density = 2.594940 g / cm^3
# Si number density = 26.008592 Si / 1000 Ang^3
#
#
#
# Elastic Constant Matrix: (Units=GPa)
#
#
# Indices 1 2 3 4 5 6 
#
# 1 188.0811 30.2805 52.0052 -1.2329 8.1237 -18.0003
# 2 30.2805 85.8004 22.0407 -19.2424 -5.4107 -12.9341
# 3 52.0052 22.0407 140.3684 -30.1078 -6.3809 -1.0264
# 4 -1.2329 -19.2424 -30.1078 38.3218 -2.4571 -5.7145
# 5 8.1237 -5.4107 -6.3809 -2.4571 43.3569 -12.6724
# 6 -18.0003 -12.9341 -1.0264 -5.7145 -12.6724 34.4666
#
#
#
# Elastic Compliance Matrix: (Units=1/GPa)
#
#
# Indices 1 2 3 4 5 6 
#
# 1 0.006640 -0.002174 -0.002825 -0.002987 -0.001675 0.001457
# 2 -0.002174 0.016234 0.000811 0.010398 0.005716 0.008806
# 3 -0.002825 0.000811 0.010057 0.008671 0.003101 0.001706
# 4 -0.002987 0.010398 0.008671 0.040508 0.009133 0.012674
# 5 -0.001675 0.005716 0.003101 0.009133 0.029025 0.013549
# 6 0.001457 0.008806 0.001706 0.012674 0.013549 0.040213
#
#
# Mechanical properties :
#
#
# Convention : Reuss Voigt Hill
#
# Bulk Modulus (GPa) = 40.72536 69.21141 54.96839
# Shear Modulus (GPa) = 31.39972 43.89062 37.64517
#
# Velocity S-wave (km/s) = 3.47837 4.11243 3.80862
# Velocity P-wave (km/s) = 5.64132 7.01557 6.36564
#
# Compressibility (1/GPa) = 0.02455472
#
# Stress axis : x y z
#
# Youngs Moduli (GPa) = 150.59930 61.59999 99.43703
#
# Poissons Ratio (x) = 0.13390 0.28092
# Poissons Ratio (y) = 0.32736 -0.08063
# Poissons Ratio (z) = 0.42545 -0.04995
#
# Static dielectric constant tensor:
#      x y z
#    x 6.145330 0.600820 -0.604650 
#    y 0.600820 4.744510 -0.251210 
#    z -0.604650 -0.251210 4.870190 
# 
# 
# High freq. dielectric constant tensor:
#      x y z
#    x 2.065870 0.003480 -0.023680 
#    y 0.003480 2.035570 -0.018020 
#    z -0.023680 -0.018020 2.034020 
# 
# From -- ./inp_files/22252.got.cif
#   From: 2010.06.25/outbox.cif.g09.slc.cpg/sg2_12_cif.got.tgz:22252.got - 2010.06.27 13:26:56.
