data_PCOD8008458
_publ_section_title
;
Structure prediction by ZEFSAII (Michael W. Deem and Ramdas Pophale) SiO2 
 PCOD8008458
Probable space group: P -1
;
_chemical_formula_sum "Si O2"
_cell_formula_units_Z 14
_cell_length_a 17.983507
_cell_length_b 14.514307
_cell_length_c 11.690314
_cell_angle_alpha 129.533620
_cell_angle_beta 29.235578
_cell_angle_gamma 149.670833
_cell_volume 663.036578
_symmetry_space_group_name_H-M "P -1"
_symmetry_group_IT_number 2
_symmetry_cell_setting 'triclinic'
loop_
_space_group_symop_operation_xyz
x,y,z
-x,-y,-z
loop_
_atom_site_type_symbol
_atom_site_label
_atom_site_fract_x
_atom_site_fract_y
_atom_site_fract_z
Si Si1 0.888885 0.126886 0.782950
Si Si2 0.734813 0.070039 0.195997
Si Si3 0.193189 0.768457 0.227250
Si Si4 0.229233 0.154969 0.437960
Si Si5 0.204863 0.498541 0.023238
Si Si6 0.706199 0.790060 0.992926
Si Si7 0.772371 0.580250 0.814228
O O1 0.933122 0.267686 0.751695
O O2 0.170779 0.245954 0.529045
O O3 0.715192 0.912512 0.784559
O O4 0.734874 0.070383 0.058268
O O5 0.012376 0.295433 0.046108
O O6 0.500000 0.000000 0.500000
O O7 0.694628 0.908963 0.169148
O O8 0.133182 0.590513 0.175928
O O9 0.048456 0.741747 0.504617
O O10 0.500000 0.000000 0.000000
O O11 0.499508 0.338202 0.291659
O O12 0.982380 0.957554 0.688190
O O13 0.189066 0.452462 0.140302
O O14 0.699876 0.674818 0.997444
O O15 0.463243 0.633990 0.107507
#
# Coordination Sequence:
#
# PCOD8008458 Si02
#       7
#     2   2   2   2   2   2   2
#     4  10  21  40  71  87 132 170 212 271 321 379
#     4  11  26  44  62  95 142 176 205 263 340 396
#     4  12  24  40  68 101 128 170 225 279 314 375
#     4  10  20  43  69 100 120 166 229 276 317 372
#     4  12  25  39  66  99 137 170 214 267 328 394
#     4  10  22  43  71  95 131 171 218 273 323 384
#     4  11  23  40  70 102 122 170 228 272 319 376
#
# _framework density 21.114972000000002
#
# number of rings (size 3 to 8) (size 9 to 14) (size 15 to 20)
#    0.000    1.143    2.857    3.857    4.000    3.429 
#    0.000    0.000    0.000    0.000    0.000    0.000 
#    0.000    0.000    0.000    0.000    0.000    0.000 
#
# Total GULP energy -173567.305033 kJ/mol
# GULP energy per Si atom -12397.664645 kJ/mol
# Density = 2.106691 g / cm^3
# Si number density = 21.114972 Si / 1000 Ang^3
#
#
#
# Elastic Constant Matrix: (Units=GPa)
#
#
# Indices 1 2 3 4 5 6 
#
# 1 120.7757 48.6519 33.1349 14.8247 -9.4811 -31.4084
# 2 48.6519 142.7904 55.1949 12.3576 -15.2750 -10.5401
# 3 33.1349 55.1949 127.3847 0.5129 -2.0775 5.8420
# 4 14.8247 12.3576 0.5129 41.6665 -0.4533 -12.3566
# 5 -9.4811 -15.2750 -2.0775 -0.4533 31.2042 2.3964
# 6 -31.4084 -10.5401 5.8420 -12.3566 2.3964 38.8482
#
#
#
# Elastic Compliance Matrix: (Units=1/GPa)
#
#
# Indices 1 2 3 4 5 6 
#
# 1 0.012721 -0.002294 -0.002725 -0.000926 0.001805 0.009666
# 2 -0.002294 0.009777 -0.003594 -0.001844 0.003783 0.000518
# 3 -0.002725 -0.003594 0.010293 0.000573 -0.001552 -0.004448
# 4 -0.000926 -0.001844 0.000573 0.027033 -0.001317 0.007345
# 5 0.001805 0.003783 -0.001552 -0.001317 0.034311 0.000183
# 6 0.009666 0.000518 -0.004448 0.007345 0.000183 0.036690
#
#
# Mechanical properties :
#
#
# Convention : Reuss Voigt Hill
#
# Bulk Modulus (GPa) = 64.25228 73.87936 69.06582
# Shear Modulus (GPa) = 32.62885 39.27506 35.95195
#
# Velocity S-wave (km/s) = 3.93529 4.31752 4.13083
# Velocity P-wave (km/s) = 7.15153 7.74078 7.45198
#
# Compressibility (1/GPa) = 0.01556365
#
# Stress axis : x y z
#
# Youngs Moduli (GPa) = 78.61287 102.28310 97.15631
#
# Poissons Ratio (x) = 0.23466 0.26474
# Poissons Ratio (y) = 0.18035 0.34919
# Poissons Ratio (z) = 0.21421 0.36762
#
# Static dielectric constant tensor:
#      x y z
#    x 3.938840 -0.218830 -0.276000 
#    y -0.218830 3.937520 -0.018770 
#    z -0.276000 -0.018770 3.938360 
# 
# 
# High freq. dielectric constant tensor:
#      x y z
#    x 1.821830 -0.021440 -0.016760 
#    y -0.021440 1.821940 -0.004800 
#    z -0.016760 -0.004800 1.836500 
# 
# From -- ./inp_files/380691.got.cif
#   From: 2010.06.25/outbox.cif.g09.slc.cpg/sg2_191_cif.got.tgz:380691.got - 2010.06.27 13:26:56.
