data_PCOD8008106
_publ_section_title
;
Structure prediction by ZEFSAII (Michael W. Deem and Ramdas Pophale) SiO2 
 PCOD8008106
Probable space group: P -1
;
_chemical_formula_sum "Si O2"
_cell_formula_units_Z 16
_cell_length_a 9.676693
_cell_length_b 15.808976
_cell_length_c 13.546961
_cell_angle_alpha 44.151927
_cell_angle_beta 147.408125
_cell_angle_gamma 133.240008
_cell_volume 759.444589
_symmetry_space_group_name_H-M "P -1"
_symmetry_group_IT_number 2
_symmetry_cell_setting 'triclinic'
loop_
_space_group_symop_operation_xyz
x,y,z
-x,-y,-z
loop_
_atom_site_type_symbol
_atom_site_label
_atom_site_fract_x
_atom_site_fract_y
_atom_site_fract_z
Si Si1 0.863973 0.849516 0.207980
Si Si2 0.738491 0.476680 0.098954
Si Si3 0.612142 0.219293 0.149828
Si Si4 0.693820 0.928896 0.729079
Si Si5 0.094795 0.611487 0.537893
Si Si6 0.259311 0.042621 0.764000
Si Si7 0.702477 0.709416 0.783610
Si Si8 0.114134 0.168050 0.398040
O O1 0.867709 0.874258 0.306196
O O2 0.940484 0.719950 0.337303
O O3 0.566417 0.836698 0.003179
O O4 0.057049 0.965908 0.172124
O O5 0.632564 0.366142 0.051039
O O6 0.949656 0.439777 0.332995
O O7 0.500000 0.500000 0.000000
O O8 0.853877 0.603304 0.001515
O O9 0.475071 0.148736 0.221733
O O10 0.902886 0.200760 0.319439
O O11 0.805726 0.836421 0.800518
O O12 0.500000 0.000000 0.500000
O O13 0.395919 0.669378 0.651544
O O14 0.000000 0.500000 0.500000
O O15 0.330086 0.121666 0.637429
O O16 0.025461 0.930989 0.683853
O O17 0.500000 0.000000 0.000000
O O18 0.743856 0.720315 0.680649
#
# Coordination Sequence:
#
# PCOD8008106 Si02
#       8
#     2   2   2   2   2   2   2   2
#     4  12  23  39  68 101 132 170 230 275 331 402
#     4  10  20  42  66  88 129 175 221 270 336 390
#     4  12  24  42  67  97 132 182 218 273 340 397
#     4  12  22  39  64  97 133 165 221 278 330 390
#     4  11  23  42  67  97 131 171 225 283 330 395
#     4  11  23  43  64  97 142 181 217 267 341 407
#     4  11  23  42  67  95 130 178 219 272 337 395
#     4  11  25  42  68  94 140 180 217 275 337 396
#
# _framework density 21.06803
#
# number of rings (size 3 to 8) (size 9 to 14) (size 15 to 20)
#    0.000    0.750    6.250    3.375    1.750    0.500 
#    4.500    0.000    0.000    3.000    0.000    0.000 
#    0.000    0.000    0.000    0.000    0.000    0.000 
#
# Total GULP energy -198294.661382 kJ/mol
# GULP energy per Si atom -12393.416336 kJ/mol
# Density = 2.102008 g / cm^3
# Si number density = 21.068030 Si / 1000 Ang^3
#
#
#
# Elastic Constant Matrix: (Units=GPa)
#
#
# Indices 1 2 3 4 5 6 
#
# 1 96.3277 27.9183 41.8210 -14.8232 -23.3347 -5.0530
# 2 27.9183 117.0884 48.4573 -18.1763 -7.6741 -24.5866
# 3 41.8210 48.4573 125.1018 -10.0980 -20.2911 10.9498
# 4 -14.8232 -18.1763 -10.0980 39.1785 5.0429 -9.8233
# 5 -23.3347 -7.6741 -20.2911 5.0429 32.9049 -7.5280
# 6 -5.0530 -24.5866 10.9498 -9.8233 -7.5280 31.4014
#
#
#
# Elastic Compliance Matrix: (Units=1/GPa)
#
#
# Indices 1 2 3 4 5 6 
#
# 1 0.016021 0.002293 -0.004950 0.007247 0.010207 0.010813
# 2 0.002293 0.018201 -0.008113 0.012279 0.004081 0.022268
# 3 -0.004950 -0.008113 0.013646 -0.005598 0.000789 -0.013469
# 4 0.007247 0.012279 -0.005598 0.038411 0.004577 0.025845
# 5 0.010207 0.004081 0.000789 0.004577 0.042043 0.016074
# 6 0.010813 0.022268 -0.013469 0.025845 0.016074 0.067656
#
#
# Mechanical properties :
#
#
# Convention : Reuss Voigt Hill
#
# Bulk Modulus (GPa) = 37.98187 63.87901 50.93044
# Shear Modulus (GPa) = 22.09543 35.38506 28.74025
#
# Velocity S-wave (km/s) = 3.24198 4.10269 3.69747
# Velocity P-wave (km/s) = 5.66403 7.26835 6.51576
#
# Compressibility (1/GPa) = 0.02632835
#
# Stress axis : x y z
#
# Youngs Moduli (GPa) = 62.42000 54.94316 73.28409
#
# Poissons Ratio (x) = -0.12600 0.36275
# Poissons Ratio (y) = -0.14314 0.59452
# Poissons Ratio (z) = 0.30897 0.44573
#
# Static dielectric constant tensor:
#      x y z
#    x 5.712610 -2.155900 -0.514680 
#    y -2.155900 6.558300 -0.367260 
#    z -0.514680 -0.367260 4.431700 
# 
# 
# High freq. dielectric constant tensor:
#      x y z
#    x 1.815910 -0.016090 -0.014660 
#    y -0.016090 1.826050 -0.011990 
#    z -0.014660 -0.011990 1.831250 
# 
# From -- ./inp_files/398703.got.cif
#   From: 2010.06.25/outbox.cif.g09.slc.cpg/sg2_200_cif.got.tgz:398703.got - 2010.06.27 13:26:56.
