data_PCOD8008174
_publ_section_title
;
Structure prediction by ZEFSAII (Michael W. Deem and Ramdas Pophale) SiO2 
 PCOD8008174
Probable space group: P -1
;
_chemical_formula_sum "Si O2"
_cell_formula_units_Z 16
_cell_length_a 9.433075
_cell_length_b 11.941336
_cell_length_c 11.024372
_cell_angle_alpha 50.933412
_cell_angle_beta 57.868802
_cell_angle_gamma 57.892825
_cell_volume 779.245550
_symmetry_space_group_name_H-M "P -1"
_symmetry_group_IT_number 2
_symmetry_cell_setting 'triclinic'
loop_
_space_group_symop_operation_xyz
x,y,z
-x,-y,-z
loop_
_atom_site_type_symbol
_atom_site_label
_atom_site_fract_x
_atom_site_fract_y
_atom_site_fract_z
Si Si1 0.348753 0.654925 0.984870
Si Si2 0.005492 0.631266 0.059526
Si Si3 0.572476 0.349334 0.491987
Si Si4 0.968070 0.306106 0.267201
Si Si5 0.524591 0.210721 0.382663
Si Si6 0.294784 0.108090 0.388117
Si Si7 0.529819 0.150784 0.037705
Si Si8 0.638176 0.815665 0.153524
O O1 0.359698 0.769012 0.795954
O O2 0.358818 0.734705 0.056322
O O3 0.500000 0.500000 0.000000
O O4 0.161802 0.627594 0.082407
O O5 0.019138 0.458569 0.151796
O O6 0.831798 0.708147 0.164782
O O7 0.018893 0.721946 0.865851
O O8 0.500000 0.500000 0.500000
O O9 0.779135 0.315833 0.401417
O O10 0.483376 0.355200 0.394578
O O11 0.517863 0.215489 0.676247
O O12 0.097877 0.175754 0.380561
O O13 0.341818 0.181940 0.442435
O O14 0.655941 0.070858 0.492253
O O15 0.420953 0.145445 0.208532
O O16 0.646864 0.985294 0.054936
O O17 0.394969 0.222196 0.944079
#
# Coordination Sequence:
#
# PCOD8008174 Si02
#       8
#     2   2   2   2   2   2   2   2
#     4  11  24  41  69  97 125 167 222 268 315 380
#     4  11  22  40  66  96 127 169 219 267 307 388
#     4  12  24  41  63  93 134 168 208 267 325 379
#     4  11  23  40  65  97 126 168 222 263 314 379
#     4  10  22  40  65  93 126 168 210 262 325 375
#     4  10  20  42  67  91 127 168 218 263 314 380
#     4  10  22  41  65  95 130 174 207 262 325 382
#     4  11  23  42  65  93 136 170 210 259 329 383
#
# _framework density 20.532679999999999
#
# number of rings (size 3 to 8) (size 9 to 14) (size 15 to 20)
#    0.000    1.250    5.000    1.500    3.500    1.000 
#    4.500    1.875    0.000    0.000    0.000    0.000 
#    0.000    0.000    0.000    0.000    0.000    0.000 
#
# Total GULP energy -198273.208538 kJ/mol
# GULP energy per Si atom -12392.075534 kJ/mol
# Density = 2.048595 g / cm^3
# Si number density = 20.532680 Si / 1000 Ang^3
#
#
#
# Elastic Constant Matrix: (Units=GPa)
#
#
# Indices 1 2 3 4 5 6 
#
# 1 146.5591 69.4969 35.0004 -1.7075 -3.1081 9.0131
# 2 69.4969 88.6764 17.8504 7.0865 -0.5234 16.0349
# 3 35.0004 17.8504 69.4361 1.6786 -7.0204 -10.6553
# 4 -1.7075 7.0865 1.6786 19.4218 1.5710 0.0466
# 5 -3.1081 -0.5234 -7.0204 1.5710 28.0038 0.3407
# 6 9.0131 16.0349 -10.6553 0.0466 0.3407 43.4495
#
#
#
# Elastic Compliance Matrix: (Units=1/GPa)
#
#
# Indices 1 2 3 4 5 6 
#
# 1 0.012118 -0.009060 -0.003921 0.004716 -0.000070 -0.000136
# 2 -0.009060 0.020393 -0.001447 -0.008061 -0.000462 -0.005989
# 3 -0.003921 -0.001447 0.018089 -0.001726 0.004099 0.005753
# 4 0.004716 -0.008061 -0.001726 0.055247 -0.003178 0.001539
# 5 -0.000070 -0.000462 0.004099 -0.003178 0.036888 0.000905
# 6 -0.000136 -0.005989 0.005753 0.001539 0.000905 0.026656
#
#
# Mechanical properties :
#
#
# Convention : Reuss Voigt Hill
#
# Bulk Modulus (GPa) = 45.98871 61.04076 53.51474
# Shear Modulus (GPa) = 24.33164 30.32995 27.33079
#
# Velocity S-wave (km/s) = 3.44615 3.84755 3.65237
# Velocity P-wave (km/s) = 6.18716 7.03785 6.62617
#
# Compressibility (1/GPa) = 0.02174447
#
# Stress axis : x y z
#
# Youngs Moduli (GPa) = 82.52449 49.03618 55.28214
#
# Poissons Ratio (x) = 0.44427 0.21676
# Poissons Ratio (y) = 0.74768 0.07997
# Poissons Ratio (z) = 0.32357 0.07093
#
# Static dielectric constant tensor:
#      x y z
#    x 4.262310 0.353630 0.172590 
#    y 0.353630 3.694870 -0.057550 
#    z 0.172590 -0.057550 3.864910 
# 
# 
# High freq. dielectric constant tensor:
#      x y z
#    x 1.809620 0.020580 0.001810 
#    y 0.020580 1.794390 -0.008620 
#    z 0.001810 -0.008620 1.796240 
# 
# From -- ./inp_files/388972.got.cif
#   From: 2010.06.25/outbox.cif.g09.slc.cpg/sg2_195_cif.got.tgz:388972.got - 2010.06.27 13:26:56.
