data_PCOD8008897
_publ_section_title
;
Structure prediction by ZEFSAII (Michael W. Deem and Ramdas Pophale) SiO2 
 PCOD8008897
Probable space group: P -1
;
_chemical_formula_sum "Si O2"
_cell_formula_units_Z 16
_cell_length_a 8.907014
_cell_length_b 9.081614
_cell_length_c 14.745446
_cell_angle_alpha 90.934402
_cell_angle_beta 48.113409
_cell_angle_gamma 69.975319
_cell_volume 781.467200
_symmetry_space_group_name_H-M "P -1"
_symmetry_group_IT_number 2
_symmetry_cell_setting 'triclinic'
loop_
_space_group_symop_operation_xyz
x,y,z
-x,-y,-z
loop_
_atom_site_type_symbol
_atom_site_label
_atom_site_fract_x
_atom_site_fract_y
_atom_site_fract_z
Si Si1 0.513103 0.424907 0.092634
Si Si2 0.758409 0.277147 0.324076
Si Si3 0.943799 0.345696 0.616064
Si Si4 0.036289 0.092857 0.723888
Si Si5 0.996836 0.673464 0.093669
Si Si6 0.751839 0.473343 0.506183
Si Si7 0.905551 0.680714 0.937497
Si Si8 0.448804 0.849880 0.032771
O O1 0.286645 0.536355 0.238265
O O2 0.500000 0.500000 0.000000
O O3 0.740526 0.405452 0.048219
O O4 0.541183 0.238115 0.068485
O O5 0.791667 0.360465 0.401637
O O6 0.518866 0.397445 0.371771
O O7 0.972217 0.236823 0.171433
O O8 0.769150 0.099558 0.344026
O O9 0.061403 0.164262 0.616355
O O10 0.864580 0.345859 0.544227
O O11 0.122146 0.415546 0.554020
O O12 0.062930 0.202891 0.795618
O O13 0.791197 0.097640 0.821179
O O14 0.940926 0.521280 0.135377
O O15 0.864009 0.761303 0.056042
O O16 0.654403 0.717024 0.009098
O O17 0.500000 0.000000 0.000000
#
# Coordination Sequence:
#
# PCOD8008897 Si02
#       8
#     2   2   2   2   2   2   2   2
#     4  11  18  35  62  86 117 153 188 235 302 361
#     4  11  23  41  59  86 117 162 198 259 293 340
#     4  11  21  42  64  87 115 159 208 247 286 361
#     4  11  22  38  64  88 125 153 198 255 301 349
#     4  10  21  35  57  95 119 160 189 237 307 371
#     4  10  25  42  62  83 115 166 213 240 295 348
#     4  11  20  36  60  85 128 155 196 235 300 374
#     4  11  20  34  54  92 118 156 183 233 305 364
#
# _framework density 20.474309000000002
#
# number of rings (size 3 to 8) (size 9 to 14) (size 15 to 20)
#    0.000    1.250    5.000    2.250    0.000    2.500 
#    2.250    0.000    0.000    0.000    0.000    0.000 
#    0.000    0.000    0.000    0.000    0.000    0.000 
#
# Total GULP energy -198298.319272 kJ/mol
# GULP energy per Si atom -12393.644955 kJ/mol
# Density = 2.042771 g / cm^3
# Si number density = 20.474309 Si / 1000 Ang^3
#
#
#
# Elastic Constant Matrix: (Units=GPa)
#
#
# Indices 1 2 3 4 5 6 
#
# 1 98.9682 36.3658 25.2756 -7.6332 12.1077 -1.4787
# 2 36.3658 118.0728 13.7792 -11.9766 20.2605 -0.5466
# 3 25.2756 13.7792 44.2941 -13.6779 6.3071 -8.4410
# 4 -7.6332 -11.9766 -13.6779 26.8021 -4.2242 -2.9092
# 5 12.1077 20.2605 6.3071 -4.2242 25.9571 -4.0996
# 6 -1.4787 -0.5466 -8.4410 -2.9092 -4.0996 26.5173
#
#
#
# Elastic Compliance Matrix: (Units=1/GPa)
#
#
# Indices 1 2 3 4 5 6 
#
# 1 0.013195 -0.002951 -0.007251 -0.001944 -0.002765 -0.002274
# 2 -0.002951 0.010814 0.000043 0.002886 -0.006707 -0.000648
# 3 -0.007251 0.000043 0.034248 0.016716 -0.000312 0.012284
# 4 -0.001944 0.002886 0.016716 0.048469 0.004257 0.011248
# 5 -0.002765 -0.006707 -0.000312 0.004257 0.046978 0.007338
# 6 -0.002274 -0.000648 0.012284 0.011248 0.007338 0.043850
#
#
# Mechanical properties :
#
#
# Convention : Reuss Voigt Hill
#
# Bulk Modulus (GPa) = 26.35918 45.79736 36.07827
# Shear Modulus (GPa) = 21.69023 28.24961 24.96992
#
# Velocity S-wave (km/s) = 3.25835 3.71854 3.49603
# Velocity P-wave (km/s) = 5.20174 6.39167 5.82716
#
# Compressibility (1/GPa) = 0.03793745
#
# Stress axis : x y z
#
# Youngs Moduli (GPa) = 75.78711 92.47329 29.19868
#
# Poissons Ratio (x) = 0.27288 0.21173
# Poissons Ratio (y) = 0.22364 -0.00124
# Poissons Ratio (z) = 0.54956 -0.00393
#
# Static dielectric constant tensor:
#      x y z
#    x 7.187550 -2.909280 0.159110 
#    y -2.909280 6.563450 -0.327670 
#    z 0.159110 -0.327670 3.253550 
# 
# 
# High freq. dielectric constant tensor:
#      x y z
#    x 1.817810 0.003990 -0.005160 
#    y 0.003990 1.802680 -0.010690 
#    z -0.005160 -0.010690 1.774390 
# 
# From -- ./inp_files/177955.got.cif
#   From: 2010.06.25/outbox.cif.g09.slc.cpg/sg2_89_cif.got.tgz:177955.got - 2010.06.27 13:26:56.
