data_PCOD8008752
_publ_section_title
;
Structure prediction by ZEFSAII (Michael W. Deem and Ramdas Pophale) SiO2 
 PCOD8008752
Probable space group: P -1
;
_chemical_formula_sum "Si O2"
_cell_formula_units_Z 12
_cell_length_a 15.839334
_cell_length_b 5.332695
_cell_length_c 16.271696
_cell_angle_alpha 64.582622
_cell_angle_beta 23.587784
_cell_angle_gamma 58.496951
_cell_volume 463.918825
_symmetry_space_group_name_H-M "P -1"
_symmetry_group_IT_number 2
_symmetry_cell_setting 'triclinic'
loop_
_space_group_symop_operation_xyz
x,y,z
-x,-y,-z
loop_
_atom_site_type_symbol
_atom_site_label
_atom_site_fract_x
_atom_site_fract_y
_atom_site_fract_z
Si Si1 0.570834 0.177772 0.020883
Si Si2 0.236113 0.599908 0.744418
Si Si3 0.274638 0.412435 0.451464
Si Si4 0.965771 0.050869 0.284070
Si Si5 0.737618 0.098249 0.714783
Si Si6 0.345749 0.963833 0.716820
O O1 0.685021 0.987525 0.865049
O O2 0.500000 0.500000 0.000000
O O3 0.761785 0.090751 0.932957
O O4 0.360131 0.069080 0.244601
O O5 0.500000 0.500000 0.500000
O O6 0.084086 0.813501 0.780963
O O7 0.197745 0.776615 0.840638
O O8 0.180314 0.295289 0.846888
O O9 0.145297 0.694885 0.584826
O O10 0.349604 0.544210 0.281940
O O11 0.503371 0.201510 0.318625
O O12 0.121389 0.223152 0.591283
O O13 0.000000 0.000000 0.500000
O O14 0.500000 0.000000 0.500000
#
# Coordination Sequence:
#
# PCOD8008752 Si02
#       6
#     2   2   2   2   2   2
#     4  11  27  46  66  97 135 174 221 282 335 396
#     4  10  16  31  54  94 128 166 212 262 317 387
#     4  12  22  36  67 100 126 176 222 266 328 394
#     4  12  22  37  67  98 131 173 221 268 329 391
#     4  11  25  46  68  95 131 174 224 278 336 395
#     4  10  16  31  53  94 130 160 218 262 311 390
#
# _framework density 25.866595
#
# number of rings (size 3 to 8) (size 9 to 14) (size 15 to 20)
#    0.000    1.000    8.333    1.000    4.667    1.333 
#    0.000    0.000    0.000    2.000    0.000    0.000 
#    0.000    0.000    0.000    0.000    0.000    0.000 
#
# Total GULP energy -148708.436972 kJ/mol
# GULP energy per Si atom -12392.369748 kJ/mol
# Density = 2.580772 g / cm^3
# Si number density = 25.866595 Si / 1000 Ang^3
#
#
#
# Elastic Constant Matrix: (Units=GPa)
#
#
# Indices 1 2 3 4 5 6 
#
# 1 98.8366 49.3233 58.7902 -4.8784 -49.5451 -17.5554
# 2 49.3233 186.9098 58.6293 -17.4774 -49.5743 1.6630
# 3 58.7902 58.6293 99.1536 -19.4856 -54.6102 -6.3644
# 4 -4.8784 -17.4774 -19.4856 49.4662 0.5929 -14.0081
# 5 -49.5451 -49.5743 -54.6102 0.5929 55.4282 0.1383
# 6 -17.5554 1.6630 -6.3644 -14.0081 0.1383 72.4411
#
#
#
# Elastic Compliance Matrix: (Units=1/GPa)
#
#
# Indices 1 2 3 4 5 6 
#
# 1 0.020701 -0.000349 -0.002925 0.002036 0.015275 0.005132
# 2 -0.000349 0.007336 -0.000518 0.002325 0.005714 0.000140
# 3 -0.002925 -0.000518 0.028107 0.011421 0.024482 0.003934
# 4 0.002036 0.002325 0.011421 0.027464 0.014841 0.006726
# 5 0.015275 0.005714 0.024482 0.014841 0.060746 0.008475
# 6 0.005132 0.000140 0.003934 0.006726 0.008475 0.016675
#
#
# Mechanical properties :
#
#
# Convention : Reuss Voigt Hill
#
# Bulk Modulus (GPa) = 20.59324 79.82063 50.20693
# Shear Modulus (GPa) = 27.05615 50.01093 38.53354
#
# Velocity S-wave (km/s) = 3.23768 4.40183 3.86385
# Velocity P-wave (km/s) = 4.68566 7.53395 6.27359
#
# Compressibility (1/GPa) = 0.04855963
#
# Stress axis : x y z
#
# Youngs Moduli (GPa) = 48.30652 136.30552 35.57846
#
# Poissons Ratio (x) = 0.04758 0.10407
# Poissons Ratio (y) = 0.01686 0.01844
# Poissons Ratio (z) = 0.14130 0.07065
#
# Static dielectric constant tensor:
#      x y z
#    x 10.768280 4.349230 -2.126360 
#    y 4.349230 7.899240 -0.996380 
#    z -2.126360 -0.996380 4.969590 
# 
# 
# High freq. dielectric constant tensor:
#      x y z
#    x 2.047230 0.007450 -0.018190 
#    y 0.007450 2.055110 -0.003620 
#    z -0.018190 -0.003620 2.038750 
# 
# From -- ./inp_files/36930.got.cif
#   From: 2010.06.25/outbox.cif.g09.slc.cpg/sg2_19_cif.got.tgz:36930.got - 2010.06.27 13:26:56.
