data_PCOD8008639
_publ_section_title
;
Structure prediction by ZEFSAII (Michael W. Deem and Ramdas Pophale) SiO2 
 PCOD8008639
Probable space group: P -1
;
_chemical_formula_sum "Si O2"
_cell_formula_units_Z 10
_cell_length_a 10.944360
_cell_length_b 6.613040
_cell_length_c 10.101462
_cell_angle_alpha 116.386163
_cell_angle_beta 139.627209
_cell_angle_gamma 81.481494
_cell_volume 400.737193
_symmetry_space_group_name_H-M "P -1"
_symmetry_group_IT_number 2
_symmetry_cell_setting 'triclinic'
loop_
_space_group_symop_operation_xyz
x,y,z
-x,-y,-z
loop_
_atom_site_type_symbol
_atom_site_label
_atom_site_fract_x
_atom_site_fract_y
_atom_site_fract_z
Si Si1 0.333948 0.064896 0.012278
Si Si2 0.427941 0.060778 0.594295
Si Si3 0.014320 0.745338 0.485850
Si Si4 0.000528 0.307902 0.831338
Si Si5 0.615680 0.488435 0.222424
O O1 0.417300 0.968286 0.178647
O O2 0.524855 0.227572 0.135297
O O3 0.186662 0.211002 0.977461
O O4 0.222719 0.827706 0.763126
O O5 0.202035 0.909367 0.392325
O O6 0.500000 0.000000 0.500000
O O7 0.434936 0.332427 0.665096
O O8 0.000557 0.593441 0.293024
O O9 0.852977 0.585882 0.412523
O O10 0.000000 0.000000 0.500000
O O11 0.000000 0.500000 0.000000
O O12 0.500000 0.500000 0.000000
#
# Coordination Sequence:
#
# PCOD8008639 Si02
#       5
#     2   2   2   2   2
#     4  11  25  50  74 105 146 189 242 298 358 425
#     4  12  28  47  73 107 145 192 245 297 358 429
#     4  10  20  45  73 105 146 181 240 296 347 439
#     4  11  23  45  73 104 149 185 233 299 355 427
#     4  12  22  45  78 106 145 189 235 298 360 426
#
# _framework density 24.954008999999999
#
# number of rings (size 3 to 8) (size 9 to 14) (size 15 to 20)
#    0.000    0.800    8.000    1.200    0.000    7.200 
#    7.200    2.000    0.000    0.000    0.000    0.000 
#    0.000    0.000    0.000    0.000    0.000    0.000 
#
# Total GULP energy -123930.739949 kJ/mol
# GULP energy per Si atom -12393.073995 kJ/mol
# Density = 2.489721 g / cm^3
# Si number density = 24.954009 Si / 1000 Ang^3
#
#
#
# Elastic Constant Matrix: (Units=GPa)
#
#
# Indices 1 2 3 4 5 6 
#
# 1 185.8025 56.8069 80.2869 2.2347 2.0039 0.8536
# 2 56.8069 113.9713 66.5687 12.1566 4.5968 15.8987
# 3 80.2869 66.5687 176.2810 1.3964 -3.5879 3.3071
# 4 2.2347 12.1566 1.3964 45.1811 -4.0380 -3.7748
# 5 2.0039 4.5968 -3.5879 -4.0380 63.1437 -2.1555
# 6 0.8536 15.8987 3.3071 -3.7748 -2.1555 44.1010
#
#
#
# Elastic Compliance Matrix: (Units=1/GPa)
#
#
# Indices 1 2 3 4 5 6 
#
# 1 0.007115 -0.002315 -0.002389 0.000408 -0.000136 0.000904
# 2 -0.002315 0.013369 -0.003903 -0.003908 -0.001538 -0.004892
# 3 -0.002389 -0.003903 0.008227 0.001078 0.000930 0.000974
# 4 0.000408 -0.003908 0.001078 0.023593 0.001959 0.003435
# 5 -0.000136 -0.001538 0.000930 0.001959 0.016181 0.001446
# 6 0.000904 -0.004892 0.000974 0.003435 0.001446 0.024713
#
#
# Mechanical properties :
#
#
# Convention : Reuss Voigt Hill
#
# Bulk Modulus (GPa) = 86.98161 98.15331 92.56746
# Shear Modulus (GPa) = 43.76652 48.64462 46.20557
#
# Velocity S-wave (km/s) = 4.19249 4.41996 4.30772
# Velocity P-wave (km/s) = 7.63992 8.09117 7.86878
#
# Compressibility (1/GPa) = 0.01149668
#
# Stress axis : x y z
#
# Youngs Moduli (GPa) = 140.55661 74.80134 121.55456
#
# Poissons Ratio (x) = 0.17316 0.29041
# Poissons Ratio (y) = 0.32537 0.47439
# Poissons Ratio (z) = 0.33581 0.29193
#
# Static dielectric constant tensor:
#      x y z
#    x 3.862680 -0.540590 -0.685540 
#    y -0.540590 3.844460 0.126920 
#    z -0.685540 0.126920 4.802360 
# 
# 
# High freq. dielectric constant tensor:
#      x y z
#    x 2.024230 -0.011530 0.014890 
#    y -0.011530 2.007680 0.009870 
#    z 0.014890 0.009870 2.009350 
# 
# From -- ./inp_files/240777.got.cif
#   From: 2010.06.25/outbox.cif.g09.slc.cpg/sg2_121_cif.got.tgz:240777.got - 2010.06.27 13:26:56.
