data_PCOD8008782
_publ_section_title
;
Structure prediction by ZEFSAII (Michael W. Deem and Ramdas Pophale) SiO2 
 PCOD8008782
Probable space group: P -1
;
_chemical_formula_sum "Si O2"
_cell_formula_units_Z 12
_cell_length_a 11.375157
_cell_length_b 6.282706
_cell_length_c 17.231020
_cell_angle_alpha 106.790469
_cell_angle_beta 149.578580
_cell_angle_gamma 83.776042
_cell_volume 571.274079
_symmetry_space_group_name_H-M "P -1"
_symmetry_group_IT_number 2
_symmetry_cell_setting 'triclinic'
loop_
_space_group_symop_operation_xyz
x,y,z
-x,-y,-z
loop_
_atom_site_type_symbol
_atom_site_label
_atom_site_fract_x
_atom_site_fract_y
_atom_site_fract_z
Si Si1 0.259138 0.781540 0.843920
Si Si2 0.136536 0.103566 0.466682
Si Si3 0.654810 0.179260 0.936694
Si Si4 0.321649 0.685262 0.209365
Si Si5 0.121787 0.182442 0.024352
Si Si6 0.818966 0.700421 0.326442
O O1 0.288343 0.567327 0.786623
O O2 0.026403 0.857716 0.692789
O O3 0.212951 0.689286 0.896963
O O4 0.500000 0.000000 0.000000
O O5 0.413700 0.151010 0.600128
O O6 0.124173 0.284448 0.547640
O O7 0.053134 0.838365 0.423642
O O8 0.738255 0.312880 0.917558
O O9 0.369487 0.149555 0.781266
O O10 0.711519 0.929190 0.945944
O O11 0.110478 0.761155 0.143613
O O12 0.299471 0.417506 0.187548
O O13 0.000000 0.000000 0.000000
#
# Coordination Sequence:
#
# PCOD8008782 Si02
#       6
#     2   2   2   2   2   2
#     4  12  24  35  56  89 125 160 192 234 291 348
#     4  10  22  37  59  85 118 159 192 243 283 349
#     4  10  21  34  59  86 117 155 191 237 286 345
#     4   9  20  38  63  85 115 152 197 246 284 348
#     4   9  19  38  63  89 109 148 205 241 292 341
#     4  10  22  39  55  85 121 160 197 232 288 347
#
# _framework density 21.005680000000002
#
# number of rings (size 3 to 8) (size 9 to 14) (size 15 to 20)
#    0.000    2.000    1.667    1.000    4.667    5.333 
#    0.000    0.833    0.000   10.000    0.000    0.000 
#    0.000    0.000    0.000    0.000    0.000    0.000 
#
# Total GULP energy -148661.043957 kJ/mol
# GULP energy per Si atom -12388.420330 kJ/mol
# Density = 2.095787 g / cm^3
# Si number density = 21.005680 Si / 1000 Ang^3
#
#
#
# Elastic Constant Matrix: (Units=GPa)
#
#
# Indices 1 2 3 4 5 6 
#
# 1 26.9982 16.8321 26.6989 -1.1740 6.0892 0.4067
# 2 16.8321 93.5685 37.6113 18.9560 13.2671 -11.1154
# 3 26.6989 37.6113 125.8178 -2.2142 12.0265 4.1668
# 4 -1.1740 18.9560 -2.2142 39.6216 6.0420 -1.3941
# 5 6.0892 13.2671 12.0265 6.0420 47.9586 -5.6218
# 6 0.4067 -11.1154 4.1668 -1.3941 -5.6218 30.4474
#
#
#
# Elastic Compliance Matrix: (Units=1/GPa)
#
#
# Indices 1 2 3 4 5 6 
#
# 1 0.050200 -0.006427 -0.008253 0.004534 -0.003367 -0.002302
# 2 -0.006427 0.015604 -0.003527 -0.007499 -0.000999 0.005737
# 3 -0.008253 -0.003527 0.011014 0.002164 -0.001343 -0.002834
# 4 0.004534 -0.007499 0.002164 0.029462 -0.003026 -0.002304
# 5 -0.003367 -0.000999 -0.001343 -0.003026 0.022733 0.003923
# 6 -0.002302 0.005737 -0.002834 -0.002304 0.003923 0.035975
#
#
# Mechanical properties :
#
#
# Convention : Reuss Voigt Hill
#
# Bulk Modulus (GPa) = 24.75135 45.40766 35.07950
# Shear Modulus (GPa) = 23.26985 34.62166 28.94576
#
# Velocity S-wave (km/s) = 3.33196 4.06421 3.71616
# Velocity P-wave (km/s) = 5.15862 6.60966 5.92870
#
# Compressibility (1/GPa) = 0.04040184
#
# Stress axis : x y z
#
# Youngs Moduli (GPa) = 19.92047 64.08762 90.79331
#
# Poissons Ratio (x) = 0.41192 0.74934
# Poissons Ratio (y) = 0.12804 0.32023
# Poissons Ratio (z) = 0.16441 0.22604
#
# Static dielectric constant tensor:
#      x y z
#    x 3.976370 -0.307530 0.126920 
#    y -0.307530 4.067510 -0.204940 
#    z 0.126920 -0.204940 3.844070 
# 
# 
# High freq. dielectric constant tensor:
#      x y z
#    x 1.799350 0.002110 0.019230 
#    y 0.002110 1.826750 -0.006680 
#    z 0.019230 -0.006680 1.812620 
# 
# From -- ./inp_files/18973.got.cif
#   From: 2010.06.25/outbox.cif.g09.slc.cpg/sg2_10_cif.got.tgz:18973.got - 2010.06.27 13:26:56.
