data_PCOD8008238
_publ_section_title
;
Structure prediction by ZEFSAII (Michael W. Deem and Ramdas Pophale) SiO2 
 PCOD8008238
Probable space group: P -1
;
_chemical_formula_sum "Si O2"
_cell_formula_units_Z 16
_cell_length_a 18.194004
_cell_length_b 27.359089
_cell_length_c 14.531657
_cell_angle_alpha 158.652907
_cell_angle_beta 158.659852
_cell_angle_gamma 18.554728
_cell_volume 761.037473
_symmetry_space_group_name_H-M "P -1"
_symmetry_group_IT_number 2
_symmetry_cell_setting 'triclinic'
loop_
_space_group_symop_operation_xyz
x,y,z
-x,-y,-z
loop_
_atom_site_type_symbol
_atom_site_label
_atom_site_fract_x
_atom_site_fract_y
_atom_site_fract_z
Si Si1 0.531785 0.553290 0.230143
Si Si2 0.508088 0.077230 0.942084
Si Si3 0.990986 0.845191 0.192427
Si Si4 0.095571 0.067602 0.341902
Si Si5 0.353806 0.751710 0.734054
Si Si6 0.264156 0.719165 0.858597
Si Si7 0.708328 0.507397 0.867902
Si Si8 0.779144 0.714078 0.851898
O O1 0.724076 0.387009 0.226977
O O2 0.650830 0.653816 0.530970
O O3 0.259912 0.678809 0.181951
O O4 0.500000 0.500000 0.000000
O O5 0.301670 0.065400 0.635495
O O6 0.543365 0.189691 0.117429
O O7 0.427536 0.153946 0.084543
O O8 0.787890 0.899437 0.968533
O O9 0.891931 0.797598 0.078649
O O10 0.000000 0.000000 0.500000
O O11 0.873494 0.102313 0.210736
O O12 0.969904 0.210104 0.363163
O O13 0.244045 0.880755 0.149084
O O14 0.602434 0.622895 0.857787
O O15 0.252767 0.664724 0.409550
O O16 0.531700 0.597218 0.907015
O O17 0.986688 0.454768 0.119777
#
# Coordination Sequence:
#
# PCOD8008238 Si02
#       8
#     2   2   2   2   2   2   2   2
#     4  12  29  45  71  99 137 182 226 283 335 395
#     4  12  25  39  74 101 130 174 230 273 333 407
#     4  12  27  47  69  98 140 178 228 281 333 398
#     4  10  24  44  71  98 137 180 216 277 337 406
#     4  10  22  40  66 104 132 172 214 280 336 395
#     4  10  23  48  66  97 144 175 219 278 339 394
#     4  10  20  42  68  96 140 167 218 278 337 402
#     4  12  25  44  70 101 132 181 225 280 337 400
#
# _framework density 21.023931999999999
#
# number of rings (size 3 to 8) (size 9 to 14) (size 15 to 20)
#    0.000    1.000    3.750    1.875    5.250    2.000 
#    0.000    1.875    0.000    0.000    0.000    0.000 
#    0.000    0.000    0.000    0.000    0.000    0.000 
#
# Total GULP energy -198345.794826 kJ/mol
# GULP energy per Si atom -12396.612177 kJ/mol
# Density = 2.097608 g / cm^3
# Si number density = 21.023932 Si / 1000 Ang^3
#
#
#
# Elastic Constant Matrix: (Units=GPa)
#
#
# Indices 1 2 3 4 5 6 
#
# 1 98.2651 -9.9568 26.3019 -3.3457 -9.9838 51.6633
# 2 -9.9568 9.0201 -16.4188 -36.2105 -36.3472 117.6712
# 3 26.3019 -16.4188 86.0914 -25.8766 -24.4499 65.4383
# 4 -3.3457 -36.2105 -25.8766 29.5690 -6.0096 18.2625
# 5 -9.9838 -36.3472 -24.4499 -6.0096 29.0441 39.7423
# 6 51.6633 117.6712 65.4383 18.2625 39.7423 -82.9240
#
#
#
# Elastic Compliance Matrix: (Units=1/GPa)
#
#
# Indices 1 2 3 4 5 6 
#
# 1 0.011714 -0.002233 -0.004795 -0.004984 -0.001695 -0.001564
# 2 -0.002233 0.008282 -0.003206 0.002176 -0.002430 0.007146
# 3 -0.004795 -0.003206 0.011669 0.004073 0.000900 0.003000
# 4 -0.004984 0.002176 0.004073 0.033170 -0.001853 0.009615
# 5 -0.001695 -0.002430 0.000900 -0.001853 0.022304 0.006488
# 6 -0.001564 0.007146 0.003000 0.009615 0.006488 0.004701
#
#
# Mechanical properties :
#
#
# Convention : Reuss Voigt Hill
#
# Bulk Modulus (GPa) = 89.30716 21.46991 55.38853
# Shear Modulus (GPa) = 43.08826 8.03452 25.56139
#
# Velocity S-wave (km/s) = 4.53204 1.95701 3.49065
# Velocity P-wave (km/s) = 8.36402 3.91674 6.53061
#
# Compressibility (1/GPa) = 0.01119731
#
# Stress axis : x y z
#
# Youngs Moduli (GPa) = 85.36679 120.74116 85.69758
#
# Poissons Ratio (x) = 0.26956 0.41094
# Poissons Ratio (y) = 0.19059 0.27477
# Poissons Ratio (z) = 0.40935 0.38712
#
# Static dielectric constant tensor:
#      x y z
#    x 3.858970 0.141760 -0.130310 
#    y 0.141760 4.387630 -0.271710 
#    z -0.130310 -0.271710 3.805540 
# 
# 
# High freq. dielectric constant tensor:
#      x y z
#    x 1.826640 0.007160 -0.006110 
#    y 0.007160 1.846480 -0.011030 
#    z -0.006110 -0.011030 1.814180 
# 
# From -- ./inp_files/84276.got.cif
#   From: 2010.06.25/outbox.cif.g09.slc.cpg/sg2_43_cif.got.tgz:84276.got - 2010.06.27 13:26:56.
