data_PCOD8008508
_publ_section_title
;
Structure prediction by ZEFSAII (Michael W. Deem and Ramdas Pophale) SiO2 
 PCOD8008508
Probable space group: P -1
;
_chemical_formula_sum "Si O2"
_cell_formula_units_Z 16
_cell_length_a 10.839971
_cell_length_b 18.831833
_cell_length_c 7.812539
_cell_angle_alpha 44.362689
_cell_angle_beta 44.946660
_cell_angle_gamma 46.392549
_cell_volume 731.246392
_symmetry_space_group_name_H-M "P -1"
_symmetry_group_IT_number 2
_symmetry_cell_setting 'triclinic'
loop_
_space_group_symop_operation_xyz
x,y,z
-x,-y,-z
loop_
_atom_site_type_symbol
_atom_site_label
_atom_site_fract_x
_atom_site_fract_y
_atom_site_fract_z
Si Si1 0.009014 0.301847 0.958173
Si Si2 0.831326 0.576579 0.155452
Si Si3 0.789095 0.217193 0.945170
Si Si4 0.581100 0.050645 0.983460
Si Si5 0.308771 0.554552 0.199699
Si Si6 0.852561 0.120655 0.409201
Si Si7 0.446195 0.220726 0.085725
Si Si8 0.197768 0.171014 0.685196
O O1 0.094640 0.338052 0.974112
O O2 0.164388 0.245254 0.759266
O O3 0.853644 0.410205 0.843856
O O4 0.922836 0.212847 0.255237
O O5 0.746011 0.517258 0.479943
O O6 0.655997 0.652269 0.083258
O O7 0.000000 0.500000 0.000000
O O8 0.803231 0.137316 0.228432
O O9 0.668928 0.193382 0.950831
O O10 0.676458 0.341803 0.897013
O O11 0.005105 0.199468 0.713606
O O12 0.667811 0.132554 0.673914
O O13 0.424861 0.134079 0.117431
O O14 0.500000 0.000000 0.000000
O O15 0.730067 0.955501 0.113305
O O16 0.500000 0.500000 0.000000
O O17 0.000000 0.000000 0.500000
O O18 0.354537 0.198956 0.384949
#
# Coordination Sequence:
#
# PCOD8008508 Si02
#       8
#     2   2   2   2   2   2   2   2
#     4  10  23  44  75  96 135 185 231 284 357 430
#     4  12  27  46  69 103 140 188 238 296 359 414
#     4  10  24  45  67 101 143 179 232 291 352 422
#     4  12  24  42  69 100 138 187 236 279 352 426
#     4  10  24  43  71  99 132 185 238 295 352 408
#     4  10  20  43  72 101 133 185 229 283 348 423
#     4  12  28  41  69 105 141 180 237 298 342 426
#     4  10  22  47  65  98 143 183 227 287 360 414
#
# _framework density 21.880451000000001
#
# number of rings (size 3 to 8) (size 9 to 14) (size 15 to 20)
#    0.000    1.500    2.500    3.750    7.000    3.000 
#    0.000    0.000    0.000    0.000    0.000    0.000 
#    0.000    0.000    0.000    0.000    0.000    0.000 
#
# Total GULP energy -198332.167926 kJ/mol
# GULP energy per Si atom -12395.760495 kJ/mol
# Density = 2.183065 g / cm^3
# Si number density = 21.880451 Si / 1000 Ang^3
#
#
#
# Elastic Constant Matrix: (Units=GPa)
#
#
# Indices 1 2 3 4 5 6 
#
# 1 106.4355 44.3941 44.4103 -12.0847 -8.6317 -0.0854
# 2 44.3941 131.8621 37.7255 2.8668 2.1779 0.4122
# 3 44.4103 37.7255 125.5131 -0.8267 -1.0203 7.2123
# 4 -12.0847 2.8668 -0.8267 36.0840 -7.3948 4.1672
# 5 -8.6317 2.1779 -1.0203 -7.3948 19.9488 -5.1734
# 6 -0.0854 0.4122 7.2123 4.1672 -5.1734 33.4292
#
#
#
# Elastic Compliance Matrix: (Units=1/GPa)
#
#
# Indices 1 2 3 4 5 6 
#
# 1 0.014139 -0.003983 -0.003772 0.006683 0.009224 0.001494
# 2 -0.003983 0.009479 -0.001488 -0.002921 -0.003930 -0.000050
# 3 -0.003772 -0.001488 0.009858 -0.001055 -0.001950 -0.002288
# 4 0.006683 -0.002921 -0.001055 0.033443 0.015153 -0.001543
# 5 0.009224 -0.003930 -0.001950 0.015153 0.062200 0.008230
# 6 0.001494 -0.000050 -0.002288 -0.001543 0.008230 0.031878
#
#
# Mechanical properties :
#
#
# Convention : Reuss Voigt Hill
#
# Bulk Modulus (GPa) = 66.71680 68.54116 67.62898
# Shear Modulus (GPa) = 27.10311 33.71111 30.40711
#
# Velocity S-wave (km/s) = 3.52332 3.92943 3.73190
# Velocity P-wave (km/s) = 6.86363 7.20975 7.03882
#
# Compressibility (1/GPa) = 0.01498873
#
# Stress axis : x y z
#
# Youngs Moduli (GPa) = 70.72724 105.49636 101.44019
#
# Poissons Ratio (x) = 0.42021 0.38267
# Poissons Ratio (y) = 0.28172 0.15095
# Poissons Ratio (z) = 0.26681 0.15698
#
# Static dielectric constant tensor:
#      x y z
#    x 3.875650 -0.165980 0.039750 
#    y -0.165980 4.035670 -0.078950 
#    z 0.039750 -0.078950 4.105720 
# 
# 
# High freq. dielectric constant tensor:
#      x y z
#    x 1.851920 -0.009410 0.003530 
#    y -0.009410 1.871070 -0.004870 
#    z 0.003530 -0.004870 1.869040 
# 
# From -- ./inp_files/282679.got.cif
#   From: 2010.06.25/outbox.cif.g09.slc.cpg/sg2_142_cif.got.tgz:282679.got - 2010.06.27 13:26:56.
