data_PCOD8008795
_publ_section_title
;
Structure prediction by ZEFSAII (Michael W. Deem and Ramdas Pophale) SiO2 
 PCOD8008795
Probable space group: P -1
;
_chemical_formula_sum "Si O2"
_cell_formula_units_Z 16
_cell_length_a 18.936175
_cell_length_b 5.062208
_cell_length_c 9.544097
_cell_angle_alpha 80.694011
_cell_angle_beta 98.721175
_cell_angle_gamma 59.895494
_cell_volume 751.479036
_symmetry_space_group_name_H-M "P -1"
_symmetry_group_IT_number 2
_symmetry_cell_setting 'triclinic'
loop_
_space_group_symop_operation_xyz
x,y,z
-x,-y,-z
loop_
_atom_site_type_symbol
_atom_site_label
_atom_site_fract_x
_atom_site_fract_y
_atom_site_fract_z
Si Si1 0.441045 0.925493 0.309079
Si Si2 0.166389 0.410357 0.846877
Si Si3 0.935065 0.891732 0.132173
Si Si4 0.257927 0.177180 0.172849
Si Si5 0.453005 0.784948 0.649775
Si Si6 0.895881 0.180298 0.802802
Si Si7 0.266766 0.214715 0.608828
Si Si8 0.777865 0.143166 0.585227
O O1 0.431614 0.881908 0.473490
O O2 0.492653 0.588930 0.276551
O O3 0.347720 0.146743 0.195721
O O4 0.492622 0.088237 0.278184
O O5 0.089010 0.358965 0.806945
O O6 0.219249 0.338285 0.729339
O O7 0.130358 0.771476 0.845474
O O8 0.227517 0.172276 0.007294
O O9 0.030684 0.758887 0.223291
O O10 0.930668 0.919627 0.959382
O O11 0.188343 0.493622 0.205184
O O12 0.270753 0.875660 0.290446
O O13 0.363251 0.927710 0.688935
O O14 0.872226 0.044098 0.672902
O O15 0.272440 0.495027 0.514273
O O16 0.216299 0.098776 0.510100
#
# Coordination Sequence:
#
# PCOD8008795 Si02
#       8
#     2   2   2   2   2   2   2   2
#     4  10  21  34  60  93 116 152 208 260 292 354
#     4  11  25  44  62  91 128 170 200 250 314 378
#     4  10  23  40  66  93 126 158 212 254 309 360
#     4  11  23  40  68  94 122 159 214 258 302 361
#     4  10  21  36  57  90 123 156 197 256 308 354
#     4  10  22  39  68  97 120 159 210 268 300 351
#     4  12  25  42  63  89 133 167 199 248 323 371
#     4  12  22  39  66  94 116 165 212 253 297 366
#
# _framework density 21.291345
#
# number of rings (size 3 to 8) (size 9 to 14) (size 15 to 20)
#    0.000    1.250    3.750    1.500    7.000    1.500 
#    0.000    5.000    0.000    0.000    0.000    0.000 
#    0.000    0.000    0.000    0.000    0.000    0.000 
#
# Total GULP energy -198442.417813 kJ/mol
# GULP energy per Si atom -12402.651113 kJ/mol
# Density = 2.124288 g / cm^3
# Si number density = 21.291345 Si / 1000 Ang^3
#
#
#
# Elastic Constant Matrix: (Units=GPa)
#
#
# Indices 1 2 3 4 5 6 
#
# 1 122.5063 22.1450 41.1614 2.8971 27.7968 0.3569
# 2 22.1450 68.7498 31.6688 4.8218 9.0225 8.2355
# 3 41.1614 31.6688 73.9528 8.1455 12.5566 -4.7831
# 4 2.8971 4.8218 8.1455 20.8516 2.5986 -0.2078
# 5 27.7968 9.0225 12.5566 2.5986 29.2412 -2.3610
# 6 0.3569 8.2355 -4.7831 -0.2078 -2.3610 43.3139
#
#
#
# Elastic Compliance Matrix: (Units=1/GPa)
#
#
# Indices 1 2 3 4 5 6 
#
# 1 0.012069 -0.000193 -0.005293 0.001592 -0.009375 -0.001151
# 2 -0.000193 0.019206 -0.007851 -0.001063 -0.002653 -0.004667
# 3 -0.005293 -0.007851 0.020790 -0.005448 -0.000685 0.003769
# 4 0.001592 -0.001063 -0.005448 0.050527 -0.003365 -0.000353
# 5 -0.009375 -0.002653 -0.000685 -0.003365 0.044759 0.002930
# 6 -0.001151 -0.004667 0.003769 -0.000353 0.002930 0.024558
#
#
# Mechanical properties :
#
#
# Convention : Reuss Voigt Hill
#
# Bulk Modulus (GPa) = 39.38394 50.57327 44.97860
# Shear Modulus (GPa) = 24.14908 30.03026 27.08967
#
# Velocity S-wave (km/s) = 3.37147 3.75966 3.57085
# Velocity P-wave (km/s) = 5.80461 6.53080 6.17838
#
# Compressibility (1/GPa) = 0.02539106
#
# Stress axis : x y z
#
# Youngs Moduli (GPa) = 82.85727 52.06648 48.09898
#
# Poissons Ratio (x) = 0.01005 0.25458
# Poissons Ratio (y) = 0.01599 0.37765
# Poissons Ratio (z) = 0.43855 0.40880
#
# Static dielectric constant tensor:
#      x y z
#    x 4.031360 0.120440 0.250380 
#    y 0.120440 3.755560 -0.052990 
#    z 0.250380 -0.052990 3.667960 
# 
# 
# High freq. dielectric constant tensor:
#      x y z
#    x 1.849400 0.009480 0.020520 
#    y 0.009480 1.834550 -0.004090 
#    z 0.020520 -0.004090 1.800000 
# 
# From -- ./inp_files/323565.got.cif
#   From: 2010.06.25/outbox.cif.g09.slc.cpg/sg2_162_cif.got.tgz:323565.got - 2010.06.27 13:26:56.
