data_PCOD8008166
_publ_section_title
;
Structure prediction by ZEFSAII (Michael W. Deem and Ramdas Pophale) SiO2 
 PCOD8008166
Probable space group: P -1
;
_chemical_formula_sum "Si O2"
_cell_formula_units_Z 14
_cell_length_a 15.289822
_cell_length_b 24.587859
_cell_length_c 14.870907
_cell_angle_alpha 20.312071
_cell_angle_beta 149.048150
_cell_angle_gamma 159.541408
_cell_volume 668.031638
_symmetry_space_group_name_H-M "P -1"
_symmetry_group_IT_number 2
_symmetry_cell_setting 'triclinic'
loop_
_space_group_symop_operation_xyz
x,y,z
-x,-y,-z
loop_
_atom_site_type_symbol
_atom_site_label
_atom_site_fract_x
_atom_site_fract_y
_atom_site_fract_z
Si Si1 0.363112 0.310965 0.747869
Si Si2 0.078026 0.474306 0.803356
Si Si3 0.477618 0.799867 0.797714
Si Si4 0.300994 0.503042 0.557105
Si Si5 0.474306 0.297568 0.284240
Si Si6 0.150955 0.116339 0.119906
Si Si7 0.236835 0.047174 0.645388
O O1 0.500000 0.500000 0.500000
O O2 0.272871 0.375672 0.641940
O O3 0.536976 0.289421 0.977183
O O4 0.144485 0.074726 0.865021
O O5 0.242898 0.569572 0.891498
O O6 0.266586 0.596547 0.694032
O O7 0.931714 0.536902 0.581671
O O8 0.866993 0.194692 0.047670
O O9 0.744350 0.924923 0.801017
O O10 0.500000 0.000000 0.500000
O O11 0.578398 0.774775 0.385719
O O12 0.275956 0.374923 0.821498
O O13 0.228907 0.098106 0.313247
O O14 0.411071 0.166050 0.525080
O O15 0.500000 0.500000 0.000000
O O16 0.000000 0.000000 0.500000
#
# Coordination Sequence:
#
# PCOD8008166 Si02
#       7
#     2   2   2   2   2   2   2
#     4  11  24  39  64  98 128 167 218 273 326 389
#     4  11  24  41  66  94 133 167 218 275 320 389
#     4  10  20  42  67  88 124 175 214 261 332 384
#     4  11  23  44  62  94 130 173 212 268 333 379
#     4  11  22  42  65  96 121 179 216 260 331 387
#     4  10  21  40  65  86 127 166 215 261 321 397
#     4  12  23  41  68  93 133 170 219 267 323 392
#
# _framework density 20.957091999999999
#
# number of rings (size 3 to 8) (size 9 to 14) (size 15 to 20)
#    0.000    1.143    2.857    5.571    4.000    0.571 
#    7.714    1.429    0.000    0.000    0.000    0.000 
#    0.000    0.000    0.000    0.000    0.000    0.000 
#
# Total GULP energy -173533.705058 kJ/mol
# GULP energy per Si atom -12395.264647 kJ/mol
# Density = 2.090939 g / cm^3
# Si number density = 20.957092 Si / 1000 Ang^3
#
#
#
# Elastic Constant Matrix: (Units=GPa)
#
#
# Indices 1 2 3 4 5 6 
#
# 1 76.1749 28.0878 43.3286 5.7443 -3.2726 9.7969
# 2 28.0878 112.9236 29.5151 -10.7788 3.3084 2.3971
# 3 43.3286 29.5151 122.4125 2.9330 4.6914 8.5335
# 4 5.7443 -10.7788 2.9330 41.7877 2.1988 9.0167
# 5 -3.2726 3.3084 4.6914 2.1988 34.5189 4.5616
# 6 9.7969 2.3971 8.5335 9.0167 4.5616 30.0459
#
#
#
# Elastic Compliance Matrix: (Units=1/GPa)
#
#
# Indices 1 2 3 4 5 6 
#
# 1 0.018318 -0.003365 -0.005472 -0.002326 0.003477 -0.003980
# 2 -0.003365 0.010403 -0.001336 0.003343 -0.001327 -0.000155
# 3 -0.005472 -0.001336 0.010553 -0.000064 -0.001712 -0.000827
# 4 -0.002326 0.003343 -0.000064 0.026765 -0.001269 -0.007330
# 5 0.003477 -0.001327 -0.001712 -0.001269 0.030370 -0.004772
# 6 -0.003980 -0.000155 -0.000827 -0.007330 -0.004772 0.037751
#
#
# Mechanical properties :
#
#
# Convention : Reuss Voigt Hill
#
# Bulk Modulus (GPa) = 52.83387 57.04156 54.93772
# Shear Modulus (GPa) = 31.09127 35.30912 33.20019
#
# Velocity S-wave (km/s) = 3.85589 4.10912 3.98452
# Velocity P-wave (km/s) = 6.71484 7.05624 6.88765
#
# Compressibility (1/GPa) = 0.01892725
#
# Stress axis : x y z
#
# Youngs Moduli (GPa) = 54.59114 96.12651 94.76071
#
# Poissons Ratio (x) = 0.32350 0.51857
# Poissons Ratio (y) = 0.18372 0.12655
# Poissons Ratio (z) = 0.29874 0.12838
#
# Static dielectric constant tensor:
#      x y z
#    x 4.052720 -0.057600 -0.286910 
#    y -0.057600 -1.583660 0.255820 
#    z -0.286910 0.255820 4.162670 
# 
# 
# High freq. dielectric constant tensor:
#      x y z
#    x 1.805900 -0.011740 0.005540 
#    y -0.011740 1.837310 -0.002610 
#    z 0.005540 -0.002610 1.821080 
# 
# From -- ./inp_files/256661.got.cif
#   From: 2010.06.25/outbox.cif.g09.slc.cpg/sg2_129_cif.got.tgz:256661.got - 2010.06.27 13:26:56.
