data_PCOD8008595
_publ_section_title
;
Structure prediction by ZEFSAII (Michael W. Deem and Ramdas Pophale) SiO2 
 PCOD8008595
Probable space group: P -1
;
_chemical_formula_sum "Si O2"
_cell_formula_units_Z 16
_cell_length_a 10.367986
_cell_length_b 8.521109
_cell_length_c 25.870053
_cell_angle_alpha 148.962364
_cell_angle_beta 42.108159
_cell_angle_gamma 122.453761
_cell_volume 757.051095
_symmetry_space_group_name_H-M "P -1"
_symmetry_group_IT_number 2
_symmetry_cell_setting 'triclinic'
loop_
_space_group_symop_operation_xyz
x,y,z
-x,-y,-z
loop_
_atom_site_type_symbol
_atom_site_label
_atom_site_fract_x
_atom_site_fract_y
_atom_site_fract_z
Si Si1 0.366423 0.211053 0.740566
Si Si2 0.181345 0.828032 0.756273
Si Si3 0.982575 0.774676 0.988652
Si Si4 0.025991 0.877478 0.515837
Si Si5 0.880170 0.741073 0.742443
Si Si6 0.382137 0.124929 0.518994
Si Si7 0.349525 0.607978 0.221084
Si Si8 0.361862 0.561563 0.008983
O O1 0.536398 0.368401 0.752625
O O2 0.173835 0.468577 0.847193
O O3 0.324910 0.038679 0.756263
O O4 0.458972 0.954371 0.596928
O O5 0.301614 0.502585 0.655579
O O6 0.086718 0.762039 0.711842
O O7 0.021496 0.031610 0.902314
O O8 0.779357 0.671051 0.014435
O O9 0.000000 0.000000 0.000000
O O10 0.072998 0.497207 0.388413
O O11 0.201595 0.967161 0.520111
O O12 0.000000 0.000000 0.500000
O O13 0.810002 0.059444 0.656953
O O14 0.768078 0.642336 0.797335
O O15 0.767142 0.076257 0.846757
O O16 0.500000 0.000000 0.500000
O O17 0.504062 0.477705 0.092942
O O18 0.500000 0.500000 0.000000
#
# Coordination Sequence:
#
# PCOD8008595 Si02
#       8
#     2   2   2   2   2   2   2   2
#     4  12  23  45  72  97 136 182 236 280 340 415
#     4  12  23  45  72  97 136 182 236 280 340 415
#     4  12  28  45  64 100 145 175 223 298 347 397
#     4  10  20  44  70 100 133 172 227 277 330 419
#     4  11  22  44  75  96 131 183 229 280 337 412
#     4  12  25  42  70 108 140 177 230 285 354 403
#     4  11  22  44  75  96 131 183 229 280 337 412
#     4  12  28  44  64 104 137 178 235 282 348 408
#
# _framework density 21.134636
#
# number of rings (size 3 to 8) (size 9 to 14) (size 15 to 20)
#    0.000    0.500    7.500    2.625    3.500    2.000 
#    0.000    0.625    0.000    0.000    0.000    0.000 
#    0.000    0.000    0.000    0.000    0.000    0.000 
#
# Total GULP energy -198401.205195 kJ/mol
# GULP energy per Si atom -12400.075325 kJ/mol
# Density = 2.108653 g / cm^3
# Si number density = 21.134636 Si / 1000 Ang^3
#
#
#
# Elastic Constant Matrix: (Units=GPa)
#
#
# Indices 1 2 3 4 5 6 
#
# 1 130.1609 18.6981 18.7353 12.0310 -12.5575 1.1310
# 2 18.6981 63.1751 28.7448 13.6051 -6.7338 -4.3428
# 3 18.7353 28.7448 80.6364 17.9717 -13.1164 0.7235
# 4 12.0310 13.6051 17.9717 35.1994 -3.0231 -4.8068
# 5 -12.5575 -6.7338 -13.1164 -3.0231 34.6272 1.2331
# 6 1.1310 -4.3428 0.7235 -4.8068 1.2331 28.7164
#
#
#
# Elastic Compliance Matrix: (Units=1/GPa)
#
#
# Indices 1 2 3 4 5 6 
#
# 1 0.008412 -0.001646 -0.000549 -0.001888 0.002393 -0.000985
# 2 -0.001646 0.020034 -0.005827 -0.003796 0.000668 0.002577
# 3 -0.000549 -0.005827 0.016717 -0.006043 0.004561 -0.002488
# 4 -0.001888 -0.003796 -0.006043 0.034271 -0.000913 0.005428
# 5 0.002393 0.000668 0.004561 -0.000913 0.031582 -0.001617
# 6 -0.000985 0.002577 -0.002488 0.005428 -0.001617 0.036293
#
#
# Mechanical properties :
#
#
# Convention : Reuss Voigt Hill
#
# Bulk Modulus (GPa) = 34.34264 45.14763 39.74513
# Shear Modulus (GPa) = 28.89179 33.56154 31.22666
#
# Velocity S-wave (km/s) = 3.70135 3.98928 3.84801
# Velocity P-wave (km/s) = 5.87805 6.52897 6.21204
#
# Compressibility (1/GPa) = 0.02911832
#
# Stress axis : x y z
#
# Youngs Moduli (GPa) = 118.87511 49.91613 59.81813
#
# Poissons Ratio (x) = 0.08217 0.03283
# Poissons Ratio (y) = 0.19569 0.34858
# Poissons Ratio (z) = 0.06525 0.29088
#
# Static dielectric constant tensor:
#      x y z
#    x 3.979350 -0.077560 -0.238020 
#    y -0.077560 4.090420 0.269420 
#    z -0.238020 0.269420 4.578680 
# 
# 
# High freq. dielectric constant tensor:
#      x y z
#    x 1.832830 0.014520 -0.006250 
#    y 0.014520 1.818390 0.005330 
#    z -0.006250 0.005330 1.847270 
# 
# From -- ./inp_files/606920.got.cif
#   From: 2010.06.25/outbox.cif.g09.slc.cpg/sg2_304_cif.got.tgz:606920.got - 2010.06.27 13:26:56.
