data_PCOD8008374
_publ_section_title
;
Structure prediction by ZEFSAII (Michael W. Deem and Ramdas Pophale) SiO2 
 PCOD8008374
Probable space group: P -1
;
_chemical_formula_sum "Si O2"
_cell_formula_units_Z 12
_cell_length_a 13.051778
_cell_length_b 8.610920
_cell_length_c 19.598275
_cell_angle_alpha 124.170922
_cell_angle_beta 161.398099
_cell_angle_gamma 58.815890
_cell_volume 580.434777
_symmetry_space_group_name_H-M "P -1"
_symmetry_group_IT_number 2
_symmetry_cell_setting 'triclinic'
loop_
_space_group_symop_operation_xyz
x,y,z
-x,-y,-z
loop_
_atom_site_type_symbol
_atom_site_label
_atom_site_fract_x
_atom_site_fract_y
_atom_site_fract_z
Si Si1 0.647243 0.416336 0.769984
Si Si2 0.407185 0.552723 0.029774
Si Si3 0.672396 0.643442 0.591894
Si Si4 0.308729 0.635653 0.721140
Si Si5 0.659136 0.016487 0.753160
Si Si6 0.856679 0.898084 0.449814
O O1 0.458090 0.387709 0.573599
O O2 0.489019 0.578589 0.752554
O O3 0.640469 0.222369 0.759724
O O4 0.000000 0.500000 0.000000
O O5 0.458344 0.374985 0.068462
O O6 0.639568 0.720539 0.244243
O O7 0.500000 0.500000 0.000000
O O8 0.047380 0.612596 0.822036
O O9 0.500000 0.500000 0.500000
O O10 0.611823 0.857357 0.626633
O O11 0.000000 0.500000 0.500000
O O12 0.172062 0.842368 0.678091
O O13 0.368977 0.977779 0.614980
O O14 0.000000 0.000000 0.000000
O O15 0.000000 0.000000 0.500000
#
# Coordination Sequence:
#
# PCOD8008374 Si02
#       6
#     2   2   2   2   2   2
#     4  12  25  44  73  97 135 183 228 287 343 407
#     4  11  23  43  69  97 134 175 229 280 335 410
#     4  12  26  43  69 102 136 183 230 281 346 407
#     4  10  20  43  65  93 130 174 222 268 340 393
#     4  12  24  46  66 100 144 175 232 287 336 411
#     4  11  25  43  69 100 136 182 221 281 343 406
#
# _framework density 20.674156
#
# number of rings (size 3 to 8) (size 9 to 14) (size 15 to 20)
#    0.000    0.667    5.000    4.500    7.000    0.000 
#    0.000    0.833    0.000    0.000    0.000    0.000 
#    0.000    0.000    0.000    0.000    0.000    0.000 
#
# Total GULP energy -148783.749425 kJ/mol
# GULP energy per Si atom -12398.645785 kJ/mol
# Density = 2.062710 g / cm^3
# Si number density = 20.674156 Si / 1000 Ang^3
#
#
#
# Elastic Constant Matrix: (Units=GPa)
#
#
# Indices 1 2 3 4 5 6 
#
# 1 170.3973 44.8443 68.7260 -25.9309 4.3504 -10.1207
# 2 44.8443 74.8000 46.5446 -28.0898 5.4443 -1.0915
# 3 68.7260 46.5446 120.2215 -29.0084 -1.0839 -2.2796
# 4 -25.9309 -28.0898 -29.0084 37.9845 0.5617 0.9035
# 5 4.3504 5.4443 -1.0839 0.5617 53.2058 -3.6654
# 6 -10.1207 -1.0915 -2.2796 0.9035 -3.6654 47.5016
#
#
#
# Elastic Compliance Matrix: (Units=1/GPa)
#
#
# Indices 1 2 3 4 5 6 
#
# 1 0.008136 -0.002193 -0.003477 0.001249 -0.000424 0.001460
# 2 -0.002193 0.021904 -0.004535 0.011285 -0.002313 -0.000575
# 3 -0.003477 -0.004535 0.013095 0.004264 0.000955 -0.000224
# 4 0.001249 0.011285 0.004264 0.038808 -0.001589 -0.000131
# 5 -0.000424 -0.002313 0.000955 -0.001589 0.019200 0.001414
# 6 0.001460 -0.000575 -0.000224 -0.000131 0.001414 0.021451
#
#
# Mechanical properties :
#
#
# Convention : Reuss Voigt Hill
#
# Bulk Modulus (GPa) = 44.00615 76.18318 60.09466
# Shear Modulus (GPa) = 33.20574 41.42532 37.31553
#
# Velocity S-wave (km/s) = 4.01202 4.48115 4.25306
# Velocity P-wave (km/s) = 6.54168 7.98147 7.29717
#
# Compressibility (1/GPa) = 0.02272410
#
# Stress axis : x y z
#
# Youngs Moduli (GPa) = 122.91747 45.65419 76.36780
#
# Poissons Ratio (x) = 0.10012 0.26550
# Poissons Ratio (y) = 0.26956 0.34635
# Poissons Ratio (z) = 0.42733 0.20705
#
# Static dielectric constant tensor:
#      x y z
#    x 4.088530 0.079810 -0.142710 
#    y 0.079810 3.848630 -0.444350 
#    z -0.142710 -0.444350 4.222040 
# 
# 
# High freq. dielectric constant tensor:
#      x y z
#    x 1.831840 -0.001580 0.004920 
#    y -0.001580 1.804950 -0.022940 
#    z 0.004920 -0.022940 1.820030 
# 
# From -- ./inp_files/146687.got.cif
#   From: 2010.06.25/outbox.cif.g09.slc.cpg/sg2_74_cif.got.tgz:146687.got - 2010.06.27 13:26:56.
