data_PCOD8008365
_publ_section_title
;
Structure prediction by ZEFSAII (Michael W. Deem and Ramdas Pophale) SiO2 
 PCOD8008365
Probable space group: P -1
;
_chemical_formula_sum "Si O2"
_cell_formula_units_Z 16
_cell_length_a 10.344867
_cell_length_b 13.603514
_cell_length_c 11.699881
_cell_angle_alpha 31.487954
_cell_angle_beta 85.949510
_cell_angle_gamma 72.102628
_cell_volume 755.247080
_symmetry_space_group_name_H-M "P -1"
_symmetry_group_IT_number 2
_symmetry_cell_setting 'triclinic'
loop_
_space_group_symop_operation_xyz
x,y,z
-x,-y,-z
loop_
_atom_site_type_symbol
_atom_site_label
_atom_site_fract_x
_atom_site_fract_y
_atom_site_fract_z
Si Si1 0.060570 0.770793 0.824417
Si Si2 0.246411 0.371044 0.355469
Si Si3 0.715724 0.410601 0.460955
Si Si4 0.827446 0.645041 0.369943
Si Si5 0.822827 0.209955 0.426311
Si Si6 0.166600 0.934800 0.022693
Si Si7 0.258492 0.922670 0.774239
Si Si8 0.497096 0.519727 0.780504
O O1 0.093518 0.709159 0.749029
O O2 0.150631 0.903810 0.707896
O O3 0.110400 0.562009 0.106642
O O4 0.890437 0.949587 0.678877
O O5 0.223037 0.407307 0.455260
O O6 0.397315 0.374213 0.316267
O O7 0.259223 0.146164 0.538916
O O8 0.744300 0.602821 0.311583
O O9 0.840107 0.279686 0.485489
O O10 0.554226 0.488647 0.339153
O O11 0.727009 0.271651 0.708105
O O12 0.000000 0.500000 0.500000
O O13 0.787764 0.888694 0.117958
O O14 0.648493 0.330784 0.284201
O O15 0.197005 0.888193 0.933309
O O16 0.000000 0.000000 0.000000
O O17 0.422470 0.726508 0.938573
#
# Coordination Sequence:
#
# PCOD8008365 Si02
#       8
#     2   2   2   2   2   2   2   2
#     4  10  20  43  65  86 119 159 201 258 300 351
#     4  10  23  39  61  91 123 160 203 244 301 358
#     4  10  21  39  58  85 124 157 193 248 297 356
#     4  11  23  34  59  92 119 154 202 242 295 360
#     4   9  22  40  64  89 119 158 204 248 308 353
#     4  11  21  35  58  89 118 156 196 245 301 351
#     4  10  22  39  62  89 123 155 209 246 294 362
#     4   9  22  40  60  87 126 162 197 245 307 355
#
# _framework density 21.185120000000001
#
# number of rings (size 3 to 8) (size 9 to 14) (size 15 to 20)
#    0.750    1.250    1.250    2.250    3.500    5.000 
#    0.000   10.000    0.000    0.000    0.000    0.000 
#    0.000    0.000    0.000    0.000    0.000    0.000 
#
# Total GULP energy -198280.261105 kJ/mol
# GULP energy per Si atom -12392.516319 kJ/mol
# Density = 2.113690 g / cm^3
# Si number density = 21.185120 Si / 1000 Ang^3
#
#
#
# Elastic Constant Matrix: (Units=GPa)
#
#
# Indices 1 2 3 4 5 6 
#
# 1 49.2049 21.5418 32.9950 -18.3025 5.1529 -10.8578
# 2 21.5418 72.5737 43.6109 -8.6320 -4.9766 -13.1819
# 3 32.9950 43.6109 112.0726 -17.3574 -3.3776 -0.3222
# 4 -18.3025 -8.6320 -17.3574 27.9226 -5.2702 6.5039
# 5 5.1529 -4.9766 -3.3776 -5.2702 30.6295 -7.8494
# 6 -10.8578 -13.1819 -0.3222 6.5039 -7.8494 34.6166
#
#
#
# Elastic Compliance Matrix: (Units=1/GPa)
#
#
# Indices 1 2 3 4 5 6 
#
# 1 0.033041 -0.003561 -0.006095 0.014953 -0.002827 0.005501
# 2 -0.003561 0.020733 -0.007034 -0.001228 0.005054 0.008089
# 3 -0.006095 -0.007034 0.014068 0.003896 0.000822 -0.005005
# 4 0.014953 -0.001228 0.003896 0.049547 0.005251 -0.003860
# 5 -0.002827 0.005054 0.000822 0.005251 0.037111 0.008474
# 6 0.005501 0.008089 -0.005005 -0.003860 0.008474 0.036294
#
#
# Mechanical properties :
#
#
# Convention : Reuss Voigt Hill
#
# Bulk Modulus (GPa) = 29.01768 47.79407 38.40588
# Shear Modulus (GPa) = 21.21687 27.68065 24.44876
#
# Velocity S-wave (km/s) = 3.16808 3.61862 3.40082
# Velocity P-wave (km/s) = 5.20665 6.32996 5.79559
#
# Compressibility (1/GPa) = 0.03446174
#
# Stress axis : x y z
#
# Youngs Moduli (GPa) = 30.26506 48.23299 71.08200
#
# Poissons Ratio (x) = 0.17175 0.43328
# Poissons Ratio (y) = 0.10777 0.49999
# Poissons Ratio (z) = 0.18448 0.33927
#
# Static dielectric constant tensor:
#      x y z
#    x 3.720880 0.194970 0.204880 
#    y 0.194970 4.335170 0.018640 
#    z 0.204880 0.018640 3.908530 
# 
# 
# High freq. dielectric constant tensor:
#      x y z
#    x 1.811390 -0.000430 0.014250 
#    y -0.000430 1.838450 -0.000380 
#    z 0.014250 -0.000380 1.830870 
# 
# From -- ./inp_files/430752.got.cif
#   From: 2010.06.25/outbox.cif.g09.slc.cpg/sg2_216_cif.got.tgz:430752.got - 2010.06.27 13:26:56.
