data_PCOD8008567
_publ_section_title
;
Structure prediction by ZEFSAII (Michael W. Deem and Ramdas Pophale) SiO2 
 PCOD8008567
Probable space group: P -1
;
_chemical_formula_sum "Si O2"
_cell_formula_units_Z 14
_cell_length_a 6.438537
_cell_length_b 17.741342
_cell_length_c 8.082172
_cell_angle_alpha 52.317145
_cell_angle_beta 62.211647
_cell_angle_gamma 60.732434
_cell_volume 618.358016
_symmetry_space_group_name_H-M "P -1"
_symmetry_group_IT_number 2
_symmetry_cell_setting 'triclinic'
loop_
_space_group_symop_operation_xyz
x,y,z
-x,-y,-z
loop_
_atom_site_type_symbol
_atom_site_label
_atom_site_fract_x
_atom_site_fract_y
_atom_site_fract_z
Si Si1 0.673141 0.118244 0.005239
Si Si2 0.365194 0.708894 0.974091
Si Si3 0.105242 0.768434 0.670749
Si Si4 0.176761 0.097705 0.670560
Si Si5 0.585110 0.788658 0.326086
Si Si6 0.904118 0.608657 0.819968
Si Si7 0.021223 0.606448 0.404221
O O1 0.566727 0.214589 0.029147
O O2 0.671157 0.018492 0.238612
O O3 0.492518 0.128468 0.901080
O O4 0.948183 0.113161 0.858076
O O5 0.161724 0.776960 0.832305
O O6 0.608205 0.646789 0.869185
O O7 0.267288 0.626583 0.216078
O O8 0.355088 0.748658 0.501927
O O9 0.905430 0.865306 0.535845
O O10 0.005656 0.674100 0.820623
O O11 0.339828 0.163122 0.600239
O O12 0.794387 0.695183 0.301880
O O13 0.021085 0.613647 0.591849
O O14 0.000000 0.500000 0.000000
O O15 0.000000 0.500000 0.500000
#
# Coordination Sequence:
#
# PCOD8008567 Si02
#       7
#     2   2   2   2   2   2   2
#     4  10  23  38  71 105 136 186 232 282 343 409
#     4  12  26  46  71 104 142 182 229 284 345 411
#     4  11  23  44  70  95 144 182 221 291 336 409
#     4  10  20  44  68 102 141 183 232 282 345 405
#     4  11  21  45  69  99 144 177 230 289 340 408
#     4  12  28  48  70 102 140 183 233 286 346 410
#     4  12  26  45  72 104 135 182 233 282 349 411
#
# _framework density 22.640606999999999
#
# number of rings (size 3 to 8) (size 9 to 14) (size 15 to 20)
#    0.000    0.857    4.286    2.143    6.000    2.286 
#    0.000    2.857    0.000    0.000    0.000    0.000 
#    0.000    0.000    0.000    0.000    0.000    0.000 
#
# Total GULP energy -173633.664590 kJ/mol
# GULP energy per Si atom -12402.404614 kJ/mol
# Density = 2.258908 g / cm^3
# Si number density = 22.640607 Si / 1000 Ang^3
#
#
#
# Elastic Constant Matrix: (Units=GPa)
#
#
# Indices 1 2 3 4 5 6 
#
# 1 115.0998 28.6581 46.0964 -10.0581 13.8943 -2.4100
# 2 28.6581 83.4199 37.3481 -24.6382 -1.6733 2.6430
# 3 46.0964 37.3481 123.4504 -18.0904 11.7619 -6.8095
# 4 -10.0581 -24.6382 -18.0904 42.4271 3.4077 5.4467
# 5 13.8943 -1.6733 11.7619 3.4077 44.6195 -4.2891
# 6 -2.4100 2.6430 -6.8095 5.4467 -4.2891 28.5021
#
#
#
# Elastic Compliance Matrix: (Units=1/GPa)
#
#
# Indices 1 2 3 4 5 6 
#
# 1 0.010835 -0.002376 -0.003059 0.000100 -0.002666 -0.000015
# 2 -0.002376 0.016882 -0.003353 0.008218 0.001250 -0.003950
# 3 -0.003059 -0.003353 0.010826 0.001847 -0.001977 0.001988
# 4 0.000100 0.008218 0.001847 0.030250 -0.003152 -0.006567
# 5 -0.002666 0.001250 -0.001977 -0.003152 0.024383 0.003458
# 6 -0.000015 -0.003950 0.001988 -0.006567 0.003458 0.037700
#
#
# Mechanical properties :
#
#
# Convention : Reuss Voigt Hill
#
# Bulk Modulus (GPa) = 47.69418 60.68616 54.19017
# Shear Modulus (GPa) = 32.16648 37.10091 34.63370
#
# Velocity S-wave (km/s) = 3.77336 4.05246 3.91540
# Velocity P-wave (km/s) = 6.33213 6.98276 6.66539
#
# Compressibility (1/GPa) = 0.02096692
#
# Stress axis : x y z
#
# Youngs Moduli (GPa) = 92.29245 59.23373 92.37202
#
# Poissons Ratio (x) = 0.14074 0.28258
# Poissons Ratio (y) = 0.21929 0.30972
# Poissons Ratio (z) = 0.28233 0.19861
#
# Static dielectric constant tensor:
#      x y z
#    x 4.299460 -0.434430 0.256650 
#    y -0.434430 4.842200 -0.704000 
#    z 0.256650 -0.704000 4.563050 
# 
# 
# High freq. dielectric constant tensor:
#      x y z
#    x 1.901050 -0.006040 0.003690 
#    y -0.006040 1.873430 -0.008100 
#    z 0.003690 -0.008100 1.908930 
# 
# From -- ./inp_files/89655.got.cif
#   From: 2010.06.25/outbox.cif.g09.slc.cpg/sg2_45_cif.got.tgz:89655.got - 2010.06.27 13:26:56.
