data_PCOD8008075
_publ_section_title
;
Structure prediction by ZEFSAII (Michael W. Deem and Ramdas Pophale) SiO2 
 PCOD8008075
Probable space group: P -1
;
_chemical_formula_sum "Si O2"
_cell_formula_units_Z 12
_cell_length_a 13.541291
_cell_length_b 18.313810
_cell_length_c 6.834545
_cell_angle_alpha 40.421404
_cell_angle_beta 130.652384
_cell_angle_gamma 149.325321
_cell_volume 560.636614
_symmetry_space_group_name_H-M "P -1"
_symmetry_group_IT_number 2
_symmetry_cell_setting 'triclinic'
loop_
_space_group_symop_operation_xyz
x,y,z
-x,-y,-z
loop_
_atom_site_type_symbol
_atom_site_label
_atom_site_fract_x
_atom_site_fract_y
_atom_site_fract_z
Si Si1 0.213984 0.755964 0.861356
Si Si2 0.198557 0.574573 0.881384
Si Si3 0.585893 0.281031 0.535331
Si Si4 0.209672 0.009064 0.380525
Si Si5 0.600997 0.465276 0.497340
Si Si6 0.780718 0.774416 0.305128
O O1 0.193825 0.690419 0.752988
O O2 0.263687 0.918336 0.564775
O O3 0.383794 0.804014 0.104758
O O4 0.015531 0.614359 0.015043
O O5 0.271959 0.642440 0.619674
O O6 0.343419 0.581546 0.158049
O O7 0.639703 0.432703 0.404481
O O8 0.360567 0.140992 0.473596
O O9 0.991687 0.877484 0.451738
O O10 0.225333 0.100028 0.027162
O O11 0.727206 0.660050 0.282595
O O12 0.372733 0.345629 0.474357
#
# Coordination Sequence:
#
# PCOD8008075 Si02
#       6
#     2   2   2   2   2   2
#     4  10  22  40  65  89 126 159 199 255 306 357
#     4  10  20  42  65  90 120 163 206 248 300 367
#     4  11  23  39  66  95 118 155 212 253 301 357
#     4  11  22  40  62  94 125 158 200 254 310 354
#     4  10  21  43  66  87 120 168 205 246 295 367
#     4  10  22  42  65  85 126 169 199 243 309 362
#
# _framework density 21.404236999999998
#
# number of rings (size 3 to 8) (size 9 to 14) (size 15 to 20)
#    0.000    1.667    3.333    1.000    0.000    2.000 
#    3.000    1.667    0.000    0.000    0.000    0.000 
#    0.000    0.000    0.000    0.000    0.000    0.000 
#
# Total GULP energy -148823.259708 kJ/mol
# GULP energy per Si atom -12401.938309 kJ/mol
# Density = 2.135552 g / cm^3
# Si number density = 21.404237 Si / 1000 Ang^3
#
#
#
# Elastic Constant Matrix: (Units=GPa)
#
#
# Indices 1 2 3 4 5 6 
#
# 1 108.6711 53.6096 42.4952 0.2383 -1.5398 -6.2993
# 2 53.6096 100.8863 31.3520 1.9046 -1.5383 7.1908
# 3 42.4952 31.3520 65.8962 -7.7868 9.6463 -19.1960
# 4 0.2383 1.9046 -7.7868 27.2866 -5.8750 7.3933
# 5 -1.5398 -1.5383 9.6463 -5.8750 32.6193 -3.3170
# 6 -6.2993 7.1908 -19.1960 7.3933 -3.3170 45.8974
#
#
#
# Elastic Compliance Matrix: (Units=1/GPa)
#
#
# Indices 1 2 3 4 5 6 
#
# 1 0.014895 -0.005564 -0.007413 -0.001398 0.002403 0.000214
# 2 -0.005564 0.014906 -0.005277 -0.000835 0.001334 -0.005075
# 3 -0.007413 -0.005277 0.026812 0.003936 -0.006812 0.009897
# 4 -0.001398 -0.000835 0.003936 0.040250 0.005522 -0.004499
# 5 0.002403 0.001334 -0.006812 0.005522 0.033722 -0.001181
# 6 0.000214 -0.005075 0.009897 -0.004499 -0.001181 0.027391
#
#
# Mechanical properties :
#
#
# Convention : Reuss Voigt Hill
#
# Bulk Modulus (GPa) = 49.73487 58.92968 54.33228
# Shear Modulus (GPa) = 24.85288 31.02712 27.94000
#
# Velocity S-wave (km/s) = 3.41122 3.81146 3.61688
# Velocity P-wave (km/s) = 6.22910 6.85283 6.54839
#
# Compressibility (1/GPa) = 0.02010662
#
# Stress axis : x y z
#
# Youngs Moduli (GPa) = 67.13645 67.08633 37.29724
#
# Poissons Ratio (x) = 0.37324 0.27648
# Poissons Ratio (y) = 0.37352 0.19680
# Poissons Ratio (z) = 0.49768 0.35399
#
# Static dielectric constant tensor:
#      x y z
#    x 3.901960 0.084680 0.348390 
#    y 0.084680 4.050780 -0.030820 
#    z 0.348390 -0.030820 3.564650 
# 
# 
# High freq. dielectric constant tensor:
#      x y z
#    x 1.842580 0.009010 0.025310 
#    y 0.009010 1.847050 -0.004300 
#    z 0.025310 -0.004300 1.817950 
# 
# From -- ./inp_files/24196.got.cif
#   From: 2010.06.25/outbox.cif.g09.slc.cpg/sg2_13_cif.got.tgz:24196.got - 2010.06.27 13:26:56.
