data_PCOD8008029
_publ_section_title
;
Structure prediction by ZEFSAII (Michael W. Deem and Ramdas Pophale) SiO2 
 PCOD8008029
Probable space group: P -1
;
_chemical_formula_sum "Si O2"
_cell_formula_units_Z 16
_cell_length_a 14.893391
_cell_length_b 14.805524
_cell_length_c 14.426184
_cell_angle_alpha 28.396134
_cell_angle_beta 39.968109
_cell_angle_gamma 28.786230
_cell_volume 728.328379
_symmetry_space_group_name_H-M "P -1"
_symmetry_group_IT_number 2
_symmetry_cell_setting 'triclinic'
loop_
_space_group_symop_operation_xyz
x,y,z
-x,-y,-z
loop_
_atom_site_type_symbol
_atom_site_label
_atom_site_fract_x
_atom_site_fract_y
_atom_site_fract_z
Si Si1 0.469436 0.144120 0.211897
Si Si2 0.154742 0.497061 0.998645
Si Si3 0.697938 0.287224 0.845118
Si Si4 0.608236 0.179616 0.465998
Si Si5 0.764052 0.726171 0.059703
Si Si6 0.691322 0.439152 0.904191
Si Si7 0.554795 0.236204 0.666169
Si Si8 0.080482 0.925516 0.780535
O O1 0.314008 0.265822 0.144753
O O2 0.364947 0.302134 0.246790
O O3 0.525260 0.872683 0.418216
O O4 0.648244 0.115182 0.071565
O O5 0.220328 0.422110 0.908784
O O6 0.119003 0.745941 0.828797
O O7 0.959587 0.560671 0.108005
O O8 0.504700 0.529165 0.734902
O O9 0.766564 0.358733 0.812167
O O10 0.859525 0.154760 0.759872
O O11 0.653105 0.147587 0.568392
O O12 0.802805 0.997030 0.417873
O O13 0.691893 0.005612 0.839118
O O14 0.625539 0.737678 0.226407
O O15 0.500000 0.500000 0.000000
O O16 0.844941 0.211438 0.055608
O O17 0.500000 0.500000 0.500000
#
# Coordination Sequence:
#
# PCOD8008029 Si02
#       8
#     2   2   2   2   2   2   2   2
#     4  10  22  42  69  89 134 170 210 268 322 380
#     4  10  20  42  64  89 125 172 214 263 320 374
#     4  11  24  43  68  95 130 171 214 263 323 387
#     4  12  24  42  63 100 129 166 214 269 321 379
#     4  10  23  42  64  88 127 173 219 261 318 392
#     4   9  18  44  69  91 127 178 207 257 329 379
#     4  11  25  40  64  92 130 168 218 268 323 376
#     4  11  23  40  71  93 134 166 215 266 321 380
#
# _framework density 21.968112000000001
#
# number of rings (size 3 to 8) (size 9 to 14) (size 15 to 20)
#    0.000    1.500    5.000    1.125    3.500    1.500 
#    2.250    2.500    0.000    0.000    0.000    0.000 
#    0.000    0.000    0.000    0.000    0.000    0.000 
#
# Total GULP energy -198280.189334 kJ/mol
# GULP energy per Si atom -12392.511833 kJ/mol
# Density = 2.191811 g / cm^3
# Si number density = 21.968112 Si / 1000 Ang^3
#
#
#
# Elastic Constant Matrix: (Units=GPa)
#
#
# Indices 1 2 3 4 5 6 
#
# 1 85.8768 21.9352 13.7815 -1.5191 -6.9564 3.9531
# 2 21.9352 118.0073 35.4836 19.3800 -6.7261 -2.7705
# 3 13.7815 35.4836 81.8293 7.5831 -16.2235 12.7928
# 4 -1.5191 19.3800 7.5831 27.4814 2.6877 -5.5370
# 5 -6.9564 -6.7261 -16.2235 2.6877 25.2799 -3.2244
# 6 3.9531 -2.7705 12.7928 -5.5370 -3.2244 31.9391
#
#
#
# Elastic Compliance Matrix: (Units=1/GPa)
#
#
# Indices 1 2 3 4 5 6 
#
# 1 0.012618 -0.002387 -0.000762 0.002219 0.002000 -0.000877
# 2 -0.002387 0.011311 -0.004020 -0.006707 0.000715 0.001796
# 3 -0.000762 -0.004020 0.017487 -0.004385 0.009509 -0.007059
# 4 0.002219 -0.006707 -0.004385 0.044797 -0.007745 0.007884
# 5 0.002000 0.000715 0.009509 -0.007745 0.047150 -0.000577
# 6 -0.000877 0.001796 -0.007059 0.007884 -0.000577 0.035710
#
#
# Mechanical properties :
#
#
# Convention : Reuss Voigt Hill
#
# Bulk Modulus (GPa) = 36.93081 47.56823 42.24952
# Shear Modulus (GPa) = 25.98236 31.24097 28.61167
#
# Velocity S-wave (km/s) = 3.44282 3.77517 3.61282
# Velocity P-wave (km/s) = 5.71416 6.37988 6.05617
#
# Compressibility (1/GPa) = 0.02707766
#
# Stress axis : x y z
#
# Youngs Moduli (GPa) = 79.24989 88.40861 57.18417
#
# Poissons Ratio (x) = 0.21107 0.04356
# Poissons Ratio (y) = 0.18920 0.22990
# Poissons Ratio (z) = 0.06037 0.35543
#
# Static dielectric constant tensor:
#      x y z
#    x 4.711760 0.273150 0.054180 
#    y 0.273150 4.168560 -0.076610 
#    z 0.054180 -0.076610 3.941580 
# 
# 
# High freq. dielectric constant tensor:
#      x y z
#    x 1.869610 0.010010 -0.010560 
#    y 0.010010 1.863510 0.000970 
#    z -0.010560 0.000970 1.840360 
# 
# From -- ./inp_files/534103.got.cif
#   From: 2010.06.25/outbox.cif.g09.slc.cpg/sg2_268_cif.got.tgz:534103.got - 2010.06.27 13:26:56.
