data_PCOD8008084
_publ_section_title
;
Structure prediction by ZEFSAII (Michael W. Deem and Ramdas Pophale) SiO2 
 PCOD8008084
Probable space group: P -1
;
_chemical_formula_sum "Si O2"
_cell_formula_units_Z 16
_cell_length_a 9.846237
_cell_length_b 21.511000
_cell_length_c 8.716263
_cell_angle_alpha 111.448765
_cell_angle_beta 74.168943
_cell_angle_gamma 46.808179
_cell_volume 798.008035
_symmetry_space_group_name_H-M "P -1"
_symmetry_group_IT_number 2
_symmetry_cell_setting 'triclinic'
loop_
_space_group_symop_operation_xyz
x,y,z
-x,-y,-z
loop_
_atom_site_type_symbol
_atom_site_label
_atom_site_fract_x
_atom_site_fract_y
_atom_site_fract_z
Si Si1 0.627956 0.643173 0.117358
Si Si2 0.150175 0.656805 0.096873
Si Si3 0.191425 0.329256 0.675448
Si Si4 0.199704 0.097719 0.747282
Si Si5 0.317249 0.652761 0.348500
Si Si6 0.230482 0.075296 0.076011
Si Si7 0.274002 0.907566 0.930707
Si Si8 0.849590 0.118853 0.754941
O O1 0.670845 0.696030 0.236085
O O2 0.482468 0.654953 0.298804
O O3 0.424462 0.735256 0.115862
O O4 0.935568 0.482894 0.825937
O O5 0.192044 0.691639 0.252998
O O6 0.925189 0.694518 0.260345
O O7 0.032866 0.746394 0.067794
O O8 0.459972 0.497769 0.806044
O O9 0.427608 0.222961 0.373689
O O10 0.092804 0.073812 0.678343
O O11 0.500000 0.000000 0.500000
O O12 0.253308 0.060591 0.874123
O O13 0.059577 0.762698 0.649908
O O14 0.500000 0.000000 0.000000
O O15 0.223520 0.004514 0.087528
O O16 0.290741 0.853940 0.024984
O O17 0.000000 0.000000 0.000000
O O18 0.000000 0.000000 0.500000
#
# Coordination Sequence:
#
# PCOD8008084 Si02
#       8
#     2   2   2   2   2   2   2   2
#     4  10  22  40  68  93 126 166 211 257 316 377
#     4  10  22  40  69  92 125 167 207 260 315 377
#     4  10  22  42  65  97 126 165 209 259 314 381
#     4  12  26  43  64  95 131 166 215 265 315 378
#     4  10  20  42  65  93 126 166 210 254 316 383
#     4  12  26  41  65  96 127 168 209 266 318 376
#     4  12  24  41  65  93 128 168 212 261 317 376
#     4  12  26  42  66  94 129 171 212 263 317 377
#
# _framework density 20.049923
#
# number of rings (size 3 to 8) (size 9 to 14) (size 15 to 20)
#    0.000    1.000    2.500    4.500    3.500    1.000 
#    0.000    0.000    0.000    0.000    0.000    0.000 
#    0.000    0.000    0.000    0.000    0.000    0.000 
#
# Total GULP energy -198458.406687 kJ/mol
# GULP energy per Si atom -12403.650418 kJ/mol
# Density = 2.000429 g / cm^3
# Si number density = 20.049923 Si / 1000 Ang^3
#
#
#
# Elastic Constant Matrix: (Units=GPa)
#
#
# Indices 1 2 3 4 5 6 
#
# 1 139.6666 40.8298 49.7364 9.0027 -4.1587 -6.2044
# 2 40.8298 104.1115 26.3860 4.2000 3.7957 -6.5269
# 3 49.7364 26.3860 130.5133 4.0743 -5.8756 -1.4906
# 4 9.0027 4.2000 4.0743 20.5848 4.0233 -2.2839
# 5 -4.1587 3.7957 -5.8756 4.0233 25.8607 2.4216
# 6 -6.2044 -6.5269 -1.4906 -2.2839 2.4216 34.4079
#
#
#
# Elastic Compliance Matrix: (Units=1/GPa)
#
#
# Indices 1 2 3 4 5 6 
#
# 1 0.009258 -0.002818 -0.002774 -0.003182 0.001703 0.000684
# 2 -0.002818 0.011244 -0.001290 -0.000116 -0.002541 0.001740
# 3 -0.002774 -0.001290 0.009087 -0.000769 0.001978 -0.000542
# 4 -0.003182 -0.000116 -0.000769 0.052319 -0.009135 0.003487
# 5 0.001703 -0.002541 0.001978 -0.009135 0.041525 -0.003618
# 6 0.000684 0.001740 -0.000542 0.003487 -0.003618 0.029979
#
#
# Mechanical properties :
#
#
# Convention : Reuss Voigt Hill
#
# Bulk Modulus (GPa) = 63.19937 67.57733 65.38835
# Shear Modulus (GPa) = 28.99349 33.32662 31.16006
#
# Velocity S-wave (km/s) = 3.80684 4.08141 3.94651
# Velocity P-wave (km/s) = 7.13528 7.48253 7.31096
#
# Compressibility (1/GPa) = 0.01582294
#
# Stress axis : x y z
#
# Youngs Moduli (GPa) = 108.01429 88.93797 110.04717
#
# Poissons Ratio (x) = 0.25067 0.30532
# Poissons Ratio (y) = 0.30444 0.14196
# Poissons Ratio (z) = 0.29968 0.11473
#
# Static dielectric constant tensor:
#      x y z
#    x 3.688130 -0.268090 -0.072710 
#    y -0.268090 3.429790 0.183840 
#    z -0.072710 0.183840 3.726680 
# 
# 
# High freq. dielectric constant tensor:
#      x y z
#    x 1.807610 0.000340 -0.002500 
#    y 0.000340 1.779060 0.018810 
#    z -0.002500 0.018810 1.781290 
# 
# From -- ./inp_files/223223.got.cif
#   From: 2010.06.25/outbox.cif.g09.slc.cpg/sg2_112_cif.got.tgz:223223.got - 2010.06.27 13:26:56.
