data_PCOD8008325
_publ_section_title
;
Structure prediction by ZEFSAII (Michael W. Deem and Ramdas Pophale) SiO2 
 PCOD8008325
Probable space group: P -1
;
_chemical_formula_sum "Si O2"
_cell_formula_units_Z 16
_cell_length_a 9.126848
_cell_length_b 11.844732
_cell_length_c 13.641966
_cell_angle_alpha 116.954318
_cell_angle_beta 46.509138
_cell_angle_gamma 108.858527
_cell_volume 953.547103
_symmetry_space_group_name_H-M "P -1"
_symmetry_group_IT_number 2
_symmetry_cell_setting 'triclinic'
loop_
_space_group_symop_operation_xyz
x,y,z
-x,-y,-z
loop_
_atom_site_type_symbol
_atom_site_label
_atom_site_fract_x
_atom_site_fract_y
_atom_site_fract_z
Si Si1 0.736430 0.876997 0.608203
Si Si2 0.820925 0.152310 0.659687
Si Si3 0.431565 0.489713 0.182816
Si Si4 0.825586 0.653793 0.600538
Si Si5 0.731069 0.278366 0.557220
Si Si6 0.216446 0.479303 0.642526
Si Si7 0.552811 0.293650 0.443258
Si Si8 0.780449 0.421368 0.870898
O O1 0.767827 0.799767 0.663781
O O2 0.539753 0.823359 0.621028
O O3 0.937545 0.859559 0.442227
O O4 0.707809 0.025951 0.702401
O O5 0.765789 0.165355 0.574144
O O6 0.749381 0.273160 0.800772
O O7 0.329313 0.388868 0.262397
O O8 0.434299 0.627191 0.285583
O O9 0.304547 0.490554 0.141388
O O10 0.660709 0.448760 0.037383
O O11 0.806461 0.574152 0.478120
O O12 0.057511 0.643453 0.525244
O O13 0.649060 0.231137 0.471599
O O14 0.386055 0.398644 0.588796
O O15 0.277869 0.628495 0.667518
O O16 0.013848 0.461165 0.791923
#
# Coordination Sequence:
#
# PCOD8008325 Si02
#       8
#     2   2   2   2   2   2   2   2
#     4   9  18  31  50  68  92 127 164 188 236 271
#     4   9  17  33  49  66  93 129 159 198 224 277
#     4  10  18  27  49  75  98 119 156 195 240 281
#     4  10  16  31  50  73  94 122 161 196 223 282
#     4  10  17  28  49  74  97 121 156 198 232 275
#     4  10  17  30  47  69 102 122 151 195 237 277
#     4  10  18  26  48  73  98 122 154 196 234 278
#     4  10  18  31  47  74  98 123 153 196 242 275
#
# _framework density 16.779454000000001
#
# number of rings (size 3 to 8) (size 9 to 14) (size 15 to 20)
#    0.000    2.250    6.250    1.125    0.000    0.500 
#    0.000    1.250    0.000    0.000    0.000   14.000 
#    0.000    0.000    0.000    0.000    0.000    0.000 
#
# Total GULP energy -198322.086101 kJ/mol
# GULP energy per Si atom -12395.130381 kJ/mol
# Density = 1.674126 g / cm^3
# Si number density = 16.779454 Si / 1000 Ang^3
#
#
#
# Elastic Constant Matrix: (Units=GPa)
#
#
# Indices 1 2 3 4 5 6 
#
# 1 70.9013 21.2885 19.5311 -1.0390 -8.5693 6.8016
# 2 21.2885 109.6959 39.0490 -9.1601 -4.5955 6.3907
# 3 19.5311 39.0490 98.0337 -12.5004 -7.8112 1.2515
# 4 -1.0390 -9.1601 -12.5004 15.2696 -1.0146 -1.9887
# 5 -8.5693 -4.5955 -7.8112 -1.0146 14.9714 -3.9763
# 6 6.8016 6.3907 1.2515 -1.9887 -3.9763 19.2546
#
#
#
# Elastic Compliance Matrix: (Units=1/GPa)
#
#
# Indices 1 2 3 4 5 6 
#
# 1 0.016445 -0.002104 -0.002118 -0.001943 0.006513 -0.003829
# 2 -0.002104 0.011222 -0.003601 0.003323 -0.000054 -0.002416
# 3 -0.002118 -0.003601 0.013783 0.009849 0.006443 0.003395
# 4 -0.001943 0.003323 0.009849 0.077518 0.012851 0.009604
# 5 0.006513 -0.000054 0.006443 0.012851 0.078689 0.014876
# 6 -0.003829 -0.002416 0.003395 0.009604 0.014876 0.057933
#
#
# Mechanical properties :
#
#
# Convention : Reuss Voigt Hill
#
# Bulk Modulus (GPa) = 38.75268 48.70756 43.73012
# Shear Modulus (GPa) = 17.86751 23.14994 20.50873
#
# Velocity S-wave (km/s) = 3.26674 3.71841 3.49987
# Velocity P-wave (km/s) = 6.11345 6.89395 6.51539
#
# Compressibility (1/GPa) = 0.02580466
#
# Stress axis : x y z
#
# Youngs Moduli (GPa) = 60.80737 89.11019 72.55475
#
# Poissons Ratio (x) = 0.18747 0.15369
# Poissons Ratio (y) = 0.12793 0.26124
# Poissons Ratio (z) = 0.12881 0.32085
#
# Static dielectric constant tensor:
#      x y z
#    x 3.132750 -0.107170 -0.198390 
#    y -0.107170 3.207210 -0.157280 
#    z -0.198390 -0.157280 2.965330 
# 
# 
# High freq. dielectric constant tensor:
#      x y z
#    x 1.640410 -0.009870 -0.017610 
#    y -0.009870 1.640000 -0.016270 
#    z -0.017610 -0.016270 1.609570 
# 
# From -- ./inp_files/185912.got.cif
#   From: 2010.06.25/outbox.cif.g09.slc.cpg/sg2_93_cif.got.tgz:185912.got - 2010.06.27 13:26:56.
