data_PCOD8008628
_publ_section_title
;
Structure prediction by ZEFSAII (Michael W. Deem and Ramdas Pophale) SiO2 
 PCOD8008628
Probable space group: P -1
;
_chemical_formula_sum "Si O2"
_cell_formula_units_Z 14
_cell_length_a 11.350511
_cell_length_b 11.895560
_cell_length_c 5.469175
_cell_angle_alpha 70.428375
_cell_angle_beta 57.214148
_cell_angle_gamma 71.350446
_cell_volume 575.952555
_symmetry_space_group_name_H-M "P -1"
_symmetry_group_IT_number 2
_symmetry_cell_setting 'triclinic'
loop_
_space_group_symop_operation_xyz
x,y,z
-x,-y,-z
loop_
_atom_site_type_symbol
_atom_site_label
_atom_site_fract_x
_atom_site_fract_y
_atom_site_fract_z
Si Si1 0.688538 0.506199 0.099389
Si Si2 0.437516 0.904583 0.383856
Si Si3 0.115560 0.330980 0.060588
Si Si4 0.946392 0.345938 0.740001
Si Si5 0.728123 0.938778 0.929002
Si Si6 0.226205 0.834392 0.051298
Si Si7 0.418137 0.676360 0.291265
O O1 0.549993 0.589497 0.071548
O O2 0.638607 0.394064 0.371252
O O3 0.755526 0.593769 0.147984
O O4 0.804206 0.448796 0.811058
O O5 0.474294 0.798336 0.218640
O O6 0.337251 0.022011 0.293018
O O7 0.357877 0.848647 0.725823
O O8 0.591664 0.936243 0.267240
O O9 0.033201 0.364685 0.385014
O O10 0.168144 0.187551 0.107540
O O11 0.023245 0.366743 0.894683
O O12 0.908779 0.208655 0.895447
O O13 0.820428 0.038626 0.846261
O O14 0.282515 0.718461 0.242380
#
# Coordination Sequence:
#
# PCOD8008628 Si02
#       7
#     2   2   2   2   2   2   2
#     4  11  23  48  72 103 144 182 238 296 353 419
#     4  10  20  45  69 106 136 173 230 306 365 410
#     4  12  28  48  71 105 144 196 237 285 343 432
#     4  12  28  47  70 101 149 197 239 279 344 419
#     4  10  24  42  73 102 140 178 235 294 366 414
#     4  11  24  43  73 103 141 181 236 297 355 425
#     4  10  22  43  74 107 136 178 233 302 368 408
#
# _framework density 24.307555000000001
#
# number of rings (size 3 to 8) (size 9 to 14) (size 15 to 20)
#    0.000    1.143    2.857    2.143    4.000    4.000 
#    2.571    0.000    0.000    0.000    0.000    0.000 
#    0.000    0.000    0.000    0.000    0.000    0.000 
#
# Total GULP energy -173527.305652 kJ/mol
# GULP energy per Si atom -12394.807547 kJ/mol
# Density = 2.425223 g / cm^3
# Si number density = 24.307555 Si / 1000 Ang^3
#
#
#
# Elastic Constant Matrix: (Units=GPa)
#
#
# Indices 1 2 3 4 5 6 
#
# 1 41.7092 14.6390 3.1679 -0.2214 -5.8614 23.6591
# 2 14.6390 103.7941 4.3890 -9.0184 -8.8845 -11.9432
# 3 3.1679 4.3890 65.8769 -0.5166 0.5108 -7.1361
# 4 -0.2214 -9.0184 -0.5166 38.4488 3.4001 -14.3114
# 5 -5.8614 -8.8845 0.5108 3.4001 29.7812 -5.6486
# 6 23.6591 -11.9432 -7.1361 -14.3114 -5.6486 49.6070
#
#
#
# Elastic Compliance Matrix: (Units=1/GPa)
#
#
# Indices 1 2 3 4 5 6 
#
# 1 0.043380 -0.009959 -0.004469 -0.012399 0.001921 -0.027088
# 2 -0.009959 0.013019 0.000747 0.006540 0.003105 0.010232
# 3 -0.004469 0.000747 0.015934 0.002337 -0.000200 0.005255
# 4 -0.012399 0.006540 0.002337 0.034131 -0.001098 0.017546
# 5 0.001921 0.003105 -0.000200 -0.001098 0.035685 0.003549
# 6 -0.027088 0.010232 0.005255 0.017546 0.003549 0.041763
#
#
# Mechanical properties :
#
#
# Convention : Reuss Voigt Hill
#
# Bulk Modulus (GPa) = 22.23647 28.41911 25.32779
# Shear Modulus (GPa) = 22.09811 36.17968 29.13890
#
# Velocity S-wave (km/s) = 3.01841 3.86218 3.46607
# Velocity P-wave (km/s) = 4.61688 5.62187 5.14398
#
# Compressibility (1/GPa) = 0.04497116
#
# Stress axis : x y z
#
# Youngs Moduli (GPa) = 23.05206 76.81142 62.75858
#
# Poissons Ratio (x) = 0.76497 0.28047
# Poissons Ratio (y) = 0.22958 -0.04689
# Poissons Ratio (z) = 0.10302 -0.05739
#
# Static dielectric constant tensor:
#      x y z
#    x 4.530780 0.341410 -0.171180 
#    y 0.341410 4.755990 -0.082070 
#    z -0.171180 -0.082070 4.132140 
# 
# 
# High freq. dielectric constant tensor:
#      x y z
#    x 1.956150 0.020370 -0.014450 
#    y 0.020370 1.992290 -0.013520 
#    z -0.014450 -0.013520 1.951230 
# 
# From -- ./inp_files/28278.got.cif
#   From: 2010.06.25/outbox.cif.g09.slc.cpg/sg2_15_cif.got.tgz:28278.got - 2010.06.27 13:26:56.
