data_PCOD8008427
_publ_section_title
;
Structure prediction by ZEFSAII (Michael W. Deem and Ramdas Pophale) SiO2 
 PCOD8008427
Probable space group: P -1
;
_chemical_formula_sum "Si O2"
_cell_formula_units_Z 16
_cell_length_a 19.004003
_cell_length_b 9.006661
_cell_length_c 5.300725
_cell_angle_alpha 102.213011
_cell_angle_beta 111.025171
_cell_angle_gamma 57.139300
_cell_volume 711.209099
_symmetry_space_group_name_H-M "P -1"
_symmetry_group_IT_number 2
_symmetry_cell_setting 'triclinic'
loop_
_space_group_symop_operation_xyz
x,y,z
-x,-y,-z
loop_
_atom_site_type_symbol
_atom_site_label
_atom_site_fract_x
_atom_site_fract_y
_atom_site_fract_z
Si Si1 0.883266 0.957593 0.779708
Si Si2 0.393570 0.356440 0.989707
Si Si3 0.315009 0.313387 0.357671
Si Si4 0.439862 0.677070 0.639074
Si Si5 0.702827 0.276073 0.166324
Si Si6 0.158630 0.693066 0.357602
Si Si7 0.707093 0.011542 0.717791
Si Si8 0.982271 0.843092 0.375857
O O1 0.785182 0.990884 0.629938
O O2 0.940462 0.824509 0.576584
O O3 0.879966 0.147098 0.840977
O O4 0.920833 0.868933 0.066765
O O5 0.378016 0.264847 0.179034
O O6 0.496792 0.291814 0.082073
O O7 0.365167 0.305444 0.675604
O O8 0.335935 0.569097 0.039367
O O9 0.228752 0.504138 0.267938
O O10 0.282485 0.175513 0.283055
O O11 0.500000 0.500000 0.500000
O O12 0.369723 0.644142 0.678436
O O13 0.388377 0.853505 0.469608
O O14 0.797323 0.239761 0.357236
O O15 0.715468 0.092910 0.020662
O O16 0.079693 0.676428 0.377685
O O17 0.000000 0.000000 0.500000
#
# Coordination Sequence:
#
# PCOD8008427 Si02
#       8
#     2   2   2   2   2   2   2   2
#     4  11  22  40  65  98 127 169 222 270 321 380
#     4  11  25  45  66  96 131 175 223 272 324 395
#     4  11  28  44  65  98 140 177 215 266 343 391
#     4  12  24  43  71 100 127 171 232 278 325 380
#     4  11  23  42  71  97 130 172 227 271 329 385
#     4  10  20  43  67  97 132 174 217 272 324 393
#     4  12  26  42  68  96 136 176 217 275 330 397
#     4  10  21  36  66 100 126 163 221 276 315 377
#
# _framework density 22.496901000000001
#
# number of rings (size 3 to 8) (size 9 to 14) (size 15 to 20)
#    0.000    1.000    2.500    5.625    3.500    5.000 
#    0.000    1.250    0.000    0.000    0.000    0.875 
#    0.000    0.000    0.000    0.000    0.000    0.000 
#
# Total GULP energy -198366.542449 kJ/mol
# GULP energy per Si atom -12397.908903 kJ/mol
# Density = 2.244570 g / cm^3
# Si number density = 22.496901 Si / 1000 Ang^3
#
#
#
# Elastic Constant Matrix: (Units=GPa)
#
#
# Indices 1 2 3 4 5 6 
#
# 1 116.9841 38.6806 45.9060 0.9364 -5.7754 -18.3405
# 2 38.6806 75.3237 32.3902 1.8342 9.0225 8.3761
# 3 45.9060 32.3902 120.3632 0.0508 -5.7126 -11.5476
# 4 0.9364 1.8342 0.0508 18.3772 -1.1586 7.0788
# 5 -5.7754 9.0225 -5.7126 -1.1586 37.5546 -4.8880
# 6 -18.3405 8.3761 -11.5476 7.0788 -4.8880 35.7927
#
#
#
# Elastic Compliance Matrix: (Units=1/GPa)
#
#
# Indices 1 2 3 4 5 6 
#
# 1 0.013601 -0.007663 -0.001995 -0.003248 0.004754 0.009410
# 2 -0.007663 0.021383 -0.004382 0.002343 -0.008467 -0.011964
# 3 -0.001995 -0.004382 0.010774 -0.000867 0.002885 0.004044
# 4 -0.003248 0.002343 -0.000867 0.059856 -0.001235 -0.014499
# 5 0.004754 -0.008467 0.002885 -0.001235 0.031074 0.009836
# 6 0.009410 -0.011964 0.004044 -0.014499 0.009836 0.041076
#
#
# Mechanical properties :
#
#
# Convention : Reuss Voigt Hill
#
# Bulk Modulus (GPa) = 56.57271 60.73607 58.65439
# Shear Modulus (GPa) = 23.61400 31.39118 27.50259
#
# Velocity S-wave (km/s) = 3.24335 3.73950 3.50023
# Velocity P-wave (km/s) = 6.26317 6.76027 6.51646
#
# Compressibility (1/GPa) = 0.01767637
#
# Stress axis : x y z
#
# Youngs Moduli (GPa) = 73.52379 46.76512 92.81780
#
# Poissons Ratio (x) = 0.35837 0.18520
# Poissons Ratio (y) = 0.56343 0.40676
# Poissons Ratio (z) = 0.14670 0.20494
#
# Static dielectric constant tensor:
#      x y z
#    x 4.539500 -0.415790 0.051680 
#    y -0.415790 3.939410 -0.138940 
#    z 0.051680 -0.138940 4.027340 
# 
# 
# High freq. dielectric constant tensor:
#      x y z
#    x 1.897040 -0.025900 0.002870 
#    y -0.025900 1.855150 -0.009780 
#    z 0.002870 -0.009780 1.889480 
# 
# From -- ./inp_files/116300.got.cif
#   From: 2010.06.25/outbox.cif.g09.slc.cpg/sg2_59_cif.got.tgz:116300.got - 2010.06.27 13:26:56.
