data_PCOD8008783
_publ_section_title
;
Structure prediction by ZEFSAII (Michael W. Deem and Ramdas Pophale) SiO2 
 PCOD8008783
Probable space group: P -1
;
_chemical_formula_sum "Si O2"
_cell_formula_units_Z 14
_cell_length_a 15.043131
_cell_length_b 26.036934
_cell_length_c 25.814371
_cell_angle_alpha 168.523327
_cell_angle_beta 163.200804
_cell_angle_gamma 18.135464
_cell_volume 568.328467
_symmetry_space_group_name_H-M "P -1"
_symmetry_group_IT_number 2
_symmetry_cell_setting 'triclinic'
loop_
_space_group_symop_operation_xyz
x,y,z
-x,-y,-z
loop_
_atom_site_type_symbol
_atom_site_label
_atom_site_fract_x
_atom_site_fract_y
_atom_site_fract_z
Si Si1 0.825473 0.548059 0.867417
Si Si2 0.013358 0.257199 0.229556
Si Si3 0.112016 0.111931 0.982779
Si Si4 0.597363 0.079307 0.306108
Si Si5 0.498845 0.982854 0.420816
Si Si6 0.305359 0.590472 0.531515
Si Si7 0.604129 0.512016 0.948950
O O1 0.855468 0.263906 0.631337
O O2 0.524369 0.582238 0.695730
O O3 0.139253 0.566501 0.030037
O O4 0.772942 0.771502 0.104621
O O5 0.722653 0.334642 0.105384
O O6 0.000000 0.500000 0.500000
O O7 0.343832 0.192054 0.319587
O O8 0.000000 0.000000 0.000000
O O9 0.855774 0.061842 0.832303
O O10 0.124791 0.898999 0.731849
O O11 0.444484 0.084217 0.168736
O O12 0.046074 0.407314 0.213462
O O13 0.500000 0.000000 0.500000
O O14 0.561880 0.247133 0.692035
O O15 0.719474 0.718613 0.257524
O O16 0.500000 0.500000 0.500000
#
# Coordination Sequence:
#
# PCOD8008783 Si02
#       7
#     2   2   2   2   2   2   2
#     4  10  23  40  66  94 132 186 210 279 352 381
#     4  12  26  46  76 105 129 177 230 283 351 415
#     4  10  21  37  59  88 125 176 223 266 325 380
#     4  10  21  44  66  94 134 173 221 271 335 411
#     4  12  26  40  68  98 142 187 227 278 341 398
#     4  10  21  34  59  86 129 171 231 269 311 396
#     4  12  26  47  68 101 145 174 234 291 334 409
#
# _framework density 24.633641999999998
#
# number of rings (size 3 to 8) (size 9 to 14) (size 15 to 20)
#    0.000    1.143    1.429    4.286    8.000    0.000 
#    0.000    4.286    0.000    0.000    0.000    0.000 
#    0.000    0.000    0.000    0.000    0.000    0.000 
#
# Total GULP energy -173512.915956 kJ/mol
# GULP energy per Si atom -12393.779711 kJ/mol
# Density = 2.457757 g / cm^3
# Si number density = 24.633642 Si / 1000 Ang^3
#
#
#
# Elastic Constant Matrix: (Units=GPa)
#
#
# Indices 1 2 3 4 5 6 
#
# 1 134.0572 31.5982 100.2316 14.8153 -1.0175 -40.5439
# 2 31.5982 48.1467 50.4372 9.6702 -1.4424 -27.5862
# 3 100.2316 50.4372 235.3846 36.6343 11.8636 -17.8875
# 4 14.8153 9.6702 36.6343 33.3197 -17.2029 -1.0461
# 5 -1.0175 -1.4424 11.8636 -17.2029 54.5783 6.2438
# 6 -40.5439 -27.5862 -17.8875 -1.0461 6.2438 44.5745
#
#
#
# Elastic Compliance Matrix: (Units=1/GPa)
#
#
# Indices 1 2 3 4 5 6 
#
# 1 0.015727 0.005275 -0.006536 -0.000949 -0.000156 0.014946
# 2 0.005275 0.043588 -0.008386 -0.005947 -0.002068 0.028559
# 3 -0.006536 -0.008386 0.009705 -0.007652 -0.004082 -0.006848
# 4 -0.000949 -0.005947 -0.007652 0.049675 0.018175 -0.008994
# 5 -0.000156 -0.002068 -0.004082 0.018175 0.025592 -0.006218
# 6 0.014946 0.028559 -0.006848 -0.008994 -0.006218 0.051615
#
#
# Mechanical properties :
#
#
# Convention : Reuss Voigt Hill
#
# Bulk Modulus (GPa) = 20.11035 86.90250 53.50642
# Shear Modulus (GPa) = 21.57303 42.18260 31.87781
#
# Velocity S-wave (km/s) = 2.96253 4.14260 3.60123
# Velocity P-wave (km/s) = 4.45910 7.63126 6.24979
#
# Compressibility (1/GPa) = 0.04972565
#
# Stress axis : x y z
#
# Youngs Moduli (GPa) = 63.58646 22.94184 103.04394
#
# Poissons Ratio (x) = -0.12101 0.67346
# Poissons Ratio (y) = -0.33539 0.86412
# Poissons Ratio (z) = 0.41558 0.19239
#
# Static dielectric constant tensor:
#      x y z
#    x 4.364640 -0.162720 -0.092500 
#    y -0.162720 4.550940 0.095890 
#    z -0.092500 0.095890 5.363160 
# 
# 
# High freq. dielectric constant tensor:
#      x y z
#    x 1.975620 -0.015250 -0.010960 
#    y -0.015250 1.967750 0.006870 
#    z -0.010960 0.006870 2.015670 
# 
# From -- ./inp_files/525753.got.cif
#   From: 2010.06.25/outbox.cif.g09.slc.cpg/sg2_263_cif.got.tgz:525753.got - 2010.06.27 13:26:56.
