data_PCOD8008478
_publ_section_title
;
Structure prediction by ZEFSAII (Michael W. Deem and Ramdas Pophale) SiO2 
 PCOD8008478
Probable space group: P -1
;
_chemical_formula_sum "Si O2"
_cell_formula_units_Z 16
_cell_length_a 12.732330
_cell_length_b 10.110399
_cell_length_c 15.525422
_cell_angle_alpha 146.864074
_cell_angle_beta 133.900021
_cell_angle_gamma 43.507253
_cell_volume 732.176626
_symmetry_space_group_name_H-M "P -1"
_symmetry_group_IT_number 2
_symmetry_cell_setting 'triclinic'
loop_
_space_group_symop_operation_xyz
x,y,z
-x,-y,-z
loop_
_atom_site_type_symbol
_atom_site_label
_atom_site_fract_x
_atom_site_fract_y
_atom_site_fract_z
Si Si1 0.831088 0.122089 0.127193
Si Si2 0.328259 0.048161 0.717509
Si Si3 0.799244 0.043444 0.744349
Si Si4 0.403017 0.135294 0.102366
Si Si5 0.319457 0.589128 0.967424
Si Si6 0.141208 0.513002 0.530272
Si Si7 0.938642 0.015127 0.378461
Si Si8 0.738758 0.258094 0.646264
O O1 0.788651 0.208858 0.052673
O O2 0.760331 0.372032 0.287328
O O3 0.018071 0.992289 0.172200
O O4 0.757158 0.917206 0.006552
O O5 0.268209 0.340521 0.806379
O O6 0.222787 0.035109 0.733704
O O7 0.501446 0.968389 0.811442
O O8 0.323584 0.857972 0.533754
O O9 0.719479 0.118043 0.646289
O O10 0.768903 0.781219 0.612247
O O11 0.706297 0.272983 0.880240
O O12 0.362895 0.440501 0.239286
O O13 0.500000 0.000000 0.000000
O O14 0.500000 0.500000 0.000000
O O15 0.000000 0.500000 0.500000
O O16 0.085862 0.701567 0.519505
O O17 0.075244 0.792566 0.282931
O O18 0.000000 0.000000 0.500000
#
# Coordination Sequence:
#
# PCOD8008478 Si02
#       8
#     2   2   2   2   2   2   2   2
#     4  11  24  44  72 100 139 186 229 291 351 422
#     4  11  25  47  69 100 147 183 232 291 350 420
#     4  11  25  44  75 102 135 185 235 293 347 420
#     4  12  26  44  68 102 148 185 230 289 355 418
#     4  12  26  47  67 104 143 180 234 289 361 416
#     4  10  20  43  70 102 142 172 234 284 345 407
#     4  10  22  40  73 106 132 179 231 294 339 405
#     4  11  24  45  73 103 133 187 239 284 347 420
#
# _framework density 21.852649
#
# number of rings (size 3 to 8) (size 9 to 14) (size 15 to 20)
#    0.000    1.000    3.750    3.000    7.000    2.500 
#    4.500    1.250    0.000    0.000    0.000    0.000 
#    0.000    0.000    0.000    0.000    0.000    0.000 
#
# Total GULP energy -198364.792229 kJ/mol
# GULP energy per Si atom -12397.799514 kJ/mol
# Density = 2.180291 g / cm^3
# Si number density = 21.852649 Si / 1000 Ang^3
#
#
#
# Elastic Constant Matrix: (Units=GPa)
#
#
# Indices 1 2 3 4 5 6 
#
# 1 99.7998 40.6551 51.8948 9.8461 -8.3672 10.5169
# 2 40.6551 97.2179 36.0595 8.3170 -12.0340 21.2499
# 3 51.8948 36.0595 125.7683 14.7683 -14.0548 -2.8148
# 4 9.8461 8.3170 14.7683 47.4773 0.9561 -2.4667
# 5 -8.3672 -12.0340 -14.0548 0.9561 37.9881 3.9538
# 6 10.5169 21.2499 -2.8148 -2.4667 3.9538 41.5694
#
#
#
# Elastic Compliance Matrix: (Units=1/GPa)
#
#
# Indices 1 2 3 4 5 6 
#
# 1 0.014334 -0.003596 -0.004760 -0.000988 0.000513 -0.002218
# 2 -0.003596 0.014862 -0.002323 -0.001592 0.003857 -0.007306
# 3 -0.004760 -0.002323 0.011107 -0.001956 0.002080 0.002830
# 4 -0.000988 -0.001592 -0.001956 0.022329 -0.002265 0.002472
# 5 0.000513 0.003857 0.002080 -0.002265 0.028990 -0.004852
# 6 -0.002218 -0.007306 0.002830 0.002472 -0.004852 0.029152
#
#
# Mechanical properties :
#
#
# Convention : Reuss Voigt Hill
#
# Bulk Modulus (GPa) = 52.78363 64.44501 58.61432
# Shear Modulus (GPa) = 33.68198 38.35206 36.01702
#
# Velocity S-wave (km/s) = 3.93023 4.19385 4.06418
# Velocity P-wave (km/s) = 6.69346 7.28052 6.99315
#
# Compressibility (1/GPa) = 0.01894527
#
# Stress axis : x y z
#
# Youngs Moduli (GPa) = 69.76292 67.28418 90.03682
#
# Poissons Ratio (x) = 0.24196 0.42857
# Poissons Ratio (y) = 0.25087 0.20915
# Poissons Ratio (z) = 0.33207 0.15629
#
# Static dielectric constant tensor:
#      x y z
#    x 7.092680 -0.430530 -4.872590 
#    y -0.430530 4.189130 1.196890 
#    z -4.872590 1.196890 16.705400 
# 
# 
# High freq. dielectric constant tensor:
#      x y z
#    x 1.858080 0.015910 -0.001340 
#    y 0.015910 1.867320 -0.002020 
#    z -0.001340 -0.002020 1.863200 
# 
# From -- ./inp_files/401633.got.cif
#   From: 2010.06.25/outbox.cif.g09.slc.cpg/sg2_201_cif.got.tgz:401633.got - 2010.06.27 13:26:56.
