data_PCOD8008394
_publ_section_title
;
Structure prediction by ZEFSAII (Michael W. Deem and Ramdas Pophale) SiO2 
 PCOD8008394
Probable space group: P -1
;
_chemical_formula_sum "Si O2"
_cell_formula_units_Z 14
_cell_length_a 9.369714
_cell_length_b 10.736470
_cell_length_c 7.349338
_cell_angle_alpha 108.277194
_cell_angle_beta 103.560886
_cell_angle_gamma 105.232858
_cell_volume 635.558278
_symmetry_space_group_name_H-M "P -1"
_symmetry_group_IT_number 2
_symmetry_cell_setting 'triclinic'
loop_
_space_group_symop_operation_xyz
x,y,z
-x,-y,-z
loop_
_atom_site_type_symbol
_atom_site_label
_atom_site_fract_x
_atom_site_fract_y
_atom_site_fract_z
Si Si1 0.952654 0.605871 0.656585
Si Si2 0.797908 0.382498 0.756861
Si Si3 0.628870 0.452197 0.428919
Si Si4 0.785227 0.110029 0.045070
Si Si5 0.765738 0.903051 0.256780
Si Si6 0.912332 0.130257 0.705548
Si Si7 0.577479 0.279380 0.974591
O O1 0.927454 0.541577 0.829074
O O2 0.783700 0.597165 0.520598
O O3 0.000000 0.500000 0.500000
O O4 0.077561 0.761642 0.756476
O O5 0.673966 0.348543 0.534441
O O6 0.886274 0.273714 0.724337
O O7 0.704177 0.376303 0.912749
O O8 0.500000 0.500000 0.500000
O O9 0.572555 0.375645 0.186777
O O10 0.741582 0.974270 0.095073
O O11 0.851717 0.072574 0.861003
O O12 0.631981 0.150766 0.987967
O O13 0.597414 0.780303 0.191261
O O14 0.902156 0.839452 0.244172
O O15 0.806980 0.012376 0.482980
#
# Coordination Sequence:
#
# PCOD8008394 Si02
#       7
#     2   2   2   2   2   2   2
#     4  10  20  43  66  93 128 161 215 254 319 385
#     4   9  23  43  63  96 126 168 210 259 319 378
#     4  10  23  43  63  99 128 166 207 264 324 372
#     4  11  22  42  66  93 124 175 207 260 316 377
#     4  11  24  41  61  98 125 167 215 261 308 382
#     4  10  23  42  62  91 129 167 215 256 319 366
#     4  11  23  41  66  93 132 166 211 261 324 371
#
# _framework density 22.027878000000001
#
# number of rings (size 3 to 8) (size 9 to 14) (size 15 to 20)
#    0.857    0.857    1.429    2.571    2.000    6.286 
#   10.286    0.000    0.000    0.000    0.000    0.000 
#    0.000    0.000    0.000    0.000    0.000    0.000 
#
# Total GULP energy -173527.842570 kJ/mol
# GULP energy per Si atom -12394.845898 kJ/mol
# Density = 2.197774 g / cm^3
# Si number density = 22.027878 Si / 1000 Ang^3
#
#
#
# Elastic Constant Matrix: (Units=GPa)
#
#
# Indices 1 2 3 4 5 6 
#
# 1 155.7359 13.4346 49.1180 8.5025 2.5666 6.4287
# 2 13.4346 57.8823 3.8434 -6.1723 -3.0500 6.2162
# 3 49.1180 3.8434 83.9146 -4.6331 -6.4885 -1.9467
# 4 8.5025 -6.1723 -4.6331 21.8855 4.1747 1.3872
# 5 2.5666 -3.0500 -6.4885 4.1747 38.7514 -3.5697
# 6 6.4287 6.2162 -1.9467 1.3872 -3.5697 20.8521
#
#
#
# Elastic Compliance Matrix: (Units=1/GPa)
#
#
# Indices 1 2 3 4 5 6 
#
# 1 0.008676 -0.001951 -0.005410 -0.004645 -0.001366 -0.002523
# 2 -0.001951 0.018984 0.000546 0.006466 0.000526 -0.005347
# 3 -0.005410 0.000546 0.015612 0.004832 0.002782 0.003117
# 4 -0.004645 0.006466 0.004832 0.051431 -0.004302 -0.004202
# 5 -0.001366 0.000526 0.002782 -0.004302 0.027373 0.005496
# 6 -0.002523 -0.005347 0.003117 -0.004202 0.005496 0.051840
#
#
# Mechanical properties :
#
#
# Convention : Reuss Voigt Hill
#
# Bulk Modulus (GPa) = 33.73363 47.81387 40.77375
# Shear Modulus (GPa) = 25.32586 31.70692 28.51639
#
# Velocity S-wave (km/s) = 3.39443 3.79806 3.60190
# Velocity P-wave (km/s) = 5.54168 6.40210 5.98736
#
# Compressibility (1/GPa) = 0.02964401
#
# Stress axis : x y z
#
# Youngs Moduli (GPa) = 115.26263 52.67459 64.05126
#
# Poissons Ratio (x) = 0.10276 0.34649
# Poissons Ratio (y) = 0.22486 -0.03497
# Poissons Ratio (z) = 0.62352 -0.02876
#
# Static dielectric constant tensor:
#      x y z
#    x 4.210210 0.189320 -0.006260 
#    y 0.189320 3.927400 -0.309270 
#    z -0.006260 -0.309270 3.868860 
# 
# 
# High freq. dielectric constant tensor:
#      x y z
#    x 1.885190 0.006630 -0.001280 
#    y 0.006630 1.846370 -0.016800 
#    z -0.001280 -0.016800 1.868510 
# 
# From -- ./inp_files/182730.got.cif
#   From: 2010.06.25/outbox.cif.g09.slc.cpg/sg2_92_cif.got.tgz:182730.got - 2010.06.27 13:26:56.
