data_PCOD8008588
_publ_section_title
;
Structure prediction by ZEFSAII (Michael W. Deem and Ramdas Pophale) SiO2 
 PCOD8008588
Probable space group: P -1
;
_chemical_formula_sum "Si O2"
_cell_formula_units_Z 12
_cell_length_a 7.071410
_cell_length_b 8.995192
_cell_length_c 15.696710
_cell_angle_alpha 69.292098
_cell_angle_beta 121.779647
_cell_angle_gamma 66.797638
_cell_volume 542.884222
_symmetry_space_group_name_H-M "P -1"
_symmetry_group_IT_number 2
_symmetry_cell_setting 'triclinic'
loop_
_space_group_symop_operation_xyz
x,y,z
-x,-y,-z
loop_
_atom_site_type_symbol
_atom_site_label
_atom_site_fract_x
_atom_site_fract_y
_atom_site_fract_z
Si Si1 0.676905 0.947631 0.640024
Si Si2 0.351687 0.291105 0.168995
Si Si3 0.253459 0.929285 0.005013
Si Si4 0.287194 0.587863 0.762797
Si Si5 0.746175 0.916287 0.194753
Si Si6 0.894528 0.564248 0.557145
O O1 0.666480 0.813035 0.733380
O O2 0.053266 0.782204 0.741286
O O3 0.500000 0.000000 0.500000
O O4 0.494747 0.200101 0.580750
O O5 0.476527 0.394288 0.215506
O O6 0.626863 0.082959 0.212038
O O7 0.000000 0.500000 0.000000
O O8 0.503415 0.660371 0.094889
O O9 0.422884 0.994100 0.072250
O O10 0.102523 0.056569 0.851786
O O11 0.000000 0.000000 0.000000
O O12 0.084407 0.616748 0.631272
O O13 0.028903 0.643012 0.338576
O O14 0.000000 0.500000 0.500000
#
# Coordination Sequence:
#
# PCOD8008588 Si02
#       6
#     2   2   2   2   2   2
#     4  10  23  43  68  95 139 174 218 280 333 391
#     4  12  24  41  69  99 135 173 225 277 331 399
#     4  10  21  40  64  93 132 170 215 273 332 391
#     4  10  24  41  68  98 132 173 222 269 341 390
#     4  10  22  39  63  94 129 170 219 269 328 392
#     4  10  20  44  69  92 133 178 221 272 328 397
#
# _framework density 22.104158999999999
#
# number of rings (size 3 to 8) (size 9 to 14) (size 15 to 20)
#    0.000    1.667    1.667    2.000    0.000   12.000 
#    0.000    2.500    0.000    0.000    0.000    0.000 
#    0.000    0.000    0.000    0.000    0.000    0.000 
#
# Total GULP energy -148736.528466 kJ/mol
# GULP energy per Si atom -12394.710705 kJ/mol
# Density = 2.205385 g / cm^3
# Si number density = 22.104159 Si / 1000 Ang^3
#
#
#
# Elastic Constant Matrix: (Units=GPa)
#
#
# Indices 1 2 3 4 5 6 
#
# 1 120.9254 40.9253 63.2155 -0.3219 -19.3112 -18.6628
# 2 40.9253 113.1110 53.3577 -17.0564 1.5107 -16.4969
# 3 63.2155 53.3577 135.4924 -20.3904 -30.7955 -13.8995
# 4 -0.3219 -17.0564 -20.3904 33.6030 -10.6351 3.8324
# 5 -19.3112 1.5107 -30.7955 -10.6351 38.2353 3.3048
# 6 -18.6628 -16.4969 -13.8995 3.8324 3.3048 42.1835
#
#
#
# Elastic Compliance Matrix: (Units=1/GPa)
#
#
# Indices 1 2 3 4 5 6 
#
# 1 0.012223 -0.002280 -0.004880 -0.004075 0.000923 0.003206
# 2 -0.002280 0.012477 -0.004447 0.001739 -0.004971 0.002637
# 3 -0.004880 -0.004447 0.016492 0.012374 0.014498 -0.000724
# 4 -0.004075 0.001739 0.012374 0.044936 0.020576 -0.002740
# 5 0.000923 -0.004971 0.014498 0.020576 0.044399 -0.002106
# 6 0.003206 0.002637 -0.000724 -0.002740 -0.002106 0.026331
#
#
# Mechanical properties :
#
#
# Convention : Reuss Voigt Hill
#
# Bulk Modulus (GPa) = 55.62287 76.05842 65.84065
# Shear Modulus (GPa) = 26.87240 36.93972 31.90606
#
# Velocity S-wave (km/s) = 3.49050 4.09242 3.80339
# Velocity P-wave (km/s) = 6.43921 7.53753 7.00991
#
# Compressibility (1/GPa) = 0.01797822
#
# Stress axis : x y z
#
# Youngs Moduli (GPa) = 81.80990 80.14841 60.63627
#
# Poissons Ratio (x) = 0.18273 0.29588
# Poissons Ratio (y) = 0.18652 0.26967
# Poissons Ratio (z) = 0.39920 0.35645
#
# Static dielectric constant tensor:
#      x y z
#    x 3.813720 0.118320 -0.221990 
#    y 0.118320 3.744260 0.141880 
#    z -0.221990 0.141880 3.624580 
# 
# 
# High freq. dielectric constant tensor:
#      x y z
#    x 1.860600 -0.009670 -0.010360 
#    y -0.009670 1.883830 -0.014210 
#    z -0.010360 -0.014210 1.875280 
# 
# From -- ./inp_files/27457.got.cif
#   From: 2010.06.25/outbox.cif.g09.slc.cpg/sg2_14_cif.got.tgz:27457.got - 2010.06.27 13:26:56.
