data_PCOD8008547
_publ_section_title
;
Structure prediction by ZEFSAII (Michael W. Deem and Ramdas Pophale) SiO2 
 PCOD8008547
Probable space group: P -1
;
_chemical_formula_sum "Si O2"
_cell_formula_units_Z 16
_cell_length_a 11.106785
_cell_length_b 9.522543
_cell_length_c 8.868737
_cell_angle_alpha 115.691418
_cell_angle_beta 117.355518
_cell_angle_gamma 66.291162
_cell_volume 726.227392
_symmetry_space_group_name_H-M "P -1"
_symmetry_group_IT_number 2
_symmetry_cell_setting 'triclinic'
loop_
_space_group_symop_operation_xyz
x,y,z
-x,-y,-z
loop_
_atom_site_type_symbol
_atom_site_label
_atom_site_fract_x
_atom_site_fract_y
_atom_site_fract_z
Si Si1 0.426781 0.620423 0.727011
Si Si2 0.693428 0.089501 0.795058
Si Si3 0.349215 0.684450 0.384010
Si Si4 0.871150 0.741379 0.677608
Si Si5 0.181518 0.312834 0.715237
Si Si6 0.539545 0.866034 0.086179
Si Si7 0.916801 0.451756 0.789392
Si Si8 0.807681 0.344707 0.165412
O O1 0.391686 0.714940 0.593000
O O2 0.520232 0.440496 0.675798
O O3 0.278355 0.618070 0.711998
O O4 0.510524 0.704964 0.927997
O O5 0.668574 0.146123 0.633478
O O6 0.549614 0.080490 0.788563
O O7 0.798837 0.915118 0.784564
O O8 0.757687 0.220806 0.973615
O O9 0.208145 0.623075 0.263664
O O10 0.804170 0.712812 0.467240
O O11 0.849666 0.609055 0.723536
O O12 0.032400 0.731950 0.734794
O O13 0.296107 0.171138 0.797084
O O14 0.208826 0.486610 0.852730
O O15 0.027082 0.316504 0.691831
O O16 0.500000 0.000000 0.000000
O O17 0.000000 0.500000 0.000000
#
# Coordination Sequence:
#
# PCOD8008547 Si02
#       8
#     2   2   2   2   2   2   2   2
#     4  10  22  40  67  88 131 169 221 262 311 380
#     4  11  25  41  66  94 132 166 211 270 331 374
#     4  11  22  40  65 101 124 170 216 264 316 388
#     4  11  24  41  66 100 132 167 212 271 322 377
#     4  11  23  42  68  92 129 176 219 261 318 384
#     4  11  26  44  63  90 130 170 215 267 327 385
#     4  11  23  40  69  98 133 172 216 259 316 389
#     4  10  20  44  65  93 126 172 215 257 316 393
#
# _framework density 22.031666999999999
#
# number of rings (size 3 to 8) (size 9 to 14) (size 15 to 20)
#    0.000    1.250    0.000    7.125    5.250    3.500 
#    2.250    1.250    0.000    0.000    0.000    0.000 
#    0.000    0.000    0.000    0.000    0.000    0.000 
#
# Total GULP energy -198453.778731 kJ/mol
# GULP energy per Si atom -12403.361171 kJ/mol
# Density = 2.198152 g / cm^3
# Si number density = 22.031667 Si / 1000 Ang^3
#
#
#
# Elastic Constant Matrix: (Units=GPa)
#
#
# Indices 1 2 3 4 5 6 
#
# 1 125.5754 55.5894 19.5508 -10.7141 -14.3241 -15.8702
# 2 55.5894 117.9112 25.5137 -28.9968 -5.5000 -19.7597
# 3 19.5508 25.5137 73.3098 -19.1292 -8.1985 -10.7722
# 4 -10.7141 -28.9968 -19.1292 40.7675 -0.3401 -4.1486
# 5 -14.3241 -5.5000 -8.1985 -0.3401 31.4574 -4.1437
# 6 -15.8702 -19.7597 -10.7722 -4.1486 -4.1437 32.8460
#
#
#
# Elastic Compliance Matrix: (Units=1/GPa)
#
#
# Indices 1 2 3 4 5 6 
#
# 1 0.010828 -0.004310 -0.000468 -0.000094 0.004454 0.003035
# 2 -0.004310 0.014382 0.000142 0.010003 0.001764 0.008102
# 3 -0.000468 0.000142 0.017842 0.009167 0.005558 0.007570
# 4 -0.000094 0.010003 0.009167 0.037452 0.006412 0.014518
# 5 0.004454 0.001764 0.005558 0.006412 0.037029 0.010517
# 6 0.003035 0.008102 0.007570 0.014518 0.010517 0.042429
#
#
# Mechanical properties :
#
#
# Convention : Reuss Voigt Hill
#
# Bulk Modulus (GPa) = 29.60350 57.56714 43.58532
# Shear Modulus (GPa) = 27.70188 35.42367 31.56277
#
# Velocity S-wave (km/s) = 3.54978 4.01415 3.78909
# Velocity P-wave (km/s) = 5.50157 6.90439 6.24251
#
# Compressibility (1/GPa) = 0.03377979
#
# Stress axis : x y z
#
# Youngs Moduli (GPa) = 92.35445 69.53031 56.04794
#
# Poissons Ratio (x) = 0.29969 0.02623
# Poissons Ratio (y) = 0.39806 -0.00796
# Poissons Ratio (z) = 0.04322 -0.00987
#
# Static dielectric constant tensor:
#      x y z
#    x 4.228190 -0.127610 -0.134930 
#    y -0.127610 3.834950 -0.081750 
#    z -0.134930 -0.081750 4.098740 
# 
# 
# High freq. dielectric constant tensor:
#      x y z
#    x 1.878700 -0.011230 -0.007950 
#    y -0.011230 1.856960 -0.008470 
#    z -0.007950 -0.008470 1.875490 
# 
# From -- ./inp_files/242651.got.cif
#   From: 2010.06.25/outbox.cif.g09.slc.cpg/sg2_122_cif.got.tgz:242651.got - 2010.06.27 13:26:56.
