data_PCOD8008956
_publ_section_title
;
Structure prediction by ZEFSAII (Michael W. Deem and Ramdas Pophale) SiO2 
 PCOD8008956
Probable space group: P -1
;
_chemical_formula_sum "Si O2"
_cell_formula_units_Z 14
_cell_length_a 10.934531
_cell_length_b 8.096328
_cell_length_c 9.132583
_cell_angle_alpha 108.478790
_cell_angle_beta 64.073761
_cell_angle_gamma 79.651791
_cell_volume 639.859208
_symmetry_space_group_name_H-M "P -1"
_symmetry_group_IT_number 2
_symmetry_cell_setting 'triclinic'
loop_
_space_group_symop_operation_xyz
x,y,z
-x,-y,-z
loop_
_atom_site_type_symbol
_atom_site_label
_atom_site_fract_x
_atom_site_fract_y
_atom_site_fract_z
Si Si1 0.802504 0.971411 0.993546
Si Si2 0.839490 0.391393 0.606182
Si Si3 0.158673 0.263952 0.488434
Si Si4 0.395096 0.921235 0.118075
Si Si5 0.676993 0.648097 0.005297
Si Si6 0.863025 0.189622 0.260140
Si Si7 0.153323 0.467021 0.833213
O O1 0.785030 0.058049 0.191375
O O2 0.762932 0.785924 0.958466
O O3 0.699754 0.125001 0.974328
O O4 0.965405 0.924533 0.835397
O O5 0.836453 0.573811 0.574089
O O6 0.789930 0.268080 0.478349
O O7 0.997170 0.260583 0.551179
O O8 0.729920 0.464456 0.820886
O O9 0.184837 0.299772 0.653570
O O10 0.285263 0.067626 0.328309
O O11 0.500736 0.743049 0.105132
O O12 0.500000 0.000000 0.000000
O O13 0.713872 0.587003 0.136133
O O14 0.850998 0.348294 0.193620
O O15 0.000000 0.500000 0.000000
#
# Coordination Sequence:
#
# PCOD8008956 Si02
#       7
#     2   2   2   2   2   2   2
#     4  10  18  34  55  83 105 144 175 233 265 315
#     4  10  16  31  55  83  97 142 185 222 251 323
#     4  10  17  30  54  79 109 134 185 220 262 309
#     4  10  19  33  55  83 106 143 182 225 256 328
#     4  11  20  35  60  79 110 139 190 216 267 318
#     4  10  20  32  58  81 111 134 183 227 279 298
#     4  11  20  33  54  86 108 141 179 231 263 321
#
# _framework density 21.879814
#
# number of rings (size 3 to 8) (size 9 to 14) (size 15 to 20)
#    0.000    1.714    7.143    0.857    0.000    0.571 
#    0.000    1.429    3.143    3.429    0.000    0.000 
#    0.000    0.000    0.000    0.000    0.000    0.000 
#
# Total GULP energy -173496.413168 kJ/mol
# GULP energy per Si atom -12392.600941 kJ/mol
# Density = 2.183001 g / cm^3
# Si number density = 21.879814 Si / 1000 Ang^3
#
#
#
# Elastic Constant Matrix: (Units=GPa)
#
#
# Indices 1 2 3 4 5 6 
#
# 1 141.7618 38.7454 72.5498 16.8856 25.1499 -45.6198
# 2 38.7454 23.1591 31.7582 5.3863 3.8195 -23.1962
# 3 72.5498 31.7582 166.9172 32.3429 28.1402 -22.9764
# 4 16.8856 5.3863 32.3429 32.8886 -3.5255 2.2621
# 5 25.1499 3.8195 28.1402 -3.5255 45.8104 4.4095
# 6 -45.6198 -23.1962 -22.9764 2.2621 4.4095 44.4945
#
#
#
# Elastic Compliance Matrix: (Units=1/GPa)
#
#
# Indices 1 2 3 4 5 6 
#
# 1 0.017651 -0.012767 0.000111 -0.009118 -0.010649 0.013018
# 2 -0.012767 0.133409 -0.010351 -0.009055 -0.003450 0.051917
# 3 0.000111 -0.010351 0.011412 -0.010483 -0.007193 0.001856
# 4 -0.009118 -0.009055 -0.010483 0.050491 0.018383 -0.023871
# 5 -0.010649 -0.003450 -0.007193 0.018383 0.035810 -0.020915
# 6 0.013018 0.051917 0.001856 -0.023871 -0.020915 0.067132
#
#
# Mechanical properties :
#
#
# Convention : Reuss Voigt Hill
#
# Bulk Modulus (GPa) = 8.58685 68.66053 38.62369
# Shear Modulus (GPa) = 12.47698 37.22433 24.85066
#
# Velocity S-wave (km/s) = 2.39058 4.12917 3.37379
# Velocity P-wave (km/s) = 3.39896 7.36086 5.73303
#
# Compressibility (1/GPa) = 0.11645719
#
# Stress axis : x y z
#
# Youngs Moduli (GPa) = 56.65317 7.49576 87.63083
#
# Poissons Ratio (x) = 0.09570 -0.00973
# Poissons Ratio (y) = 0.72331 0.90705
# Poissons Ratio (z) = -0.00629 0.07759
#
# Static dielectric constant tensor:
#      x y z
#    x 3.121360 -0.520290 0.323580 
#    y -0.520290 3.772240 0.265010 
#    z 0.323580 0.265010 4.130700 
# 
# 
# High freq. dielectric constant tensor:
#      x y z
#    x 1.858820 -0.025860 0.028050 
#    y -0.025860 1.830520 0.013950 
#    z 0.028050 0.013950 1.859010 
# 
# From -- ./inp_files/240189.got.cif
#   From: 2010.06.25/outbox.cif.g09.slc.cpg/sg2_121_cif.got.tgz:240189.got - 2010.06.27 13:26:56.
