data_PCOD8008101
_publ_section_title
;
Structure prediction by ZEFSAII (Michael W. Deem and Ramdas Pophale) SiO2 
 PCOD8008101
Probable space group: P -1
;
_chemical_formula_sum "Si O2"
_cell_formula_units_Z 16
_cell_length_a 22.919739
_cell_length_b 9.546760
_cell_length_c 19.757588
_cell_angle_alpha 32.734981
_cell_angle_beta 19.631560
_cell_angle_gamma 32.811054
_cell_volume 757.298623
_symmetry_space_group_name_H-M "P -1"
_symmetry_group_IT_number 2
_symmetry_cell_setting 'triclinic'
loop_
_space_group_symop_operation_xyz
x,y,z
-x,-y,-z
loop_
_atom_site_type_symbol
_atom_site_label
_atom_site_fract_x
_atom_site_fract_y
_atom_site_fract_z
Si Si1 0.631691 0.773849 0.035267
Si Si2 0.308458 0.234944 0.181641
Si Si3 0.086606 0.031010 0.787368
Si Si4 0.038890 0.561094 0.120002
Si Si5 0.563703 0.409415 0.568985
Si Si6 0.509081 0.088152 0.638092
Si Si7 0.099585 0.859928 0.624347
Si Si8 0.191855 0.829895 0.088141
O O1 0.514502 0.584787 0.271759
O O2 0.510254 0.082925 0.049137
O O3 0.680392 0.693942 0.937813
O O4 0.811099 0.707038 0.911048
O O5 0.230396 0.514550 0.191666
O O6 0.170943 0.051935 0.417059
O O7 0.276925 0.053650 0.540034
O O8 0.109577 0.734216 0.915165
O O9 0.036668 0.253895 0.809283
O O10 0.929032 0.089486 0.879843
O O11 0.892568 0.423966 0.304851
O O12 0.458538 0.264043 0.690268
O O13 0.547866 0.713874 0.443626
O O14 0.769483 0.227137 0.418624
O O15 0.388918 0.880280 0.845958
O O16 0.905803 0.011356 0.804386
#
# Coordination Sequence:
#
# PCOD8008101 Si02
#       8
#     2   2   2   2   2   2   2   2
#     4  10  20  42  66  86 134 172 217 270 320 389
#     4  10  24  43  64  93 132 179 224 278 313 383
#     4  11  24  43  68 102 141 160 220 279 326 408
#     4  11  23  43  66 101 130 178 213 273 340 389
#     4  10  21  40  63 100 133 168 218 271 328 403
#     4  11  23  39  69  98 135 175 208 272 343 391
#     4  11  24  42  69  93 134 180 223 270 329 384
#     4  12  24  44  67 102 133 176 220 272 329 392
#
# _framework density 21.127728999999999
#
# number of rings (size 3 to 8) (size 9 to 14) (size 15 to 20)
#    0.000    1.250    3.750    1.875    1.750    4.500 
#    2.250    5.625    0.000    0.000    0.000    0.000 
#    0.000    0.000    0.000    0.000    0.000    0.000 
#
# Total GULP energy -198324.601523 kJ/mol
# GULP energy per Si atom -12395.287595 kJ/mol
# Density = 2.107964 g / cm^3
# Si number density = 21.127729 Si / 1000 Ang^3
#
#
#
# Elastic Constant Matrix: (Units=GPa)
#
#
# Indices 1 2 3 4 5 6 
#
# 1 83.1212 41.7090 43.2203 -7.6343 -1.0880 -7.8633
# 2 41.7090 97.1162 44.6427 -8.9747 -4.2023 -3.7646
# 3 43.2203 44.6427 134.0430 -5.7144 -8.3978 5.8513
# 4 -7.6343 -8.9747 -5.7144 34.6783 0.0587 -2.3784
# 5 -1.0880 -4.2023 -8.3978 0.0587 26.2845 0.1006
# 6 -7.8633 -3.7646 5.8513 -2.3784 0.1006 37.0695
#
#
#
# Elastic Compliance Matrix: (Units=1/GPa)
#
#
# Indices 1 2 3 4 5 6 
#
# 1 0.017310 -0.005327 -0.003980 0.002046 -0.001426 0.003894
# 2 -0.005327 0.014188 -0.002888 0.002083 0.001117 0.000897
# 3 -0.003980 -0.002888 0.009978 -0.000171 0.002572 -0.002730
# 4 0.002046 0.002083 -0.000171 0.029975 0.000286 0.002595
# 5 -0.001426 0.001117 0.002572 0.000286 0.038989 -0.000683
# 6 0.003894 0.000897 -0.002730 0.002595 -0.000683 0.028493
#
#
# Mechanical properties :
#
#
# Convention : Reuss Voigt Hill
#
# Bulk Modulus (GPa) = 58.52103 63.71383 61.11743
# Shear Modulus (GPa) = 29.58262 31.92035 30.75149
#
# Velocity S-wave (km/s) = 3.74596 3.89115 3.81925
# Velocity P-wave (km/s) = 6.81677 7.10000 6.95983
#
# Compressibility (1/GPa) = 0.01708787
#
# Stress axis : x y z
#
# Youngs Moduli (GPa) = 57.76878 70.48287 100.21653
#
# Poissons Ratio (x) = 0.37544 0.39882
# Poissons Ratio (y) = 0.30772 0.28944
# Poissons Ratio (z) = 0.22989 0.20356
#
# Static dielectric constant tensor:
#      x y z
#    x 3.851120 -0.240660 0.058890 
#    y -0.240660 3.821350 0.151100 
#    z 0.058890 0.151100 3.765030 
# 
# 
# High freq. dielectric constant tensor:
#      x y z
#    x 1.828880 -0.012710 0.007840 
#    y -0.012710 1.830030 0.014070 
#    z 0.007840 0.014070 1.824470 
# 
# From -- ./inp_files/446456.got.cif
#   From: 2010.06.25/outbox.cif.g09.slc.cpg/sg2_224_cif.got.tgz:446456.got - 2010.06.27 13:26:56.
