data_PCOD8008871
_publ_section_title
;
Structure prediction by ZEFSAII (Michael W. Deem and Ramdas Pophale) SiO2 
 PCOD8008871
Probable space group: P -1
;
_chemical_formula_sum "Si O2"
_cell_formula_units_Z 14
_cell_length_a 8.863507
_cell_length_b 19.918423
_cell_length_c 6.214698
_cell_angle_alpha 110.774025
_cell_angle_beta 43.430187
_cell_angle_gamma 124.815369
_cell_volume 615.762024
_symmetry_space_group_name_H-M "P -1"
_symmetry_group_IT_number 2
_symmetry_cell_setting 'triclinic'
loop_
_space_group_symop_operation_xyz
x,y,z
-x,-y,-z
loop_
_atom_site_type_symbol
_atom_site_label
_atom_site_fract_x
_atom_site_fract_y
_atom_site_fract_z
Si Si1 0.875759 0.548974 0.790983
Si Si2 0.981084 0.828354 0.271518
Si Si3 0.617519 0.599068 0.756086
Si Si4 0.051544 0.679741 0.087898
Si Si5 0.123082 0.975613 0.534331
Si Si6 0.751661 0.879484 0.188912
Si Si7 0.482661 0.259506 0.026656
O O1 0.786839 0.590879 0.753801
O O2 0.000000 0.500000 0.500000
O O3 0.639969 0.485777 0.107651
O O4 0.080149 0.623516 0.810630
O O5 0.914742 0.851758 0.137194
O O6 0.090746 0.766244 0.052280
O O7 0.193964 0.909984 0.276477
O O8 0.729232 0.788763 0.630802
O O9 0.768286 0.625594 0.406921
O O10 0.556303 0.670666 0.971235
O O11 0.246716 0.697257 0.095004
O O12 0.662734 0.937167 0.482537
O O13 0.000000 0.000000 0.500000
O O14 0.924438 0.932046 0.876626
O O15 0.518497 0.800008 0.232334
#
# Coordination Sequence:
#
# PCOD8008871 Si02
#       7
#     2   2   2   2   2   2   2
#     4  11  24  40  61  87 114 150 196 242 292 349
#     4   9  19  35  56  82 114 152 192 234 285 340
#     4  10  23  41  60  83 115 153 194 237 292 348
#     4  11  23  39  59  84 117 152 192 242 292 346
#     4   8  15  30  57  86 111 150 194 231 278 335
#     4   9  16  32  57  82 115 152 188 233 283 336
#     4  10  21  35  56  85 114 150 192 235 287 343
#
# _framework density 22.736055
#
# number of rings (size 3 to 8) (size 9 to 14) (size 15 to 20)
#    0.000    2.286    0.000    2.143    0.000    9.143 
#    0.000    0.714    0.000   29.143    0.000    0.000 
#    0.000    0.000    0.000    0.000    0.000    0.000 
#
# Total GULP energy -173442.341347 kJ/mol
# GULP energy per Si atom -12388.738668 kJ/mol
# Density = 2.268431 g / cm^3
# Si number density = 22.736055 Si / 1000 Ang^3
#
#
#
# Elastic Constant Matrix: (Units=GPa)
#
#
# Indices 1 2 3 4 5 6 
#
# 1 119.5766 87.0430 36.9078 22.0176 9.8455 5.1558
# 2 87.0430 189.6628 52.2639 50.5292 14.9167 10.9373
# 3 36.9078 52.2639 43.9443 27.7478 7.1582 -1.8191
# 4 22.0176 50.5292 27.7478 38.8090 0.2543 22.9685
# 5 9.8455 14.9167 7.1582 0.2543 28.6179 1.1866
# 6 5.1558 10.9373 -1.8191 22.9685 1.1866 50.6095
#
#
#
# Elastic Compliance Matrix: (Units=1/GPa)
#
#
# Indices 1 2 3 4 5 6 
#
# 1 0.015248 -0.006636 -0.015596 0.015804 0.002301 -0.007906
# 2 -0.006636 0.012362 0.004749 -0.020079 -0.005477 0.007416
# 3 -0.015596 0.004749 0.092406 -0.090044 -0.021299 0.045249
# 4 0.015804 -0.020079 -0.090044 0.147439 0.029065 -0.068102
# 5 0.002301 -0.005477 -0.021299 0.029065 0.042656 -0.014007
# 6 -0.007906 0.007416 0.045249 -0.068102 -0.014007 0.051824
#
#
# Mechanical properties :
#
#
# Convention : Reuss Voigt Hill
#
# Bulk Modulus (GPa) = 11.75770 78.40147 45.07958
# Shear Modulus (GPa) = 11.75774 35.40521 23.58148
#
# Velocity S-wave (km/s) = 2.27654 3.95045 3.22403
# Velocity P-wave (km/s) = 3.47747 7.44085 5.80771
#
# Compressibility (1/GPa) = 0.08505067
#
# Stress axis : x y z
#
# Youngs Moduli (GPa) = 65.58038 80.89421 10.82177
#
# Poissons Ratio (x) = 0.53681 0.16877
# Poissons Ratio (y) = 0.43519 -0.05139
# Poissons Ratio (z) = 1.02278 -0.38415
#
# Static dielectric constant tensor:
#      x y z
#    x 3.896360 0.088640 0.313310 
#    y 0.088640 5.071490 0.203280 
#    z 0.313310 0.203280 3.904960 
# 
# 
# High freq. dielectric constant tensor:
#      x y z
#    x 1.879390 -0.006370 0.031160 
#    y -0.006370 1.936540 0.006460 
#    z 0.031160 0.006460 1.869070 
# 
# From -- ./inp_files/53363.got.cif
#   From: 2010.06.25/outbox.cif.g09.slc.cpg/sg2_27_cif.got.tgz:53363.got - 2010.06.27 13:26:56.
