data_PCOD8008354
_publ_section_title
;
Structure prediction by ZEFSAII (Michael W. Deem and Ramdas Pophale) SiO2 
 PCOD8008354
Probable space group: P -1
;
_chemical_formula_sum "Si O2"
_cell_formula_units_Z 16
_cell_length_a 15.304428
_cell_length_b 17.133577
_cell_length_c 11.380970
_cell_angle_alpha 144.027965
_cell_angle_beta 142.130171
_cell_angle_gamma 26.917081
_cell_volume 767.350559
_symmetry_space_group_name_H-M "P -1"
_symmetry_group_IT_number 2
_symmetry_cell_setting 'triclinic'
loop_
_space_group_symop_operation_xyz
x,y,z
-x,-y,-z
loop_
_atom_site_type_symbol
_atom_site_label
_atom_site_fract_x
_atom_site_fract_y
_atom_site_fract_z
Si Si1 0.565173 0.615992 0.889077
Si Si2 0.216363 0.446209 0.532508
Si Si3 0.459034 0.904457 0.685423
Si Si4 0.934225 0.240985 0.898912
Si Si5 0.833305 0.062790 0.739829
Si Si6 0.820866 0.582658 0.287141
Si Si7 0.746641 0.281616 0.133808
Si Si8 0.375546 0.922343 0.881532
O O1 0.754679 0.391838 0.797788
O O2 0.403396 0.647986 0.834728
O O3 0.467803 0.729126 0.802749
O O4 0.640870 0.696995 0.141389
O O5 0.327779 0.299154 0.366011
O O6 0.262014 0.342132 0.577764
O O7 0.295259 0.543821 0.744472
O O8 0.978466 0.594382 0.434737
O O9 0.299260 0.967397 0.493663
O O10 0.385401 0.895442 0.720390
O O11 0.487038 0.044463 0.891539
O O12 0.885515 0.138893 0.791505
O O13 0.144517 0.091001 0.874412
O O14 0.938937 0.361934 0.142130
O O15 0.713219 0.204546 0.894903
O O16 0.032283 0.867373 0.761796
#
# Coordination Sequence:
#
# PCOD8008354 Si02
#       8
#     2   2   2   2   2   2   2   2
#     4  10  21  40  66  90 119 173 203 262 316 363
#     4  11  20  40  62  97 128 163 210 255 323 376
#     4  11  25  42  64  88 127 174 205 263 314 364
#     4  10  20  43  64  90 129 166 203 263 316 362
#     4  11  23  39  62  96 131 169 201 263 320 369
#     4   9  21  36  66  95 123 166 201 262 319 373
#     4  11  22  38  63  98 132 158 213 259 312 391
#     4  11  24  47  62  92 128 164 223 257 298 381
#
# _framework density 20.850966
#
# number of rings (size 3 to 8) (size 9 to 14) (size 15 to 20)
#    0.750    0.750    3.750    1.500    1.750    2.000 
#    2.250    4.375    0.000    0.000    0.000    0.000 
#    0.000    0.000    0.000    0.000    0.000    0.000 
#
# Total GULP energy -198329.199896 kJ/mol
# GULP energy per Si atom -12395.574994 kJ/mol
# Density = 2.080351 g / cm^3
# Si number density = 20.850966 Si / 1000 Ang^3
#
#
#
# Elastic Constant Matrix: (Units=GPa)
#
#
# Indices 1 2 3 4 5 6 
#
# 1 112.9030 43.1492 14.6825 -0.9832 -1.3069 -8.8147
# 2 43.1492 60.3567 11.6821 0.6879 -9.9431 3.0326
# 3 14.6825 11.6821 69.1992 -12.6206 -1.5914 -1.6100
# 4 -0.9832 0.6879 -12.6206 20.8302 -7.7145 -0.1884
# 5 -1.3069 -9.9431 -1.5914 -7.7145 21.1290 -4.5150
# 6 -8.8147 3.0326 -1.6100 -0.1884 -4.5150 22.5808
#
#
#
# Elastic Compliance Matrix: (Units=1/GPa)
#
#
# Indices 1 2 3 4 5 6 
#
# 1 0.013260 -0.010032 -0.001211 -0.000858 -0.003062 0.005818
# 2 -0.010032 0.026162 -0.001881 0.001536 0.010965 -0.005359
# 3 -0.001211 -0.001881 0.017511 0.012654 0.005455 0.002224
# 4 -0.000858 0.001536 0.012654 0.065611 0.026922 0.006291
# 5 -0.003062 0.010965 0.005455 0.026922 0.064872 0.010916
# 6 0.005818 -0.005359 0.002224 0.006291 0.010916 0.049670
#
#
# Mechanical properties :
#
#
# Convention : Reuss Voigt Hill
#
# Bulk Modulus (GPa) = 32.58959 42.38739 37.48849
# Shear Modulus (GPa) = 18.27736 24.43767 21.35752
#
# Velocity S-wave (km/s) = 2.96391 3.42719 3.20393
# Velocity P-wave (km/s) = 5.23227 6.00281 5.63074
#
# Compressibility (1/GPa) = 0.03068465
#
# Stress axis : x y z
#
# Youngs Moduli (GPa) = 75.41408 38.22280 57.10812
#
# Poissons Ratio (x) = 0.38346 0.06919
# Poissons Ratio (y) = 0.75657 0.10739
# Poissons Ratio (z) = 0.09136 0.07188
#
# Static dielectric constant tensor:
#      x y z
#    x 3.677920 -0.139210 0.076980 
#    y -0.139210 3.634360 -0.092620 
#    z 0.076980 -0.092620 3.657720 
# 
# 
# High freq. dielectric constant tensor:
#      x y z
#    x 1.820460 -0.013020 0.011550 
#    y -0.013020 1.804380 -0.010800 
#    z 0.011550 -0.010800 1.808680 
# 
# From -- ./inp_files/456501.got.cif
#   From: 2010.06.25/outbox.cif.g09.slc.cpg/sg2_229_cif.got.tgz:456501.got - 2010.06.27 13:26:56.
