data_PCOD8008360
_publ_section_title
;
Structure prediction by ZEFSAII (Michael W. Deem and Ramdas Pophale) SiO2 
 PCOD8008360
Probable space group: P -1
;
_chemical_formula_sum "Si O2"
_cell_formula_units_Z 16
_cell_length_a 8.943445
_cell_length_b 8.456942
_cell_length_c 14.877982
_cell_angle_alpha 45.097372
_cell_angle_beta 117.422421
_cell_angle_gamma 99.584797
_cell_volume 684.608310
_symmetry_space_group_name_H-M "P -1"
_symmetry_group_IT_number 2
_symmetry_cell_setting 'triclinic'
loop_
_space_group_symop_operation_xyz
x,y,z
-x,-y,-z
loop_
_atom_site_type_symbol
_atom_site_label
_atom_site_fract_x
_atom_site_fract_y
_atom_site_fract_z
Si Si1 0.775334 0.571192 0.273088
Si Si2 0.359625 0.056779 0.771893
Si Si3 0.714953 0.546986 0.621965
Si Si4 0.473644 0.576631 0.063508
Si Si5 0.064229 0.153053 0.529226
Si Si6 0.817564 0.663391 0.911638
Si Si7 0.613361 0.150790 0.650851
Si Si8 0.031089 0.251653 0.899765
O O1 0.676156 0.711724 0.272805
O O2 0.642539 0.480261 0.209430
O O3 0.887211 0.712264 0.189065
O O4 0.897771 0.342630 0.443650
O O5 0.179059 0.011645 0.698930
O O6 0.503612 0.064154 0.733902
O O7 0.428301 0.853140 0.943730
O O8 0.801842 0.719793 0.526028
O O9 0.715550 0.326925 0.648047
O O10 0.517268 0.705121 0.521249
O O11 0.840540 0.439102 0.784006
O O12 0.320686 0.475163 0.100204
O O13 0.500000 0.500000 0.000000
O O14 0.000000 0.000000 0.500000
O O15 0.753091 0.920645 0.744552
O O16 0.832959 0.707274 0.004962
O O17 0.000000 0.500000 0.000000
O O18 0.000000 0.000000 0.000000
#
# Coordination Sequence:
#
# PCOD8008360 Si02
#       8
#     2   2   2   2   2   2   2   2
#     4  11  24  41  68  97 129 177 225 266 327 404
#     4  11  23  39  68  97 132 173 223 270 322 399
#     4   9  21  37  71  88 129 173 216 260 337 386
#     4  12  23  42  64  96 133 170 219 277 335 383
#     4  10  22  40  66  99 133 173 213 270 332 388
#     4  12  27  42  65  96 132 175 221 279 337 396
#     4  10  20  43  64  95 131 173 218 273 329 390
#     4  11  22  41  64  96 134 172 218 273 331 392
#
# _framework density 23.371027999999999
#
# number of rings (size 3 to 8) (size 9 to 14) (size 15 to 20)
#    0.000    1.250    3.750    1.500    5.250    1.000 
#    0.000    1.875    0.000    0.000    0.000    0.000 
#    0.000    0.000    0.000    0.000    0.000    0.000 
#
# Total GULP energy -198252.802894 kJ/mol
# GULP energy per Si atom -12390.800181 kJ/mol
# Density = 2.331783 g / cm^3
# Si number density = 23.371028 Si / 1000 Ang^3
#
#
#
# Elastic Constant Matrix: (Units=GPa)
#
#
# Indices 1 2 3 4 5 6 
#
# 1 61.3660 25.2649 20.2739 -9.4743 15.4376 19.6681
# 2 25.2649 83.8753 12.3395 -5.3351 14.8338 18.1964
# 3 20.2739 12.3395 121.3869 -10.8229 29.1363 9.0537
# 4 -9.4743 -5.3351 -10.8229 49.6774 2.0714 7.4549
# 5 15.4376 14.8338 29.1363 2.0714 34.7825 -3.3766
# 6 19.6681 18.1964 9.0537 7.4549 -3.3766 43.6234
#
#
#
# Elastic Compliance Matrix: (Units=1/GPa)
#
#
# Indices 1 2 3 4 5 6 
#
# 1 0.025386 -0.002303 0.000569 0.007156 -0.012430 -0.012788
# 2 -0.002303 0.015383 0.001380 0.002837 -0.007517 -0.006732
# 3 0.000569 0.001380 0.011351 0.003897 -0.011039 -0.004709
# 4 0.007156 0.002837 0.003897 0.024601 -0.010106 -0.010205
# 5 -0.012430 -0.007517 -0.011039 -0.010106 0.048928 0.016545
# 6 -0.012788 -0.006732 -0.004709 -0.010205 0.016545 0.035499
#
#
# Mechanical properties :
#
#
# Convention : Reuss Voigt Hill
#
# Bulk Modulus (GPa) = 19.44999 42.48720 30.96860
# Shear Modulus (GPa) = 27.93421 39.53333 33.73377
#
# Velocity S-wave (km/s) = 3.46099 4.11731 3.80333
# Velocity P-wave (km/s) = 4.93068 6.38920 5.70673
#
# Compressibility (1/GPa) = 0.05141391
#
# Stress axis : x y z
#
# Youngs Moduli (GPa) = 39.39199 65.00518 88.09799
#
# Poissons Ratio (x) = 0.14969 -0.05016
# Poissons Ratio (y) = 0.09071 -0.12159
# Poissons Ratio (z) = -0.02243 -0.08972
#
# Static dielectric constant tensor:
#      x y z
#    x 4.345760 0.731090 0.300230 
#    y 0.731090 4.406270 -0.058110 
#    z 0.300230 -0.058110 4.986540 
# 
# 
# High freq. dielectric constant tensor:
#      x y z
#    x 1.899370 0.034110 0.026510 
#    y 0.034110 1.914370 -0.002570 
#    z 0.026510 -0.002570 1.952310 
# 
# From -- ./inp_files/556816.got.cif
#   From: 2010.06.25/outbox.cif.g09.slc.cpg/sg2_279_cif.got.tgz:556816.got - 2010.06.27 13:26:56.
