data_PCOD8008939
_publ_section_title
;
Structure prediction by ZEFSAII (Michael W. Deem and Ramdas Pophale) SiO2 
 PCOD8008939
Probable space group: P -1
;
_chemical_formula_sum "Si O2"
_cell_formula_units_Z 16
_cell_length_a 11.305284
_cell_length_b 17.062802
_cell_length_c 9.021607
_cell_angle_alpha 68.151400
_cell_angle_beta 99.595568
_cell_angle_gamma 43.067810
_cell_volume 796.306428
_symmetry_space_group_name_H-M "P -1"
_symmetry_group_IT_number 2
_symmetry_cell_setting 'triclinic'
loop_
_space_group_symop_operation_xyz
x,y,z
-x,-y,-z
loop_
_atom_site_type_symbol
_atom_site_label
_atom_site_fract_x
_atom_site_fract_y
_atom_site_fract_z
Si Si1 0.800082 0.052550 0.911771
Si Si2 0.667915 0.022025 0.644338
Si Si3 0.418314 0.080499 0.085233
Si Si4 0.572874 0.593764 0.465089
Si Si5 0.136665 0.142445 0.502015
Si Si6 0.865747 0.675462 0.729750
Si Si7 0.155265 0.728229 0.389077
Si Si8 0.023888 0.568213 0.161329
O O1 0.752264 0.052000 0.733369
O O2 0.555594 0.253059 0.769607
O O3 0.000000 0.000000 0.000000
O O4 0.903681 0.908998 0.127036
O O5 0.407711 0.188666 0.397993
O O6 0.657343 0.949149 0.802018
O O7 0.855463 0.897171 0.636115
O O8 0.614856 0.022438 0.241266
O O9 0.178348 0.280837 0.870220
O O10 0.500000 0.000000 0.000000
O O11 0.363947 0.668840 0.451887
O O12 0.748171 0.423139 0.533710
O O13 0.720789 0.551503 0.651798
O O14 0.103721 0.263411 0.412640
O O15 0.914781 0.234818 0.477759
O O16 0.996847 0.520081 0.782192
O O17 0.977419 0.631092 0.942313
#
# Coordination Sequence:
#
# PCOD8008939 Si02
#       8
#     2   2   2   2   2   2   2   2
#     4  10  21  40  66  88 117 163 210 254 305 361
#     4  11  19  39  60  86 123 160 200 255 306 375
#     4  11  21  35  61  91 121 163 204 251 312 368
#     4  10  21  41  67  87 121 163 217 252 307 363
#     4  11  21  40  58  94 124 161 207 246 319 376
#     4  10  21  35  60  87 129 156 198 252 315 367
#     4  10  23  42  65  89 124 165 207 262 303 369
#     4  11  19  37  60  92 121 163 201 257 307 366
#
# _framework density 20.092766999999998
#
# number of rings (size 3 to 8) (size 9 to 14) (size 15 to 20)
#    0.000    1.500    3.750    3.000    0.000    0.000 
#    4.500    5.000    0.000    0.000    0.000    0.000 
#    0.000    0.000    0.000    0.000    0.000    0.000 
#
# Total GULP energy -198227.785483 kJ/mol
# GULP energy per Si atom -12389.236593 kJ/mol
# Density = 2.004703 g / cm^3
# Si number density = 20.092767 Si / 1000 Ang^3
#
#
#
# Elastic Constant Matrix: (Units=GPa)
#
#
# Indices 1 2 3 4 5 6 
#
# 1 52.6111 42.8070 27.3152 -1.5886 4.9870 -1.4803
# 2 42.8070 143.7627 54.2429 -8.6732 -17.9273 0.8045
# 3 27.3152 54.2429 108.9660 -19.0955 0.3321 7.4828
# 4 -1.5886 -8.6732 -19.0955 34.6815 8.7990 -5.0542
# 5 4.9870 -17.9273 0.3321 8.7990 26.6215 3.5055
# 6 -1.4803 0.8045 7.4828 -5.0542 3.5055 32.4341
#
#
#
# Elastic Compliance Matrix: (Units=1/GPa)
#
#
# Indices 1 2 3 4 5 6 
#
# 1 0.029233 -0.009168 -0.002765 0.001247 -0.012521 0.003747
# 2 -0.009168 0.012603 -0.004402 -0.002774 0.011358 -0.001375
# 3 -0.002765 -0.004402 0.013434 0.007168 -0.004788 -0.001482
# 4 0.001247 -0.002774 0.007168 0.036836 -0.015136 0.005848
# 5 -0.012521 0.011358 -0.004788 -0.015136 0.053661 -0.007907
# 6 0.003747 -0.001375 -0.001482 0.005848 -0.007907 0.033145
#
#
# Mechanical properties :
#
#
# Convention : Reuss Voigt Hill
#
# Bulk Modulus (GPa) = 44.24742 61.56336 52.90539
# Shear Modulus (GPa) = 22.81902 30.81239 26.81570
#
# Velocity S-wave (km/s) = 3.37365 3.92025 3.65717
# Velocity P-wave (km/s) = 6.10284 7.15522 6.64988
#
# Compressibility (1/GPa) = 0.02260019
#
# Stress axis : x y z
#
# Youngs Moduli (GPa) = 34.20845 79.34338 74.43839
#
# Poissons Ratio (x) = 0.72745 0.20579
# Poissons Ratio (y) = 0.31364 0.32767
# Poissons Ratio (z) = 0.09457 0.34926
#
# Static dielectric constant tensor:
#      x y z
#    x 3.521380 0.281690 -0.117620 
#    y 0.281690 3.781970 -0.358400 
#    z -0.117620 -0.358400 4.085090 
# 
# 
# High freq. dielectric constant tensor:
#      x y z
#    x 1.768410 0.021410 0.002710 
#    y 0.021410 1.780780 -0.016540 
#    z 0.002710 -0.016540 1.791400 
# 
# From -- ./inp_files/200284.got.cif
#   From: 2010.06.25/outbox.cif.g09.slc.cpg/sg2_101_cif.got.tgz:200284.got - 2010.06.27 13:26:56.
