data_PCOD8008737
_publ_section_title
;
Structure prediction by ZEFSAII (Michael W. Deem and Ramdas Pophale) SiO2 
 PCOD8008737
Probable space group: P -1
;
_chemical_formula_sum "Si O2"
_cell_formula_units_Z 16
_cell_length_a 13.378517
_cell_length_b 15.837014
_cell_length_c 15.365685
_cell_angle_alpha 37.078667
_cell_angle_beta 146.145714
_cell_angle_gamma 153.678155
_cell_volume 785.138696
_symmetry_space_group_name_H-M "P -1"
_symmetry_group_IT_number 2
_symmetry_cell_setting 'triclinic'
loop_
_space_group_symop_operation_xyz
x,y,z
-x,-y,-z
loop_
_atom_site_type_symbol
_atom_site_label
_atom_site_fract_x
_atom_site_fract_y
_atom_site_fract_z
Si Si1 0.096257 0.131673 0.190969
Si Si2 0.381322 0.584149 0.368641
Si Si3 0.015270 0.616821 0.338329
Si Si4 0.520189 0.813318 0.455957
Si Si5 0.642985 0.489590 0.040182
Si Si6 0.120305 0.153574 0.885129
Si Si7 0.929391 0.170291 0.363127
Si Si8 0.218388 0.048304 0.728638
O O1 0.334564 0.201789 0.356472
O O2 0.177369 0.316287 0.048349
O O3 0.995012 0.956754 0.198286
O O4 0.861932 0.040907 0.159441
O O5 0.500000 0.500000 0.500000
O O6 0.450958 0.669695 0.445915
O O7 0.485065 0.756096 0.232435
O O8 0.081467 0.398182 0.299320
O O9 0.819475 0.478875 0.231204
O O10 0.957824 0.730552 0.250307
O O11 0.000000 0.500000 0.500000
O O12 0.288033 0.761562 0.375230
O O13 0.681042 0.032314 0.356327
O O14 0.500000 0.500000 0.000000
O O15 0.423758 0.296682 0.984020
O O16 0.000000 0.000000 0.000000
O O17 0.080718 0.115712 0.546745
O O18 0.862411 0.122476 0.252231
#
# Coordination Sequence:
#
# PCOD8008737 Si02
#       8
#     2   2   2   2   2   2   2   2
#     4  11  20  36  61  89 118 157 207 242 292 362
#     4   9  16  31  53  80 124 155 188 240 295 353
#     4  11  24  41  61  88 124 155 196 260 305 341
#     4  10  21  34  54  93 121 149 196 249 302 342
#     4  10  21  41  59  79 117 157 201 248 294 349
#     4  11  23  42  63  82 116 167 206 237 292 363
#     4   8  15  30  49  79 121 150 182 241 298 345
#     4   8  16  27  50  84 112 146 195 243 282 341
#
# _framework density 20.378564999999998
#
# number of rings (size 3 to 8) (size 9 to 14) (size 15 to 20)
#    0.000    2.250    2.500    3.750    0.000    7.500 
#    2.250    0.000    0.000    3.000    0.000    7.875 
#    0.000    0.000    0.000    0.000    0.000    0.000 
#
# Total GULP energy -198250.802289 kJ/mol
# GULP energy per Si atom -12390.675143 kJ/mol
# Density = 2.033218 g / cm^3
# Si number density = 20.378565 Si / 1000 Ang^3
#
#
#
# Elastic Constant Matrix: (Units=GPa)
#
#
# Indices 1 2 3 4 5 6 
#
# 1 99.6031 71.0406 46.1374 4.5032 -31.3524 12.3056
# 2 71.0406 186.8114 54.4856 0.5441 -18.5921 9.4486
# 3 46.1374 54.4856 88.8123 -1.0769 -16.8935 6.9376
# 4 4.5032 0.5441 -1.0769 24.6384 7.6368 -5.2577
# 5 -31.3524 -18.5921 -16.8935 7.6368 23.8557 -2.3293
# 6 12.3056 9.4486 6.9376 -5.2577 -2.3293 38.5275
#
#
#
# Elastic Compliance Matrix: (Units=1/GPa)
#
#
# Indices 1 2 3 4 5 6 
#
# 1 0.029302 -0.005846 -0.004451 -0.018128 0.035881 -0.007429
# 2 -0.005846 0.007903 -0.002578 0.002109 -0.003981 0.000440
# 3 -0.004451 -0.002578 0.015795 0.000479 0.003121 -0.000536
# 4 -0.018128 0.002109 0.000479 0.058413 -0.039490 0.010771
# 5 0.035881 -0.003981 0.003121 -0.039490 0.099809 -0.010401
# 6 -0.007429 0.000440 -0.000536 0.010771 -0.010401 0.029158
#
#
# Mechanical properties :
#
#
# Convention : Reuss Voigt Hill
#
# Bulk Modulus (GPa) = 36.69403 79.83932 58.26667
# Shear Modulus (GPa) = 18.16774 30.97520 24.57147
#
# Velocity S-wave (km/s) = 2.98906 3.90293 3.47616
# Velocity P-wave (km/s) = 5.47338 7.71840 6.69072
#
# Compressibility (1/GPa) = 0.02725239
#
# Stress axis : x y z
#
# Youngs Moduli (GPa) = 34.12681 126.53094 63.31260
#
# Poissons Ratio (x) = 0.73964 0.28178
# Poissons Ratio (y) = 0.19949 0.16321
# Poissons Ratio (z) = 0.15188 0.32618
#
# Static dielectric constant tensor:
#      x y z
#    x 3.822910 0.403180 -0.333460 
#    y 0.403180 5.828130 -0.033740 
#    z -0.333460 -0.033740 3.422710 
# 
# 
# High freq. dielectric constant tensor:
#      x y z
#    x 1.796980 0.012700 -0.022960 
#    y 0.012700 1.816920 0.001770 
#    z -0.022960 0.001770 1.754690 
# 
# From -- ./inp_files/521482.got.cif
#   From: 2010.06.25/outbox.cif.g09.slc.cpg/sg2_261_cif.got.tgz:521482.got - 2010.06.27 13:26:56.
