data_PCOD8008933
_publ_section_title
;
Structure prediction by ZEFSAII (Michael W. Deem and Ramdas Pophale) SiO2 
 PCOD8008933
Probable space group: P -1
;
_chemical_formula_sum "Si O2"
_cell_formula_units_Z 16
_cell_length_a 14.859006
_cell_length_b 9.181590
_cell_length_c 14.025814
_cell_angle_alpha 125.359076
_cell_angle_beta 131.723677
_cell_angle_gamma 94.626992
_cell_volume 749.752864
_symmetry_space_group_name_H-M "P -1"
_symmetry_group_IT_number 2
_symmetry_cell_setting 'triclinic'
loop_
_space_group_symop_operation_xyz
x,y,z
-x,-y,-z
loop_
_atom_site_type_symbol
_atom_site_label
_atom_site_fract_x
_atom_site_fract_y
_atom_site_fract_z
Si Si1 0.914745 0.175903 0.236468
Si Si2 0.106459 0.541102 0.331362
Si Si3 0.433790 0.526587 0.111272
Si Si4 0.561613 0.282680 0.451255
Si Si5 0.437704 0.435590 0.278171
Si Si6 0.225021 0.622575 0.979498
Si Si7 0.394069 0.135723 0.829082
Si Si8 0.218411 0.590550 0.751126
O O1 0.797793 0.215453 0.207645
O O2 0.989790 0.282318 0.221811
O O3 0.086784 0.330528 0.487549
O O4 0.775947 0.850388 0.010884
O O5 0.234728 0.576190 0.362346
O O6 0.952246 0.477016 0.135153
O O7 0.227919 0.805891 0.586254
O O8 0.542798 0.598891 0.313700
O O9 0.569654 0.764631 0.217481
O O10 0.282583 0.506475 0.029705
O O11 0.332686 0.237802 0.886146
O O12 0.533338 0.377411 0.375829
O O13 0.555699 0.382923 0.582898
O O14 0.403767 0.953482 0.217144
O O15 0.149997 0.478225 0.767842
O O16 0.570292 0.242646 0.045952
#
# Coordination Sequence:
#
# PCOD8008933 Si02
#       8
#     2   2   2   2   2   2   2   2
#     4  10  21  35  59  99 125 165 208 260 323 371
#     4  11  21  39  68  89 126 171 210 259 308 380
#     4  10  23  41  61  93 131 164 208 262 316 379
#     4  11  23  45  67  88 128 171 218 258 309 373
#     4  11  24  43  63  94 128 167 211 269 313 360
#     4  10  21  44  61  92 127 172 207 252 321 372
#     4  10  21  39  62  95 126 170 206 252 325 380
#     4   9  18  36  58  88 131 158 206 252 309 389
#
# _framework density 21.340366
#
# number of rings (size 3 to 8) (size 9 to 14) (size 15 to 20)
#    0.000    1.750    5.000    0.000    7.000    2.000 
#    4.500    0.625    0.000    0.000    0.000    0.000 
#    0.000    0.000    0.000    0.000    0.000    0.000 
#
# Total GULP energy -198327.295510 kJ/mol
# GULP energy per Si atom -12395.455969 kJ/mol
# Density = 2.129179 g / cm^3
# Si number density = 21.340366 Si / 1000 Ang^3
#
#
#
# Elastic Constant Matrix: (Units=GPa)
#
#
# Indices 1 2 3 4 5 6 
#
# 1 101.7077 41.2452 29.8156 -5.9772 5.3497 -18.3884
# 2 41.2452 87.3215 27.2421 -12.5831 -6.4032 -8.3501
# 3 29.8156 27.2421 59.7941 -9.4683 3.2875 -1.5827
# 4 -5.9772 -12.5831 -9.4683 17.9972 -1.4745 -6.4207
# 5 5.3497 -6.4032 3.2875 -1.4745 36.9657 -9.5761
# 6 -18.3884 -8.3501 -1.5827 -6.4207 -9.5761 28.0060
#
#
#
# Elastic Compliance Matrix: (Units=1/GPa)
#
#
# Indices 1 2 3 4 5 6 
#
# 1 0.014663 -0.004281 -0.004740 0.002443 -0.000116 0.008604
# 2 -0.004281 0.017611 -0.004195 0.011722 0.006339 0.007058
# 3 -0.004740 -0.004195 0.022006 0.005948 -0.002431 -0.002587
# 4 0.002443 0.011722 0.005948 0.078361 0.011340 0.027278
# 5 -0.000116 0.006339 -0.002431 0.011340 0.032853 0.015510
# 6 0.008604 0.007058 -0.002587 0.027278 0.015510 0.054871
#
#
# Mechanical properties :
#
#
# Convention : Reuss Voigt Hill
#
# Bulk Modulus (GPa) = 35.90808 49.49212 42.70010
# Shear Modulus (GPa) = 19.52513 26.62848 23.07680
#
# Velocity S-wave (km/s) = 3.02808 3.53625 3.29198
# Velocity P-wave (km/s) = 5.39338 6.31788 5.87385
#
# Compressibility (1/GPa) = 0.02784889
#
# Stress axis : x y z
#
# Youngs Moduli (GPa) = 68.19974 56.78109 45.44244
#
# Poissons Ratio (x) = 0.24306 0.21541
# Poissons Ratio (y) = 0.29194 0.19062
# Poissons Ratio (z) = 0.32328 0.23818
#
# Static dielectric constant tensor:
#      x y z
#    x 3.844400 -0.253480 0.014500 
#    y -0.253480 3.913200 -0.147190 
#    z 0.014500 -0.147190 3.753340 
# 
# 
# High freq. dielectric constant tensor:
#      x y z
#    x 1.824990 -0.012520 -0.001360 
#    y -0.012520 1.832710 -0.002650 
#    z -0.001360 -0.002650 1.822140 
# 
# From -- ./inp_files/530154.got.cif
#   From: 2010.06.25/outbox.cif.g09.slc.cpg/sg2_266_cif.got.tgz:530154.got - 2010.06.27 13:26:56.
