data_PCOD8008760
_publ_section_title
;
Structure prediction by ZEFSAII (Michael W. Deem and Ramdas Pophale) SiO2 
 PCOD8008760
Probable space group: P -1
;
_chemical_formula_sum "Si O2"
_cell_formula_units_Z 14
_cell_length_a 7.830381
_cell_length_b 11.003710
_cell_length_c 13.211377
_cell_angle_alpha 125.993615
_cell_angle_beta 72.561401
_cell_angle_gamma 66.610724
_cell_volume 588.620835
_symmetry_space_group_name_H-M "P -1"
_symmetry_group_IT_number 2
_symmetry_cell_setting 'triclinic'
loop_
_space_group_symop_operation_xyz
x,y,z
-x,-y,-z
loop_
_atom_site_type_symbol
_atom_site_label
_atom_site_fract_x
_atom_site_fract_y
_atom_site_fract_z
Si Si1 0.201332 0.624378 0.595973
Si Si2 0.725485 0.255708 0.166537
Si Si3 0.592778 0.088009 0.971070
Si Si4 0.705152 0.734605 0.478286
Si Si5 0.510539 0.146707 0.794291
Si Si6 0.085677 0.745229 0.453549
Si Si7 0.575759 0.622994 0.261450
O O1 0.368976 0.637529 0.648064
O O2 0.230486 0.436528 0.537339
O O3 0.261851 0.597900 0.451772
O O4 0.901028 0.870365 0.783514
O O5 0.780575 0.370989 0.145376
O O6 0.528728 0.269423 0.144793
O O7 0.000000 0.000000 0.000000
O O8 0.424555 0.221561 0.962826
O O9 0.500000 0.000000 0.000000
O O10 0.488132 0.983449 0.689073
O O11 0.573297 0.760112 0.410094
O O12 0.983720 0.654870 0.371733
O O13 0.820802 0.004564 0.656182
O O14 0.335627 0.361558 0.854938
O O15 0.284489 0.727897 0.346928
#
# Coordination Sequence:
#
# PCOD8008760 Si02
#       7
#     2   2   2   2   2   2   2
#     4   9  18  37  53  79 115 135 182 245 270 315
#     4   9  21  37  55  78 109 148 193 230 264 322
#     4  10  21  34  57  79 107 149 191 226 271 324
#     4   9  20  33  57  81 119 136 180 234 279 331
#     4   9  21  36  52  84 118 141 183 233 272 335
#     4   9  20  32  57  86 112 141 180 226 287 334
#     4  11  20  36  59  80 114 152 178 224 291 331
#
# _framework density 23.784410000000001
#
# number of rings (size 3 to 8) (size 9 to 14) (size 15 to 20)
#    0.857    1.714    0.000    1.286    2.000    4.000 
#    0.000    0.000    0.000    4.286    0.000    0.000 
#    0.000    0.000    0.000    0.000    0.000    0.000 
#
# Total GULP energy -173443.083243 kJ/mol
# GULP energy per Si atom -12388.791660 kJ/mol
# Density = 2.373028 g / cm^3
# Si number density = 23.784410 Si / 1000 Ang^3
#
#
#
# Elastic Constant Matrix: (Units=GPa)
#
#
# Indices 1 2 3 4 5 6 
#
# 1 118.7767 29.1676 31.0436 -6.8371 37.1437 19.1373
# 2 29.1676 160.0642 60.0995 -23.9612 39.4877 1.3302
# 3 31.0436 60.0995 102.4514 -12.3474 42.7994 11.9719
# 4 -6.8371 -23.9612 -12.3474 34.8483 -5.1427 0.6054
# 5 37.1437 39.4877 42.7994 -5.1427 40.4655 8.1809
# 6 19.1373 1.3302 11.9719 0.6054 8.1809 21.8001
#
#
#
# Elastic Compliance Matrix: (Units=1/GPa)
#
#
# Indices 1 2 3 4 5 6 
#
# 1 0.013237 0.000233 0.002529 0.001850 -0.013173 -0.008131
# 2 0.000233 0.009527 -0.002642 0.004611 -0.006751 0.003071
# 3 0.002529 -0.002642 0.019382 0.002886 -0.018712 -0.005761
# 4 0.001850 0.004611 0.002886 0.032625 -0.004561 -0.002685
# 5 -0.013173 -0.006751 -0.018712 -0.004561 0.062847 -0.001206
# 6 -0.008131 0.003071 -0.005761 -0.002685 -0.001206 0.056513
#
#
# Mechanical properties :
#
#
# Convention : Reuss Voigt Hill
#
# Bulk Modulus (GPa) = 23.59296 69.10151 46.34723
# Shear Modulus (GPa) = 24.03591 36.82154 30.42873
#
# Velocity S-wave (km/s) = 3.18240 3.93891 3.58069
# Velocity P-wave (km/s) = 4.84196 7.05712 6.05176
#
# Compressibility (1/GPa) = 0.04238553
#
# Stress axis : x y z
#
# Youngs Moduli (GPa) = 75.54442 104.96121 51.59348
#
# Poissons Ratio (x) = -0.02443 -0.13047
# Poissons Ratio (y) = -0.01759 0.13633
# Poissons Ratio (z) = -0.19104 0.27734
#
# Static dielectric constant tensor:
#      x y z
#    x 4.717970 -0.311980 0.412520 
#    y -0.311980 4.346510 0.002870 
#    z 0.412520 0.002870 4.671250 
# 
# 
# High freq. dielectric constant tensor:
#      x y z
#    x 1.951300 -0.015490 0.014900 
#    y -0.015490 1.949150 0.006520 
#    z 0.014900 0.006520 1.927640 
# 
# From -- ./inp_files/382907.got.cif
#   From: 2010.06.25/outbox.cif.g09.slc.cpg/sg2_192_cif.got.tgz:382907.got - 2010.06.27 13:26:56.
