data_PCOD8008441
_publ_section_title
;
Structure prediction by ZEFSAII (Michael W. Deem and Ramdas Pophale) SiO2 
 PCOD8008441
Probable space group: P -1
;
_chemical_formula_sum "Si O2"
_cell_formula_units_Z 16
_cell_length_a 22.334137
_cell_length_b 8.550038
_cell_length_c 6.715333
_cell_angle_alpha 102.766442
_cell_angle_beta 42.292005
_cell_angle_gamma 118.338708
_cell_volume 740.921987
_symmetry_space_group_name_H-M "P -1"
_symmetry_group_IT_number 2
_symmetry_cell_setting 'triclinic'
loop_
_space_group_symop_operation_xyz
x,y,z
-x,-y,-z
loop_
_atom_site_type_symbol
_atom_site_label
_atom_site_fract_x
_atom_site_fract_y
_atom_site_fract_z
Si Si1 0.775076 0.350595 0.740481
Si Si2 0.643583 0.522063 0.155002
Si Si3 0.478947 0.382327 0.821439
Si Si4 0.051226 0.274037 0.522757
Si Si5 0.131402 0.842411 0.785395
Si Si6 0.265413 0.082339 0.849861
Si Si7 0.087944 0.973591 0.523724
Si Si8 0.396905 0.010895 0.770258
O O1 0.868012 0.518129 0.672503
O O2 0.825783 0.292721 0.424299
O O3 0.702297 0.431130 0.868901
O O4 0.703002 0.178612 0.002646
O O5 0.579433 0.403162 0.468724
O O6 0.572937 0.532421 0.164784
O O7 0.720183 0.714892 0.116973
O O8 0.410046 0.161986 0.951362
O O9 0.500000 0.500000 0.000000
O O10 0.015787 0.172187 0.368788
O O11 0.097070 0.173023 0.523982
O O12 0.957639 0.270958 0.872396
O O13 0.089299 0.922626 0.736862
O O14 0.225543 0.010747 0.707679
O O15 0.370620 0.079518 0.644599
O O16 0.182029 0.963092 0.187292
O O17 0.500000 0.000000 0.500000
#
# Coordination Sequence:
#
# PCOD8008441 Si02
#       8
#     2   2   2   2   2   2   2   2
#     4  12  23  42  63  94 134 169 206 269 324 374
#     4  10  22  42  63  90 129 168 212 264 319 379
#     4  10  23  42  66  91 121 169 221 264 310 383
#     4  10  23  42  65  95 131 169 215 265 319 379
#     4  11  24  41  67  99 127 167 219 268 317 378
#     4  10  22  42  66  93 131 172 213 261 317 387
#     4  10  20  43  68  92 128 171 214 265 316 382
#     4  11  23  43  66  94 133 170 209 263 331 376
#
# _framework density 21.594715999999998
#
# number of rings (size 3 to 8) (size 9 to 14) (size 15 to 20)
#    0.000    1.500    3.750    0.750    1.750    1.500 
#    2.250    1.250    0.000    0.000    0.000    0.000 
#    0.000    0.000    0.000    0.000    0.000    0.000 
#
# Total GULP energy -198235.776390 kJ/mol
# GULP energy per Si atom -12389.736024 kJ/mol
# Density = 2.154557 g / cm^3
# Si number density = 21.594716 Si / 1000 Ang^3
#
#
#
# Elastic Constant Matrix: (Units=GPa)
#
#
# Indices 1 2 3 4 5 6 
#
# 1 108.7137 61.9121 43.3771 13.1809 -4.2154 8.8011
# 2 61.9121 162.9098 45.9472 -2.3163 1.2107 12.6153
# 3 43.3771 45.9472 73.2175 4.2221 -11.7289 -0.1820
# 4 13.1809 -2.3163 4.2221 39.3581 -1.9950 -7.4231
# 5 -4.2154 1.2107 -11.7289 -1.9950 33.4073 11.5033
# 6 8.8011 12.6153 -0.1820 -7.4231 11.5033 33.6593
#
#
#
# Elastic Compliance Matrix: (Units=1/GPa)
#
#
# Indices 1 2 3 4 5 6 
#
# 1 0.014636 -0.003664 -0.005931 -0.005178 0.000949 -0.003952
# 2 -0.003664 0.008702 -0.003629 0.001785 -0.001452 -0.001433
# 3 -0.005931 -0.003629 0.020450 0.000065 0.006258 0.000897
# 4 -0.005178 0.001785 0.000065 0.028580 -0.001581 0.007529
# 5 0.000949 -0.001452 0.006258 -0.001581 0.036512 -0.012497
# 6 -0.003952 -0.001433 0.000897 0.007529 -0.012497 0.037216
#
#
# Mechanical properties :
#
#
# Convention : Reuss Voigt Hill
#
# Bulk Modulus (GPa) = 57.67072 71.92374 64.79723
# Shear Modulus (GPa) = 28.03904 34.19192 31.11548
#
# Velocity S-wave (km/s) = 3.60727 3.98345 3.80002
# Velocity P-wave (km/s) = 6.64182 7.38482 7.02315
#
# Compressibility (1/GPa) = 0.01733982
#
# Stress axis : x y z
#
# Youngs Moduli (GPa) = 68.32338 114.92252 48.90034
#
# Poissons Ratio (x) = 0.42111 0.29002
# Poissons Ratio (y) = 0.25035 0.17745
# Poissons Ratio (z) = 0.40522 0.41703
#
# Static dielectric constant tensor:
#      x y z
#    x 3.824750 0.070960 -0.367360 
#    y 0.070960 4.133810 -0.033600 
#    z -0.367360 -0.033600 3.876290 
# 
# 
# High freq. dielectric constant tensor:
#      x y z
#    x 1.839380 0.002750 -0.031090 
#    y 0.002750 1.862470 -0.000850 
#    z -0.031090 -0.000850 1.833010 
# 
# From -- ./inp_files/39731.got.cif
#   From: 2010.06.25/outbox.cif.g09.slc.cpg/sg2_20_cif.got.tgz:39731.got - 2010.06.27 13:26:56.
