data_PCOD8008058
_publ_section_title
;
Structure prediction by ZEFSAII (Michael W. Deem and Ramdas Pophale) SiO2 
 PCOD8008058
Probable space group: P -1
;
_chemical_formula_sum "Si O2"
_cell_formula_units_Z 16
_cell_length_a 13.132979
_cell_length_b 8.945331
_cell_length_c 9.175943
_cell_angle_alpha 44.588169
_cell_angle_beta 111.390818
_cell_angle_gamma 109.378094
_cell_volume 700.324811
_symmetry_space_group_name_H-M "P -1"
_symmetry_group_IT_number 2
_symmetry_cell_setting 'triclinic'
loop_
_space_group_symop_operation_xyz
x,y,z
-x,-y,-z
loop_
_atom_site_type_symbol
_atom_site_label
_atom_site_fract_x
_atom_site_fract_y
_atom_site_fract_z
Si Si1 0.981624 0.995914 0.663508
Si Si2 0.305343 0.051045 0.782454
Si Si3 0.146342 0.694287 0.054001
Si Si4 0.687943 0.420602 0.304608
Si Si5 0.304773 0.486337 0.092980
Si Si6 0.727453 0.987057 0.531080
Si Si7 0.514666 0.620050 0.271391
Si Si8 0.148785 0.381031 0.528247
O O1 0.040034 0.215547 0.613689
O O2 0.854253 0.980457 0.644033
O O3 0.000000 0.000000 0.500000
O O4 0.031751 0.783321 0.892699
O O5 0.295457 0.933505 0.701443
O O6 0.427336 0.138210 0.839309
O O7 0.241346 0.260720 0.578811
O O8 0.241855 0.895899 0.977633
O O9 0.185812 0.534256 0.060940
O O10 0.125068 0.577337 0.277199
O O11 0.584456 0.488637 0.289861
O O12 0.803735 0.525863 0.358462
O O13 0.680426 0.162144 0.488678
O O14 0.687670 0.498956 0.085275
O O15 0.334202 0.248027 0.312761
O O16 0.398077 0.647291 0.114203
O O17 0.500000 0.500000 0.500000
#
# Coordination Sequence:
#
# PCOD8008058 Si02
#       8
#     2   2   2   2   2   2   2   2
#     4  11  21  39  68 101 133 171 227 271 314 391
#     4  10  20  42  64  98 132 164 225 273 312 397
#     4  11  21  40  70  97 129 179 219 268 327 380
#     4  11  26  44  63  96 138 171 215 277 332 387
#     4  12  23  42  68  98 136 176 216 272 337 383
#     4  12  23  42  64  99 139 170 218 277 322 388
#     4  11  23  45  73  95 129 173 221 274 330 396
#     4  10  22  42  65  95 134 176 224 267 317 391
#
# _framework density 22.846540999999998
#
# number of rings (size 3 to 8) (size 9 to 14) (size 15 to 20)
#    0.000    1.000    6.250    1.125    0.000    7.500 
#    0.000    1.250    0.000    0.000    0.000    0.000 
#    0.000    0.000    0.000    0.000    0.000    0.000 
#
# Total GULP energy -198415.821813 kJ/mol
# GULP energy per Si atom -12400.988863 kJ/mol
# Density = 2.279454 g / cm^3
# Si number density = 22.846541 Si / 1000 Ang^3
#
#
#
# Elastic Constant Matrix: (Units=GPa)
#
#
# Indices 1 2 3 4 5 6 
#
# 1 79.9422 26.1808 20.4950 13.3402 10.9207 -0.3551
# 2 26.1808 117.8719 21.9438 10.4536 8.1376 8.5623
# 3 20.4950 21.9438 110.0912 17.8780 8.7840 -3.7725
# 4 13.3402 10.4536 17.8780 41.2748 -0.5318 1.4733
# 5 10.9207 8.1376 8.7840 -0.5318 27.8829 0.9143
# 6 -0.3551 8.5623 -3.7725 1.4733 0.9143 35.0492
#
#
#
# Elastic Compliance Matrix: (Units=1/GPa)
#
#
# Indices 1 2 3 4 5 6 
#
# 1 0.014934 -0.002483 -0.001261 -0.003747 -0.004829 0.000906
# 2 -0.002483 0.009634 -0.001266 -0.001020 -0.001380 -0.002436
# 3 -0.001261 -0.001266 0.010464 -0.003897 -0.002562 0.001653
# 4 -0.003747 -0.001020 -0.003897 0.027483 0.003565 -0.001456
# 5 -0.004829 -0.001380 -0.002562 0.003565 0.039071 -0.001157
# 6 0.000906 -0.002436 0.001653 -0.001456 -0.001157 0.029405
#
#
# Mechanical properties :
#
#
# Convention : Reuss Voigt Hill
#
# Bulk Modulus (GPa) = 39.97768 49.46051 44.71910
# Shear Modulus (GPa) = 33.47918 36.79375 35.13646
#
# Velocity S-wave (km/s) = 3.83220 4.01742 3.92590
# Velocity P-wave (km/s) = 6.09240 6.57386 6.33770
#
# Compressibility (1/GPa) = 0.02501396
#
# Stress axis : x y z
#
# Youngs Moduli (GPa) = 66.96093 103.80433 95.56403
#
# Poissons Ratio (x) = 0.25770 0.12047
# Poissons Ratio (y) = 0.16623 0.12096
# Poissons Ratio (z) = 0.08442 0.13139
#
# Static dielectric constant tensor:
#      x y z
#    x 4.182570 0.414580 0.313400 
#    y 0.414580 4.677940 -0.053800 
#    z 0.313400 -0.053800 4.067240 
# 
# 
# High freq. dielectric constant tensor:
#      x y z
#    x 1.886730 0.008700 0.016150 
#    y 0.008700 1.912990 -0.013430 
#    z 0.016150 -0.013430 1.905180 
# 
# From -- ./inp_files/294220.got.cif
#   From: 2010.06.25/outbox.cif.g09.slc.cpg/sg2_148_cif.got.tgz:294220.got - 2010.06.27 13:26:56.
