data_PCOD8008433
_publ_section_title
;
Structure prediction by ZEFSAII (Michael W. Deem and Ramdas Pophale) SiO2 
 PCOD8008433
Probable space group: P -1
;
_chemical_formula_sum "Si O2"
_cell_formula_units_Z 16
_cell_length_a 17.235367
_cell_length_b 11.823618
_cell_length_c 8.506115
_cell_angle_alpha 145.913358
_cell_angle_beta 50.303821
_cell_angle_gamma 129.543521
_cell_volume 723.819805
_symmetry_space_group_name_H-M "P -1"
_symmetry_group_IT_number 2
_symmetry_cell_setting 'triclinic'
loop_
_space_group_symop_operation_xyz
x,y,z
-x,-y,-z
loop_
_atom_site_type_symbol
_atom_site_label
_atom_site_fract_x
_atom_site_fract_y
_atom_site_fract_z
Si Si1 0.982788 0.489401 0.194586
Si Si2 0.479106 0.284748 0.186291
Si Si3 0.732219 0.889975 0.595959
Si Si4 0.808233 0.090052 0.032388
Si Si5 0.817222 0.560537 0.936696
Si Si6 0.399420 0.075969 0.755313
Si Si7 0.909494 0.835669 0.845455
Si Si8 0.678300 0.126956 0.671551
O O1 0.879931 0.320352 0.190047
O O2 0.967045 0.713320 0.513435
O O3 0.077058 0.438999 0.109713
O O4 0.000000 0.500000 0.000000
O O5 0.500000 0.500000 0.500000
O O6 0.387107 0.134345 0.228723
O O7 0.436384 0.286322 0.058946
O O8 0.578384 0.188241 0.946898
O O9 0.749552 0.671480 0.263471
O O10 0.751779 0.066096 0.638674
O O11 0.813612 0.972865 0.725414
O O12 0.687946 0.091705 0.224711
O O13 0.839069 0.953759 0.974654
O O14 0.839408 0.679997 0.881251
O O15 0.749660 0.326994 0.719437
O O16 0.500000 0.000000 0.500000
O O17 0.351762 0.075698 0.640293
O O18 0.000000 0.000000 0.000000
#
# Coordination Sequence:
#
# PCOD8008433 Si02
#       8
#     2   2   2   2   2   2   2   2
#     4  12  27  44  67  98 134 180 228 277 340 402
#     4  10  20  43  67  99 140 178 222 280 333 407
#     4  11  24  41  71 101 132 183 224 279 346 395
#     4  11  24  45  68  96 142 173 229 284 331 405
#     4  12  25  40  70  99 133 176 230 278 337 403
#     4   9  21  40  70  97 132 177 218 274 337 391
#     4  12  27  44  69  96 134 181 225 280 340 396
#     4  11  22  41  70  98 139 175 228 280 334 403
#
# _framework density 22.104949999999999
#
# number of rings (size 3 to 8) (size 9 to 14) (size 15 to 20)
#    0.000    1.000    2.500    3.750    5.250    1.000 
#    0.000    0.625   13.750    0.000    0.000    0.000 
#    0.000    0.000    0.000    0.000    0.000    0.000 
#
# Total GULP energy -198236.919692 kJ/mol
# GULP energy per Si atom -12389.807481 kJ/mol
# Density = 2.205464 g / cm^3
# Si number density = 22.104950 Si / 1000 Ang^3
#
#
#
# Elastic Constant Matrix: (Units=GPa)
#
#
# Indices 1 2 3 4 5 6 
#
# 1 116.8092 46.8366 49.2186 2.4515 21.6591 0.3974
# 2 46.8366 109.4654 36.0336 -1.0388 -1.4176 4.2318
# 3 49.2186 36.0336 133.0153 -5.2765 27.1595 5.1123
# 4 2.4515 -1.0388 -5.2765 34.7300 3.2244 -1.4613
# 5 21.6591 -1.4176 27.1595 3.2244 42.2947 -6.6606
# 6 0.3974 4.2318 5.1123 -1.4613 -6.6606 34.0368
#
#
#
# Elastic Compliance Matrix: (Units=1/GPa)
#
#
# Indices 1 2 3 4 5 6 
#
# 1 0.012308 -0.004558 -0.002343 -0.000914 -0.004917 -0.000227
# 2 -0.004558 0.011943 -0.002411 -0.000092 0.004252 -0.000241
# 3 -0.002343 -0.002411 0.010467 0.002154 -0.006137 -0.002354
# 4 -0.000914 -0.000092 0.002154 0.029486 -0.003110 0.000356
# 5 -0.004917 0.004252 -0.006137 -0.003110 0.031503 0.006482
# 6 -0.000227 -0.000241 -0.002354 0.000356 0.006482 0.031050
#
#
# Mechanical properties :
#
#
# Convention : Reuss Voigt Hill
#
# Bulk Modulus (GPa) = 62.13951 69.27418 65.70684
# Shear Modulus (GPa) = 33.16843 37.35905 35.26374
#
# Velocity S-wave (km/s) = 3.87783 4.11551 3.99844
# Velocity P-wave (km/s) = 6.94422 7.34779 7.14886
#
# Compressibility (1/GPa) = 0.01609282
#
# Stress axis : x y z
#
# Youngs Moduli (GPa) = 81.25070 83.73163 95.53787
#
# Poissons Ratio (x) = 0.38168 0.22383
# Poissons Ratio (y) = 0.37037 0.23036
# Poissons Ratio (z) = 0.19035 0.20189
#
# Static dielectric constant tensor:
#      x y z
#    x 4.341220 0.127030 0.381520 
#    y 0.127030 3.971710 -0.306420 
#    z 0.381520 -0.306420 4.272460 
# 
# 
# High freq. dielectric constant tensor:
#      x y z
#    x 1.879480 0.015330 0.019540 
#    y 0.015330 1.868300 -0.026980 
#    z 0.019540 -0.026980 1.878650 
# 
# From -- ./inp_files/138522.got.cif
#   From: 2010.06.25/outbox.cif.g09.slc.cpg/sg2_70_cif.got.tgz:138522.got - 2010.06.27 13:26:56.
