data_PCOD8008223
_publ_section_title
;
Structure prediction by ZEFSAII (Michael W. Deem and Ramdas Pophale) SiO2 
 PCOD8008223
Probable space group: P -1
;
_chemical_formula_sum "Si O2"
_cell_formula_units_Z 16
_cell_length_a 19.027499
_cell_length_b 9.467137
_cell_length_c 21.541754
_cell_angle_alpha 130.239152
_cell_angle_beta 18.037608
_cell_angle_gamma 138.606325
_cell_volume 750.300804
_symmetry_space_group_name_H-M "P -1"
_symmetry_group_IT_number 2
_symmetry_cell_setting 'triclinic'
loop_
_space_group_symop_operation_xyz
x,y,z
-x,-y,-z
loop_
_atom_site_type_symbol
_atom_site_label
_atom_site_fract_x
_atom_site_fract_y
_atom_site_fract_z
Si Si1 0.359603 0.547817 0.077707
Si Si2 0.281565 0.630289 0.882013
Si Si3 0.781496 0.161978 0.399113
Si Si4 0.560386 0.454835 0.672047
Si Si5 0.283592 0.783362 0.791236
Si Si6 0.659500 0.034276 0.760540
Si Si7 0.067806 0.066855 0.033815
Si Si8 0.768160 0.796749 0.694926
O O1 0.327588 0.740424 0.183242
O O2 0.064298 0.316620 0.244510
O O3 0.500000 0.500000 0.000000
O O4 0.562427 0.629875 0.872299
O O5 0.427431 0.502420 0.739368
O O6 0.376687 0.729364 0.761103
O O7 0.373995 0.832169 0.910453
O O8 0.946442 0.451972 0.117239
O O9 0.677604 0.315646 0.508935
O O10 0.826749 0.064136 0.270997
O O11 0.553727 0.944745 0.568482
O O12 0.785184 0.680947 0.584104
O O13 0.339532 0.321424 0.875490
O O14 0.133574 0.907243 0.968972
O O15 0.910621 0.071477 0.516379
O O16 0.676279 0.957747 0.794705
O O17 0.000000 0.000000 0.000000
#
# Coordination Sequence:
#
# PCOD8008223 Si02
#       8
#     2   2   2   2   2   2   2   2
#     4  12  26  40  65 102 136 171 215 269 336 393
#     4  10  22  45  67  94 136 173 220 277 326 384
#     4  11  25  42  68  98 134 170 223 269 327 397
#     4  10  20  42  68  93 129 170 219 271 325 383
#     4  10  24  44  67  95 136 173 217 275 330 383
#     4  10  23  42  69  92 127 177 221 265 330 385
#     4  11  22  43  67  94 130 172 222 267 323 383
#     4  10  21  43  65  93 130 171 220 272 319 391
#
# _framework density 21.324781999999999
#
# number of rings (size 3 to 8) (size 9 to 14) (size 15 to 20)
#    0.000    1.500    3.750    0.375    3.500    2.500 
#    0.000    5.000    0.000    0.000    0.000    0.000 
#    0.000    0.000    0.000    0.000    0.000    0.000 
#
# Total GULP energy -198325.957900 kJ/mol
# GULP energy per Si atom -12395.372369 kJ/mol
# Density = 2.127625 g / cm^3
# Si number density = 21.324782 Si / 1000 Ang^3
#
#
#
# Elastic Constant Matrix: (Units=GPa)
#
#
# Indices 1 2 3 4 5 6 
#
# 1 118.7505 55.5662 63.8593 0.0398 -12.5513 -15.5715
# 2 55.5662 102.6868 61.0754 -5.2944 -2.7843 -7.4042
# 3 63.8593 61.0754 125.6607 -2.1457 13.6919 -3.4158
# 4 0.0398 -5.2944 -2.1457 35.2729 2.0079 -3.8042
# 5 -12.5513 -2.7843 13.6919 2.0079 23.7213 0.5653
# 6 -15.5715 -7.4042 -3.4158 -3.8042 0.5653 37.7403
#
#
#
# Elastic Compliance Matrix: (Units=1/GPa)
#
#
# Indices 1 2 3 4 5 6 
#
# 1 0.016274 -0.003501 -0.007837 -0.001204 0.012706 0.005007
# 2 -0.003501 0.015502 -0.006046 0.001906 0.003267 0.001193
# 3 -0.007837 -0.006046 0.016376 0.000624 -0.014298 -0.002661
# 4 -0.001204 0.001906 0.000624 0.029180 -0.003313 0.002925
# 5 0.012706 0.003267 -0.014298 -0.003313 0.057715 0.003391
# 6 0.005007 0.001193 -0.002661 0.002925 0.003391 0.028800
#
#
# Mechanical properties :
#
#
# Convention : Reuss Voigt Hill
#
# Bulk Modulus (GPa) = 74.72818 78.67777 76.70298
# Shear Modulus (GPa) = 24.62131 30.45336 27.53733
#
# Velocity S-wave (km/s) = 3.40161 3.78309 3.59741
# Velocity P-wave (km/s) = 7.10963 7.48715 7.30083
#
# Compressibility (1/GPa) = 0.01338183
#
# Stress axis : x y z
#
# Youngs Moduli (GPa) = 61.44845 64.50824 61.06623
#
# Poissons Ratio (x) = 0.22586 0.47860
# Poissons Ratio (y) = 0.21515 0.36922
# Poissons Ratio (z) = 0.48159 0.39003
#
# Static dielectric constant tensor:
#      x y z
#    x 3.815570 -0.159420 -0.183580 
#    y -0.159420 4.217480 -0.396120 
#    z -0.183580 -0.396120 3.986200 
# 
# 
# High freq. dielectric constant tensor:
#      x y z
#    x 1.825420 -0.004780 -0.017970 
#    y -0.004780 1.853020 -0.021420 
#    z -0.017970 -0.021420 1.832610 
# 
# From -- ./inp_files/599511.got.cif
#   From: 2010.06.25/outbox.cif.g09.slc.cpg/sg2_300_cif.got.tgz:599511.got - 2010.06.27 13:26:56.
