data_PCOD8008426
_publ_section_title
;
Structure prediction by ZEFSAII (Michael W. Deem and Ramdas Pophale) SiO2 
 PCOD8008426
Probable space group: P -1
;
_chemical_formula_sum "Si O2"
_cell_formula_units_Z 16
_cell_length_a 12.914560
_cell_length_b 21.730188
_cell_length_c 9.593273
_cell_angle_alpha 131.562793
_cell_angle_beta 146.238037
_cell_angle_gamma 29.489162
_cell_volume 718.449430
_symmetry_space_group_name_H-M "P -1"
_symmetry_group_IT_number 2
_symmetry_cell_setting 'triclinic'
loop_
_space_group_symop_operation_xyz
x,y,z
-x,-y,-z
loop_
_atom_site_type_symbol
_atom_site_label
_atom_site_fract_x
_atom_site_fract_y
_atom_site_fract_z
Si Si1 0.390228 0.693981 0.434275
Si Si2 0.601198 0.028905 0.810145
Si Si3 0.009017 0.564807 0.225637
Si Si4 0.261314 0.801621 0.156633
Si Si5 0.224003 0.444023 0.789277
Si Si6 0.524262 0.876189 0.477921
Si Si7 0.049231 0.295969 0.069733
Si Si8 0.413192 0.210698 0.087278
O O1 0.655478 0.539026 0.509709
O O2 0.405943 0.735239 0.367309
O O3 0.418416 0.758333 0.675831
O O4 0.099350 0.739579 0.194045
O O5 0.442533 0.135202 0.670521
O O6 0.431028 0.000694 0.605192
O O7 0.624387 0.071332 0.044891
O O8 0.922698 0.894556 0.914999
O O9 0.822286 0.603756 0.209302
O O10 0.000000 0.500000 0.000000
O O11 0.867580 0.692486 0.185434
O O12 0.442219 0.682665 0.073759
O O13 0.286626 0.889782 0.279417
O O14 0.000000 0.500000 0.500000
O O15 0.178495 0.551867 0.958021
O O16 0.827103 0.751013 0.705100
O O17 0.312876 0.219624 0.142517
#
# Coordination Sequence:
#
# PCOD8008426 Si02
#       8
#     2   2   2   2   2   2   2   2
#     4  11  23  43  69 103 132 172 228 269 337 403
#     4  11  27  44  70  99 131 181 225 274 329 392
#     4  10  20  43  67  96 137 170 214 273 337 387
#     4  12  23  44  68  98 135 176 221 274 330 398
#     4  12  21  41  74  98 133 177 213 276 341 393
#     4  11  23  47  67  98 136 170 228 277 325 395
#     4  12  24  44  71 101 132 175 225 274 338 397
#     4  11  24  47  69  94 140 179 217 279 328 391
#
# _framework density 22.270185000000001
#
# number of rings (size 3 to 8) (size 9 to 14) (size 15 to 20)
#    0.000    0.750    7.500    1.125    0.000    3.000 
#    6.750    0.000    0.000    0.000    0.000    0.000 
#    0.000    0.000    0.000    0.000    0.000    0.000 
#
# Total GULP energy -198312.090874 kJ/mol
# GULP energy per Si atom -12394.505680 kJ/mol
# Density = 2.221950 g / cm^3
# Si number density = 22.270185 Si / 1000 Ang^3
#
#
#
# Elastic Constant Matrix: (Units=GPa)
#
#
# Indices 1 2 3 4 5 6 
#
# 1 88.0771 33.9857 32.5872 2.9939 -3.3809 1.4271
# 2 33.9857 81.3320 28.0818 7.5007 -1.1148 -17.0035
# 3 32.5872 28.0818 81.1086 8.5380 1.9811 -6.4037
# 4 2.9939 7.5007 8.5380 40.1947 10.5901 -6.4487
# 5 -3.3809 -1.1148 1.9811 10.5901 35.5946 1.4985
# 6 1.4271 -17.0035 -6.4037 -6.4487 1.4985 42.1978
#
#
#
# Elastic Compliance Matrix: (Units=1/GPa)
#
#
# Indices 1 2 3 4 5 6 
#
# 1 0.015290 -0.005520 -0.004535 -0.000165 0.001729 -0.003516
# 2 -0.005520 0.017123 -0.003087 -0.001165 0.000260 0.006431
# 3 -0.004535 -0.003087 0.015529 -0.002006 -0.000837 0.000989
# 4 -0.000165 -0.001165 -0.002006 0.028411 -0.008557 0.003877
# 5 0.001729 0.000260 -0.000837 -0.008557 0.030964 -0.002488
# 6 -0.003516 0.006431 0.000989 0.003877 -0.002488 0.027239
#
#
# Mechanical properties :
#
#
# Convention : Reuss Voigt Hill
#
# Bulk Modulus (GPa) = 46.16672 48.86969 47.51821
# Shear Modulus (GPa) = 29.75155 33.98830 31.86992
#
# Velocity S-wave (km/s) = 3.65901 3.91087 3.78704
# Velocity P-wave (km/s) = 6.21502 6.51037 6.36441
#
# Compressibility (1/GPa) = 0.02166063
#
# Stress axis : x y z
#
# Youngs Moduli (GPa) = 65.40133 58.40116 64.39406
#
# Poissons Ratio (x) = 0.32236 0.29200
# Poissons Ratio (y) = 0.36100 0.19877
# Poissons Ratio (z) = 0.29657 0.18027
#
# Static dielectric constant tensor:
#      x y z
#    x 3.975380 0.263850 -0.104410 
#    y 0.263850 4.279330 -0.085490 
#    z -0.104410 -0.085490 3.778400 
# 
# 
# High freq. dielectric constant tensor:
#      x y z
#    x 1.873970 0.019490 -0.015270 
#    y 0.019490 1.869290 0.000660 
#    z -0.015270 0.000660 1.871380 
# 
# From -- ./inp_files/283301.got.cif
#   From: 2010.06.25/outbox.cif.g09.slc.cpg/sg2_142_cif.got.tgz:283301.got - 2010.06.27 13:26:56.
