data_PCOD8008089
_publ_section_title
;
Structure prediction by ZEFSAII (Michael W. Deem and Ramdas Pophale) SiO2 
 PCOD8008089
Probable space group: P -1
;
_chemical_formula_sum "Si O2"
_cell_formula_units_Z 16
_cell_length_a 12.030273
_cell_length_b 8.615268
_cell_length_c 14.031073
_cell_angle_alpha 71.447875
_cell_angle_beta 90.732493
_cell_angle_gamma 37.974355
_cell_volume 756.759928
_symmetry_space_group_name_H-M "P -1"
_symmetry_group_IT_number 2
_symmetry_cell_setting 'triclinic'
loop_
_space_group_symop_operation_xyz
x,y,z
-x,-y,-z
loop_
_atom_site_type_symbol
_atom_site_label
_atom_site_fract_x
_atom_site_fract_y
_atom_site_fract_z
Si Si1 0.868105 0.650576 0.374826
Si Si2 0.803054 0.279121 0.003254
Si Si3 0.024736 0.293330 0.083732
Si Si4 0.391766 0.604885 0.195842
Si Si5 0.856951 0.835638 0.680008
Si Si6 0.187966 0.912463 0.767730
Si Si7 0.763183 0.302808 0.626775
Si Si8 0.531678 0.875410 0.424455
O O1 0.644848 0.856711 0.356091
O O2 0.000000 0.500000 0.500000
O O3 0.983291 0.383707 0.359453
O O4 0.848620 0.848798 0.284933
O O5 0.770916 0.182506 0.103094
O O6 0.831753 0.421906 0.023903
O O7 0.625328 0.488576 0.881470
O O8 0.000000 0.000000 0.000000
O O9 0.016864 0.324091 0.190468
O O10 0.238543 0.947601 0.122791
O O11 0.000000 0.500000 0.000000
O O12 0.624627 0.376322 0.240468
O O13 0.354248 0.546612 0.302530
O O14 0.745532 0.147759 0.606647
O O15 0.685539 0.905532 0.663983
O O16 0.997270 0.049178 0.699410
O O17 0.670744 0.545136 0.505434
O O18 0.500000 0.000000 0.500000
#
# Coordination Sequence:
#
# PCOD8008089 Si02
#       8
#     2   2   2   2   2   2   2   2
#     4  12  26  42  65  99 129 176 221 280 324 385
#     4  10  20  42  65  94 129 174 216 268 328 391
#     4  10  23  43  69  95 135 172 213 276 334 386
#     4  10  23  40  70  98 127 175 224 261 333 396
#     4  11  25  44  65  98 136 173 223 271 341 392
#     4  12  22  42  69  94 135 168 227 266 328 395
#     4  11  23  43  67  98 136 178 212 282 327 393
#     4  12  24  44  69  97 133 175 231 269 329 397
#
# _framework density 21.142769000000001
#
# number of rings (size 3 to 8) (size 9 to 14) (size 15 to 20)
#    0.000    1.000    6.250    1.500    3.500    4.500 
#    0.000    0.625    0.000    0.000    0.000    0.000 
#    0.000    0.000    0.000    0.000    0.000    0.000 
#
# Total GULP energy -198419.663570 kJ/mol
# GULP energy per Si atom -12401.228973 kJ/mol
# Density = 2.109465 g / cm^3
# Si number density = 21.142769 Si / 1000 Ang^3
#
#
#
# Elastic Constant Matrix: (Units=GPa)
#
#
# Indices 1 2 3 4 5 6 
#
# 1 117.8419 44.5500 26.1618 24.4237 -5.2637 -7.1489
# 2 44.5500 100.3705 33.0945 20.5218 5.2172 -12.5660
# 3 26.1618 33.0945 62.7736 22.7582 -8.9736 10.0609
# 4 24.4237 20.5218 22.7582 28.4680 7.3695 0.0886
# 5 -5.2637 5.2172 -8.9736 7.3695 42.2517 -2.7514
# 6 -7.1489 -12.5660 10.0609 0.0886 -2.7514 48.3053
#
#
#
# Elastic Compliance Matrix: (Units=1/GPa)
#
#
# Indices 1 2 3 4 5 6 
#
# 1 0.011816 -0.003718 0.000669 -0.008949 0.003691 0.000869
# 2 -0.003718 0.014943 -0.007205 -0.000965 -0.003368 0.004648
# 3 0.000669 -0.007205 0.030305 -0.022388 0.010830 -0.007429
# 4 -0.008949 -0.000965 -0.022388 0.065819 -0.017101 0.001993
# 5 0.003691 -0.003368 0.010830 -0.017101 0.029770 -0.000859
# 6 0.000869 0.004648 -0.007429 0.001993 -0.000859 0.023534
#
#
# Mechanical properties :
#
#
# Convention : Reuss Voigt Hill
#
# Bulk Modulus (GPa) = 27.35552 54.28874 40.82213
# Shear Modulus (GPa) = 23.93703 35.61699 29.77701
#
# Velocity S-wave (km/s) = 3.36841 4.10883 3.75691
# Velocity P-wave (km/s) = 5.30046 6.94572 6.17810
#
# Compressibility (1/GPa) = 0.03655569
#
# Stress axis : x y z
#
# Youngs Moduli (GPa) = 84.63453 66.91962 32.99737
#
# Poissons Ratio (x) = 0.24882 -0.02207
# Poissons Ratio (y) = 0.31469 0.23775
# Poissons Ratio (z) = -0.05661 0.48215
#
# Static dielectric constant tensor:
#      x y z
#    x 4.288330 0.064950 0.872980 
#    y 0.064950 3.787120 0.144450 
#    z 0.872980 0.144450 4.755770 
# 
# 
# High freq. dielectric constant tensor:
#      x y z
#    x 1.837610 -0.004200 0.001430 
#    y -0.004200 1.823120 0.005590 
#    z 0.001430 0.005590 1.829690 
# 
# From -- ./inp_files/515381.got.cif
#   From: 2010.06.25/outbox.cif.g09.slc.cpg/sg2_258_cif.got.tgz:515381.got - 2010.06.27 13:26:56.
