data_PCOD8008856
_publ_section_title
;
Structure prediction by ZEFSAII (Michael W. Deem and Ramdas Pophale) SiO2 
 PCOD8008856
Probable space group: P -1
;
_chemical_formula_sum "Si O2"
_cell_formula_units_Z 16
_cell_length_a 5.404642
_cell_length_b 12.558103
_cell_length_c 12.253595
_cell_angle_alpha 93.615863
_cell_angle_beta 82.442713
_cell_angle_gamma 87.008790
_cell_volume 821.272583
_symmetry_space_group_name_H-M "P -1"
_symmetry_group_IT_number 2
_symmetry_cell_setting 'triclinic'
loop_
_space_group_symop_operation_xyz
x,y,z
-x,-y,-z
loop_
_atom_site_type_symbol
_atom_site_label
_atom_site_fract_x
_atom_site_fract_y
_atom_site_fract_z
Si Si1 0.178434 0.748352 0.805592
Si Si2 0.814131 0.755421 0.231348
Si Si3 0.784323 0.376040 0.426512
Si Si4 0.483004 0.240389 0.043639
Si Si5 0.302311 0.853566 0.171717
Si Si6 0.144214 0.062106 0.087677
Si Si7 0.247023 0.374441 0.555656
Si Si8 0.070096 0.376155 0.997376
O O1 0.154942 0.687675 0.691519
O O2 0.459729 0.769849 0.830041
O O3 0.028625 0.862731 0.816947
O O4 0.118337 0.676530 0.911270
O O5 0.553107 0.822021 0.223826
O O6 0.764699 0.689152 0.337156
O O7 0.907571 0.673067 0.127413
O O8 0.041778 0.832232 0.247446
O O9 0.516399 0.342764 0.483615
O O10 0.773477 0.500565 0.407250
O O11 0.013587 0.344839 0.492220
O O12 0.312651 0.141735 0.016735
O O13 0.709227 0.218508 0.943146
O O14 0.342569 0.355384 0.036419
O O15 0.301150 0.979096 0.150482
O O16 0.000000 0.000000 0.000000
O O17 0.000000 0.500000 0.000000
#
# Coordination Sequence:
#
# PCOD8008856 Si02
#       8
#     2   2   2   2   2   2   2   2
#     4  11  22  37  59  94 120 158 200 258 305 362
#     4  11  22  39  61  88 122 158 206 243 305 371
#     4  10  23  41  67  89 119 157 215 252 303 349
#     4  10  21  35  55  87 127 160 200 243 301 369
#     4  11  21  37  58  89 120 160 201 243 301 369
#     4  11  21  36  59  87 127 164 202 249 304 372
#     4  10  22  44  64  89 116 166 207 257 295 361
#     4  10  21  36  53  88 127 161 188 244 312 381
#
# _framework density 19.481959
#
# number of rings (size 3 to 8) (size 9 to 14) (size 15 to 20)
#    0.000    1.500    2.500    3.375    5.250    0.500 
#    4.500    0.000    0.000    4.500    0.000    0.000 
#    0.000    0.000    0.000    0.000    0.000    0.000 
#
# Total GULP energy -198225.643986 kJ/mol
# GULP energy per Si atom -12389.102749 kJ/mol
# Density = 1.943762 g / cm^3
# Si number density = 19.481959 Si / 1000 Ang^3
#
#
#
# Elastic Constant Matrix: (Units=GPa)
#
#
# Indices 1 2 3 4 5 6 
#
# 1 137.1348 55.0936 53.8552 -3.2028 6.1046 -15.3791
# 2 55.0936 112.7854 52.3215 -9.1388 3.4626 -33.2906
# 3 53.8552 52.3215 122.6403 1.9192 7.0041 -14.3408
# 4 -3.2028 -9.1388 1.9192 31.4012 -0.2541 2.5005
# 5 6.1046 3.4626 7.0041 -0.2541 25.6558 -2.2914
# 6 -15.3791 -33.2906 -14.3408 2.5005 -2.2914 27.7877
#
#
#
# Elastic Compliance Matrix: (Units=1/GPa)
#
#
# Indices 1 2 3 4 5 6 
#
# 1 0.009831 -0.003585 -0.002771 0.000151 -0.001132 -0.000391
# 2 -0.003585 0.017835 -0.004171 0.003736 0.001139 0.016987
# 3 -0.002771 -0.004171 0.011210 -0.002141 -0.001923 -0.000711
# 4 0.000151 0.003736 -0.002141 0.033042 0.000418 0.000516
# 5 -0.001132 0.001139 -0.001923 0.000418 0.039890 0.002997
# 6 -0.000391 0.016987 -0.000711 0.000516 0.002997 0.055955
#
#
# Mechanical properties :
#
#
# Convention : Reuss Voigt Hill
#
# Bulk Modulus (GPa) = 56.11461 77.23345 66.67403
# Shear Modulus (GPa) = 25.67287 31.05498 28.36393
#
# Velocity S-wave (km/s) = 3.63406 3.99687 3.81977
# Velocity P-wave (km/s) = 6.81721 7.81215 7.33158
#
# Compressibility (1/GPa) = 0.01782067
#
# Stress axis : x y z
#
# Youngs Moduli (GPa) = 101.72272 56.07046 89.20221
#
# Poissons Ratio (x) = 0.20103 0.24717
# Poissons Ratio (y) = 0.36470 0.37211
# Poissons Ratio (z) = 0.28186 0.23390
#
# Static dielectric constant tensor:
#      x y z
#    x 4.109810 -0.040040 0.008980 
#    y -0.040040 3.559010 -0.073470 
#    z 0.008980 -0.073470 3.302900 
# 
# 
# High freq. dielectric constant tensor:
#      x y z
#    x 1.785590 -0.006390 0.000510 
#    y -0.006390 1.754530 -0.006730 
#    z 0.000510 -0.006730 1.730380 
# 
# From -- ./inp_files/110396.got.cif
#   From: 2010.06.25/outbox.cif.g09.slc.cpg/sg2_56_cif.got.tgz:110396.got - 2010.06.27 13:26:56.
