data_PCOD8008436
_publ_section_title
;
Structure prediction by ZEFSAII (Michael W. Deem and Ramdas Pophale) SiO2 
 PCOD8008436
Probable space group: P -1
;
_chemical_formula_sum "Si O2"
_cell_formula_units_Z 12
_cell_length_a 10.788591
_cell_length_b 14.066517
_cell_length_c 14.523442
_cell_angle_alpha 30.378514
_cell_angle_beta 38.776924
_cell_angle_gamma 27.962383
_cell_volume 521.189084
_symmetry_space_group_name_H-M "P -1"
_symmetry_group_IT_number 2
_symmetry_cell_setting 'triclinic'
loop_
_space_group_symop_operation_xyz
x,y,z
-x,-y,-z
loop_
_atom_site_type_symbol
_atom_site_label
_atom_site_fract_x
_atom_site_fract_y
_atom_site_fract_z
Si Si1 0.735566 0.245856 0.168197
Si Si2 0.907691 0.472858 0.298793
Si Si3 0.494627 0.217125 0.172316
Si Si4 0.779945 0.901292 0.106203
Si Si5 0.061463 0.958611 0.390821
Si Si6 0.253349 0.240107 0.027128
O O1 0.579296 0.174635 0.266818
O O2 0.808693 0.137314 0.320024
O O3 0.547032 0.544224 0.038866
O O4 0.983091 0.141312 0.046352
O O5 0.834613 0.639394 0.292921
O O6 0.226254 0.265701 0.271749
O O7 0.800875 0.326711 0.479115
O O8 0.745659 0.699968 0.129088
O O9 0.740714 0.975466 0.174337
O O10 0.511186 0.144884 0.010366
O O11 0.251087 0.014723 0.217242
O O12 0.000000 0.000000 0.500000
O O13 0.000000 0.500000 0.000000
#
# Coordination Sequence:
#
# PCOD8008436 Si02
#       6
#     2   2   2   2   2   2
#     4  10  23  40  66  97 120 171 213 253 314 371
#     4  11  24  39  64  95 125 170 205 258 315 368
#     4  10  20  43  68  89 128 166 213 257 309 372
#     4  11  21  40  65  91 129 165 209 261 310 371
#     4  12  23  40  64  96 129 163 210 256 316 373
#     4  12  21  43  64  90 130 167 207 258 315 366
#
# _framework density 23.024273999999998
#
# number of rings (size 3 to 8) (size 9 to 14) (size 15 to 20)
#    0.000    1.000    6.667    1.000    0.000    1.333 
#    0.000    2.500    0.000    0.000    0.000    0.000 
#    0.000    0.000    0.000    0.000    0.000    0.000 
#
# Total GULP energy -148711.858897 kJ/mol
# GULP energy per Si atom -12392.654908 kJ/mol
# Density = 2.297187 g / cm^3
# Si number density = 23.024274 Si / 1000 Ang^3
#
#
#
# Elastic Constant Matrix: (Units=GPa)
#
#
# Indices 1 2 3 4 5 6 
#
# 1 119.6176 16.5319 40.9028 -6.8757 11.3946 14.6100
# 2 16.5319 109.7677 16.4088 -8.4851 -8.8460 28.5340
# 3 40.9028 16.4088 98.5317 -18.9727 -9.8003 14.2757
# 4 -6.8757 -8.4851 -18.9727 13.1006 8.5473 -6.2470
# 5 11.3946 -8.8460 -9.8003 8.5473 43.3460 -3.1627
# 6 14.6100 28.5340 14.2757 -6.2470 -3.1627 43.7279
#
#
#
# Elastic Compliance Matrix: (Units=1/GPa)
#
#
# Indices 1 2 3 4 5 6 
#
# 1 0.010594 -0.000757 -0.004282 0.000717 -0.004184 -0.001848
# 2 -0.000757 0.011272 0.000109 0.002959 0.001458 -0.006610
# 3 -0.004282 0.000109 0.015975 0.020025 0.000742 -0.000941
# 4 0.000717 0.002959 0.020025 0.123548 -0.018866 0.007578
# 5 -0.004184 0.001458 0.000742 -0.018866 0.028323 -0.000443
# 6 -0.001848 -0.006610 -0.000941 0.007578 -0.000443 0.029158
#
#
# Mechanical properties :
#
#
# Convention : Reuss Voigt Hill
#
# Bulk Modulus (GPa) = 35.73725 52.84488 44.29107
# Shear Modulus (GPa) = 21.00335 36.97312 28.98824
#
# Velocity S-wave (km/s) = 3.02359 4.01163 3.55213
# Velocity P-wave (km/s) = 5.26732 6.66777 6.00849
#
# Compressibility (1/GPa) = 0.02798200
#
# Stress axis : x y z
#
# Youngs Moduli (GPa) = 94.38990 88.71255 62.59938
#
# Poissons Ratio (x) = 0.06714 0.26807
# Poissons Ratio (y) = 0.07144 -0.00685
# Poissons Ratio (z) = 0.40420 -0.00971
#
# Static dielectric constant tensor:
#      x y z
#    x 4.634160 0.184180 -0.029350 
#    y 0.184180 4.163630 -0.241200 
#    z -0.029350 -0.241200 3.990400 
# 
# 
# High freq. dielectric constant tensor:
#      x y z
#    x 1.930710 0.009820 -0.007180 
#    y 0.009820 1.908380 -0.018370 
#    z -0.007180 -0.018370 1.872770 
# 
# From -- ./inp_files/320240.got.cif
#   From: 2010.06.25/outbox.cif.g09.slc.cpg/sg2_161_cif.got.tgz:320240.got - 2010.06.27 13:26:56.
