data_PCOD8008936
_publ_section_title
;
Structure prediction by ZEFSAII (Michael W. Deem and Ramdas Pophale) SiO2 
 PCOD8008936
Probable space group: P -1
;
_chemical_formula_sum "Si O2"
_cell_formula_units_Z 16
_cell_length_a 9.307972
_cell_length_b 9.006826
_cell_length_c 15.256537
_cell_angle_alpha 135.073582
_cell_angle_beta 54.266652
_cell_angle_gamma 130.703523
_cell_volume 666.648496
_symmetry_space_group_name_H-M "P -1"
_symmetry_group_IT_number 2
_symmetry_cell_setting 'triclinic'
loop_
_space_group_symop_operation_xyz
x,y,z
-x,-y,-z
loop_
_atom_site_type_symbol
_atom_site_label
_atom_site_fract_x
_atom_site_fract_y
_atom_site_fract_z
Si Si1 0.301207 0.114011 0.557877
Si Si2 0.363960 0.984684 0.657830
Si Si3 0.068813 0.851758 0.119597
Si Si4 0.351356 0.725614 0.200234
Si Si5 0.118751 0.008826 0.366515
Si Si6 0.724062 0.645132 0.791438
Si Si7 0.694147 0.421461 0.043468
Si Si8 0.314601 0.509286 0.447806
O O1 0.412862 0.948724 0.429966
O O2 0.448486 0.379403 0.595805
O O3 0.250203 0.073848 0.664531
O O4 0.103955 0.054189 0.545178
O O5 0.250826 0.705670 0.594122
O O6 0.421038 0.136658 0.790385
O O7 0.852416 0.686357 0.096507
O O8 0.081528 0.905348 0.239867
O O9 0.134647 0.084144 0.135371
O O10 0.215823 0.730391 0.998596
O O11 0.239396 0.489954 0.196175
O O12 0.237437 0.888988 0.325340
O O13 0.365591 0.667246 0.070729
O O14 0.243946 0.284792 0.440102
O O15 0.498838 0.603636 0.847688
O O16 0.775833 0.554705 0.643910
#
# Coordination Sequence:
#
# PCOD8008936 Si02
#       8
#     2   2   2   2   2   2   2   2
#     4   9  17  37  60  78 110 153 187 224 281 332
#     4   9  19  37  59  84 114 146 190 233 277 336
#     4   9  21  37  58  89 106 145 202 225 267 351
#     4  11  22  37  55  88 122 144 185 239 280 334
#     4  10  21  35  60  85 114 148 188 234 283 328
#     4  11  19  37  62  80 114 151 185 232 283 326
#     4  10  21  38  60  81 116 149 182 238 283 322
#     4   9  19  37  61  83 109 149 196 227 267 350
#
# _framework density 24.000653
#
# number of rings (size 3 to 8) (size 9 to 14) (size 15 to 20)
#    0.750    1.500    1.250    1.500    0.000    2.000 
#    0.000    1.250    2.750    0.000    0.000    0.000 
#    0.000    0.000    0.000    0.000    0.000    0.000 
#
# Total GULP energy -198303.748500 kJ/mol
# GULP energy per Si atom -12393.984281 kJ/mol
# Density = 2.394603 g / cm^3
# Si number density = 24.000653 Si / 1000 Ang^3
#
#
#
# Elastic Constant Matrix: (Units=GPa)
#
#
# Indices 1 2 3 4 5 6 
#
# 1 96.3300 21.3558 1.5538 14.7288 15.0532 -2.2594
# 2 21.3558 148.2905 30.5204 48.3438 -1.5282 -8.3683
# 3 1.5538 30.5204 45.4986 10.5202 18.7009 2.7290
# 4 14.7288 48.3438 10.5202 31.0633 5.7840 5.6749
# 5 15.0532 -1.5282 18.7009 5.7840 29.8034 4.8283
# 6 -2.2594 -8.3683 2.7290 5.6749 4.8283 34.4567
#
#
#
# Elastic Compliance Matrix: (Units=1/GPa)
#
#
# Indices 1 2 3 4 5 6 
#
# 1 0.012782 -0.001659 0.005346 -0.003889 -0.009461 0.001978
# 2 -0.001659 0.020371 -0.013004 -0.030856 0.014587 0.008906
# 3 0.005346 -0.013004 0.040887 0.010153 -0.030434 -0.003454
# 4 -0.003889 -0.030856 0.010153 0.085884 -0.019420 -0.019976
# 5 -0.009461 0.014587 -0.030434 -0.019420 0.061970 -0.000152
# 6 0.001978 0.008906 -0.003454 -0.019976 -0.000152 0.034900
#
#
# Mechanical properties :
#
#
# Convention : Reuss Voigt Hill
#
# Bulk Modulus (GPa) = 18.04855 44.10880 31.07867
# Shear Modulus (GPa) = 17.01276 34.84395 25.92836
#
# Velocity S-wave (km/s) = 2.66530 3.81437 3.29039
# Velocity P-wave (km/s) = 4.12409 6.14958 5.23572
#
# Compressibility (1/GPa) = 0.05540611
#
# Stress axis : x y z
#
# Youngs Moduli (GPa) = 78.23496 49.08934 24.45749
#
# Poissons Ratio (x) = 0.08145 -0.13074
# Poissons Ratio (y) = 0.12981 0.31804
# Poissons Ratio (z) = -0.41822 0.63834
#
# Static dielectric constant tensor:
#      x y z
#    x 4.342570 -0.005820 -0.015490 
#    y -0.005820 4.129070 0.246330 
#    z -0.015490 0.246330 4.437110 
# 
# 
# High freq. dielectric constant tensor:
#      x y z
#    x 1.956990 -0.001560 0.008040 
#    y -0.001560 1.930760 0.022120 
#    z 0.008040 0.022120 1.958500 
# 
# From -- ./inp_files/556390.got.cif
#   From: 2010.06.25/outbox.cif.g09.slc.cpg/sg2_279_cif.got.tgz:556390.got - 2010.06.27 13:26:56.
