data_PCOD8008246
_publ_section_title
;
Structure prediction by ZEFSAII (Michael W. Deem and Ramdas Pophale) SiO2 
 PCOD8008246
Probable space group: P -1
;
_chemical_formula_sum "Si O2"
_cell_formula_units_Z 16
_cell_length_a 11.955060
_cell_length_b 10.952282
_cell_length_c 11.514089
_cell_angle_alpha 35.412483
_cell_angle_beta 56.236855
_cell_angle_gamma 71.674878
_cell_volume 695.573304
_symmetry_space_group_name_H-M "P -1"
_symmetry_group_IT_number 2
_symmetry_cell_setting 'triclinic'
loop_
_space_group_symop_operation_xyz
x,y,z
-x,-y,-z
loop_
_atom_site_type_symbol
_atom_site_label
_atom_site_fract_x
_atom_site_fract_y
_atom_site_fract_z
Si Si1 0.032678 0.898291 0.925088
Si Si2 0.723592 0.107630 0.499606
Si Si3 0.726628 0.769785 0.560044
Si Si4 0.877859 0.410037 0.733895
Si Si5 0.494116 0.347301 0.402960
Si Si6 0.310191 0.196176 0.034489
Si Si7 0.745129 0.959483 0.071061
Si Si8 0.981252 0.822439 0.748493
O O1 0.902189 0.949676 0.027278
O O2 0.004809 0.920107 0.788283
O O3 0.184943 0.078975 0.712984
O O4 0.048619 0.663863 0.138565
O O5 0.621093 0.240351 0.411660
O O6 0.886345 0.277630 0.274368
O O7 0.716103 0.903090 0.578018
O O8 0.677021 0.998077 0.736366
O O9 0.804118 0.586002 0.687174
O O10 0.570445 0.667771 0.677546
O O11 0.000000 0.500000 0.500000
O O12 0.751953 0.208740 0.909011
O O13 0.548029 0.604235 0.206208
O O14 0.378037 0.229682 0.653806
O O15 0.279071 0.073605 0.025507
O O16 0.184977 0.307068 0.057962
O O17 0.000000 0.000000 0.500000
#
# Coordination Sequence:
#
# PCOD8008246 Si02
#       8
#     2   2   2   2   2   2   2   2
#     4  10  20  42  68  99 133 168 221 287 330 390
#     4  10  24  45  67  96 132 174 229 278 333 399
#     4  11  24  43  69  99 135 172 229 284 333 398
#     4  12  23  40  71 105 131 179 224 281 350 384
#     4  12  25  42  66  96 137 185 218 267 345 401
#     4  10  24  45  66  96 133 176 221 279 334 403
#     4  11  23  45  66  99 142 167 227 281 326 410
#     4   8  18  42  70  91 126 165 220 280 326 385
#
# _framework density 23.002607999999999
#
# number of rings (size 3 to 8) (size 9 to 14) (size 15 to 20)
#    0.000    1.500    2.500    1.875    1.750    3.500 
#    6.750    0.000    0.000    0.000    0.000    0.000 
#    0.000    0.000    0.000    0.000    0.000    0.000 
#
# Total GULP energy -198223.506977 kJ/mol
# GULP energy per Si atom -12388.969186 kJ/mol
# Density = 2.295025 g / cm^3
# Si number density = 23.002608 Si / 1000 Ang^3
#
#
#
# Elastic Constant Matrix: (Units=GPa)
#
#
# Indices 1 2 3 4 5 6 
#
# 1 96.0129 9.5687 10.0097 4.1287 6.2092 -5.8695
# 2 9.5687 55.2789 8.0231 6.8163 15.9555 -0.9457
# 3 10.0097 8.0231 78.6203 10.2490 -7.7205 7.0308
# 4 4.1287 6.8163 10.2490 29.1661 -4.7826 4.9887
# 5 6.2092 15.9555 -7.7205 -4.7826 43.0849 -3.5716
# 6 -5.8695 -0.9457 7.0308 4.9887 -3.5716 40.3317
#
#
#
# Elastic Compliance Matrix: (Units=1/GPa)
#
#
# Indices 1 2 3 4 5 6 
#
# 1 0.010933 -0.001078 -0.001412 -0.001350 -0.001426 0.001853
# 2 -0.001078 0.021913 -0.002289 -0.005747 -0.008952 0.000674
# 3 -0.001412 -0.002289 0.014049 -0.003359 0.003028 -0.002025
# 4 -0.001350 -0.005747 -0.003359 0.038619 0.005675 -0.004020
# 5 -0.001426 -0.008952 0.003028 0.005675 0.027972 0.000830
# 6 0.001853 0.000674 -0.002025 -0.004020 0.000830 0.026003
#
#
# Mechanical properties :
#
#
# Convention : Reuss Voigt Hill
#
# Bulk Modulus (GPa) = 26.78232 31.67944 29.23088
# Shear Modulus (GPa) = 30.96101 36.00392 33.48246
#
# Velocity S-wave (km/s) = 3.67274 3.96057 3.81936
# Velocity P-wave (km/s) = 5.44553 5.89209 5.67321
#
# Compressibility (1/GPa) = 0.03733807
#
# Stress axis : x y z
#
# Youngs Moduli (GPa) = 91.46283 45.63505 71.17957
#
# Poissons Ratio (x) = 0.04919 0.10048
# Poissons Ratio (y) = 0.09859 0.16293
# Poissons Ratio (z) = 0.12911 0.10446
#
# Static dielectric constant tensor:
#      x y z
#    x 4.722390 -0.203920 -0.213270 
#    y -0.203920 3.953210 0.290130 
#    z -0.213270 0.290130 4.192900 
# 
# 
# High freq. dielectric constant tensor:
#      x y z
#    x 1.933700 0.002880 0.001860 
#    y 0.002880 1.892150 0.025060 
#    z 0.001860 0.025060 1.911710 
# 
# From -- ./inp_files/427212.got.cif
#   From: 2010.06.25/outbox.cif.g09.slc.cpg/sg2_214_cif.got.tgz:427212.got - 2010.06.27 13:26:56.
