data_PCOD8008793
_publ_section_title
;
Structure prediction by ZEFSAII (Michael W. Deem and Ramdas Pophale) SiO2 
 PCOD8008793
Probable space group: P -1
;
_chemical_formula_sum "Si O2"
_cell_formula_units_Z 12
_cell_length_a 10.423826
_cell_length_b 9.408517
_cell_length_c 12.493534
_cell_angle_alpha 111.822217
_cell_angle_beta 130.306669
_cell_angle_gamma 42.444623
_cell_volume 617.173048
_symmetry_space_group_name_H-M "P -1"
_symmetry_group_IT_number 2
_symmetry_cell_setting 'triclinic'
loop_
_space_group_symop_operation_xyz
x,y,z
-x,-y,-z
loop_
_atom_site_type_symbol
_atom_site_label
_atom_site_fract_x
_atom_site_fract_y
_atom_site_fract_z
Si Si1 0.797889 0.149520 0.686406
Si Si2 0.192504 0.104629 0.914168
Si Si3 0.458143 0.919594 0.793317
Si Si4 0.681602 0.647751 0.464120
Si Si5 0.747574 0.507482 0.698802
Si Si6 0.124135 0.194103 0.501114
O O1 0.591790 0.219315 0.673372
O O2 0.690792 0.361172 0.619138
O O3 0.027695 0.065682 0.852469
O O4 0.881909 0.970610 0.596455
O O5 0.019505 0.349487 0.842795
O O6 0.363319 0.937100 0.864381
O O7 0.344213 0.072476 0.085881
O O8 0.571334 0.695901 0.741735
O O9 0.245378 0.118945 0.661707
O O10 0.714344 0.616814 0.600513
O O11 0.729758 0.790806 0.495855
O O12 0.855295 0.422853 0.431847
#
# Coordination Sequence:
#
# PCOD8008793 Si02
#       6
#     2   2   2   2   2   2
#     4  10  22  36  58  87 110 143 191 233 271 321
#     4   9  23  36  57  85 114 144 188 226 281 323
#     4  11  20  38  58  84 115 148 181 229 281 333
#     4  11  22  38  55  87 113 147 187 226 285 326
#     4  10  21  34  60  85 110 142 187 232 272 324
#     4  11  23  36  61  79 117 150 181 231 279 331
#
# _framework density 19.443494999999999
#
# number of rings (size 3 to 8) (size 9 to 14) (size 15 to 20)
#    1.000    0.667    3.333    1.500    2.333    1.333 
#    0.000    0.833    0.000    2.000    0.000    0.000 
#    0.000    0.000    0.000    0.000    0.000    0.000 
#
# Total GULP energy -148724.699042 kJ/mol
# GULP energy per Si atom -12393.724920 kJ/mol
# Density = 1.939924 g / cm^3
# Si number density = 19.443495 Si / 1000 Ang^3
#
#
#
# Elastic Constant Matrix: (Units=GPa)
#
#
# Indices 1 2 3 4 5 6 
#
# 1 72.0096 19.0111 23.4588 12.0029 19.1271 -7.7346
# 2 19.0111 87.1980 25.7319 21.1514 4.0774 -4.0859
# 3 23.4588 25.7319 44.2025 9.1727 26.7905 8.9241
# 4 12.0029 21.1514 9.1727 19.3184 -3.7037 5.5748
# 5 19.1271 4.0774 26.7905 -3.7037 34.9374 -4.2450
# 6 -7.7346 -4.0859 8.9241 5.5748 -4.2450 31.4024
#
#
#
# Elastic Compliance Matrix: (Units=1/GPa)
#
#
# Indices 1 2 3 4 5 6 
#
# 1 0.021139 0.001964 -0.005970 -0.016568 -0.007883 0.009035
# 2 0.001964 0.020709 -0.018660 -0.016718 0.010610 0.012883
# 3 -0.005970 -0.018660 0.092656 -0.023392 -0.072442 -0.035870
# 4 -0.016568 -0.016718 -0.023392 0.102452 0.038286 -0.012621
# 5 -0.007883 0.010610 -0.072442 0.038286 0.094467 0.025999
# 6 0.009035 0.012883 -0.035870 -0.012621 0.025999 0.051695
#
#
# Mechanical properties :
#
#
# Convention : Reuss Voigt Hill
#
# Bulk Modulus (GPa) = 11.21433 37.75706 24.48570
# Shear Modulus (GPa) = 10.91284 26.14554 18.52919
#
# Velocity S-wave (km/s) = 2.37166 3.67098 3.09038
# Velocity P-wave (km/s) = 3.64416 6.11794 5.03533
#
# Compressibility (1/GPa) = 0.08917163
#
# Stress axis : x y z
#
# Youngs Moduli (GPa) = 47.30488 48.28730 10.79259
#
# Poissons Ratio (x) = -0.09483 0.06443
# Poissons Ratio (y) = -0.09290 0.20139
# Poissons Ratio (z) = 0.28242 0.90105
#
# Static dielectric constant tensor:
#      x y z
#    x 3.543660 -0.216210 0.291220 
#    y -0.216210 3.550330 -0.086340 
#    z 0.291220 -0.086340 3.371070 
# 
# 
# High freq. dielectric constant tensor:
#      x y z
#    x 1.748140 -0.021920 0.023840 
#    y -0.021920 1.766400 0.002250 
#    z 0.023840 0.002250 1.733180 
# 
# From -- ./inp_files/168987.got.cif
#   From: 2010.06.25/outbox.cif.g09.slc.cpg/sg2_85_cif.got.tgz:168987.got - 2010.06.27 13:26:56.
