data_PCOD8008585
_publ_section_title
;
Structure prediction by ZEFSAII (Michael W. Deem and Ramdas Pophale) SiO2 
 PCOD8008585
Probable space group: P -1
;
_chemical_formula_sum "Si O2"
_cell_formula_units_Z 16
_cell_length_a 9.179191
_cell_length_b 16.067798
_cell_length_c 18.939207
_cell_angle_alpha 149.018663
_cell_angle_beta 146.772198
_cell_angle_gamma 28.822779
_cell_volume 650.898624
_symmetry_space_group_name_H-M "P -1"
_symmetry_group_IT_number 2
_symmetry_cell_setting 'triclinic'
loop_
_space_group_symop_operation_xyz
x,y,z
-x,-y,-z
loop_
_atom_site_type_symbol
_atom_site_label
_atom_site_fract_x
_atom_site_fract_y
_atom_site_fract_z
Si Si1 0.108156 0.222535 0.578205
Si Si2 0.649605 0.396092 0.057658
Si Si3 0.776828 0.877735 0.607484
Si Si4 0.264047 0.324529 0.215059
Si Si5 0.780186 0.035661 0.316836
Si Si6 0.621550 0.109617 0.922231
Si Si7 0.449468 0.653483 0.300341
Si Si8 0.433554 0.697146 0.820401
O O1 0.105675 0.147515 0.443629
O O2 0.917151 0.453680 0.669313
O O3 0.920396 0.148428 0.495282
O O4 0.483107 0.106010 0.669154
O O5 0.592663 0.544855 0.205018
O O6 0.032431 0.254715 0.092480
O O7 0.500000 0.500000 0.000000
O O8 0.503173 0.273968 0.933141
O O9 0.649873 0.740137 0.469943
O O10 0.060793 0.827520 0.739785
O O11 0.603758 0.172429 0.276933
O O12 0.318991 0.328239 0.157160
O O13 0.521880 0.019886 0.247294
O O14 0.073318 0.819161 0.256360
O O15 0.489573 0.205478 0.014871
O O16 0.000000 0.000000 0.000000
O O17 0.483601 0.511783 0.273410
#
# Coordination Sequence:
#
# PCOD8008585 Si02
#       8
#     2   2   2   2   2   2   2   2
#     4  10  22  42  71 104 139 183 234 292 338 410
#     4  11  26  44  73  99 137 190 232 287 347 425
#     4  10  20  44  69 102 140 187 233 280 350 410
#     4  12  24  43  70 108 135 183 238 284 352 407
#     4  11  24  44  71  96 142 184 228 292 341 408
#     4  11  26  49  67 101 143 183 235 284 354 413
#     4  10  24  46  68 101 143 182 230 294 348 411
#     4  11  26  42  72 105 139 186 230 291 348 416
#
# _framework density 24.581401
#
# number of rings (size 3 to 8) (size 9 to 14) (size 15 to 20)
#    0.000    1.250    3.750    0.750    3.500    3.500 
#    2.250    1.250    0.000    0.000    0.000    0.000 
#    0.000    0.000    0.000    0.000    0.000    0.000 
#
# Total GULP energy -198313.316805 kJ/mol
# GULP energy per Si atom -12394.582300 kJ/mol
# Density = 2.452545 g / cm^3
# Si number density = 24.581401 Si / 1000 Ang^3
#
#
#
# Elastic Constant Matrix: (Units=GPa)
#
#
# Indices 1 2 3 4 5 6 
#
# 1 137.8242 46.3195 36.1394 -1.3068 19.0059 1.1861
# 2 46.3195 147.1021 17.3919 -7.9942 3.4789 6.0161
# 3 36.1394 17.3919 53.8285 -1.8019 18.1983 6.3263
# 4 -1.3068 -7.9942 -1.8019 28.5150 5.0756 9.0093
# 5 19.0059 3.4789 18.1983 5.0756 40.2599 -7.2537
# 6 1.1861 6.0161 6.3263 9.0093 -7.2537 32.9058
#
#
#
# Elastic Compliance Matrix: (Units=1/GPa)
#
#
# Indices 1 2 3 4 5 6 
#
# 1 0.009683 -0.002453 -0.005227 -0.000529 -0.001775 0.000858
# 2 -0.002453 0.007864 -0.000597 0.002659 0.000062 -0.001949
# 3 -0.005227 -0.000597 0.027937 0.006685 -0.012700 -0.009704
# 4 -0.000529 0.002659 0.006685 0.043330 -0.011369 -0.016122
# 5 -0.001775 0.000062 -0.012700 -0.011369 0.035256 0.013379
# 6 0.000858 -0.001949 -0.009704 -0.016122 0.013379 0.039944
#
#
# Mechanical properties :
#
#
# Convention : Reuss Voigt Hill
#
# Bulk Modulus (GPa) = 34.56460 59.82849 47.19655
# Shear Modulus (GPa) = 26.28659 36.26308 31.27483
#
# Velocity S-wave (km/s) = 3.27367 3.84503 3.57080
# Velocity P-wave (km/s) = 5.32738 6.64109 6.02018
#
# Compressibility (1/GPa) = 0.02893133
#
# Stress axis : x y z
#
# Youngs Moduli (GPa) = 103.27489 127.16711 35.79423
#
# Poissons Ratio (x) = 0.31192 0.18709
# Poissons Ratio (y) = 0.25332 0.02136
# Poissons Ratio (z) = 0.53979 0.07589
#
# Static dielectric constant tensor:
#      x y z
#    x 4.840960 -0.023000 0.522600 
#    y -0.023000 4.726550 -0.039230 
#    z 0.522600 -0.039230 4.490570 
# 
# 
# High freq. dielectric constant tensor:
#      x y z
#    x 1.991950 0.003780 0.027910 
#    y 0.003780 1.990320 -0.001070 
#    z 0.027910 -0.001070 1.958830 
# 
# From -- ./inp_files/561392.got.cif
#   From: 2010.06.25/outbox.cif.g09.slc.cpg/sg2_281_cif.got.tgz:561392.got - 2010.06.27 13:26:56.
