data_PCOD8008824
_publ_section_title
;
Structure prediction by ZEFSAII (Michael W. Deem and Ramdas Pophale) SiO2 
 PCOD8008824
Probable space group: P -1
;
_chemical_formula_sum "Si O2"
_cell_formula_units_Z 16
_cell_length_a 5.169688
_cell_length_b 15.638868
_cell_length_c 14.120876
_cell_angle_alpha 44.907627
_cell_angle_beta 112.831825
_cell_angle_gamma 111.110061
_cell_volume 736.396447
_symmetry_space_group_name_H-M "P -1"
_symmetry_group_IT_number 2
_symmetry_cell_setting 'triclinic'
loop_
_space_group_symop_operation_xyz
x,y,z
-x,-y,-z
loop_
_atom_site_type_symbol
_atom_site_label
_atom_site_fract_x
_atom_site_fract_y
_atom_site_fract_z
Si Si1 0.955051 0.753892 0.278209
Si Si2 0.749874 0.141760 0.600531
Si Si3 0.267906 0.336606 0.868389
Si Si4 0.489089 0.628473 0.441926
Si Si5 0.069241 0.620791 0.038893
Si Si6 0.362786 0.605903 0.642802
Si Si7 0.084847 0.103347 0.506783
Si Si8 0.095183 0.352207 0.215582
O O1 0.839812 0.767574 0.143718
O O2 0.685722 0.725843 0.331088
O O3 0.138025 0.872421 0.263353
O O4 0.161505 0.650846 0.378361
O O5 0.839210 0.287449 0.473715
O O6 0.414721 0.107245 0.574137
O O7 0.908333 0.065760 0.607151
O O8 0.601647 0.340357 0.924790
O O9 0.192961 0.469908 0.719065
O O10 0.107486 0.308856 0.966645
O O11 0.500000 0.500000 0.500000
O O12 0.580454 0.628030 0.565803
O O13 0.977263 0.473014 0.147281
O O14 0.998959 0.670143 0.887847
O O15 0.561729 0.621202 0.752538
O O16 0.991280 0.229337 0.355069
O O17 0.000000 0.000000 0.500000
#
# Coordination Sequence:
#
# PCOD8008824 Si02
#       8
#     2   2   2   2   2   2   2   2
#     4  11  21  32  49  72 112 143 178 221 262 320
#     4  10  21  35  52  82 107 140 174 220 277 330
#     4  11  21  32  49  76 104 150 182 213 254 310
#     4  11  20  29  44  73 103 148 182 211 256 322
#     4  10  22  35  52  76 110 145 186 212 259 315
#     4   9  19  31  51  73 111 143 182 211 267 322
#     4  11  22  39  60  83 107 136 179 228 281 326
#     4   9  20  37  54  77 108 143 176 229 265 312
#
# _framework density 21.727428
#
# number of rings (size 3 to 8) (size 9 to 14) (size 15 to 20)
#    0.000    1.750    1.250    4.500    3.500    6.500 
#    0.000    0.000    0.000    0.000    0.000    5.250 
#    0.000    0.000    0.000    0.000    0.000    0.000 
#
# Total GULP energy -198217.869032 kJ/mol
# GULP energy per Si atom -12388.616815 kJ/mol
# Density = 2.167798 g / cm^3
# Si number density = 21.727428 Si / 1000 Ang^3
#
#
#
# Elastic Constant Matrix: (Units=GPa)
#
#
# Indices 1 2 3 4 5 6 
#
# 1 117.3573 49.5314 15.3617 22.0819 -7.0294 -14.5961
# 2 49.5314 149.0586 33.8818 49.0549 -0.8012 -8.9901
# 3 15.3617 33.8818 40.4711 26.8583 0.3141 3.7871
# 4 22.0819 49.0549 26.8583 39.1461 -0.9366 -1.3671
# 5 -7.0294 -0.8012 0.3141 -0.9366 14.9100 9.8341
# 6 -14.5961 -8.9901 3.7871 -1.3671 9.8341 33.6702
#
#
#
# Elastic Compliance Matrix: (Units=1/GPa)
#
#
# Indices 1 2 3 4 5 6 
#
# 1 0.010619 -0.002393 -0.000878 -0.002213 0.002646 0.003200
# 2 -0.002393 0.012248 -0.000534 -0.013613 -0.003049 0.002630
# 3 -0.000878 -0.000534 0.046924 -0.031256 0.001571 -0.007529
# 4 -0.002213 -0.013613 -0.031256 0.065385 0.002416 0.000871
# 5 0.002646 -0.003049 0.001571 0.002416 0.084354 -0.024383
# 6 0.003200 0.002630 -0.007529 0.000871 -0.024383 0.039793
#
#
# Mechanical properties :
#
#
# Convention : Reuss Voigt Hill
#
# Bulk Modulus (GPa) = 16.08220 56.04851 36.06535
# Shear Modulus (GPa) = 17.38162 31.41939 24.40050
#
# Velocity S-wave (km/s) = 2.83147 3.80685 3.35480
# Velocity P-wave (km/s) = 4.25529 6.72124 5.62505
#
# Compressibility (1/GPa) = 0.06218056
#
# Stress axis : x y z
#
# Youngs Moduli (GPa) = 94.17001 81.64926 21.31088
#
# Poissons Ratio (x) = 0.19542 0.01872
# Poissons Ratio (y) = 0.22539 0.01137
# Poissons Ratio (z) = 0.08270 0.04357
#
# Static dielectric constant tensor:
#      x y z
#    x 3.948750 0.096650 0.016650 
#    y 0.096650 4.144270 0.464760 
#    z 0.016650 0.464760 3.569220 
# 
# 
# High freq. dielectric constant tensor:
#      x y z
#    x 1.859920 -0.005540 0.005050 
#    y -0.005540 1.857280 0.051050 
#    z 0.005050 0.051050 1.794790 
# 
# From -- ./inp_files/82713.got.cif
#   From: 2010.06.25/outbox.cif.g09.slc.cpg/sg2_42_cif.got.tgz:82713.got - 2010.06.27 13:26:56.
