data_PCOD8008818
_publ_section_title
;
Structure prediction by ZEFSAII (Michael W. Deem and Ramdas Pophale) SiO2 
 PCOD8008818
Probable space group: P -1
;
_chemical_formula_sum "Si O2"
_cell_formula_units_Z 14
_cell_length_a 13.789624
_cell_length_b 9.216302
_cell_length_c 16.278240
_cell_angle_alpha 91.834482
_cell_angle_beta 22.699058
_cell_angle_gamma 94.116760
_cell_volume 793.115012
_symmetry_space_group_name_H-M "P -1"
_symmetry_group_IT_number 2
_symmetry_cell_setting 'triclinic'
loop_
_space_group_symop_operation_xyz
x,y,z
-x,-y,-z
loop_
_atom_site_type_symbol
_atom_site_label
_atom_site_fract_x
_atom_site_fract_y
_atom_site_fract_z
Si Si1 0.777991 0.601280 0.611065
Si Si2 0.917692 0.853040 0.161548
Si Si3 0.650679 0.328802 0.149706
Si Si4 0.698361 0.605591 0.025920
Si Si5 0.985902 0.813436 0.920153
Si Si6 0.454277 0.649872 0.581307
Si Si7 0.789329 0.557602 0.778112
O O1 0.618409 0.714247 0.688686
O O2 0.843643 0.655710 0.654630
O O3 0.036140 0.576365 0.362327
O O4 0.604324 0.441581 0.747386
O O5 0.695424 0.768903 0.386186
O O6 0.915094 0.023823 0.183003
O O7 0.188858 0.808236 0.978226
O O8 0.875895 0.813452 0.097886
O O9 0.593821 0.382104 0.286197
O O10 0.807813 0.466551 0.982970
O O11 0.834442 0.640121 0.831581
O O12 0.757978 0.749155 0.037659
O O13 0.213947 0.714259 0.730286
O O14 0.500000 0.500000 0.500000
O O15 0.500000 0.500000 0.000000
#
# Coordination Sequence:
#
# PCOD8008818 Si02
#       7
#     2   2   2   2   2   2   2
#     4   8  18  30  48  78 100 124 160 203 259 300
#     4  10  21  36  48  67 108 140 169 205 242 293
#     4   9  20  31  49  76  97 131 168 202 253 291
#     4   9  18  30  52  76  98 125 168 210 248 286
#     4  10  21  35  49  72 100 140 175 201 243 296
#     4  11  21  31  51  75 102 134 170 211 248 286
#     4   9  16  30  50  77 104 123 152 209 259 298
#
# _framework density 17.651916
#
# number of rings (size 3 to 8) (size 9 to 14) (size 15 to 20)
#    0.857    1.714    0.000    2.143    4.000    2.286 
#    0.000    0.000    0.000    0.857    0.000    6.000 
#    0.000    0.000    0.000    0.000    0.000    0.000 
#
# Total GULP energy -173438.392026 kJ/mol
# GULP energy per Si atom -12388.456573 kJ/mol
# Density = 1.761174 g / cm^3
# Si number density = 17.651916 Si / 1000 Ang^3
#
#
#
# Elastic Constant Matrix: (Units=GPa)
#
#
# Indices 1 2 3 4 5 6 
#
# 1 111.5169 37.1468 32.0291 7.3191 1.8455 1.5979
# 2 37.1468 77.2797 20.6839 6.7663 1.6194 3.3619
# 3 32.0291 20.6839 77.0875 7.9117 -0.8406 1.9386
# 4 7.3191 6.7663 7.9117 20.0690 -1.6107 -0.0956
# 5 1.8455 1.6194 -0.8406 -1.6107 19.4485 4.9707
# 6 1.5979 3.3619 1.9386 -0.0956 4.9707 13.8593
#
#
#
# Elastic Compliance Matrix: (Units=1/GPa)
#
#
# Indices 1 2 3 4 5 6 
#
# 1 0.011573 -0.004511 -0.003482 -0.001417 -0.001157 0.000652
# 2 -0.004511 0.016061 -0.002058 -0.003013 -0.000499 -0.002930
# 3 -0.003482 -0.002058 0.015442 -0.004030 0.001282 -0.001747
# 4 -0.001417 -0.003013 -0.004030 0.053318 0.004580 0.000183
# 5 -0.001157 -0.000499 0.001282 0.004580 0.057222 -0.020416
# 6 0.000652 -0.002930 -0.001747 0.000183 -0.020416 0.080357
#
#
# Mechanical properties :
#
#
# Convention : Reuss Voigt Hill
#
# Bulk Modulus (GPa) = 43.52474 49.51152 46.51813
# Shear Modulus (GPa) = 19.10357 22.41031 20.75694
#
# Velocity S-wave (km/s) = 3.29331 3.56697 3.43286
# Velocity P-wave (km/s) = 6.25875 6.71372 6.49022
#
# Compressibility (1/GPa) = 0.02297544
#
# Stress axis : x y z
#
# Youngs Moduli (GPa) = 86.41090 62.26355 64.75662
#
# Poissons Ratio (x) = 0.28087 0.22545
# Poissons Ratio (y) = 0.38980 0.13325
# Poissons Ratio (z) = 0.30084 0.12812
#
# Static dielectric constant tensor:
#      x y z
#    x 3.669480 -0.087350 0.123410 
#    y -0.087350 2.868070 0.082630 
#    z 0.123410 0.082630 3.350260 
# 
# 
# High freq. dielectric constant tensor:
#      x y z
#    x 1.696640 -0.005980 0.002420 
#    y -0.005980 1.627750 0.010530 
#    z 0.002420 0.010530 1.688170 
# 
# From -- ./inp_files/82877.got.cif
#   From: 2010.06.25/outbox.cif.g09.slc.cpg/sg2_42_cif.got.tgz:82877.got - 2010.06.27 13:26:56.
