data_PCOD8008525
_publ_section_title
;
Structure prediction by ZEFSAII (Michael W. Deem and Ramdas Pophale) SiO2 
 PCOD8008525
Probable space group: P -1
;
_chemical_formula_sum "Si O2"
_cell_formula_units_Z 16
_cell_length_a 14.316369
_cell_length_b 11.441868
_cell_length_c 8.530906
_cell_angle_alpha 96.561487
_cell_angle_beta 89.184079
_cell_angle_gamma 31.653292
_cell_volume 711.668181
_symmetry_space_group_name_H-M "P -1"
_symmetry_group_IT_number 2
_symmetry_cell_setting 'triclinic'
loop_
_space_group_symop_operation_xyz
x,y,z
-x,-y,-z
loop_
_atom_site_type_symbol
_atom_site_label
_atom_site_fract_x
_atom_site_fract_y
_atom_site_fract_z
Si Si1 0.159019 0.794896 0.350628
Si Si2 0.736261 0.938948 0.174700
Si Si3 0.498632 0.364042 0.437801
Si Si4 0.893347 0.375287 0.811270
Si Si5 0.315962 0.874723 0.297132
Si Si6 0.486622 0.187322 0.941981
Si Si7 0.962439 0.403403 0.471025
Si Si8 0.353647 0.185453 0.660178
O O1 0.296450 0.560050 0.408164
O O2 0.077876 0.797780 0.219377
O O3 0.258282 0.800561 0.276450
O O4 0.000000 0.000000 0.500000
O O5 0.738283 0.838595 0.293941
O O6 0.946471 0.743860 0.103093
O O7 0.636875 0.166787 0.270310
O O8 0.642329 0.982250 0.031131
O O9 0.500000 0.500000 0.500000
O O10 0.551629 0.239677 0.576605
O O11 0.903700 0.415832 0.642062
O O12 0.702257 0.603923 0.931680
O O13 0.437519 0.771922 0.125666
O O14 0.137140 0.148024 0.357421
O O15 0.466106 0.117387 0.792159
O O16 0.799508 0.562840 0.371762
O O17 0.000000 0.500000 0.500000
O O18 0.500000 0.000000 0.500000
#
# Coordination Sequence:
#
# PCOD8008525 Si02
#       8
#     2   2   2   2   2   2   2   2
#     4  11  22  43  77 106 139 194 251 298 354 430
#     4  12  24  49  69 105 155 190 238 304 366 439
#     4  10  20  43  73  99 141 191 242 300 349 420
#     4  12  25  46  74 107 148 190 242 297 376 421
#     4  11  25  45  70 107 148 189 252 299 354 436
#     4  12  29  45  71 109 152 193 237 302 377 430
#     4  12  23  45  77 107 141 188 248 306 350 434
#     4  12  27  46  76 105 144 195 247 300 367 438
#
# _framework density 22.482386999999999
#
# number of rings (size 3 to 8) (size 9 to 14) (size 15 to 20)
#    0.000    0.500    5.000    3.375    3.500    2.000 
#    0.000    0.625    0.000    0.000    0.000    0.000 
#    0.000    0.000    0.000    0.000    0.000    0.000 
#
# Total GULP energy -198317.853899 kJ/mol
# GULP energy per Si atom -12394.865869 kJ/mol
# Density = 2.243122 g / cm^3
# Si number density = 22.482387 Si / 1000 Ang^3
#
#
#
# Elastic Constant Matrix: (Units=GPa)
#
#
# Indices 1 2 3 4 5 6 
#
# 1 133.6861 51.4327 54.9332 8.7932 -7.8609 -15.5465
# 2 51.4327 149.5662 42.7504 -8.0025 -4.1573 -23.1623
# 3 54.9332 42.7504 106.0849 -0.6112 -7.4344 -14.7953
# 4 8.7932 -8.0025 -0.6112 22.2341 -7.4197 1.4749
# 5 -7.8609 -4.1573 -7.4344 -7.4197 45.9016 4.3395
# 6 -15.5465 -23.1623 -14.7953 1.4749 4.3395 41.8807
#
#
#
# Elastic Compliance Matrix: (Units=1/GPa)
#
#
# Indices 1 2 3 4 5 6 
#
# 1 0.010766 -0.002541 -0.004417 -0.005406 -0.000092 0.001231
# 2 -0.002541 0.008764 -0.001729 0.004053 0.000440 0.003105
# 3 -0.004417 -0.001729 0.012749 0.001788 0.001279 0.001713
# 4 -0.005406 0.004053 0.001788 0.051485 0.008223 -0.001799
# 5 -0.000092 0.000440 0.001279 0.008223 0.023542 -0.002068
# 6 0.001231 0.003105 0.001713 -0.001799 -0.002068 0.026934
#
#
# Mechanical properties :
#
#
# Convention : Reuss Voigt Hill
#
# Bulk Modulus (GPa) = 67.08829 76.39662 71.74246
# Shear Modulus (GPa) = 31.93228 38.01799 34.97513
#
# Velocity S-wave (km/s) = 3.77281 4.11665 3.94847
# Velocity P-wave (km/s) = 6.99170 7.52663 7.26409
#
# Compressibility (1/GPa) = 0.01490573
#
# Stress axis : x y z
#
# Youngs Moduli (GPa) = 92.88477 114.10635 78.43741
#
# Poissons Ratio (x) = 0.28994 0.34645
# Poissons Ratio (y) = 0.23602 0.13559
# Poissons Ratio (z) = 0.41026 0.19726
#
# Static dielectric constant tensor:
#      x y z
#    x 4.421270 -0.190090 0.094090 
#    y -0.190090 4.532680 -0.326260 
#    z 0.094090 -0.326260 3.983200 
# 
# 
# High freq. dielectric constant tensor:
#      x y z
#    x 1.905360 -0.011420 0.003750 
#    y -0.011420 1.895160 -0.002060 
#    z 0.003750 -0.002060 1.872850 
# 
# From -- ./inp_files/307744.got.cif
#   From: 2010.06.25/outbox.cif.g09.slc.cpg/sg2_154_cif.got.tgz:307744.got - 2010.06.27 13:26:56.
