data_PCOD8008728
_publ_section_title
;
Structure prediction by ZEFSAII (Michael W. Deem and Ramdas Pophale) SiO2 
 PCOD8008728
Probable space group: P -1
;
_chemical_formula_sum "Si O2"
_cell_formula_units_Z 16
_cell_length_a 18.330296
_cell_length_b 11.661457
_cell_length_c 11.612290
_cell_angle_alpha 139.775281
_cell_angle_beta 41.005383
_cell_angle_gamma 109.949900
_cell_volume 875.204127
_symmetry_space_group_name_H-M "P -1"
_symmetry_group_IT_number 2
_symmetry_cell_setting 'triclinic'
loop_
_space_group_symop_operation_xyz
x,y,z
-x,-y,-z
loop_
_atom_site_type_symbol
_atom_site_label
_atom_site_fract_x
_atom_site_fract_y
_atom_site_fract_z
Si Si1 0.432736 0.665472 0.873031
Si Si2 0.200654 0.959276 0.931262
Si Si3 0.778015 0.392735 0.495366
Si Si4 0.942672 0.357901 0.462840
Si Si5 0.607690 0.180580 0.207200
Si Si6 0.435841 0.875299 0.441134
Si Si7 0.324667 0.561829 0.117063
Si Si8 0.453294 0.168708 0.962605
O O1 0.517179 0.414998 0.549542
O O2 0.360637 0.803929 0.951419
O O3 0.319805 0.713077 0.138144
O O4 0.519842 0.747608 0.887289
O O5 0.208914 0.739828 0.733788
O O6 0.252513 0.953503 0.993447
O O7 0.286405 0.990853 0.757754
O O8 0.045948 0.144044 0.244520
O O9 0.921696 0.317440 0.322359
O O10 0.699171 0.344915 0.651889
O O11 0.695812 0.645308 0.759367
O O12 0.796662 0.473043 0.787438
O O13 0.000000 0.500000 0.500000
O O14 0.535421 0.052708 0.202137
O O15 0.441220 0.861995 0.285056
O O16 0.500000 0.000000 0.500000
O O17 0.526088 0.648626 0.224329
#
# Coordination Sequence:
#
# PCOD8008728 Si02
#       8
#     2   2   2   2   2   2   2   2
#     4  11  21  38  53  79 115 148 187 225 268 319
#     4  12  19  35  52  83 111 144 180 222 277 325
#     4   9  20  33  56  79 107 142 172 227 278 331
#     4  10  21  34  53  82 112 142 176 222 279 339
#     4  11  23  33  56  82 110 149 188 228 263 321
#     4  11  18  30  56  85 112 134 176 228 279 326
#     4   9  19  35  52  79 110 140 175 222 279 321
#     4  11  19  36  56  83 113 145 181 226 278 323
#
# _framework density 18.28145
#
# number of rings (size 3 to 8) (size 9 to 14) (size 15 to 20)
#    0.750    0.750    3.750    3.000    0.000    2.000 
#    0.000    0.625    0.000    0.000    0.000    1.750 
#    0.000    0.000    0.000    0.000    0.000    0.000 
#
# Total GULP energy -198220.398962 kJ/mol
# GULP energy per Si atom -12388.774935 kJ/mol
# Density = 1.823984 g / cm^3
# Si number density = 18.281450 Si / 1000 Ang^3
#
#
#
# Elastic Constant Matrix: (Units=GPa)
#
#
# Indices 1 2 3 4 5 6 
#
# 1 123.3209 46.7905 26.6778 4.6192 3.2773 -7.9529
# 2 46.7905 84.7514 15.0545 3.7690 5.2914 -9.0537
# 3 26.6778 15.0545 39.8071 4.3733 -5.3178 -6.0824
# 4 4.6192 3.7690 4.3733 20.9677 5.7404 2.5876
# 5 3.2773 5.2914 -5.3178 5.7404 28.8195 0.9842
# 6 -7.9529 -9.0537 -6.0824 2.5876 0.9842 33.0611
#
#
#
# Elastic Compliance Matrix: (Units=1/GPa)
#
#
# Indices 1 2 3 4 5 6 
#
# 1 0.011370 -0.005119 -0.005828 -0.000014 -0.001436 0.000305
# 2 -0.005119 0.015523 -0.002283 -0.000807 -0.002622 0.002741
# 3 -0.005828 -0.002283 0.032567 -0.007969 0.008530 0.004334
# 4 -0.000014 -0.000807 -0.007969 0.053406 -0.011770 -0.005520
# 5 -0.001436 -0.002622 0.008530 -0.011770 0.039253 0.000259
# 6 0.000305 0.002741 0.004334 -0.005520 0.000259 0.032293
#
#
# Mechanical properties :
#
#
# Convention : Reuss Voigt Hill
#
# Bulk Modulus (GPa) = 30.30182 47.21390 38.75786
# Shear Modulus (GPa) = 22.53539 27.19344 24.86442
#
# Velocity S-wave (km/s) = 3.51478 3.86098 3.69194
# Velocity P-wave (km/s) = 5.75176 6.76450 6.27858
#
# Compressibility (1/GPa) = 0.03300132
#
# Stress axis : x y z
#
# Youngs Moduli (GPa) = 87.94738 64.41855 30.70553
#
# Poissons Ratio (x) = 0.32979 0.17895
# Poissons Ratio (y) = 0.45024 0.07009
# Poissons Ratio (z) = 0.51255 0.14705
#
# Static dielectric constant tensor:
#      x y z
#    x 3.584950 -0.050040 -0.092730 
#    y -0.050040 3.338140 0.135140 
#    z -0.092730 0.135140 3.442200 
# 
# 
# High freq. dielectric constant tensor:
#      x y z
#    x 1.718080 0.008620 0.005590 
#    y 0.008620 1.696870 0.017220 
#    z 0.005590 0.017220 1.675100 
# 
# From -- ./inp_files/337024.got.cif
#   From: 2010.06.25/outbox.cif.g09.slc.cpg/sg2_169_cif.got.tgz:337024.got - 2010.06.27 13:26:56.
