data_PCOD8008313
_publ_section_title
;
Structure prediction by ZEFSAII (Michael W. Deem and Ramdas Pophale) SiO2 
 PCOD8008313
Probable space group: P -1
;
_chemical_formula_sum "Si O2"
_cell_formula_units_Z 16
_cell_length_a 18.213149
_cell_length_b 18.474167
_cell_length_c 9.804268
_cell_angle_alpha 134.314910
_cell_angle_beta 45.175546
_cell_angle_gamma 160.642199
_cell_volume 767.639286
_symmetry_space_group_name_H-M "P -1"
_symmetry_group_IT_number 2
_symmetry_cell_setting 'triclinic'
loop_
_space_group_symop_operation_xyz
x,y,z
-x,-y,-z
loop_
_atom_site_type_symbol
_atom_site_label
_atom_site_fract_x
_atom_site_fract_y
_atom_site_fract_z
Si Si1 0.486608 0.758876 0.793521
Si Si2 0.102593 0.958070 0.546183
Si Si3 0.154447 0.725645 0.544309
Si Si4 0.537016 0.620557 0.217549
Si Si5 0.344169 0.421654 0.493440
Si Si6 0.448165 0.019141 0.803674
Si Si7 0.786434 0.334810 0.157312
Si Si8 0.870724 0.595029 0.558925
O O1 0.316813 0.515516 0.699734
O O2 0.401949 0.774236 0.828049
O O3 0.715788 0.915564 0.636416
O O4 0.512494 0.829774 0.003228
O O5 0.906633 0.841168 0.556051
O O6 0.997996 0.770012 0.508812
O O7 0.206338 0.117124 0.743904
O O8 0.297118 0.892072 0.701001
O O9 0.000000 0.500000 0.500000
O O10 0.011092 0.700937 0.653850
O O11 0.315362 0.829434 0.344938
O O12 0.469616 0.516536 0.312440
O O13 0.379029 0.576328 0.316514
O O14 0.500000 0.500000 0.000000
O O15 0.500000 0.500000 0.500000
O O16 0.321899 0.858145 0.885870
O O17 0.856026 0.466360 0.363280
O O18 0.000000 0.500000 0.000000
#
# Coordination Sequence:
#
# PCOD8008313 Si02
#       8
#     2   2   2   2   2   2   2   2
#     4  11  22  40  62  97 124 165 218 264 325 397
#     4  10  20  42  72  84 133 160 211 272 333 380
#     4  11  24  42  60  86 138 176 212 266 317 394
#     4  10  23  43  64  96 122 164 224 269 322 396
#     4  10  23  43  64  95 128 165 211 271 335 394
#     4  11  25  39  61  95 131 174 222 259 335 386
#     4  12  21  38  66  95 130 169 221 275 321 388
#     4  11  21  40  64  91 123 173 212 264 321 384
#
# _framework density 20.843122999999999
#
# number of rings (size 3 to 8) (size 9 to 14) (size 15 to 20)
#    0.000    1.250    5.000    2.625    0.000    4.000 
#    9.000    0.000    0.000    0.000    0.000    0.000 
#    0.000    0.000    0.000    0.000    0.000    0.000 
#
# Total GULP energy -198262.810776 kJ/mol
# GULP energy per Si atom -12391.425673 kJ/mol
# Density = 2.079568 g / cm^3
# Si number density = 20.843123 Si / 1000 Ang^3
#
#
#
# Elastic Constant Matrix: (Units=GPa)
#
#
# Indices 1 2 3 4 5 6 
#
# 1 133.0987 43.0956 41.3113 0.6632 8.3807 33.6748
# 2 43.0956 108.6107 41.9652 8.4899 2.2539 23.6192
# 3 41.3113 41.9652 138.9175 26.7633 4.5606 7.3343
# 4 0.6632 8.4899 26.7633 37.2836 0.4731 8.5613
# 5 8.3807 2.2539 4.5606 0.4731 19.4767 1.3048
# 6 33.6748 23.6192 7.3343 8.5613 1.3048 35.9392
#
#
#
# Elastic Compliance Matrix: (Units=1/GPa)
#
#
# Indices 1 2 3 4 5 6 
#
# 1 0.011914 -0.001426 -0.003406 0.005037 -0.003576 -0.010602
# 2 -0.001426 0.012284 -0.003144 0.000934 0.000329 -0.006330
# 3 -0.003406 -0.003144 0.010434 -0.007859 -0.000760 0.005027
# 4 0.005037 0.000934 -0.007859 0.034929 -0.000478 -0.012033
# 5 -0.003576 0.000329 -0.000760 -0.000478 0.052934 0.001482
# 6 -0.010602 -0.006330 0.005027 -0.012033 0.001482 0.043706
#
#
# Mechanical properties :
#
#
# Convention : Reuss Voigt Hill
#
# Bulk Modulus (GPa) = 53.52359 70.37457 61.94908
# Shear Modulus (GPa) = 26.54208 35.49023 31.01616
#
# Velocity S-wave (km/s) = 3.57237 4.13089 3.86174
# Velocity P-wave (km/s) = 6.53841 7.52261 7.04771
#
# Compressibility (1/GPa) = 0.01868335
#
# Stress axis : x y z
#
# Youngs Moduli (GPa) = 83.93285 81.40509 95.83625
#
# Poissons Ratio (x) = 0.11605 0.32639
# Poissons Ratio (y) = 0.11965 0.30126
# Poissons Ratio (z) = 0.28585 0.25590
#
# Static dielectric constant tensor:
#      x y z
#    x 3.836340 0.397820 0.183010 
#    y 0.397820 4.272420 0.152090 
#    z 0.183010 0.152090 3.768100 
# 
# 
# High freq. dielectric constant tensor:
#      x y z
#    x 1.811640 0.019490 0.012570 
#    y 0.019490 1.826910 0.014130 
#    z 0.012570 0.014130 1.807150 
# 
# From -- ./inp_files/336762.got.cif
#   From: 2010.06.25/outbox.cif.g09.slc.cpg/sg2_169_cif.got.tgz:336762.got - 2010.06.27 13:26:56.
