data_PCOD8008203
_publ_section_title
;
Structure prediction by ZEFSAII (Michael W. Deem and Ramdas Pophale) SiO2 
 PCOD8008203
Probable space group: P -1
;
_chemical_formula_sum "Si O2"
_cell_formula_units_Z 16
_cell_length_a 11.470122
_cell_length_b 18.585307
_cell_length_c 6.722661
_cell_angle_alpha 50.120544
_cell_angle_beta 96.904324
_cell_angle_gamma 129.245756
_cell_volume 747.040954
_symmetry_space_group_name_H-M "P -1"
_symmetry_group_IT_number 2
_symmetry_cell_setting 'triclinic'
loop_
_space_group_symop_operation_xyz
x,y,z
-x,-y,-z
loop_
_atom_site_type_symbol
_atom_site_label
_atom_site_fract_x
_atom_site_fract_y
_atom_site_fract_z
Si Si1 0.111899 0.974848 0.238575
Si Si2 0.762592 0.764756 0.321095
Si Si3 0.086021 0.787904 0.827180
Si Si4 0.396956 0.618801 0.564675
Si Si5 0.419329 0.094832 0.850198
Si Si6 0.924135 0.561252 0.890213
Si Si7 0.804668 0.596654 0.421448
Si Si8 0.574649 0.030117 0.250280
O O1 0.146048 0.926303 0.518318
O O2 0.910865 0.847936 0.371122
O O3 0.176698 0.120196 0.032699
O O4 0.223937 0.010535 0.005730
O O5 0.582429 0.680915 0.546264
O O6 0.732146 0.646719 0.423171
O O7 0.225993 0.825699 0.939632
O O8 0.062203 0.705421 0.778978
O O9 0.918293 0.699374 0.081209
O O10 0.434554 0.750411 0.317312
O O11 0.343045 0.549415 0.459395
O O12 0.256704 0.529727 0.869269
O O13 0.432762 0.080864 0.641357
O O14 0.456017 0.020969 0.101212
O O15 0.901070 0.586006 0.617821
O O16 0.000000 0.500000 0.000000
O O17 0.500000 0.000000 0.500000
#
# Coordination Sequence:
#
# PCOD8008203 Si02
#       8
#     2   2   2   2   2   2   2   2
#     4  10  20  42  67  98 129 169 209 273 335 378
#     4  10  21  43  71  92 134 166 217 273 320 389
#     4  11  24  41  66  99 129 169 223 260 333 390
#     4  10  25  43  65  97 127 177 219 261 323 381
#     4  10  23  40  61  97 135 166 214 268 324 385
#     4  11  27  43  67  94 133 175 217 270 318 381
#     4  11  24  44  67  94 130 176 217 270 316 386
#     4  11  23  36  65  95 133 172 209 269 325 391
#
# _framework density 21.417835
#
# number of rings (size 3 to 8) (size 9 to 14) (size 15 to 20)
#    0.000    1.500    2.500    1.125    5.250    2.000 
#    2.250    0.000    0.000    0.000    0.000    0.000 
#    0.000    0.000    0.000    0.000    0.000    0.000 
#
# Total GULP energy -198214.460059 kJ/mol
# GULP energy per Si atom -12388.403754 kJ/mol
# Density = 2.136909 g / cm^3
# Si number density = 21.417835 Si / 1000 Ang^3
#
#
#
# Elastic Constant Matrix: (Units=GPa)
#
#
# Indices 1 2 3 4 5 6 
#
# 1 112.9607 54.3454 37.2523 -2.1933 0.5258 -9.1930
# 2 54.3454 128.4231 28.5165 -6.0120 -6.7828 -10.1812
# 3 37.2523 28.5165 76.0316 2.7739 1.6220 -16.8715
# 4 -2.1933 -6.0120 2.7739 29.4690 1.2353 -1.3541
# 5 0.5258 -6.7828 1.6220 1.2353 29.1334 -4.7907
# 6 -9.1930 -10.1812 -16.8715 -1.3541 -4.7907 36.4587
#
#
#
# Elastic Compliance Matrix: (Units=1/GPa)
#
#
# Indices 1 2 3 4 5 6 
#
# 1 0.012404 -0.004298 -0.004525 0.000503 -0.001041 -0.000285
# 2 -0.004298 0.010302 -0.001551 0.001882 0.002730 0.001504
# 3 -0.004525 -0.001551 0.017449 -0.001996 -0.000112 0.006412
# 4 0.000503 0.001882 -0.001996 0.034618 -0.000778 0.000912
# 5 -0.001041 0.002730 -0.000112 -0.000778 0.035862 0.005132
# 6 -0.000285 0.001504 0.006412 0.000912 0.005132 0.031452
#
#
# Mechanical properties :
#
#
# Convention : Reuss Voigt Hill
#
# Bulk Modulus (GPa) = 51.52807 61.96041 56.74424
# Shear Modulus (GPa) = 29.53273 32.16563 30.84918
#
# Velocity S-wave (km/s) = 3.71736 3.87953 3.79931
# Velocity P-wave (km/s) = 6.52194 7.00427 6.76741
#
# Compressibility (1/GPa) = 0.01940690
#
# Stress axis : x y z
#
# Youngs Moduli (GPa) = 80.61778 97.07184 57.30991
#
# Poissons Ratio (x) = 0.41726 0.25931
# Poissons Ratio (y) = 0.34653 0.08888
# Poissons Ratio (z) = 0.36477 0.15055
#
# Static dielectric constant tensor:
#      x y z
#    x 4.501320 -0.349420 -0.418550 
#    y -0.349420 3.749390 -0.051480 
#    z -0.418550 -0.051480 4.070570 
# 
# 
# High freq. dielectric constant tensor:
#      x y z
#    x 1.855540 -0.003410 -0.008540 
#    y -0.003410 1.846990 -0.009150 
#    z -0.008540 -0.009150 1.822580 
# 
# From -- ./inp_files/81233.got.cif
#   From: 2010.06.25/outbox.cif.g09.slc.cpg/sg2_41_cif.got.tgz:81233.got - 2010.06.27 13:26:56.
