data_PCOD8008376
_publ_section_title
;
Structure prediction by ZEFSAII (Michael W. Deem and Ramdas Pophale) SiO2 
 PCOD8008376
Probable space group: P -1
;
_chemical_formula_sum "Si O2"
_cell_formula_units_Z 14
_cell_length_a 10.808734
_cell_length_b 12.608464
_cell_length_c 11.414339
_cell_angle_alpha 74.190002
_cell_angle_beta 36.547794
_cell_angle_gamma 99.322426
_cell_volume 665.869253
_symmetry_space_group_name_H-M "P -1"
_symmetry_group_IT_number 2
_symmetry_cell_setting 'triclinic'
loop_
_space_group_symop_operation_xyz
x,y,z
-x,-y,-z
loop_
_atom_site_type_symbol
_atom_site_label
_atom_site_fract_x
_atom_site_fract_y
_atom_site_fract_z
Si Si1 0.220708 0.482869 0.338535
Si Si2 0.814503 0.732123 0.731365
Si Si3 0.224773 0.067113 0.911783
Si Si4 0.777726 0.856717 0.491925
Si Si5 0.730521 0.086706 0.471277
Si Si6 0.813401 0.705494 0.116918
Si Si7 0.654409 0.613160 0.517745
O O1 0.164365 0.382833 0.302452
O O2 0.173707 0.401891 0.519611
O O3 0.000000 0.500000 0.500000
O O4 0.530478 0.642383 0.048420
O O5 0.817940 0.827647 0.601606
O O6 0.072135 0.838913 0.588739
O O7 0.466879 0.070995 0.689679
O O8 0.344509 0.232222 0.797297
O O9 0.000000 0.000000 0.000000
O O10 0.083126 0.971111 0.166359
O O11 0.589088 0.706721 0.603206
O O12 0.632461 0.925326 0.580346
O O13 0.886625 0.182546 0.206285
O O14 0.849884 0.696491 0.230524
O O15 0.640535 0.544888 0.240925
#
# Coordination Sequence:
#
# PCOD8008376 Si02
#       7
#     2   2   2   2   2   2   2
#     4  10  22  39  66  92 135 165 201 268 317 372
#     4  10  22  42  61  99 125 164 221 253 316 384
#     4  11  24  45  62  94 130 168 213 262 319 377
#     4  10  23  41  66  94 132 163 213 266 311 385
#     4  11  24  41  70  92 128 174 206 266 320 375
#     4  10  22  42  67  90 129 164 217 262 309 388
#     4  10  20  43  65  94 129 164 213 265 311 376
#
# _framework density 21.025148999999999
#
# number of rings (size 3 to 8) (size 9 to 14) (size 15 to 20)
#    0.000    1.714    2.857    0.429    2.000    5.143 
#    2.571    4.286    0.000    0.000    0.000    0.000 
#    0.000    0.000    0.000    0.000    0.000    0.000 
#
# Total GULP energy -173611.926726 kJ/mol
# GULP energy per Si atom -12400.851909 kJ/mol
# Density = 2.097730 g / cm^3
# Si number density = 21.025149 Si / 1000 Ang^3
#
#
#
# Elastic Constant Matrix: (Units=GPa)
#
#
# Indices 1 2 3 4 5 6 
#
# 1 107.8036 67.1298 66.0390 5.5418 11.4685 -3.3169
# 2 67.1298 148.9340 75.1725 3.9192 -8.5873 -15.4749
# 3 66.0390 75.1725 117.5606 18.3306 5.6707 -28.9470
# 4 5.5418 3.9192 18.3306 36.1268 -9.7649 -4.0585
# 5 11.4685 -8.5873 5.6707 -9.7649 42.0401 2.0554
# 6 -3.3169 -15.4749 -28.9470 -4.0585 2.0554 35.6697
#
#
#
# Elastic Compliance Matrix: (Units=1/GPa)
#
#
# Indices 1 2 3 4 5 6 
#
# 1 0.017549 -0.004620 -0.008442 0.000172 -0.004212 -0.006961
# 2 -0.004620 0.012007 -0.005924 0.003886 0.005410 0.000102
# 3 -0.008442 -0.005924 0.022052 -0.008955 -0.004636 0.013789
# 4 0.000172 0.003886 -0.008955 0.034231 0.010016 -0.002248
# 5 -0.004212 0.005410 -0.004636 0.010016 0.029107 -0.002345
# 6 -0.006961 0.000102 0.013789 -0.002248 -0.002345 0.038501
#
#
# Mechanical properties :
#
#
# Convention : Reuss Voigt Hill
#
# Bulk Modulus (GPa) = 73.33267 87.88675 80.60971
# Shear Modulus (GPa) = 25.51474 33.83111 29.67293
#
# Velocity S-wave (km/s) = 3.48736 4.01568 3.76081
# Velocity P-wave (km/s) = 7.15331 7.96194 7.56843
#
# Compressibility (1/GPa) = 0.01363649
#
# Stress axis : x y z
#
# Youngs Moduli (GPa) = 56.98227 83.28311 45.34796
#
# Poissons Ratio (x) = 0.38476 0.38281
# Poissons Ratio (y) = 0.26325 0.26865
# Poissons Ratio (z) = 0.48103 0.49339
#
# Static dielectric constant tensor:
#      x y z
#    x 3.831040 0.011690 0.359940 
#    y 0.011690 4.227930 -0.114270 
#    z 0.359940 -0.114270 4.007620 
# 
# 
# High freq. dielectric constant tensor:
#      x y z
#    x 1.820670 0.004510 0.032810 
#    y 0.004510 1.846000 -0.007140 
#    z 0.032810 -0.007140 1.810310 
# 
# From -- ./inp_files/67728.got.cif
#   From: 2010.06.25/outbox.cif.g09.slc.cpg/sg2_34_cif.got.tgz:67728.got - 2010.06.27 13:26:56.
