data_PCOD8008155
_publ_section_title
;
Structure prediction by ZEFSAII (Michael W. Deem and Ramdas Pophale) SiO2 
 PCOD8008155
Probable space group: P -1
;
_chemical_formula_sum "Si O2"
_cell_formula_units_Z 14
_cell_length_a 8.410915
_cell_length_b 11.920312
_cell_length_c 8.267422
_cell_angle_alpha 114.357864
_cell_angle_beta 119.019863
_cell_angle_gamma 49.290054
_cell_volume 543.640768
_symmetry_space_group_name_H-M "P -1"
_symmetry_group_IT_number 2
_symmetry_cell_setting 'triclinic'
loop_
_space_group_symop_operation_xyz
x,y,z
-x,-y,-z
loop_
_atom_site_type_symbol
_atom_site_label
_atom_site_fract_x
_atom_site_fract_y
_atom_site_fract_z
Si Si1 0.693837 0.236837 0.237557
Si Si2 0.614929 0.773053 0.463728
Si Si3 0.616910 0.360593 0.595052
Si Si4 0.220639 0.482354 0.045577
Si Si5 0.613061 0.943199 0.278858
Si Si6 0.066519 0.667959 0.793264
Si Si7 0.180844 0.072292 0.942906
O O1 0.729186 0.222343 0.440930
O O2 0.434971 0.320576 0.108106
O O3 0.778239 0.334371 0.268565
O O4 0.837333 0.069051 0.140707
O O5 0.542295 0.658408 0.376948
O O6 0.647033 0.801443 0.308420
O O7 0.846284 0.697541 0.625261
O O8 0.417176 0.934503 0.533998
O O9 0.500000 0.500000 0.500000
O O10 0.778627 0.380432 0.794954
O O11 0.000000 0.500000 0.000000
O O12 0.202570 0.507524 0.856672
O O13 0.816141 0.885870 0.219970
O O14 0.398807 0.031340 0.115910
O O15 0.021064 0.790865 0.978736
#
# Coordination Sequence:
#
# PCOD8008155 Si02
#       7
#     2   2   2   2   2   2   2
#     4  11  23  45  66 100 142 180 227 285 342 408
#     4  10  20  42  67 101 141 177 228 281 345 409
#     4  10  22  43  69  96 135 182 227 286 339 412
#     4  11  26  46  70  96 134 181 235 286 352 408
#     4   9  20  36  70 101 136 184 220 284 344 400
#     4  11  24  42  66 104 137 183 228 278 338 416
#     4  10  21  40  69 102 139 179 233 279 339 403
#
# _framework density 25.752296000000001
#
# number of rings (size 3 to 8) (size 9 to 14) (size 15 to 20)
#    0.000    1.714    1.429    2.571    6.000    1.143 
#    2.571    5.000    0.000    0.000    0.000    0.000 
#    0.000    0.000    0.000    0.000    0.000    0.000 
#
# Total GULP energy -173519.878639 kJ/mol
# GULP energy per Si atom -12394.277046 kJ/mol
# Density = 2.569368 g / cm^3
# Si number density = 25.752296 Si / 1000 Ang^3
#
#
#
# Elastic Constant Matrix: (Units=GPa)
#
#
# Indices 1 2 3 4 5 6 
#
# 1 153.5416 26.3112 49.4749 -15.5018 5.2177 42.8055
# 2 26.3112 71.4124 15.7561 -14.7351 2.8185 24.9864
# 3 49.4749 15.7561 85.6021 -24.1422 -2.9364 10.3013
# 4 -15.5018 -14.7351 -24.1422 28.8144 12.1382 -3.9491
# 5 5.2177 2.8185 -2.9364 12.1382 45.4745 -6.8873
# 6 42.8055 24.9864 10.3013 -3.9491 -6.8873 47.1027
#
#
#
# Elastic Compliance Matrix: (Units=1/GPa)
#
#
# Indices 1 2 3 4 5 6 
#
# 1 0.011029 0.001217 -0.004718 0.002890 -0.003927 -0.009968
# 2 0.001217 0.020512 0.000252 0.012469 -0.006533 -0.011951
# 3 -0.004718 0.000252 0.017995 0.013562 -0.001766 0.001097
# 4 0.002890 0.012469 0.013562 0.060143 -0.017761 -0.009762
# 5 -0.003927 -0.006533 -0.001766 -0.017761 0.029013 0.010174
# 6 -0.009968 -0.011951 0.001097 -0.009762 0.010174 0.037058
#
#
# Mechanical properties :
#
#
# Convention : Reuss Voigt Hill
#
# Bulk Modulus (GPa) = 23.23606 54.84893 39.04250
# Shear Modulus (GPa) = 25.43307 38.87922 32.15614
#
# Velocity S-wave (km/s) = 3.14603 3.88975 3.53749
# Velocity P-wave (km/s) = 4.71584 6.44348 5.64613
#
# Compressibility (1/GPa) = 0.04303656
#
# Stress axis : x y z
#
# Youngs Moduli (GPa) = 90.66984 48.75275 55.57186
#
# Poissons Ratio (x) = -0.05932 0.26220
# Poissons Ratio (y) = -0.11031 -0.01401
# Poissons Ratio (z) = 0.42780 -0.01229
#
# Static dielectric constant tensor:
#      x y z
#    x 4.500850 0.063150 -0.526200 
#    y 0.063150 4.703120 0.345770 
#    z -0.526200 0.345770 5.539160 
# 
# 
# High freq. dielectric constant tensor:
#      x y z
#    x 2.021340 0.015810 -0.019140 
#    y 0.015810 2.029260 0.002880 
#    z -0.019140 0.002880 2.036290 
# 
# From -- ./inp_files/189514.got.cif
#   From: 2010.06.25/outbox.cif.g09.slc.cpg/sg2_95_cif.got.tgz:189514.got - 2010.06.27 13:26:56.
