data_PCOD8008989
_publ_section_title
;
Structure prediction by ZEFSAII (Michael W. Deem and Ramdas Pophale) SiO2 
 PCOD8008989
Probable space group: P -1
;
_chemical_formula_sum "Si O2"
_cell_formula_units_Z 16
_cell_length_a 11.745460
_cell_length_b 10.420686
_cell_length_c 11.651412
_cell_angle_alpha 100.764518
_cell_angle_beta 42.985179
_cell_angle_gamma 80.128875
_cell_volume 848.183651
_symmetry_space_group_name_H-M "P -1"
_symmetry_group_IT_number 2
_symmetry_cell_setting 'triclinic'
loop_
_space_group_symop_operation_xyz
x,y,z
-x,-y,-z
loop_
_atom_site_type_symbol
_atom_site_label
_atom_site_fract_x
_atom_site_fract_y
_atom_site_fract_z
Si Si1 0.517438 0.234123 0.135147
Si Si2 0.079740 0.701528 0.786119
Si Si3 0.080996 0.355987 0.494421
Si Si4 0.488008 0.649639 0.082126
Si Si5 0.889704 0.007129 0.888397
Si Si6 0.125448 0.487005 0.108597
Si Si7 0.869182 0.233398 0.483481
Si Si8 0.769210 0.317992 0.094449
O O1 0.305388 0.269723 0.319724
O O2 0.568703 0.347534 0.190906
O O3 0.555200 0.242357 0.974612
O O4 0.666591 0.067645 0.033292
O O5 0.964549 0.613522 0.888885
O O6 0.163730 0.661170 0.587587
O O7 0.243120 0.659469 0.754581
O O8 0.943024 0.878686 0.922705
O O9 0.000000 0.500000 0.500000
O O10 0.011509 0.391959 0.681236
O O11 0.003973 0.250492 0.480452
O O12 0.330413 0.726142 0.307466
O O13 0.500000 0.500000 0.000000
O O14 0.683453 0.622368 0.987917
O O15 0.919599 0.146172 0.930441
O O16 0.023795 0.936320 0.665983
O O17 0.159928 0.572326 0.992665
#
# Coordination Sequence:
#
# PCOD8008989 Si02
#       8
#     2   2   2   2   2   2   2   2
#     4  10  21  35  62  87 115 162 191 237 298 352
#     4  10  21  41  62  84 118 158 199 242 290 345
#     4  12  19  37  59  88 125 150 193 243 303 351
#     4  12  19  37  59  88 125 150 193 243 303 351
#     4   8  21  40  60  86 116 160 197 232 294 356
#     4  12  23  36  62  90 117 156 192 252 294 346
#     4  10  21  35  62  87 115 162 191 237 298 352
#     4  10  21  41  62  84 118 158 199 242 290 345
#
# _framework density 18.86384
#
# number of rings (size 3 to 8) (size 9 to 14) (size 15 to 20)
#    1.500    0.000    5.000    0.750    0.000    1.000 
#    0.000    3.750    0.000    1.500    0.000    0.000 
#    0.000    0.000    0.000    0.000    0.000    0.000 
#
# Total GULP energy -198234.552918 kJ/mol
# GULP energy per Si atom -12389.659557 kJ/mol
# Density = 1.882091 g / cm^3
# Si number density = 18.863840 Si / 1000 Ang^3
#
#
#
# Elastic Constant Matrix: (Units=GPa)
#
#
# Indices 1 2 3 4 5 6 
#
# 1 85.3358 18.2430 19.7781 -3.2599 4.3229 -10.1330
# 2 18.2430 54.8282 -2.7318 -5.2920 2.6864 -6.4475
# 3 19.7781 -2.7318 78.6711 0.7146 -17.1493 -14.2265
# 4 -3.2599 -5.2920 0.7146 21.6820 -1.8329 2.2223
# 5 4.3229 2.6864 -17.1493 -1.8329 12.6785 -5.3671
# 6 -10.1330 -6.4475 -14.2265 2.2223 -5.3671 29.5533
#
#
#
# Elastic Compliance Matrix: (Units=1/GPa)
#
#
# Indices 1 2 3 4 5 6 
#
# 1 0.015105 -0.004923 -0.007893 0.000256 -0.015842 -0.002591
# 2 -0.004923 0.020864 0.004279 0.004138 0.006063 0.005714
# 3 -0.007893 0.004279 0.030226 0.001001 0.052205 0.022184
# 4 0.000256 0.004138 0.001001 0.047812 0.006937 -0.000863
# 5 -0.015842 0.006063 0.052205 0.006937 0.176884 0.052623
# 6 -0.002591 0.005714 0.022184 -0.000863 0.052623 0.054496
#
#
# Mechanical properties :
#
#
# Convention : Reuss Voigt Hill
#
# Bulk Modulus (GPa) = 20.35674 32.15707 26.25691
# Shear Modulus (GPa) = 13.19842 25.01915 19.10878
#
# Velocity S-wave (km/s) = 2.64799 3.64579 3.18620
# Velocity P-wave (km/s) = 4.49043 5.89969 5.24263
#
# Compressibility (1/GPa) = 0.04912377
#
# Stress axis : x y z
#
# Youngs Moduli (GPa) = 66.20450 47.92893 33.08358
#
# Poissons Ratio (x) = 0.23594 0.26111
# Poissons Ratio (y) = 0.32591 -0.14158
# Poissons Ratio (z) = 0.52252 -0.20511
#
# Static dielectric constant tensor:
#      x y z
#    x 3.530490 -0.073980 0.040510 
#    y -0.073980 3.304880 0.005980 
#    z 0.040510 0.005980 3.306450 
# 
# 
# High freq. dielectric constant tensor:
#      x y z
#    x 1.737020 -0.005000 0.004490 
#    y -0.005000 1.718940 0.001480 
#    z 0.004490 0.001480 1.715560 
# 
# From -- ./inp_files/426148.got.cif
#   From: 2010.06.25/outbox.cif.g09.slc.cpg/sg2_214_cif.got.tgz:426148.got - 2010.06.27 13:26:56.
