data_PCOD8008885
_publ_section_title
;
Structure prediction by ZEFSAII (Michael W. Deem and Ramdas Pophale) SiO2 
 PCOD8008885
Probable space group: P -1
;
_chemical_formula_sum "Si O2"
_cell_formula_units_Z 16
_cell_length_a 12.942932
_cell_length_b 12.568333
_cell_length_c 12.058652
_cell_angle_alpha 123.961627
_cell_angle_beta 127.703437
_cell_angle_gamma 31.604020
_cell_volume 809.931375
_symmetry_space_group_name_H-M "P -1"
_symmetry_group_IT_number 2
_symmetry_cell_setting 'triclinic'
loop_
_space_group_symop_operation_xyz
x,y,z
-x,-y,-z
loop_
_atom_site_type_symbol
_atom_site_label
_atom_site_fract_x
_atom_site_fract_y
_atom_site_fract_z
Si Si1 0.334103 0.573618 0.849306
Si Si2 0.820822 0.635494 0.615467
Si Si3 0.703226 0.997637 0.816736
Si Si4 0.260107 0.344006 0.674260
Si Si5 0.226623 0.808782 0.594512
Si Si6 0.440954 0.371631 0.460518
Si Si7 0.884212 0.026702 0.139657
Si Si8 0.678616 0.222444 0.736090
O O1 0.232923 0.516006 0.783715
O O2 0.147853 0.814814 0.854208
O O3 0.466627 0.462424 0.758885
O O4 0.500000 0.500000 0.000000
O O5 0.702888 0.704113 0.461368
O O6 0.717732 0.627383 0.638595
O O7 0.062922 0.413244 0.626962
O O8 0.830173 0.775526 0.739471
O O9 0.462442 0.139240 0.752335
O O10 0.721942 0.088988 0.785317
O O11 0.779954 0.990824 0.982254
O O12 0.293187 0.608344 0.520773
O O13 0.424964 0.728422 0.622251
O O14 0.210104 0.887655 0.750107
O O15 0.000000 0.000000 0.500000
O O16 0.626023 0.201402 0.571083
O O17 0.132800 0.821226 0.181781
#
# Coordination Sequence:
#
# PCOD8008885 Si02
#       8
#     2   2   2   2   2   2   2   2
#     4  11  20  36  57  91 130 152 193 245 300 361
#     4  11  22  39  56  88 128 162 195 233 290 370
#     4  11  23  35  58  94 127 157 189 233 299 372
#     4  10  21  35  57  85 124 165 190 230 293 360
#     4  11  24  43  64  89 112 153 211 260 299 340
#     4  11  23  41  64  88 116 156 204 253 297 348
#     4  12  22  36  61  90 122 157 195 253 304 349
#     4  11  21  35  60  95 121 155 191 242 309 356
#
# _framework density 19.754759
#
# number of rings (size 3 to 8) (size 9 to 14) (size 15 to 20)
#    0.000    1.000    7.500    1.500    1.750    2.000 
#    0.000    0.625    0.000    1.500    0.000    0.000 
#    0.000    0.000    0.000    0.000    0.000    0.000 
#
# Total GULP energy -198244.621964 kJ/mol
# GULP energy per Si atom -12390.288873 kJ/mol
# Density = 1.970980 g / cm^3
# Si number density = 19.754759 Si / 1000 Ang^3
#
#
#
# Elastic Constant Matrix: (Units=GPa)
#
#
# Indices 1 2 3 4 5 6 
#
# 1 102.4214 30.0719 33.4521 -6.7740 10.6248 -19.6779
# 2 30.0719 65.3002 21.9314 -4.4805 6.0404 -11.1207
# 3 33.4521 21.9314 104.3512 -0.8310 3.2600 1.0094
# 4 -6.7740 -4.4805 -0.8310 29.4363 -0.6832 9.8392
# 5 10.6248 6.0404 3.2600 -0.6832 19.2123 -11.7107
# 6 -19.6779 -11.1207 1.0094 9.8392 -11.7107 24.4359
#
#
#
# Elastic Compliance Matrix: (Units=1/GPa)
#
#
# Indices 1 2 3 4 5 6 
#
# 1 0.013925 -0.003453 -0.003853 -0.000859 0.000273 0.010279
# 2 -0.003453 0.018897 -0.002927 -0.000004 0.000122 0.006001
# 3 -0.003853 -0.002927 0.011605 0.001223 -0.003066 -0.006876
# 4 -0.000859 -0.000004 0.001223 0.041334 -0.012516 -0.023385
# 5 0.000273 0.000122 -0.003066 -0.012516 0.078053 0.042848
# 6 0.010279 0.006001 -0.006876 -0.023385 0.042848 0.082167
#
#
# Mechanical properties :
#
#
# Convention : Reuss Voigt Hill
#
# Bulk Modulus (GPa) = 41.73098 49.22039 45.47569
# Shear Modulus (GPa) = 18.21926 27.05807 22.63867
#
# Velocity S-wave (km/s) = 3.04019 3.70496 3.38891
# Velocity P-wave (km/s) = 5.78740 6.57815 6.19541
#
# Compressibility (1/GPa) = 0.02396301
#
# Stress axis : x y z
#
# Youngs Moduli (GPa) = 71.81079 52.91799 86.16668
#
# Poissons Ratio (x) = 0.18270 0.33203
# Poissons Ratio (y) = 0.24793 0.25219
# Poissons Ratio (z) = 0.27671 0.15488
#
# Static dielectric constant tensor:
#      x y z
#    x 3.421040 0.342080 0.132100 
#    y 0.342080 2.767210 -0.538200 
#    z 0.132100 -0.538200 3.464820 
# 
# 
# High freq. dielectric constant tensor:
#      x y z
#    x 1.752320 -0.029890 0.007020 
#    y -0.029890 1.770890 -0.005110 
#    z 0.007020 -0.005110 1.765520 
# 
# From -- ./inp_files/428782.got.cif
#   From: 2010.06.25/outbox.cif.g09.slc.cpg/sg2_215_cif.got.tgz:428782.got - 2010.06.27 13:26:56.
