data_PCOD8008455
_publ_section_title
;
Structure prediction by ZEFSAII (Michael W. Deem and Ramdas Pophale) SiO2 
 PCOD8008455
Probable space group: P -1
;
_chemical_formula_sum "Si O2"
_cell_formula_units_Z 14
_cell_length_a 19.832395
_cell_length_b 12.977237
_cell_length_c 9.861784
_cell_angle_alpha 133.461943
_cell_angle_beta 157.861617
_cell_angle_gamma 40.786401
_cell_volume 623.876940
_symmetry_space_group_name_H-M "P -1"
_symmetry_group_IT_number 2
_symmetry_cell_setting 'triclinic'
loop_
_space_group_symop_operation_xyz
x,y,z
-x,-y,-z
loop_
_atom_site_type_symbol
_atom_site_label
_atom_site_fract_x
_atom_site_fract_y
_atom_site_fract_z
Si Si1 0.802211 0.586597 0.126186
Si Si2 0.299950 0.653658 0.736415
Si Si3 0.940474 0.769943 0.355417
Si Si4 0.146766 0.692396 0.189598
Si Si5 0.610029 0.051206 0.863175
Si Si6 0.303229 0.163850 0.634454
Si Si7 0.838865 0.012966 0.608696
O O1 0.837377 0.664267 0.124627
O O2 0.660252 0.712293 0.086266
O O3 0.000000 0.500000 0.500000
O O4 0.733688 0.456605 0.823641
O O5 0.196036 0.640376 0.390605
O O6 0.153683 0.658332 0.589139
O O7 0.500000 0.500000 0.000000
O O8 0.343280 0.806040 0.966832
O O9 0.964308 0.871285 0.613415
O O10 0.811920 0.893088 0.112882
O O11 0.240885 0.816430 0.456423
O O12 0.908158 0.763143 0.775953
O O13 0.489836 0.094402 0.819512
O O14 0.500000 0.000000 0.500000
O O15 0.326192 0.018643 0.644647
O O16 0.000000 0.000000 0.000000
#
# Coordination Sequence:
#
# PCOD8008455 Si02
#       7
#     2   2   2   2   2   2   2
#     4   9  21  40  71  99 134 173 214 271 339 387
#     4  12  29  45  65  98 135 179 228 272 328 396
#     4  11  24  46  69  93 138 176 222 271 334 393
#     4  10  20  43  68  98 135 179 211 274 336 384
#     4  12  27  45  68 101 131 179 225 277 325 398
#     4   9  21  42  70 100 132 166 228 266 335 398
#     4   9  19  38  71 100 125 175 218 272 329 390
#
# _framework density 22.440322999999999
#
# number of rings (size 3 to 8) (size 9 to 14) (size 15 to 20)
#    0.000    1.714    1.429    2.143   10.000    2.857 
#    0.000    2.143    0.000    0.000    0.000    0.000 
#    0.000    0.000    0.000    0.000    0.000    0.000 
#
# Total GULP energy -173471.886413 kJ/mol
# GULP energy per Si atom -12390.849029 kJ/mol
# Density = 2.238925 g / cm^3
# Si number density = 22.440323 Si / 1000 Ang^3
#
#
#
# Elastic Constant Matrix: (Units=GPa)
#
#
# Indices 1 2 3 4 5 6 
#
# 1 111.3506 27.4303 14.7709 -5.1927 -0.2570 -20.9694
# 2 27.4303 103.0754 13.2985 -4.0974 2.3223 -7.6236
# 3 14.7709 13.2985 62.3811 -6.9727 -6.7884 -17.3625
# 4 -5.1927 -4.0974 -6.9727 36.8733 -9.7661 -13.5670
# 5 -0.2570 2.3223 -6.7884 -9.7661 28.6605 -5.7521
# 6 -20.9694 -7.6236 -17.3625 -13.5670 -5.7521 34.4792
#
#
#
# Elastic Compliance Matrix: (Units=1/GPa)
#
#
# Indices 1 2 3 4 5 6 
#
# 1 0.011920 -0.002429 0.002671 0.008045 0.006135 0.012246
# 2 -0.002429 0.010602 -0.001952 -0.000052 -0.001436 -0.000376
# 3 0.002671 -0.001952 0.027163 0.019631 0.018458 0.025675
# 4 0.008045 -0.000052 0.019631 0.056041 0.032293 0.042205
# 5 0.006135 -0.001436 0.018458 0.032293 0.057463 0.035002
# 6 0.012246 -0.000376 0.025675 0.042205 0.035002 0.071743
#
#
# Mechanical properties :
#
#
# Convention : Reuss Voigt Hill
#
# Bulk Modulus (GPa) = 21.61458 43.08960 32.35209
# Shear Modulus (GPa) = 19.70241 34.75643 27.22942
#
# Velocity S-wave (km/s) = 2.96631 3.93980 3.48719
# Velocity P-wave (km/s) = 4.62438 6.31978 5.53735
#
# Compressibility (1/GPa) = 0.04626508
#
# Stress axis : x y z
#
# Youngs Moduli (GPa) = 83.88989 94.31774 36.81438
#
# Poissons Ratio (x) = 0.22914 -0.09832
# Poissons Ratio (y) = 0.20381 0.07185
# Poissons Ratio (z) = -0.22405 0.18409
#
# Static dielectric constant tensor:
#      x y z
#    x 4.068270 -0.026370 -0.358940 
#    y -0.026370 4.555510 0.086220 
#    z -0.358940 0.086220 3.863930 
# 
# 
# High freq. dielectric constant tensor:
#      x y z
#    x 1.884800 0.002600 -0.020270 
#    y 0.002600 1.897750 0.007680 
#    z -0.020270 0.007680 1.884020 
# 
# From -- ./inp_files/333848.got.cif
#   From: 2010.06.25/outbox.cif.g09.slc.cpg/sg2_167_cif.got.tgz:333848.got - 2010.06.27 13:26:56.
