data_PCOD8008577
_publ_section_title
;
Structure prediction by ZEFSAII (Michael W. Deem and Ramdas Pophale) SiO2 
 PCOD8008577
Probable space group: P -1
;
_chemical_formula_sum "Si O2"
_cell_formula_units_Z 16
_cell_length_a 11.923308
_cell_length_b 10.854841
_cell_length_c 16.505142
_cell_angle_alpha 155.815922
_cell_angle_beta 124.716048
_cell_angle_gamma 53.984476
_cell_volume 704.313668
_symmetry_space_group_name_H-M "P -1"
_symmetry_group_IT_number 2
_symmetry_cell_setting 'triclinic'
loop_
_space_group_symop_operation_xyz
x,y,z
-x,-y,-z
loop_
_atom_site_type_symbol
_atom_site_label
_atom_site_fract_x
_atom_site_fract_y
_atom_site_fract_z
Si Si1 0.575945 0.832941 0.098292
Si Si2 0.311555 0.121306 0.236616
Si Si3 0.575191 0.255546 0.650114
Si Si4 0.929751 0.148041 0.978476
Si Si5 0.863498 0.802245 0.277820
Si Si6 0.838343 0.257068 0.678805
Si Si7 0.608513 0.371937 0.327608
Si Si8 0.208487 0.071655 0.981436
O O1 0.737071 0.766352 0.147586
O O2 0.471151 0.927281 0.187694
O O3 0.541578 0.111981 0.186973
O O4 0.542274 0.528073 0.864031
O O5 0.308299 0.466563 0.474454
O O6 0.256382 0.105362 0.113413
O O7 0.214460 0.967456 0.165017
O O8 0.742550 0.125326 0.626818
O O9 0.513298 0.369039 0.604705
O O10 0.500000 0.000000 0.500000
O O11 0.898670 0.520770 0.187923
O O12 0.046087 0.039603 0.892192
O O13 0.000000 0.000000 0.000000
O O14 0.994865 0.811298 0.276943
O O15 0.822449 0.117372 0.499535
O O16 0.774370 0.620978 0.873540
O O17 0.707738 0.226445 0.207734
#
# Coordination Sequence:
#
# PCOD8008577 Si02
#       8
#     2   2   2   2   2   2   2   2
#     4  12  24  43  68  98 136 175 228 274 336 400
#     4  11  23  39  68  99 135 171 225 276 332 400
#     4  12  27  42  66  99 137 176 221 281 338 392
#     4   9  22  41  66  97 135 181 218 275 340 395
#     4  10  23  40  71  97 128 177 225 278 329 401
#     4  10  21  44  66  94 131 171 228 269 334 398
#     4  12  24  44  69  97 131 181 225 275 335 398
#     4  10  20  44  68  95 132 179 227 272 329 404
#
# _framework density 22.717148999999999
#
# number of rings (size 3 to 8) (size 9 to 14) (size 15 to 20)
#    0.000    1.250    2.500    3.000    3.500    2.500 
#    0.000    0.000    0.000    0.000    0.000    0.000 
#    0.000    0.000    0.000    0.000    0.000    0.000 
#
# Total GULP energy -198334.957502 kJ/mol
# GULP energy per Si atom -12395.934844 kJ/mol
# Density = 2.266544 g / cm^3
# Si number density = 22.717149 Si / 1000 Ang^3
#
#
#
# Elastic Constant Matrix: (Units=GPa)
#
#
# Indices 1 2 3 4 5 6 
#
# 1 175.9784 33.3122 73.0689 7.2786 22.7627 -19.5200
# 2 33.3122 79.2274 26.4643 5.3025 9.8453 -8.7963
# 3 73.0689 26.4643 145.6438 -5.6683 3.9904 -3.3796
# 4 7.2786 5.3025 -5.6683 29.5467 5.0967 2.7551
# 5 22.7627 9.8453 3.9904 5.0967 43.9672 0.9629
# 6 -19.5200 -8.7963 -3.3796 2.7551 0.9629 25.2349
#
#
#
# Elastic Compliance Matrix: (Units=1/GPa)
#
#
# Indices 1 2 3 4 5 6 
#
# 1 0.008917 -0.000987 -0.004146 -0.002753 -0.003841 0.006445
# 2 -0.000987 0.014726 -0.002121 -0.002817 -0.002366 0.004483
# 3 -0.004146 -0.002121 0.009345 0.003231 0.001467 -0.003104
# 4 -0.002753 -0.002817 0.003231 0.036667 -0.002343 -0.006593
# 5 -0.003841 -0.002366 0.001467 -0.002343 0.025496 -0.004316
# 6 0.006445 0.004483 -0.003104 -0.006593 -0.004316 0.046645
#
#
# Mechanical properties :
#
#
# Convention : Reuss Voigt Hill
#
# Bulk Modulus (GPa) = 54.11802 74.06004 64.08903
# Shear Modulus (GPa) = 30.77604 37.61672 34.19638
#
# Velocity S-wave (km/s) = 3.68468 4.07366 3.88404
# Velocity P-wave (km/s) = 6.47895 7.40256 6.95610
#
# Compressibility (1/GPa) = 0.01847813
#
# Stress axis : x y z
#
# Youngs Moduli (GPa) = 112.14988 67.90854 107.00515
#
# Poissons Ratio (x) = 0.06702 0.44369
# Poissons Ratio (y) = 0.11068 0.22700
# Poissons Ratio (z) = 0.46503 0.14406
#
# Static dielectric constant tensor:
#      x y z
#    x 4.765950 -0.329340 0.226790 
#    y -0.329340 3.818320 0.062950 
#    z 0.226790 0.062950 4.037120 
# 
# 
# High freq. dielectric constant tensor:
#      x y z
#    x 1.920720 -0.019280 0.006890 
#    y -0.019280 1.865500 0.003760 
#    z 0.006890 0.003760 1.894610 
# 
# From -- ./inp_files/282967.got.cif
#   From: 2010.06.25/outbox.cif.g09.slc.cpg/sg2_142_cif.got.tgz:282967.got - 2010.06.27 13:26:56.
