data_PCOD8008711
_publ_section_title
;
Structure prediction by ZEFSAII (Michael W. Deem and Ramdas Pophale) SiO2 
 PCOD8008711
Probable space group: P -1
;
_chemical_formula_sum "Si O2"
_cell_formula_units_Z 16
_cell_length_a 16.212578
_cell_length_b 20.160617
_cell_length_c 8.835623
_cell_angle_alpha 147.805955
_cell_angle_beta 137.226723
_cell_angle_gamma 31.799836
_cell_volume 809.680438
_symmetry_space_group_name_H-M "P -1"
_symmetry_group_IT_number 2
_symmetry_cell_setting 'triclinic'
loop_
_space_group_symop_operation_xyz
x,y,z
-x,-y,-z
loop_
_atom_site_type_symbol
_atom_site_label
_atom_site_fract_x
_atom_site_fract_y
_atom_site_fract_z
Si Si1 0.010200 0.579500 0.020769
Si Si2 0.500205 0.800653 0.670793
Si Si3 0.239286 0.440714 0.672978
Si Si4 0.345825 0.015150 0.329947
Si Si5 0.585279 0.279440 0.304215
Si Si6 0.311447 0.092659 0.770784
Si Si7 0.097848 0.318816 0.399178
Si Si8 0.712358 0.449820 0.747064
O O1 0.132255 0.614323 0.261581
O O2 0.848410 0.745023 0.070253
O O3 0.076600 0.448619 0.730242
O O4 0.000000 0.500000 0.000000
O O5 0.634974 0.638325 0.446837
O O6 0.422009 0.758614 0.604443
O O7 0.366007 0.938449 0.643773
O O8 0.561468 0.879104 0.000796
O O9 0.195199 0.321732 0.400066
O O10 0.075350 0.620852 0.762091
O O11 0.315183 0.452187 0.947159
O O12 0.500000 0.000000 0.500000
O O13 0.280737 0.064673 0.506697
O O14 0.205845 0.143276 0.275963
O O15 0.381522 0.851237 0.021330
O O16 0.718110 0.300145 0.510901
O O17 0.420769 0.443251 0.349971
#
# Coordination Sequence:
#
# PCOD8008711 Si02
#       8
#     2   2   2   2   2   2   2   2
#     4  11  19  38  64  92 117 155 200 252 295 353
#     4  11  22  36  60  92 122 158 197 253 301 354
#     4  10  21  38  58  90 123 153 196 256 298 357
#     4  12  21  37  60  88 121 160 201 249 299 352
#     4  11  24  41  62  85 120 167 203 242 302 369
#     4  11  22  34  59  95 123 149 202 255 300 348
#     4  10  21  33  60  91 121 152 198 250 310 346
#     4  10  24  43  61  86 122 161 201 246 304 365
#
# _framework density 19.760881999999999
#
# number of rings (size 3 to 8) (size 9 to 14) (size 15 to 20)
#    0.000    1.250    3.750    3.750    1.750    0.500 
#    0.000    3.125    0.000    0.000    0.000    0.000 
#    0.000    0.000    0.000    0.000    0.000    0.000 
#
# Total GULP energy -198341.830265 kJ/mol
# GULP energy per Si atom -12396.364392 kJ/mol
# Density = 1.971591 g / cm^3
# Si number density = 19.760882 Si / 1000 Ang^3
#
#
#
# Elastic Constant Matrix: (Units=GPa)
#
#
# Indices 1 2 3 4 5 6 
#
# 1 113.4996 30.5096 36.0670 2.8072 19.2399 11.1587
# 2 30.5096 104.1719 1.3417 3.9281 15.7325 8.0657
# 3 36.0670 1.3417 64.4482 4.7596 10.3357 3.3605
# 4 2.8072 3.9281 4.7596 26.6011 2.3466 -4.0391
# 5 19.2399 15.7325 10.3357 2.3466 28.9064 -0.6177
# 6 11.1587 8.0657 3.3605 -4.0391 -0.6177 27.9418
#
#
#
# Elastic Compliance Matrix: (Units=1/GPa)
#
#
# Indices 1 2 3 4 5 6 
#
# 1 0.012616 -0.002592 -0.006028 0.000005 -0.004910 -0.003673
# 2 -0.002592 0.011414 0.002339 -0.001811 -0.005239 -0.002919
# 3 -0.006028 0.002339 0.019789 -0.003067 -0.004113 -0.001182
# 4 0.000005 -0.001811 -0.003067 0.039494 -0.000987 0.006577
# 5 -0.004910 -0.005239 -0.004113 -0.000987 0.042366 0.004762
# 6 -0.003673 -0.002919 -0.001182 0.006577 0.004762 0.039296
#
#
# Mechanical properties :
#
#
# Convention : Reuss Voigt Hill
#
# Bulk Modulus (GPa) = 31.99221 46.43958 39.21589
# Shear Modulus (GPa) = 26.60214 30.96996 28.78605
#
# Velocity S-wave (km/s) = 3.67304 3.96313 3.82084
# Velocity P-wave (km/s) = 5.84920 6.67035 6.27323
#
# Compressibility (1/GPa) = 0.03125761
#
# Stress axis : x y z
#
# Youngs Moduli (GPa) = 79.26426 87.61269 50.53406
#
# Poissons Ratio (x) = 0.22705 0.30461
# Poissons Ratio (y) = 0.20542 -0.11819
# Poissons Ratio (z) = 0.47778 -0.20491
#
# Static dielectric constant tensor:
#      x y z
#    x 2.561830 -0.591850 0.255310 
#    y -0.591850 3.417280 0.142830 
#    z 0.255310 0.142830 3.411340 
# 
# 
# High freq. dielectric constant tensor:
#      x y z
#    x 1.765850 0.006840 -0.021080 
#    y 0.006840 1.779790 -0.004010 
#    z -0.021080 -0.004010 1.749420 
# 
# From -- ./inp_files/263508.got.cif
#   From: 2010.06.25/outbox.cif.g09.slc.cpg/sg2_132_cif.got.tgz:263508.got - 2010.06.27 13:26:56.
