data_PCOD8008384
_publ_section_title
;
Structure prediction by ZEFSAII (Michael W. Deem and Ramdas Pophale) SiO2 
 PCOD8008384
Probable space group: P -1
;
_chemical_formula_sum "Si O2"
_cell_formula_units_Z 14
_cell_length_a 6.503240
_cell_length_b 14.124143
_cell_length_c 14.508120
_cell_angle_alpha 149.112535
_cell_angle_beta 92.578187
_cell_angle_gamma 76.369099
_cell_volume 630.937924
_symmetry_space_group_name_H-M "P -1"
_symmetry_group_IT_number 2
_symmetry_cell_setting 'triclinic'
loop_
_space_group_symop_operation_xyz
x,y,z
-x,-y,-z
loop_
_atom_site_type_symbol
_atom_site_label
_atom_site_fract_x
_atom_site_fract_y
_atom_site_fract_z
Si Si1 0.994935 0.727349 0.338644
Si Si2 0.853915 0.644786 0.745506
Si Si3 0.414621 0.211298 0.495782
Si Si4 0.863649 0.797221 0.679293
Si Si5 0.127309 0.084411 0.695035
Si Si6 0.569127 0.556022 0.804476
Si Si7 0.087960 0.813460 0.035607
O O1 0.795208 0.694297 0.360722
O O2 0.945127 0.749445 0.247446
O O3 0.223327 0.534543 0.196361
O O4 0.008773 0.928193 0.547925
O O5 0.787779 0.786542 0.773522
O O6 0.630103 0.676564 0.824231
O O7 0.957388 0.413628 0.526354
O O8 0.031399 0.694362 0.852118
O O9 0.351573 0.137826 0.336684
O O10 0.514131 0.375777 0.610429
O O11 0.604840 0.023395 0.391609
O O12 0.976813 0.958395 0.807602
O O13 0.048455 0.195002 0.883098
O O14 0.351141 0.712005 0.980452
#
# Coordination Sequence:
#
# PCOD8008384 Si02
#       7
#     2   2   2   2   2   2   2
#     4  10  20  43  65  99 130 173 221 265 323 391
#     4  11  25  46  65  97 133 172 222 269 319 392
#     4  11  20  44  67  95 133 171 218 273 320 387
#     4  11  23  45  70  93 132 174 218 269 328 381
#     4  10  23  37  70  97 131 174 217 267 329 382
#     4  11  23  41  66  93 140 168 214 272 320 388
#     4  12  24  44  65 100 134 172 216 269 324 390
#
# _framework density 22.189188000000001
#
# number of rings (size 3 to 8) (size 9 to 14) (size 15 to 20)
#    0.000    1.143    4.286    1.714    2.000    1.714 
#    2.571    2.857    0.000    0.000    0.000    0.000 
#    0.000    0.000    0.000    0.000    0.000    0.000 
#
# Total GULP energy -173663.858797 kJ/mol
# GULP energy per Si atom -12404.561343 kJ/mol
# Density = 2.213868 g / cm^3
# Si number density = 22.189188 Si / 1000 Ang^3
#
#
#
# Elastic Constant Matrix: (Units=GPa)
#
#
# Indices 1 2 3 4 5 6 
#
# 1 116.9568 53.5321 26.1759 0.4395 -12.6431 2.8261
# 2 53.5321 157.9764 41.3169 -15.9291 -0.4524 10.5480
# 3 26.1759 41.3169 69.8137 -0.2512 -9.8410 -2.6695
# 4 0.4395 -15.9291 -0.2512 21.4242 1.0692 -0.3738
# 5 -12.6431 -0.4524 -9.8410 1.0692 28.6136 2.3119
# 6 2.8261 10.5480 -2.6695 -0.3738 2.3119 25.0955
#
#
#
# Elastic Compliance Matrix: (Units=1/GPa)
#
#
# Indices 1 2 3 4 5 6 
#
# 1 0.011042 -0.003678 -0.001352 -0.003207 0.004500 -0.000304
# 2 -0.003678 0.009900 -0.005048 0.007467 -0.003170 -0.003880
# 3 -0.001352 -0.005048 0.018737 -0.003721 0.005607 0.003695
# 4 -0.003207 0.007467 -0.003721 0.052434 -0.004377 -0.001989
# 5 0.004500 -0.003170 0.005607 -0.004377 0.039161 -0.002251
# 6 -0.000304 -0.003880 0.003695 -0.001989 -0.002251 0.042084
#
#
# Mechanical properties :
#
#
# Convention : Reuss Voigt Hill
#
# Bulk Modulus (GPa) = 51.22528 65.19964 58.21246
# Shear Modulus (GPa) = 24.99732 29.94147 27.46939
#
# Velocity S-wave (km/s) = 3.36006 3.67736 3.52229
# Velocity P-wave (km/s) = 6.17974 6.89043 6.54474
#
# Compressibility (1/GPa) = 0.01952161
#
# Stress axis : x y z
#
# Youngs Moduli (GPa) = 90.56104 101.01232 53.37143
#
# Poissons Ratio (x) = 0.37157 0.07216
# Poissons Ratio (y) = 0.33312 0.26942
# Poissons Ratio (z) = 0.12244 0.50992
#
# Static dielectric constant tensor:
#      x y z
#    x 3.995930 -0.006750 0.072510 
#    y -0.006750 4.221780 0.055700 
#    z 0.072510 0.055700 3.775540 
# 
# 
# High freq. dielectric constant tensor:
#      x y z
#    x 1.875620 0.003220 0.005200 
#    y 0.003220 1.877190 0.008220 
#    z 0.005200 0.008220 1.864210 
# 
# From -- ./inp_files/48701.got.cif
#   From: 2010.06.25/outbox.cif.g09.slc.cpg/sg2_25_cif.got.tgz:48701.got - 2010.06.27 13:26:56.
