data_PCOD8008130
_publ_section_title
;
Structure prediction by ZEFSAII (Michael W. Deem and Ramdas Pophale) SiO2 
 PCOD8008130
Probable space group: P -1
;
_chemical_formula_sum "Si O2"
_cell_formula_units_Z 14
_cell_length_a 8.608872
_cell_length_b 11.094392
_cell_length_c 7.965740
_cell_angle_alpha 78.832109
_cell_angle_beta 125.523675
_cell_angle_gamma 88.719790
_cell_volume 598.748692
_symmetry_space_group_name_H-M "P -1"
_symmetry_group_IT_number 2
_symmetry_cell_setting 'triclinic'
loop_
_space_group_symop_operation_xyz
x,y,z
-x,-y,-z
loop_
_atom_site_type_symbol
_atom_site_label
_atom_site_fract_x
_atom_site_fract_y
_atom_site_fract_z
Si Si1 0.152588 0.221012 0.308688
Si Si2 0.548555 0.256015 0.659697
Si Si3 0.767948 0.533239 0.051988
Si Si4 0.871461 0.396877 0.834689
Si Si5 0.424543 0.695225 0.947618
Si Si6 0.914074 0.138905 0.454712
Si Si7 0.172735 0.957683 0.242906
O O1 0.341292 0.286665 0.430264
O O2 0.051569 0.225073 0.428824
O O3 0.225770 0.078280 0.336922
O O4 0.997500 0.290016 0.060214
O O5 0.695659 0.342443 0.651483
O O6 0.642401 0.111635 0.726330
O O7 0.523069 0.285900 0.832335
O O8 0.704879 0.413930 0.133261
O O9 0.988156 0.555189 0.230014
O O10 0.777616 0.513274 0.861343
O O11 0.621126 0.658642 0.973889
O O12 0.304464 0.822520 0.765252
O O13 0.897982 0.142711 0.645344
O O14 0.000000 0.000000 0.500000
O O15 0.000000 0.000000 0.000000
#
# Coordination Sequence:
#
# PCOD8008130 Si02
#       7
#     2   2   2   2   2   2   2
#     4  11  22  41  65  97 133 169 218 270 327 393
#     4  11  22  39  64  97 134 171 218 264 326 397
#     4   9  20  38  73  92 128 182 213 273 324 376
#     4  10  20  42  66  94 133 171 221 272 323 376
#     4  10  20  43  67  97 136 171 221 268 328 385
#     4  10  21  40  66  95 130 170 215 271 323 392
#     4  11  22  42  66  95 133 171 216 272 335 388
#
# _framework density 23.382095
#
# number of rings (size 3 to 8) (size 9 to 14) (size 15 to 20)
#    0.000    1.714    4.286    1.286    2.000    1.143 
#    0.000   10.714    0.000    0.000    0.000    0.000 
#    0.000    0.000    0.000    0.000    0.000    0.000 
#
# Total GULP energy -173466.016664 kJ/mol
# GULP energy per Si atom -12390.429762 kJ/mol
# Density = 2.332888 g / cm^3
# Si number density = 23.382095 Si / 1000 Ang^3
#
#
#
# Elastic Constant Matrix: (Units=GPa)
#
#
# Indices 1 2 3 4 5 6 
#
# 1 136.5136 41.2601 38.3012 12.4114 20.3610 -14.2782
# 2 41.2601 84.1253 18.9100 4.0460 9.6671 -27.0014
# 3 38.3012 18.9100 77.7664 6.5516 16.8071 4.0604
# 4 12.4114 4.0460 6.5516 29.8655 7.2353 12.4356
# 5 20.3610 9.6671 16.8071 7.2353 36.4698 -1.6062
# 6 -14.2782 -27.0014 4.0604 12.4356 -1.6062 47.9701
#
#
#
# Elastic Compliance Matrix: (Units=1/GPa)
#
#
# Indices 1 2 3 4 5 6 
#
# 1 0.010163 -0.002921 -0.003606 -0.003492 -0.002435 0.002510
# 2 -0.002921 0.017630 -0.002934 -0.004863 -0.000261 0.010555
# 3 -0.003606 -0.002934 0.016629 0.001510 -0.005380 -0.004704
# 4 -0.003492 -0.004863 0.001510 0.043281 -0.006720 -0.015349
# 5 -0.002435 -0.000261 -0.005380 -0.006720 0.032768 0.002423
# 6 0.002510 0.010555 -0.004704 -0.015349 0.002423 0.031993
#
#
# Mechanical properties :
#
#
# Convention : Reuss Voigt Hill
#
# Bulk Modulus (GPa) = 39.21176 55.03866 47.12521
# Shear Modulus (GPa) = 27.79550 36.19003 31.99277
#
# Velocity S-wave (km/s) = 3.45157 3.93843 3.70301
# Velocity P-wave (km/s) = 5.71759 6.65369 6.20332
#
# Compressibility (1/GPa) = 0.02550255
#
# Stress axis : x y z
#
# Youngs Moduli (GPa) = 98.39803 56.72003 60.13463
#
# Poissons Ratio (x) = 0.16566 0.21684
# Poissons Ratio (y) = 0.28738 0.17641
# Poissons Ratio (z) = 0.35481 0.16639
#
# Static dielectric constant tensor:
#      x y z
#    x 4.826960 -0.156250 -0.002060 
#    y -0.156250 4.589450 -0.037220 
#    z -0.002060 -0.037220 3.879550 
# 
# 
# High freq. dielectric constant tensor:
#      x y z
#    x 1.935270 -0.017780 0.012090 
#    y -0.017780 1.929810 -0.012250 
#    z 0.012090 -0.012250 1.890220 
# 
# From -- ./inp_files/179542.got.cif
#   From: 2010.06.25/outbox.cif.g09.slc.cpg/sg2_90_cif.got.tgz:179542.got - 2010.06.27 13:26:56.
