data_PCOD8008913
_publ_section_title
;
Structure prediction by ZEFSAII (Michael W. Deem and Ramdas Pophale) SiO2 
 PCOD8008913
Probable space group: P -1
;
_chemical_formula_sum "Si O2"
_cell_formula_units_Z 16
_cell_length_a 20.551422
_cell_length_b 9.132037
_cell_length_c 8.479349
_cell_angle_alpha 117.590627
_cell_angle_beta 135.528767
_cell_angle_gamma 38.671705
_cell_volume 680.368791
_symmetry_space_group_name_H-M "P -1"
_symmetry_group_IT_number 2
_symmetry_cell_setting 'triclinic'
loop_
_space_group_symop_operation_xyz
x,y,z
-x,-y,-z
loop_
_atom_site_type_symbol
_atom_site_label
_atom_site_fract_x
_atom_site_fract_y
_atom_site_fract_z
Si Si1 0.955434 0.365461 0.102261
Si Si2 0.681492 0.521568 0.727117
Si Si3 0.415668 0.059584 0.032718
Si Si4 0.835102 0.660130 0.725819
Si Si5 0.645721 0.592587 0.351897
Si Si6 0.146329 0.785869 0.711246
Si Si7 0.792670 0.072592 0.836666
Si Si8 0.872120 0.558520 0.384681
O O1 0.972139 0.443880 0.342665
O O2 0.087691 0.084007 0.164860
O O3 0.831922 0.400722 0.923604
O O4 0.934184 0.501250 0.969313
O O5 0.626406 0.553035 0.474517
O O6 0.588361 0.775158 0.778667
O O7 0.676493 0.348083 0.715344
O O8 0.495352 0.808275 0.130874
O O9 0.500000 0.000000 0.000000
O O10 0.269333 0.179075 0.786904
O O11 0.723097 0.666689 0.522751
O O12 0.748864 0.940608 0.731295
O O13 0.913848 0.569446 0.641914
O O14 0.736864 0.349396 0.286597
O O15 0.159421 0.596532 0.732208
O O16 0.000000 0.000000 0.500000
O O17 0.156037 0.929494 0.910127
#
# Coordination Sequence:
#
# PCOD8008913 Si02
#       8
#     2   2   2   2   2   2   2   2
#     4  10  21  37  59  82 120 163 192 234 288 360
#     4  10  21  35  58  91 110 145 205 247 288 339
#     4  11  17  36  64  83 110 152 209 241 276 348
#     4  10  22  38  56  88 121 155 197 234 298 353
#     4  10  21  39  61  85 113 160 199 237 287 354
#     4  11  21  35  59  87 117 149 196 239 291 342
#     4  12  21  37  57  87 126 147 188 251 298 337
#     4  10  21  39  61  85 114 160 204 231 288 355
#
# _framework density 23.516659000000001
#
# number of rings (size 3 to 8) (size 9 to 14) (size 15 to 20)
#    0.000    1.500    5.000    3.375    1.750    0.500 
#    2.250    0.625    0.000    0.750    0.000    0.000 
#    0.000    0.000    0.000    0.000    0.000    0.000 
#
# Total GULP energy -198314.228933 kJ/mol
# GULP energy per Si atom -12394.639308 kJ/mol
# Density = 2.346313 g / cm^3
# Si number density = 23.516659 Si / 1000 Ang^3
#
#
#
# Elastic Constant Matrix: (Units=GPa)
#
#
# Indices 1 2 3 4 5 6 
#
# 1 59.0335 8.8826 20.4785 10.7652 -21.8660 -11.5702
# 2 8.8826 106.0459 33.4452 4.6403 -3.2073 -20.9999
# 3 20.4785 33.4452 134.1200 4.4943 -24.1260 -14.3483
# 4 10.7652 4.6403 4.4943 50.2973 -0.6568 -1.9025
# 5 -21.8660 -3.2073 -24.1260 -0.6568 21.7447 2.9196
# 6 -11.5702 -20.9999 -14.3483 -1.9025 2.9196 44.8752
#
#
#
# Elastic Compliance Matrix: (Units=1/GPa)
#
#
# Indices 1 2 3 4 5 6 
#
# 1 0.030311 -0.000839 0.002109 -0.005966 0.031740 0.005779
# 2 -0.000839 0.011130 -0.002666 -0.000482 -0.002752 0.004298
# 3 0.002109 -0.002666 0.010341 -0.000895 0.012943 0.001722
# 4 -0.005966 -0.000482 -0.000895 0.021172 -0.006324 -0.000741
# 5 0.031740 -0.002752 0.012943 -0.006324 0.091018 0.004844
# 6 0.005779 0.004298 0.001722 -0.000741 0.004844 0.025990
#
#
# Mechanical properties :
#
#
# Convention : Reuss Voigt Hill
#
# Bulk Modulus (GPa) = 20.41227 47.20135 33.80681
# Shear Modulus (GPa) = 23.91361 39.14299 31.52830
#
# Velocity S-wave (km/s) = 3.19231 4.08423 3.66550
# Velocity P-wave (km/s) = 4.72087 6.50817 5.68519
#
# Compressibility (1/GPa) = 0.04899013
#
# Stress axis : x y z
#
# Youngs Moduli (GPa) = 32.99097 89.84619 96.69850
#
# Poissons Ratio (x) = 0.07534 -0.20390
# Poissons Ratio (y) = 0.02766 0.25784
# Poissons Ratio (z) = -0.06957 0.23957
#
# Static dielectric constant tensor:
#      x y z
#    x 4.369040 0.019250 -0.561520 
#    y 0.019250 4.938370 -0.088600 
#    z -0.561520 -0.088600 4.714600 
# 
# 
# High freq. dielectric constant tensor:
#      x y z
#    x 1.930180 -0.007950 -0.027130 
#    y -0.007950 1.926530 0.010850 
#    z -0.027130 0.010850 1.951240 
# 
# From -- ./inp_files/329449.got.cif
#   From: 2010.06.25/outbox.cif.g09.slc.cpg/sg2_165_cif.got.tgz:329449.got - 2010.06.27 13:26:56.
