data_PCOD8008119
_publ_section_title
;
Structure prediction by ZEFSAII (Michael W. Deem and Ramdas Pophale) SiO2 
 PCOD8008119
Probable space group: P -1
;
_chemical_formula_sum "Si O2"
_cell_formula_units_Z 16
_cell_length_a 9.258967
_cell_length_b 12.365340
_cell_length_c 18.964472
_cell_angle_alpha 30.798898
_cell_angle_beta 135.613620
_cell_angle_gamma 135.068306
_cell_volume 750.334533
_symmetry_space_group_name_H-M "P -1"
_symmetry_group_IT_number 2
_symmetry_cell_setting 'triclinic'
loop_
_space_group_symop_operation_xyz
x,y,z
-x,-y,-z
loop_
_atom_site_type_symbol
_atom_site_label
_atom_site_fract_x
_atom_site_fract_y
_atom_site_fract_z
Si Si1 0.028570 0.903468 0.277018
Si Si2 0.960534 0.265201 0.153703
Si Si3 0.561864 0.188641 0.472999
Si Si4 0.830148 0.806259 0.587513
Si Si5 0.246690 0.661538 0.201049
Si Si6 0.585220 0.671744 0.200226
Si Si7 0.463924 0.103673 0.084427
Si Si8 0.111674 0.126955 0.036131
O O1 0.196498 0.778878 0.434746
O O2 0.789480 0.743936 0.283084
O O3 0.100750 0.969190 0.186369
O O4 0.038461 0.112752 0.211228
O O5 0.714921 0.174649 0.139656
O O6 0.088808 0.268707 0.268458
O O7 0.000000 0.500000 0.000000
O O8 0.389461 0.124894 0.512728
O O9 0.550153 0.419747 0.306072
O O10 0.500000 0.000000 0.500000
O O11 0.776221 0.588287 0.641319
O O12 0.000000 0.000000 0.500000
O O13 0.376402 0.704806 0.148368
O O14 0.375489 0.837503 0.204658
O O15 0.005330 0.684374 0.091275
O O16 0.622040 0.823666 0.059688
O O17 0.361855 0.212897 0.052219
O O18 0.000000 0.000000 0.000000
#
# Coordination Sequence:
#
# PCOD8008119 Si02
#       8
#     2   2   2   2   2   2   2   2
#     4  12  22  42  66  93 134 170 223 264 326 394
#     4  12  25  43  70 100 130 174 225 267 330 396
#     4  11  25  44  62  93 132 176 221 263 329 395
#     4  11  26  47  64  93 137 177 215 270 334 395
#     4  10  20  42  66  92 127 170 213 266 329 385
#     4  11  21  40  68  94 128 171 217 275 320 395
#     4  11  22  39  69  98 128 162 222 277 329 376
#     4  10  21  38  63 101 127 162 211 280 326 378
#
# _framework density 21.323823000000001
#
# number of rings (size 3 to 8) (size 9 to 14) (size 15 to 20)
#    0.000    1.000    5.000    3.750    1.750    1.000 
#    0.000    1.875    0.000    0.000    0.000    0.000 
#    0.000    0.000    0.000    0.000    0.000    0.000 
#
# Total GULP energy -198360.085343 kJ/mol
# GULP energy per Si atom -12397.505334 kJ/mol
# Density = 2.127529 g / cm^3
# Si number density = 21.323823 Si / 1000 Ang^3
#
#
#
# Elastic Constant Matrix: (Units=GPa)
#
#
# Indices 1 2 3 4 5 6 
#
# 1 152.9450 37.1065 48.7703 -12.7866 20.2749 8.3858
# 2 37.1065 85.4795 31.6308 -13.9893 11.8512 9.4917
# 3 48.7703 31.6308 73.9400 -12.0035 11.2944 -1.0233
# 4 -12.7866 -13.9893 -12.0035 42.9803 2.2032 2.5441
# 5 20.2749 11.8512 11.2944 2.2032 38.0558 -1.5477
# 6 8.3858 9.4917 -1.0233 2.5441 -1.5477 33.6607
#
#
#
# Elastic Compliance Matrix: (Units=1/GPa)
#
#
# Indices 1 2 3 4 5 6 
#
# 1 0.009005 -0.001259 -0.004749 0.001240 -0.003160 -0.002272
# 2 -0.001259 0.015604 -0.004808 0.003800 -0.003172 -0.004666
# 3 -0.004749 -0.004808 0.019404 0.002361 -0.001752 0.002870
# 4 0.001240 0.003800 0.002361 0.025951 -0.004188 -0.003463
# 5 -0.003160 -0.003172 -0.001752 -0.004188 0.029846 0.003317
# 6 -0.002272 -0.004666 0.002870 -0.003463 0.003317 0.032091
#
#
# Mechanical properties :
#
#
# Convention : Reuss Voigt Hill
#
# Bulk Modulus (GPa) = 44.67826 60.81998 52.74912
# Shear Modulus (GPa) = 31.05710 35.92982 33.49346
#
# Velocity S-wave (km/s) = 3.82049 4.10928 3.96751
# Velocity P-wave (km/s) = 6.36076 7.14835 6.76602
#
# Compressibility (1/GPa) = 0.02238225
#
# Stress axis : x y z
#
# Youngs Moduli (GPa) = 111.04880 64.08593 51.53509
#
# Poissons Ratio (x) = 0.08065 0.24473
# Poissons Ratio (y) = 0.13976 0.24780
# Poissons Ratio (z) = 0.52734 0.30814
#
# Static dielectric constant tensor:
#      x y z
#    x 4.496570 0.132900 0.352960 
#    y 0.132900 3.912350 -0.046830 
#    z 0.352960 -0.046830 3.731640 
# 
# 
# High freq. dielectric constant tensor:
#      x y z
#    x 1.857150 0.010700 0.022650 
#    y 0.010700 1.833220 -0.008470 
#    z 0.022650 -0.008470 1.818270 
# 
# From -- ./inp_files/403508.got.cif
#   From: 2010.06.25/outbox.cif.g09.slc.cpg/sg2_202_cif.got.tgz:403508.got - 2010.06.27 13:26:56.
