data_PCOD8008167
_publ_section_title
;
Structure prediction by ZEFSAII (Michael W. Deem and Ramdas Pophale) SiO2 
 PCOD8008167
Probable space group: P -1
;
_chemical_formula_sum "Si O2"
_cell_formula_units_Z 16
_cell_length_a 12.431526
_cell_length_b 9.400912
_cell_length_c 8.592834
_cell_angle_alpha 45.907938
_cell_angle_beta 84.030434
_cell_angle_gamma 82.064987
_cell_volume 714.306537
_symmetry_space_group_name_H-M "P -1"
_symmetry_group_IT_number 2
_symmetry_cell_setting 'triclinic'
loop_
_space_group_symop_operation_xyz
x,y,z
-x,-y,-z
loop_
_atom_site_type_symbol
_atom_site_label
_atom_site_fract_x
_atom_site_fract_y
_atom_site_fract_z
Si Si1 0.837082 0.245161 0.557670
Si Si2 0.451351 0.398370 0.320495
Si Si3 0.615231 0.152539 0.674087
Si Si4 0.497023 0.807692 0.845942
Si Si5 0.000854 0.523282 0.799679
Si Si6 0.790835 0.465013 0.708653
Si Si7 0.096444 0.107653 0.976425
Si Si8 0.706816 0.076771 0.057931
O O1 0.718303 0.234282 0.506382
O O2 0.833375 0.409358 0.571285
O O3 0.926435 0.295764 0.381461
O O4 0.866008 0.019710 0.782070
O O5 0.513864 0.314320 0.529653
O O6 0.485856 0.239341 0.301296
O O7 0.323476 0.399762 0.374819
O O8 0.488745 0.611153 0.101032
O O9 0.640360 0.150624 0.855297
O O10 0.595511 0.928379 0.797558
O O11 0.384160 0.954331 0.774288
O O12 0.881127 0.574988 0.706034
O O13 0.000000 0.500000 0.000000
O O14 0.058671 0.330133 0.855490
O O15 0.775010 0.259788 0.958935
O O16 0.202654 0.109856 0.842606
O O17 0.000000 0.000000 0.000000
#
# Coordination Sequence:
#
# PCOD8008167 Si02
#       8
#     2   2   2   2   2   2   2   2
#     4  10  24  41  65  93 126 168 225 260 308 406
#     4  10  22  38  62  89 130 168 197 264 328 363
#     4  10  21  39  58  90 123 161 211 258 306 380
#     4  10  21  38  59  91 128 162 209 257 312 383
#     4  12  25  42  67  97 130 164 215 278 326 369
#     4   9  20  40  60  91 126 165 217 255 307 398
#     4  10  20  42  67  88 126 176 210 259 322 374
#     4   9  20  37  64  92 121 162 219 255 302 395
#
# _framework density 22.399349000000001
#
# number of rings (size 3 to 8) (size 9 to 14) (size 15 to 20)
#    0.000    2.250    2.500    1.125    0.000   13.000 
#    0.000    0.000    0.000    0.000    0.000    0.000 
#    0.000    0.000    0.000    0.000    0.000    0.000 
#
# Total GULP energy -198302.352953 kJ/mol
# GULP energy per Si atom -12393.897060 kJ/mol
# Density = 2.234837 g / cm^3
# Si number density = 22.399349 Si / 1000 Ang^3
#
#
#
# Elastic Constant Matrix: (Units=GPa)
#
#
# Indices 1 2 3 4 5 6 
#
# 1 172.7291 37.0410 39.3395 0.0950 -8.1626 -1.9153
# 2 37.0410 55.3857 9.0945 -4.8945 -8.5107 -0.6777
# 3 39.3395 9.0945 35.5605 4.7307 -8.0088 -3.0222
# 4 0.0950 -4.8945 4.7307 26.0131 -6.5819 -2.4749
# 5 -8.1626 -8.5107 -8.0088 -6.5819 42.4550 -12.6753
# 6 -1.9153 -0.6777 -3.0222 -2.4749 -12.6753 32.5221
#
#
#
# Elastic Compliance Matrix: (Units=1/GPa)
#
#
# Indices 1 2 3 4 5 6 
#
# 1 0.008712 -0.004516 -0.008843 0.000379 -0.001077 -0.000794
# 2 -0.004516 0.022464 -0.000096 0.005870 0.005339 0.002721
# 3 -0.008843 -0.000096 0.040608 -0.005129 0.006790 0.005507
# 4 0.000379 0.005870 -0.005129 0.043350 0.008927 0.006446
# 5 -0.001077 0.005339 0.006790 0.008927 0.031108 0.013482
# 6 -0.000794 0.002721 0.005507 0.006446 0.013482 0.037015
#
#
# Mechanical properties :
#
#
# Convention : Reuss Voigt Hill
#
# Bulk Modulus (GPa) = 22.28516 48.29166 35.28841
# Shear Modulus (GPa) = 22.20977 32.07807 27.14392
#
# Velocity S-wave (km/s) = 3.15228 3.78841 3.48489
# Velocity P-wave (km/s) = 4.81869 6.38297 5.65518
#
# Compressibility (1/GPa) = 0.04487290
#
# Stress axis : x y z
#
# Youngs Moduli (GPa) = 114.78369 44.51606 24.62553
#
# Poissons Ratio (x) = 0.20104 0.21777
# Poissons Ratio (y) = 0.51837 0.00237
# Poissons Ratio (z) = 1.01506 0.00429
#
# Static dielectric constant tensor:
#      x y z
#    x 4.592350 -0.174090 -0.151360 
#    y -0.174090 3.594330 0.163010 
#    z -0.151360 0.163010 3.597990 
# 
# 
# High freq. dielectric constant tensor:
#      x y z
#    x 1.899120 -0.006470 -0.013200 
#    y -0.006470 1.867970 -0.010900 
#    z -0.013200 -0.010900 1.864420 
# 
# From -- ./inp_files/241994.got.cif
#   From: 2010.06.25/outbox.cif.g09.slc.cpg/sg2_121_cif.got.tgz:241994.got - 2010.06.27 13:26:56.
