data_PCOD8008336
_publ_section_title
;
Structure prediction by ZEFSAII (Michael W. Deem and Ramdas Pophale) SiO2 
 PCOD8008336
Probable space group: P -1
;
_chemical_formula_sum "Si O2"
_cell_formula_units_Z 16
_cell_length_a 21.045581
_cell_length_b 21.128327
_cell_length_c 9.291729
_cell_angle_alpha 46.644079
_cell_angle_beta 142.317494
_cell_angle_gamma 161.402886
_cell_volume 761.437142
_symmetry_space_group_name_H-M "P -1"
_symmetry_group_IT_number 2
_symmetry_cell_setting 'triclinic'
loop_
_space_group_symop_operation_xyz
x,y,z
-x,-y,-z
loop_
_atom_site_type_symbol
_atom_site_label
_atom_site_fract_x
_atom_site_fract_y
_atom_site_fract_z
Si Si1 0.467979 0.143818 0.757791
Si Si2 0.366086 0.134681 0.896401
Si Si3 0.920332 0.217310 0.583175
Si Si4 0.180269 0.272441 0.426441
Si Si5 0.081720 0.382525 0.163873
Si Si6 0.361286 0.490970 0.121751
Si Si7 0.854746 0.308196 0.108256
Si Si8 0.705767 0.084519 0.712550
O O1 0.375576 0.086200 0.843798
O O2 0.680693 0.377622 0.744560
O O3 0.234417 0.969710 0.500656
O O4 0.584469 0.136299 0.947801
O O5 0.578872 0.369636 0.917687
O O6 0.098110 0.980415 0.668139
O O7 0.395339 0.086694 0.150785
O O8 0.984997 0.358173 0.398942
O O9 0.759491 0.119266 0.586959
O O10 0.177177 0.364228 0.855427
O O11 0.178879 0.357806 0.390166
O O12 0.232497 0.333551 0.257277
O O13 0.388063 0.364318 0.715282
O O14 0.853994 0.232219 0.102105
O O15 0.963597 0.306159 0.912238
O O16 0.000000 0.500000 0.000000
O O17 0.500000 0.000000 0.500000
#
# Coordination Sequence:
#
# PCOD8008336 Si02
#       8
#     2   2   2   2   2   2   2   2
#     4  11  22  38  62  90 129 172 204 249 321 392
#     4  11  21  41  66  93 124 175 209 247 331 388
#     4  12  22  39  59  97 124 160 217 267 304 367
#     4  10  21  43  67  89 126 166 218 259 333 363
#     4  10  20  43  62  89 126 178 206 250 324 387
#     4  11  23  41  67  94 124 165 216 279 305 367
#     4  10  23  40  62  87 130 175 201 247 325 387
#     4  11  22  37  62  96 130 160 216 268 303 373
#
# _framework density 21.012896000000001
#
# number of rings (size 3 to 8) (size 9 to 14) (size 15 to 20)
#    0.000    1.250    3.750    3.750    0.000    4.000 
#    0.000    7.500    0.000    0.000    0.000    0.000 
#    0.000    0.000    0.000    0.000    0.000    0.000 
#
# Total GULP energy -198299.209315 kJ/mol
# GULP energy per Si atom -12393.700582 kJ/mol
# Density = 2.096507 g / cm^3
# Si number density = 21.012896 Si / 1000 Ang^3
#
#
#
# Elastic Constant Matrix: (Units=GPa)
#
#
# Indices 1 2 3 4 5 6 
#
# 1 103.7151 21.7405 33.0210 -1.7850 -0.6039 0.4724
# 2 21.7405 71.6757 42.6880 12.2869 -9.2704 -6.9280
# 3 33.0210 42.6880 129.9680 7.1534 4.3058 -5.1375
# 4 -1.7850 12.2869 7.1534 29.5864 6.0393 -8.0715
# 5 -0.6039 -9.2704 4.3058 6.0393 42.8600 3.3810
# 6 0.4724 -6.9280 -5.1375 -8.0715 3.3810 39.3008
#
#
#
# Elastic Compliance Matrix: (Units=1/GPa)
#
#
# Indices 1 2 3 4 5 6 
#
# 1 0.010864 -0.002555 -0.002041 0.002211 -0.000478 -0.000352
# 2 -0.002555 0.020447 -0.005785 -0.008313 0.006088 0.000648
# 3 -0.002041 -0.005785 0.010192 0.000486 -0.002423 0.000645
# 4 0.002211 -0.008313 0.000486 0.041045 -0.008207 0.007707
# 5 -0.000478 0.006088 -0.002423 -0.008207 0.026293 -0.003185
# 6 -0.000352 0.000648 0.000645 0.007707 -0.003185 0.027505
#
#
# Mechanical properties :
#
#
# Convention : Reuss Voigt Hill
#
# Bulk Modulus (GPa) = 48.21312 55.58419 51.89866
# Shear Modulus (GPa) = 30.48368 36.21005 33.34686
#
# Velocity S-wave (km/s) = 3.81295 4.15568 3.98800
# Velocity P-wave (km/s) = 6.50993 7.03819 6.77921
#
# Compressibility (1/GPa) = 0.02074124
#
# Stress axis : x y z
#
# Youngs Moduli (GPa) = 92.04728 48.90617 98.11631
#
# Poissons Ratio (x) = 0.12494 0.20025
# Poissons Ratio (y) = 0.23516 0.56764
# Poissons Ratio (z) = 0.18786 0.28294
#
# Static dielectric constant tensor:
#      x y z
#    x 4.122240 0.189670 0.218810 
#    y 0.189670 3.806500 0.055830 
#    z 0.218810 0.055830 3.751040 
# 
# 
# High freq. dielectric constant tensor:
#      x y z
#    x 1.835650 0.010690 0.012460 
#    y 0.010690 1.832720 0.002910 
#    z 0.012460 0.002910 1.803280 
# 
# From -- ./inp_files/349417.got.cif
#   From: 2010.06.25/outbox.cif.g09.slc.cpg/sg2_175_cif.got.tgz:349417.got - 2010.06.27 13:26:56.
