data_PCOD8008640
_publ_section_title
;
Structure prediction by ZEFSAII (Michael W. Deem and Ramdas Pophale) SiO2 
 PCOD8008640
Probable space group: P -1
;
_chemical_formula_sum "Si O2"
_cell_formula_units_Z 16
_cell_length_a 15.539121
_cell_length_b 8.219635
_cell_length_c 9.435937
_cell_angle_alpha 92.068714
_cell_angle_beta 142.596648
_cell_angle_gamma 76.943386
_cell_volume 691.899852
_symmetry_space_group_name_H-M "P -1"
_symmetry_group_IT_number 2
_symmetry_cell_setting 'triclinic'
loop_
_space_group_symop_operation_xyz
x,y,z
-x,-y,-z
loop_
_atom_site_type_symbol
_atom_site_label
_atom_site_fract_x
_atom_site_fract_y
_atom_site_fract_z
Si Si1 0.083724 0.110602 0.320970
Si Si2 0.431186 0.395519 0.207482
Si Si3 0.107117 0.313689 0.106002
Si Si4 0.955944 0.821030 0.266121
Si Si5 0.693529 0.108793 0.024366
Si Si6 0.400573 0.896269 0.802737
Si Si7 0.565184 0.690139 0.468154
Si Si8 0.870994 0.345408 0.247020
O O1 0.052066 0.175495 0.118831
O O2 0.017832 0.285612 0.335996
O O3 0.262463 0.036870 0.553272
O O4 0.023824 0.957465 0.287511
O O5 0.512065 0.252490 0.194425
O O6 0.516438 0.537807 0.325226
O O7 0.449304 0.309078 0.382008
O O8 0.252500 0.466918 0.934257
O O9 0.270854 0.316404 0.364272
O O10 0.097867 0.280550 0.927291
O O11 0.000000 0.500000 0.000000
O O12 0.075475 0.685101 0.520053
O O13 0.807448 0.913584 0.169031
O O14 0.547767 0.129608 0.736651
O O15 0.654717 0.183481 0.134552
O O16 0.784284 0.219513 0.073661
O O17 0.500000 0.000000 0.000000
#
# Coordination Sequence:
#
# PCOD8008640 Si02
#       8
#     2   2   2   2   2   2   2   2
#     4  11  23  46  67 101 139 177 231 283 342 418
#     4  10  25  44  73  99 141 188 227 287 348 417
#     4  12  28  42  66 103 141 179 237 287 338 417
#     4  11  23  43  73  98 137 188 229 282 353 409
#     4  10  21  42  67  98 131 178 230 284 339 414
#     4  12  25  40  67 106 136 174 235 287 345 404
#     4  10  24  46  67  99 141 186 229 279 355 410
#     4  10  20  45  73  96 134 183 232 273 348 417
#
# _framework density 23.124732999999999
#
# number of rings (size 3 to 8) (size 9 to 14) (size 15 to 20)
#    0.000    1.250    2.500    2.625    5.250    5.500 
#    0.000    1.875    0.000    0.000    0.000    0.000 
#    0.000    0.000    0.000    0.000    0.000    0.000 
#
# Total GULP energy -198256.230422 kJ/mol
# GULP energy per Si atom -12391.014401 kJ/mol
# Density = 2.307210 g / cm^3
# Si number density = 23.124733 Si / 1000 Ang^3
#
#
#
# Elastic Constant Matrix: (Units=GPa)
#
#
# Indices 1 2 3 4 5 6 
#
# 1 89.8046 47.1199 41.1908 -14.1278 -13.9259 -33.3578
# 2 47.1199 95.3510 55.9766 -6.5250 -0.5759 -41.9164
# 3 41.1908 55.9766 162.4330 -26.9218 -5.9006 -26.0261
# 4 -14.1278 -6.5250 -26.9218 35.2707 -1.5279 4.2954
# 5 -13.9259 -0.5759 -5.9006 -1.5279 44.9230 -4.3265
# 6 -33.3578 -41.9164 -26.0261 4.2954 -4.3265 39.7837
#
#
#
# Elastic Compliance Matrix: (Units=1/GPa)
#
#
# Indices 1 2 3 4 5 6 
#
# 1 0.020143 -0.003384 -0.000618 0.005700 0.007578 0.013128
# 2 -0.003384 0.022740 -0.004457 -0.002794 0.000348 0.018545
# 3 -0.000618 -0.004457 0.008851 0.005722 0.001116 0.000079
# 4 0.005700 -0.002794 0.005722 0.034375 0.003872 0.002288
# 5 0.007578 0.000348 0.001116 0.003872 0.025840 0.009842
# 6 0.013128 0.018545 0.000079 0.002288 0.009842 0.056557
#
#
# Mechanical properties :
#
#
# Convention : Reuss Voigt Hill
#
# Bulk Modulus (GPa) = 28.72438 70.68482 49.70460
# Shear Modulus (GPa) = 25.37682 37.54890 31.46286
#
# Velocity S-wave (km/s) = 3.31628 4.03396 3.69259
# Velocity P-wave (km/s) = 5.20693 7.23396 6.30247
#
# Compressibility (1/GPa) = 0.03481363
#
# Stress axis : x y z
#
# Youngs Moduli (GPa) = 49.64621 43.97538 112.98352
#
# Poissons Ratio (x) = 0.14882 0.06986
# Poissons Ratio (y) = 0.16801 0.50362
# Poissons Ratio (z) = 0.03070 0.19602
#
# Static dielectric constant tensor:
#      x y z
#    x 4.850160 -0.254120 -0.150000 
#    y -0.254120 4.073280 -0.224440 
#    z -0.150000 -0.224440 4.251510 
# 
# 
# High freq. dielectric constant tensor:
#      x y z
#    x 1.923370 -0.002390 0.002620 
#    y -0.002390 1.895160 -0.016520 
#    z 0.002620 -0.016520 1.929590 
# 
# From -- ./inp_files/224052.got.cif
#   From: 2010.06.25/outbox.cif.g09.slc.cpg/sg2_113_cif.got.tgz:224052.got - 2010.06.27 13:26:56.
