data_PCOD8008151
_publ_section_title
;
Structure prediction by ZEFSAII (Michael W. Deem and Ramdas Pophale) SiO2 
 PCOD8008151
Probable space group: P -1
;
_chemical_formula_sum "Si O2"
_cell_formula_units_Z 16
_cell_length_a 6.008484
_cell_length_b 8.611999
_cell_length_c 15.458842
_cell_angle_alpha 111.158397
_cell_angle_beta 67.196056
_cell_angle_gamma 74.960901
_cell_volume 608.974436
_symmetry_space_group_name_H-M "P -1"
_symmetry_group_IT_number 2
_symmetry_cell_setting 'triclinic'
loop_
_space_group_symop_operation_xyz
x,y,z
-x,-y,-z
loop_
_atom_site_type_symbol
_atom_site_label
_atom_site_fract_x
_atom_site_fract_y
_atom_site_fract_z
Si Si1 0.147812 0.171770 0.744927
Si Si2 0.271090 0.409342 0.542903
Si Si3 0.133152 0.793360 0.582149
Si Si4 0.615790 0.281407 0.945169
Si Si5 0.329201 0.463834 0.736981
Si Si6 0.717135 0.177009 0.096802
Si Si7 0.433781 0.000254 0.216457
Si Si8 0.058037 0.805595 0.403411
O O1 0.125695 0.376115 0.771460
O O2 0.934450 0.186869 0.853329
O O3 0.102327 0.087242 0.641750
O O4 0.443804 0.033920 0.711892
O O5 0.148733 0.584489 0.529503
O O6 0.569146 0.242889 0.434798
O O7 0.335917 0.488585 0.638321
O O8 0.064480 0.328738 0.574603
O O9 0.055156 0.902475 0.519709
O O10 0.893850 0.905378 0.709317
O O11 0.462053 0.198471 0.889489
O O12 0.500000 0.500000 0.000000
O O13 0.564333 0.238500 0.041282
O O14 0.220780 0.662249 0.840274
O O15 0.631554 0.320722 0.697991
O O16 0.517114 0.139567 0.181555
O O17 0.000000 0.000000 0.000000
#
# Coordination Sequence:
#
# PCOD8008151 Si02
#       8
#     2   2   2   2   2   2   2   2
#     4  11  24  45  70  99 141 189 238 285 345 425
#     4   9  20  39  68 100 144 186 227 283 348 428
#     4  10  22  38  66 104 141 182 230 287 353 416
#     4  12  28  49  74  98 139 195 241 289 358 422
#     4  10  23  43  71 102 140 188 236 282 351 426
#     4  12  26  46  71 105 140 179 232 305 356 403
#     4  12  27  45  70 107 144 180 237 299 351 413
#     4  10  20  42  67 100 137 187 234 274 347 426
#
# _framework density 26.273679999999999
#
# number of rings (size 3 to 8) (size 9 to 14) (size 15 to 20)
#    0.000    1.250    1.250    3.750    3.500    5.500 
#    0.000    8.750    0.000    0.000    0.000    0.000 
#    0.000    0.000    0.000    0.000    0.000    0.000 
#
# Total GULP energy -198396.230196 kJ/mol
# GULP energy per Si atom -12399.764387 kJ/mol
# Density = 2.621388 g / cm^3
# Si number density = 26.273680 Si / 1000 Ang^3
#
#
#
# Elastic Constant Matrix: (Units=GPa)
#
#
# Indices 1 2 3 4 5 6 
#
# 1 104.7504 50.8146 60.7294 2.4042 30.6799 12.7764
# 2 50.8146 159.9782 57.0233 -19.0417 15.3280 -2.7600
# 3 60.7294 57.0233 128.4344 8.4593 22.2419 3.4877
# 4 2.4042 -19.0417 8.4593 45.2856 7.6489 -3.3383
# 5 30.6799 15.3280 22.2419 7.6489 50.8300 -2.3554
# 6 12.7764 -2.7600 3.4877 -3.3383 -2.3554 53.3077
#
#
#
# Elastic Compliance Matrix: (Units=1/GPa)
#
#
# Indices 1 2 3 4 5 6 
#
# 1 0.016471 -0.002799 -0.005214 -0.000200 -0.006975 -0.004072
# 2 -0.002799 0.008752 -0.002850 0.004530 -0.000311 0.001580
# 3 -0.005214 -0.002850 0.011835 -0.003003 -0.000716 0.000108
# 4 -0.000200 0.004530 -0.003003 0.025316 -0.003653 0.001903
# 5 -0.006975 -0.000311 -0.000716 -0.003653 0.024959 0.002576
# 6 -0.004072 0.001580 0.000108 0.001903 0.002576 0.020043
#
#
# Mechanical properties :
#
#
# Convention : Reuss Voigt Hill
#
# Bulk Modulus (GPa) = 65.21737 81.14418 73.18078
# Shear Modulus (GPa) = 37.25428 44.85772 41.05600
#
# Velocity S-wave (km/s) = 3.76963 4.13646 3.95730
# Velocity P-wave (km/s) = 6.61989 7.33246 6.98527
#
# Compressibility (1/GPa) = 0.01533334
#
# Stress axis : x y z
#
# Youngs Moduli (GPa) = 60.71187 114.26038 84.49191
#
# Poissons Ratio (x) = 0.31983 0.44054
# Poissons Ratio (y) = 0.16994 0.24077
# Poissons Ratio (z) = 0.31655 0.32560
#
# Static dielectric constant tensor:
#      x y z
#    x 4.882030 0.154190 0.142770 
#    y 0.154190 5.056700 -0.162200 
#    z 0.142770 -0.162200 4.720310 
# 
# 
# High freq. dielectric constant tensor:
#      x y z
#    x 2.067280 0.016960 0.013480 
#    y 0.016960 2.088950 -0.006900 
#    z 0.013480 -0.006900 2.050240 
# 
# From -- ./inp_files/548217.got.cif
#   From: 2010.06.25/outbox.cif.g09.slc.cpg/sg2_275_cif.got.tgz:548217.got - 2010.06.27 13:26:56.
