data_PCOD8008157
_publ_section_title
;
Structure prediction by ZEFSAII (Michael W. Deem and Ramdas Pophale) SiO2 
 PCOD8008157
Probable space group: P -1
;
_chemical_formula_sum "Si O2"
_cell_formula_units_Z 16
_cell_length_a 12.206327
_cell_length_b 14.729776
_cell_length_c 13.387395
_cell_angle_alpha 32.493704
_cell_angle_beta 117.193957
_cell_angle_gamma 138.705740
_cell_volume 739.767474
_symmetry_space_group_name_H-M "P -1"
_symmetry_group_IT_number 2
_symmetry_cell_setting 'triclinic'
loop_
_space_group_symop_operation_xyz
x,y,z
-x,-y,-z
loop_
_atom_site_type_symbol
_atom_site_label
_atom_site_fract_x
_atom_site_fract_y
_atom_site_fract_z
Si Si1 0.178713 0.856722 0.297896
Si Si2 0.862564 0.058105 0.016149
Si Si3 0.539728 0.223288 0.852207
Si Si4 0.135409 0.109673 0.362975
Si Si5 0.605168 0.303381 0.038808
Si Si6 0.899883 0.762710 0.399444
Si Si7 0.648209 0.012499 0.449979
Si Si8 0.773248 0.373692 0.339902
O O1 0.181252 0.655433 0.502600
O O2 0.036828 0.765731 0.409932
O O3 0.397390 0.145073 0.137150
O O4 0.111798 0.845981 0.172872
O O5 0.663206 0.897993 0.132250
O O6 0.867327 0.861280 0.204734
O O7 0.049934 0.327125 0.902564
O O8 0.696579 0.475161 0.614313
O O9 0.614224 0.300209 0.925481
O O10 0.500000 0.000000 0.000000
O O11 0.250627 0.054704 0.480169
O O12 0.266361 0.412662 0.126541
O O13 0.000000 0.000000 0.500000
O O14 0.002874 0.963728 0.346692
O O15 0.665177 0.181367 0.218451
O O16 0.747725 0.185642 0.430837
O O17 0.425508 0.730989 0.640516
#
# Coordination Sequence:
#
# PCOD8008157 Si02
#       8
#     2   2   2   2   2   2   2   2
#     4  10  22  42  66  96 138 169 227 281 332 408
#     4  11  24  40  68  99 132 177 222 285 336 402
#     4  11  25  46  67  92 138 182 223 278 336 413
#     4  12  25  43  69  98 143 178 222 288 333 414
#     4  10  24  46  67 104 133 178 233 276 348 398
#     4  12  24  43  65 101 133 178 226 276 343 402
#     4  10  23  41  69 102 137 176 230 283 337 410
#     4  10  20  42  67 102 132 177 228 278 345 398
#
# _framework density 21.628418
#
# number of rings (size 3 to 8) (size 9 to 14) (size 15 to 20)
#    0.000    1.250    2.500    2.625    1.750    4.000 
#    4.500    0.000    0.000    0.000    0.000    0.000 
#    0.000    0.000    0.000    0.000    0.000    0.000 
#
# Total GULP energy -198296.293550 kJ/mol
# GULP energy per Si atom -12393.518347 kJ/mol
# Density = 2.157919 g / cm^3
# Si number density = 21.628418 Si / 1000 Ang^3
#
#
#
# Elastic Constant Matrix: (Units=GPa)
#
#
# Indices 1 2 3 4 5 6 
#
# 1 125.4987 35.8989 42.0428 -10.0828 -10.9223 9.7539
# 2 35.8989 76.6399 55.8906 -5.5434 -0.5653 14.9366
# 3 42.0428 55.8906 139.4163 -25.8886 -11.4729 9.6523
# 4 -10.0828 -5.5434 -25.8886 35.7868 4.2817 1.4665
# 5 -10.9223 -0.5653 -11.4729 4.2817 42.5155 1.9922
# 6 9.7539 14.9366 9.6523 1.4665 1.9922 26.1159
#
#
#
# Elastic Compliance Matrix: (Units=1/GPa)
#
#
# Indices 1 2 3 4 5 6 
#
# 1 0.009688 -0.003356 -0.001064 0.001251 0.002103 -0.001536
# 2 -0.003356 0.021625 -0.007766 -0.002645 -0.002032 -0.007941
# 3 -0.001064 -0.007766 0.012100 0.006996 0.002193 -0.000193
# 4 0.001251 -0.002645 0.006996 0.033205 -0.001014 -0.003327
# 5 0.002103 -0.002032 0.002193 -0.001014 0.024834 -0.002271
# 6 -0.001536 -0.007941 -0.000193 -0.003327 -0.002271 0.043838
#
#
# Mechanical properties :
#
#
# Convention : Reuss Voigt Hill
#
# Bulk Modulus (GPa) = 52.52164 67.69105 60.10635
# Shear Modulus (GPa) = 28.40784 34.73181 31.56983
#
# Velocity S-wave (km/s) = 3.62809 4.01164 3.82468
# Velocity P-wave (km/s) = 6.47202 7.26794 6.88150
#
# Compressibility (1/GPa) = 0.01903977
#
# Stress axis : x y z
#
# Youngs Moduli (GPa) = 103.22328 46.24354 82.64616
#
# Poissons Ratio (x) = 0.15521 0.08795
# Poissons Ratio (y) = 0.34646 0.64179
# Poissons Ratio (z) = 0.10985 0.35911
#
# Static dielectric constant tensor:
#      x y z
#    x 3.934390 0.374100 -0.373310 
#    y 0.374100 4.333010 -0.310620 
#    z -0.373310 -0.310620 4.409510 
# 
# 
# High freq. dielectric constant tensor:
#      x y z
#    x 1.841900 0.015440 -0.008850 
#    y 0.015440 1.861080 -0.000010 
#    z -0.008850 -0.000010 1.865210 
# 
# From -- ./inp_files/283536.got.cif
#   From: 2010.06.25/outbox.cif.g09.slc.cpg/sg2_142_cif.got.tgz:283536.got - 2010.06.27 13:26:56.
