data_PCOD8008594
_publ_section_title
;
Structure prediction by ZEFSAII (Michael W. Deem and Ramdas Pophale) SiO2 
 PCOD8008594
Probable space group: P -1
;
_chemical_formula_sum "Si O2"
_cell_formula_units_Z 16
_cell_length_a 8.596944
_cell_length_b 16.340872
_cell_length_c 6.677544
_cell_angle_alpha 91.226028
_cell_angle_beta 99.359899
_cell_angle_gamma 131.109341
_cell_volume 686.917250
_symmetry_space_group_name_H-M "P -1"
_symmetry_group_IT_number 2
_symmetry_cell_setting 'triclinic'
loop_
_space_group_symop_operation_xyz
x,y,z
-x,-y,-z
loop_
_atom_site_type_symbol
_atom_site_label
_atom_site_fract_x
_atom_site_fract_y
_atom_site_fract_z
Si Si1 0.780997 0.948580 0.842655
Si Si2 0.273818 0.219213 0.400690
Si Si3 0.331202 0.340315 0.042231
Si Si4 0.366263 0.620854 0.196915
Si Si5 0.329498 0.914089 0.303039
Si Si6 0.941536 0.730348 0.404659
Si Si7 0.890263 0.608978 0.739797
Si Si8 0.359093 0.788423 0.000258
O O1 0.766022 0.892433 0.625430
O O2 0.563578 0.847971 0.907024
O O3 0.792048 0.048593 0.805818
O O4 0.000000 0.000000 0.000000
O O5 0.302538 0.252685 0.175230
O O6 0.467495 0.317020 0.583257
O O7 0.069611 0.194915 0.445268
O O8 0.293196 0.407954 0.171865
O O9 0.557282 0.406854 0.980866
O O10 0.165378 0.285827 0.827003
O O11 0.154537 0.502809 0.235572
O O12 0.318516 0.696430 0.128323
O O13 0.183710 0.802495 0.397263
O O14 0.500000 0.000000 0.500000
O O15 0.418185 0.891207 0.138567
O O16 0.853026 0.619356 0.497617
O O17 0.132463 0.720981 0.838201
#
# Coordination Sequence:
#
# PCOD8008594 Si02
#       8
#     2   2   2   2   2   2   2   2
#     4  12  27  45  76 101 134 190 240 289 357 411
#     4  10  23  43  70 104 139 171 240 293 331 421
#     4  10  20  44  69  99 145 178 230 287 345 408
#     4  11  24  43  71 104 140 187 231 282 353 418
#     4  12  26  45  70 102 142 187 232 295 364 411
#     4  10  23  42  71 101 138 179 233 285 344 419
#     4  11  24  43  72 102 141 188 229 282 357 418
#     4  12  26  47  68 102 148 178 236 293 345 432
#
# _framework density 23.292470999999999
#
# number of rings (size 3 to 8) (size 9 to 14) (size 15 to 20)
#    0.000    1.000    2.500    3.375    5.250    6.000 
#    0.000    1.250    0.000    0.000    0.000    0.000 
#    0.000    0.000    0.000    0.000    0.000    0.000 
#
# Total GULP energy -198224.554102 kJ/mol
# GULP energy per Si atom -12389.034631 kJ/mol
# Density = 2.323946 g / cm^3
# Si number density = 23.292471 Si / 1000 Ang^3
#
#
#
# Elastic Constant Matrix: (Units=GPa)
#
#
# Indices 1 2 3 4 5 6 
#
# 1 73.3971 17.4583 13.0214 -8.9740 10.2553 -4.7947
# 2 17.4583 78.1066 14.7008 -15.3476 -1.7532 -12.2722
# 3 13.0214 14.7008 104.0285 -16.0834 7.3262 -1.8335
# 4 -8.9740 -15.3476 -16.0834 34.5677 0.2872 9.8492
# 5 10.2553 -1.7532 7.3262 0.2872 28.6813 -4.4384
# 6 -4.7947 -12.2722 -1.8335 9.8492 -4.4384 31.7434
#
#
#
# Elastic Compliance Matrix: (Units=1/GPa)
#
#
# Indices 1 2 3 4 5 6 
#
# 1 0.015546 -0.003037 -0.000738 0.002516 -0.005649 -0.000439
# 2 -0.003037 0.015308 -0.001282 0.004094 0.003010 0.004536
# 3 -0.000738 -0.001282 0.010805 0.004829 -0.002915 -0.001889
# 4 0.002516 0.004094 0.004829 0.036406 -0.003729 -0.009575
# 5 -0.005649 0.003010 -0.002915 -0.003729 0.038895 0.006737
# 6 -0.000439 0.004536 -0.001889 -0.009575 0.006737 0.036994
#
#
# Mechanical properties :
#
#
# Convention : Reuss Voigt Hill
#
# Bulk Modulus (GPa) = 31.70106 38.43258 35.06682
# Shear Modulus (GPa) = 28.63980 33.02191 30.83086
#
# Velocity S-wave (km/s) = 3.51033 3.76933 3.64213
# Velocity P-wave (km/s) = 5.48356 5.95648 5.72491
#
# Compressibility (1/GPa) = 0.03154469
#
# Stress axis : x y z
#
# Youngs Moduli (GPa) = 64.32472 65.32536 92.55102
#
# Poissons Ratio (x) = 0.19842 0.06826
# Poissons Ratio (y) = 0.19538 0.11866
# Poissons Ratio (z) = 0.04744 0.08376
#
# Static dielectric constant tensor:
#      x y z
#    x 4.343240 -0.402540 0.092570 
#    y -0.402540 3.047000 0.439490 
#    z 0.092570 0.439490 3.873850 
# 
# 
# High freq. dielectric constant tensor:
#      x y z
#    x 1.926170 -0.006330 -0.002200 
#    y -0.006330 1.915480 -0.010560 
#    z -0.002200 -0.010560 1.925980 
# 
# From -- ./inp_files/47966.got.cif
#   From: 2010.06.25/outbox.cif.g09.slc.cpg/sg2_24_cif.got.tgz:47966.got - 2010.06.27 13:26:56.
