data_PCOD8008797
_publ_section_title
;
Structure prediction by ZEFSAII (Michael W. Deem and Ramdas Pophale) SiO2 
 PCOD8008797
Probable space group: P -1
;
_chemical_formula_sum "Si O2"
_cell_formula_units_Z 16
_cell_length_a 12.444974
_cell_length_b 20.644745
_cell_length_c 11.052236
_cell_angle_alpha 39.504639
_cell_angle_beta 60.614002
_cell_angle_gamma 31.104477
_cell_volume 798.697553
_symmetry_space_group_name_H-M "P -1"
_symmetry_group_IT_number 2
_symmetry_cell_setting 'triclinic'
loop_
_space_group_symop_operation_xyz
x,y,z
-x,-y,-z
loop_
_atom_site_type_symbol
_atom_site_label
_atom_site_fract_x
_atom_site_fract_y
_atom_site_fract_z
Si Si1 0.901333 0.643875 0.020415
Si Si2 0.184827 0.432594 0.410134
Si Si3 0.128412 0.556830 0.779633
Si Si4 0.598232 0.554864 0.571519
Si Si5 0.365869 0.695696 0.127445
Si Si6 0.056312 0.210827 0.672585
Si Si7 0.452116 0.054629 0.807395
Si Si8 0.837557 0.079763 0.852421
O O1 0.859113 0.557295 0.135140
O O2 0.082839 0.525665 0.200848
O O3 0.004315 0.634479 0.865764
O O4 0.648414 0.871916 0.870840
O O5 0.259887 0.490415 0.333613
O O6 0.430716 0.191567 0.608652
O O7 0.000000 0.500000 0.500000
O O8 0.408103 0.389994 0.887794
O O9 0.949432 0.761282 0.508857
O O10 0.550246 0.469323 0.744924
O O11 0.347626 0.794336 0.339050
O O12 0.771656 0.431964 0.536417
O O13 0.275440 0.752826 0.236814
O O14 0.108790 0.914313 0.891091
O O15 0.197428 0.190020 0.708528
O O16 0.155884 0.029049 0.915692
O O17 0.500000 0.000000 0.000000
#
# Coordination Sequence:
#
# PCOD8008797 Si02
#       8
#     2   2   2   2   2   2   2   2
#     4  11  25  44  62  93 124 166 207 254 314 376
#     4  12  22  41  64  91 123 161 205 260 314 358
#     4  11  23  44  63  87 134 164 202 257 313 378
#     4  11  21  38  62  94 125 157 207 256 306 363
#     4  10  22  37  60  93 123 165 203 254 309 362
#     4  11  21  34  60  94 124 160 197 253 316 358
#     4  12  22  36  64  93 122 160 205 256 308 365
#     4  10  21  34  60  97 125 155 207 255 308 366
#
# _framework density 20.032613000000001
#
# number of rings (size 3 to 8) (size 9 to 14) (size 15 to 20)
#    0.000    1.000    5.000    1.875    3.500    1.500 
#    2.250    0.625    0.000    1.500    0.000    0.000 
#    0.000    0.000    0.000    0.000    0.000    0.000 
#
# Total GULP energy -198230.558506 kJ/mol
# GULP energy per Si atom -12389.409907 kJ/mol
# Density = 1.998702 g / cm^3
# Si number density = 20.032613 Si / 1000 Ang^3
#
#
#
# Elastic Constant Matrix: (Units=GPa)
#
#
# Indices 1 2 3 4 5 6 
#
# 1 133.9444 38.7160 49.5236 3.7482 10.1457 -5.3132
# 2 38.7160 71.2254 36.1847 -5.4970 12.7130 -3.3771
# 3 49.5236 36.1847 108.1478 -10.6766 17.3254 -2.6657
# 4 3.7482 -5.4970 -10.6766 28.2218 4.3102 3.0497
# 5 10.1457 12.7130 17.3254 4.3102 33.8904 -5.6485
# 6 -5.3132 -3.3771 -2.6657 3.0497 -5.6485 28.6181
#
#
#
# Elastic Compliance Matrix: (Units=1/GPa)
#
#
# Indices 1 2 3 4 5 6 
#
# 1 0.010127 -0.003993 -0.003844 -0.003948 0.001219 0.001712
# 2 -0.003993 0.019074 -0.003443 0.003673 -0.004688 -0.000128
# 3 -0.003844 -0.003443 0.013600 0.006002 -0.005538 -0.001586
# 4 -0.003948 0.003673 0.006002 0.041039 -0.009481 -0.005985
# 5 0.001219 -0.004688 -0.005538 -0.009481 0.036154 0.007304
# 6 0.001712 -0.000128 -0.001586 -0.005985 0.007304 0.037177
#
#
# Mechanical properties :
#
#
# Convention : Reuss Voigt Hill
#
# Bulk Modulus (GPa) = 49.40697 62.46291 55.93494
# Shear Modulus (GPa) = 26.81273 30.73895 28.77584
#
# Velocity S-wave (km/s) = 3.66246 3.92145 3.79416
# Velocity P-wave (km/s) = 6.52699 7.19389 6.86854
#
# Compressibility (1/GPa) = 0.02024006
#
# Stress axis : x y z
#
# Youngs Moduli (GPa) = 98.74156 52.42855 73.53166
#
# Poissons Ratio (x) = 0.20935 0.28269
# Poissons Ratio (y) = 0.39427 0.25316
# Poissons Ratio (z) = 0.37961 0.18050
#
# Static dielectric constant tensor:
#      x y z
#    x 3.933280 -0.077420 0.011890 
#    y -0.077420 3.454430 -0.344970 
#    z 0.011890 -0.344970 3.728690 
# 
# 
# High freq. dielectric constant tensor:
#      x y z
#    x 1.803500 -0.003980 0.005500 
#    y -0.003980 1.742110 -0.031710 
#    z 0.005500 -0.031710 1.782670 
# 
# From -- ./inp_files/438379.got.cif
#   From: 2010.06.25/outbox.cif.g09.slc.cpg/sg2_220_cif.got.tgz:438379.got - 2010.06.27 13:26:56.
