data_PCOD8008301
_publ_section_title
;
Structure prediction by ZEFSAII (Michael W. Deem and Ramdas Pophale) SiO2 
 PCOD8008301
Probable space group: P -1
;
_chemical_formula_sum "Si O2"
_cell_formula_units_Z 12
_cell_length_a 13.739611
_cell_length_b 9.673265
_cell_length_c 10.584932
_cell_angle_alpha 63.789683
_cell_angle_beta 31.440436
_cell_angle_gamma 50.810187
_cell_volume 551.972961
_symmetry_space_group_name_H-M "P -1"
_symmetry_group_IT_number 2
_symmetry_cell_setting 'triclinic'
loop_
_space_group_symop_operation_xyz
x,y,z
-x,-y,-z
loop_
_atom_site_type_symbol
_atom_site_label
_atom_site_fract_x
_atom_site_fract_y
_atom_site_fract_z
Si Si1 0.743702 0.433421 0.596466
Si Si2 0.698722 0.319632 0.418093
Si Si3 0.945881 0.622303 0.388657
Si Si4 0.821842 0.922215 0.082375
Si Si5 0.384014 0.975000 0.459851
Si Si6 0.746220 0.275917 0.913441
O O1 0.722285 0.351069 0.525555
O O2 0.906767 0.510241 0.368093
O O3 0.819192 0.285265 0.685418
O O4 0.515100 0.613863 0.822019
O O5 0.500000 0.500000 0.500000
O O6 0.644050 0.163154 0.538140
O O7 0.930568 0.261714 0.115635
O O8 0.000000 0.500000 0.500000
O O9 0.153421 0.644451 0.129221
O O10 0.724665 0.827758 0.567792
O O11 0.646368 0.884448 0.228215
O O12 0.743873 0.998474 0.278120
O O13 0.848677 0.063959 0.912887
#
# Coordination Sequence:
#
# PCOD8008301 Si02
#       6
#     2   2   2   2   2   2
#     4  10  23  41  66  99 130 163 217 269 322 379
#     4  12  27  42  62 100 135 168 214 275 328 371
#     4  10  21  40  70  97 122 169 218 260 316 390
#     4  11  24  43  67  92 130 177 219 264 318 388
#     4  11  24  44  69  93 129 175 224 257 322 390
#     4  10  20  42  71  91 126 175 215 259 320 393
#
# _framework density 21.740196999999998
#
# number of rings (size 3 to 8) (size 9 to 14) (size 15 to 20)
#    0.000    1.333    3.333    1.500    4.667    2.667 
#    0.000    0.833    0.000    0.000    0.000    0.000 
#    0.000    0.000    0.000    0.000    0.000    0.000 
#
# Total GULP energy -148745.330044 kJ/mol
# GULP energy per Si atom -12395.444170 kJ/mol
# Density = 2.169072 g / cm^3
# Si number density = 21.740197 Si / 1000 Ang^3
#
#
#
# Elastic Constant Matrix: (Units=GPa)
#
#
# Indices 1 2 3 4 5 6 
#
# 1 158.7829 76.1333 52.7374 -10.3925 -12.3739 23.8174
# 2 76.1333 128.3393 45.8664 -3.2118 -6.7294 -0.3502
# 3 52.7374 45.8664 96.8640 -4.5995 -18.9976 -0.6533
# 4 -10.3925 -3.2118 -4.5995 25.1438 -0.5319 -12.5346
# 5 -12.3739 -6.7294 -18.9976 -0.5319 28.4206 4.1571
# 6 23.8174 -0.3502 -0.6533 -12.5346 4.1571 46.9751
#
#
#
# Elastic Compliance Matrix: (Units=1/GPa)
#
#
# Indices 1 2 3 4 5 6 
#
# 1 0.010881 -0.005268 -0.002987 0.000501 0.002332 -0.005671
# 2 -0.005268 0.011952 -0.003154 0.000199 -0.001999 0.002946
# 3 -0.002987 -0.003154 0.015092 0.002066 0.007852 0.001557
# 4 0.000501 0.000199 0.002066 0.046429 0.000745 0.012099
# 5 0.002332 -0.001999 0.007852 0.000745 0.041660 -0.004576
# 6 -0.005671 0.002946 0.001557 0.012099 -0.004576 0.027840
#
#
# Mechanical properties :
#
#
# Convention : Reuss Voigt Hill
#
# Bulk Modulus (GPa) = 66.19253 81.49558 73.84405
# Shear Modulus (GPa) = 27.51676 34.05782 30.78729
#
# Velocity S-wave (km/s) = 3.56154 3.96230 3.76725
# Velocity P-wave (km/s) = 6.88665 7.64857 7.27759
#
# Compressibility (1/GPa) = 0.01510744
#
# Stress axis : x y z
#
# Youngs Moduli (GPa) = 91.90429 83.66518 66.26061
#
# Poissons Ratio (x) = 0.44075 0.19790
# Poissons Ratio (y) = 0.48415 0.20900
# Poissons Ratio (z) = 0.27448 0.26390
#
# Static dielectric constant tensor:
#      x y z
#    x 4.299450 -0.088330 -0.583140 
#    y -0.088330 4.061480 -0.193820 
#    z -0.583140 -0.193820 4.029800 
# 
# 
# High freq. dielectric constant tensor:
#      x y z
#    x 1.868240 -0.010220 -0.036840 
#    y -0.010220 1.858460 -0.017900 
#    z -0.036840 -0.017900 1.836000 
# 
# From -- ./inp_files/276362.got.cif
#   From: 2010.06.25/outbox.cif.g09.slc.cpg/sg2_139_cif.got.tgz:276362.got - 2010.06.27 13:26:56.
