data_PCOD8008697
_publ_section_title
;
Structure prediction by ZEFSAII (Michael W. Deem and Ramdas Pophale) SiO2 
 PCOD8008697
Probable space group: P -1
;
_chemical_formula_sum "Si O2"
_cell_formula_units_Z 16
_cell_length_a 19.446613
_cell_length_b 13.758485
_cell_length_c 16.403526
_cell_angle_alpha 43.342289
_cell_angle_beta 159.769109
_cell_angle_gamma 146.674931
_cell_volume 795.727634
_symmetry_space_group_name_H-M "P -1"
_symmetry_group_IT_number 2
_symmetry_cell_setting 'triclinic'
loop_
_space_group_symop_operation_xyz
x,y,z
-x,-y,-z
loop_
_atom_site_type_symbol
_atom_site_label
_atom_site_fract_x
_atom_site_fract_y
_atom_site_fract_z
Si Si1 0.601955 0.524193 0.222617
Si Si2 0.853814 0.490016 0.661538
Si Si3 0.144888 0.696996 0.083121
Si Si4 0.542500 0.214717 0.868567
Si Si5 0.826847 0.730717 0.603028
Si Si6 0.413040 0.971499 0.724928
Si Si7 0.887514 0.603948 0.326432
Si Si8 0.282072 0.119303 0.810869
O O1 0.652134 0.417977 0.406563
O O2 0.716831 0.521580 0.267865
O O3 0.750729 0.730237 0.297310
O O4 0.296409 0.424393 0.934537
O O5 0.826794 0.322216 0.776768
O O6 0.773541 0.565036 0.595009
O O7 0.147790 0.646258 0.862956
O O8 0.431524 0.851122 0.269961
O O9 0.000000 0.500000 0.000000
O O10 0.972569 0.758354 0.833335
O O11 0.445789 0.315592 0.654689
O O12 0.419520 0.151191 0.859113
O O13 0.439315 0.038231 0.806481
O O14 0.998027 0.915963 0.623228
O O15 0.116619 0.824862 0.455261
O O16 0.537795 0.871063 0.924814
O O17 0.000000 0.500000 0.500000
#
# Coordination Sequence:
#
# PCOD8008697 Si02
#       8
#     2   2   2   2   2   2   2   2
#     4  11  24  40  62  89 124 158 195 253 304 348
#     4  11  22  38  56  85 124 158 194 248 295 359
#     4   9  19  41  55  84 127 160 195 248 294 358
#     4  12  21  32  60  94 123 156 192 244 317 368
#     4  10  21  33  55  87 126 154 191 238 306 364
#     4  11  21  37  64  86 123 165 197 247 299 357
#     4  11  24  42  64  89 119 158 208 246 296 358
#     4  11  20  35  57  95 125 149 190 253 312 369
#
# _framework density 20.107382000000001
#
# number of rings (size 3 to 8) (size 9 to 14) (size 15 to 20)
#    0.000    1.250    6.250    2.250    1.750    0.500 
#    0.000    0.625    0.000    0.750    0.000    0.000 
#    0.000    0.000    0.000    0.000    0.000    0.000 
#
# Total GULP energy -198308.150878 kJ/mol
# GULP energy per Si atom -12394.259430 kJ/mol
# Density = 2.006162 g / cm^3
# Si number density = 20.107382 Si / 1000 Ang^3
#
#
#
# Elastic Constant Matrix: (Units=GPa)
#
#
# Indices 1 2 3 4 5 6 
#
# 1 71.1334 31.1900 41.0220 -10.3364 -10.3639 4.7065
# 2 31.1900 60.5283 34.5275 -5.7274 -6.0602 14.4757
# 3 41.0220 34.5275 155.0233 -9.4138 -10.1792 8.8408
# 4 -10.3364 -5.7274 -9.4138 35.0880 -0.6495 -6.7975
# 5 -10.3639 -6.0602 -10.1792 -0.6495 29.3336 -10.7585
# 6 4.7065 14.4757 8.8408 -6.7975 -10.7585 21.1470
#
#
#
# Elastic Compliance Matrix: (Units=1/GPa)
#
#
# Indices 1 2 3 4 5 6 
#
# 1 0.021816 -0.010386 -0.003114 0.005904 0.008129 0.009590
# 2 -0.010386 0.027161 -0.002803 -0.003229 -0.006177 -0.019290
# 3 -0.003114 -0.002803 0.008019 0.000820 0.001164 0.000115
# 4 0.005904 -0.003229 0.000820 0.033037 0.008031 0.015259
# 5 0.008129 -0.006177 0.001164 0.008031 0.046623 0.028234
# 6 0.009590 -0.019290 0.000115 0.015259 0.028234 0.077579
#
#
# Mechanical properties :
#
#
# Convention : Reuss Voigt Hill
#
# Bulk Modulus (GPa) = 41.00103 55.57379 48.28741
# Shear Modulus (GPa) = 19.61010 29.11007 24.36008
#
# Velocity S-wave (km/s) = 3.12632 3.80903 3.48444
# Velocity P-wave (km/s) = 5.78508 6.85882 6.34471
#
# Compressibility (1/GPa) = 0.02438963
#
# Stress axis : x y z
#
# Youngs Moduli (GPa) = 45.83821 36.81730 124.70963
#
# Poissons Ratio (x) = 0.38239 0.38838
# Poissons Ratio (y) = 0.47608 0.34953
# Poissons Ratio (z) = 0.14275 0.10319
#
# Static dielectric constant tensor:
#      x y z
#    x 3.602580 0.295320 -0.200090 
#    y 0.295320 3.844080 -0.538050 
#    z -0.200090 -0.538050 4.360320 
# 
# 
# High freq. dielectric constant tensor:
#      x y z
#    x 1.759820 0.009290 0.003400 
#    y 0.009290 1.759210 -0.021710 
#    z 0.003400 -0.021710 1.806070 
# 
# From -- ./inp_files/450304.got.cif
#   From: 2010.06.25/outbox.cif.g09.slc.cpg/sg2_226_cif.got.tgz:450304.got - 2010.06.27 13:26:56.
