data_PCOD8008608
_publ_section_title
;
Structure prediction by ZEFSAII (Michael W. Deem and Ramdas Pophale) SiO2 
 PCOD8008608
Probable space group: P -1
;
_chemical_formula_sum "Si O2"
_cell_formula_units_Z 14
_cell_length_a 15.482735
_cell_length_b 23.819451
_cell_length_c 6.403297
_cell_angle_alpha 79.597361
_cell_angle_beta 107.288175
_cell_angle_gamma 163.255819
_cell_volume 601.374548
_symmetry_space_group_name_H-M "P -1"
_symmetry_group_IT_number 2
_symmetry_cell_setting 'triclinic'
loop_
_space_group_symop_operation_xyz
x,y,z
-x,-y,-z
loop_
_atom_site_type_symbol
_atom_site_label
_atom_site_fract_x
_atom_site_fract_y
_atom_site_fract_z
Si Si1 0.167045 0.192093 0.022936
Si Si2 0.244066 0.027385 0.503425
Si Si3 0.261304 0.877420 0.089893
Si Si4 0.174685 0.478000 0.772969
Si Si5 0.825435 0.703027 0.730657
Si Si6 0.668581 0.228544 0.322573
Si Si7 0.509134 0.773620 0.063788
O O1 0.502426 0.360035 0.180365
O O2 0.227253 0.290293 0.106140
O O3 0.071953 0.141681 0.743914
O O4 0.856790 0.972445 0.058895
O O5 0.521346 0.169368 0.460352
O O6 0.420042 0.183575 0.665297
O O7 0.122277 0.907622 0.665483
O O8 0.136988 0.751142 0.234107
O O9 0.445523 0.038085 0.243767
O O10 0.924155 0.699269 0.871053
O O11 0.500000 0.000000 0.000000
O O12 0.263297 0.572268 0.969466
O O13 0.044526 0.437210 0.511207
O O14 0.500000 0.500000 0.500000
O O15 0.660849 0.269326 0.100632
#
# Coordination Sequence:
#
# PCOD8008608 Si02
#       7
#     2   2   2   2   2   2   2
#     4  10  23  44  68 103 135 175 225 276 338 398
#     4  10  20  44  71  88 135 184 218 272 336 399
#     4  12  26  46  65 104 138 173 228 281 335 392
#     4  12  26  41  71 104 135 176 227 281 334 397
#     4  11  23  40  69  99 136 178 222 274 338 403
#     4  11  24  47  69  94 138 182 222 277 341 399
#     4  10  23  48  70  98 135 181 223 275 338 403
#
# _framework density 23.280003000000001
#
# number of rings (size 3 to 8) (size 9 to 14) (size 15 to 20)
#    0.000    1.143    4.286    3.000    4.000    2.286 
#    5.143    0.000    0.000    0.000    0.000    0.000 
#    0.000    0.000    0.000    0.000    0.000    0.000 
#
# Total GULP energy -173616.447302 kJ/mol
# GULP energy per Si atom -12401.174807 kJ/mol
# Density = 2.322702 g / cm^3
# Si number density = 23.280003 Si / 1000 Ang^3
#
#
#
# Elastic Constant Matrix: (Units=GPa)
#
#
# Indices 1 2 3 4 5 6 
#
# 1 110.6681 43.3100 58.1083 18.1203 -0.2210 13.0352
# 2 43.3100 35.1351 20.8393 10.7899 4.9928 2.2522
# 3 58.1083 20.8393 150.6819 19.1759 -3.7570 20.6046
# 4 18.1203 10.7899 19.1759 36.1038 5.6283 1.9351
# 5 -0.2210 4.9928 -3.7570 5.6283 45.4036 21.8740
# 6 13.0352 2.2522 20.6046 1.9351 21.8740 41.2950
#
#
#
# Elastic Compliance Matrix: (Units=1/GPa)
#
#
# Indices 1 2 3 4 5 6 
#
# 1 0.021572 -0.024174 -0.003615 -0.002256 0.006001 -0.006760
# 2 -0.024174 0.060773 -0.000228 -0.004707 -0.011380 0.010678
# 3 -0.003615 -0.000228 0.009313 -0.003365 0.003762 -0.005328
# 4 -0.002256 -0.004707 -0.003365 0.032711 -0.005859 0.004218
# 5 0.006001 -0.011380 0.003762 -0.005859 0.034544 -0.021174
# 6 -0.006760 0.010678 -0.005328 0.004218 -0.021174 0.039444
#
#
# Mechanical properties :
#
#
# Convention : Reuss Voigt Hill
#
# Bulk Modulus (GPa) = 28.06968 60.11114 44.09041
# Shear Modulus (GPa) = 18.77834 36.17564 27.47699
#
# Velocity S-wave (km/s) = 2.84320 3.94628 3.43925
# Velocity P-wave (km/s) = 4.78142 6.82943 5.89505
#
# Compressibility (1/GPa) = 0.03562563
#
# Stress axis : x y z
#
# Youngs Moduli (GPa) = 46.35647 16.45464 107.38234
#
# Poissons Ratio (x) = 0.39777 0.38814
# Poissons Ratio (y) = 1.12062 0.02443
# Poissons Ratio (z) = 0.16756 0.00374
#
# Static dielectric constant tensor:
#      x y z
#    x 4.715870 -0.189150 -0.072650 
#    y -0.189150 4.048030 0.228280 
#    z -0.072650 0.228280 4.512410 
# 
# 
# High freq. dielectric constant tensor:
#      x y z
#    x 1.922020 0.000000 -0.002460 
#    y 0.000000 1.910150 0.017500 
#    z -0.002460 0.017500 1.936400 
# 
# From -- ./inp_files/65694.got.cif
#   From: 2010.06.25/outbox.cif.g09.slc.cpg/sg2_33_cif.got.tgz:65694.got - 2010.06.27 13:26:56.
