data_PCOD8008537
_publ_section_title
;
Structure prediction by ZEFSAII (Michael W. Deem and Ramdas Pophale) SiO2 
 PCOD8008537
Probable space group: P -1
;
_chemical_formula_sum "Si O2"
_cell_formula_units_Z 16
_cell_length_a 6.759245
_cell_length_b 17.103869
_cell_length_c 9.106471
_cell_angle_alpha 76.545714
_cell_angle_beta 117.724921
_cell_angle_gamma 67.389199
_cell_volume 743.228687
_symmetry_space_group_name_H-M "P -1"
_symmetry_group_IT_number 2
_symmetry_cell_setting 'triclinic'
loop_
_space_group_symop_operation_xyz
x,y,z
-x,-y,-z
loop_
_atom_site_type_symbol
_atom_site_label
_atom_site_fract_x
_atom_site_fract_y
_atom_site_fract_z
Si Si1 0.058563 0.228564 0.162114
Si Si2 0.557449 0.873693 0.137753
Si Si3 0.301654 0.610778 0.565621
Si Si4 0.391290 0.610795 0.267947
Si Si5 0.703102 0.694833 0.400776
Si Si6 0.500720 0.742732 0.629232
Si Si7 0.051645 0.141368 0.498149
Si Si8 0.575902 0.954765 0.813378
O O1 0.248461 0.268773 0.191775
O O2 0.004496 0.213548 0.317248
O O3 0.191824 0.121315 0.183143
O O4 0.783832 0.308626 0.950857
O O5 0.523706 0.785042 0.183887
O O6 0.856257 0.827431 0.337277
O O7 0.346209 0.976256 0.108412
O O8 0.542084 0.893648 0.952116
O O9 0.232062 0.637071 0.356996
O O10 0.519028 0.494518 0.712168
O O11 0.451128 0.657146 0.670972
O O12 0.025834 0.644118 0.539976
O O13 0.659763 0.610116 0.387201
O O14 0.559250 0.750533 0.477790
O O15 0.231297 0.842440 0.557989
O O16 0.286620 0.026490 0.595868
#
# Coordination Sequence:
#
# PCOD8008537 Si02
#       8
#     2   2   2   2   2   2   2   2
#     4  12  23  39  59  97 124 161 200 251 307 359
#     4   9  18  38  63  88 117 162 200 249 291 360
#     4  10  20  44  63  91 120 161 204 253 304 364
#     4  10  25  37  65  93 123 156 206 256 303 360
#     4  11  20  40  66  88 119 164 206 250 301 364
#     4  11  22  38  65  85 125 167 196 248 310 363
#     4  10  21  40  58  87 127 163 198 246 303 355
#     4   9  20  37  64  86 127 159 204 250 294 362
#
# _framework density 21.527694
#
# number of rings (size 3 to 8) (size 9 to 14) (size 15 to 20)
#    0.750    1.000    2.500    1.500    1.750    3.000 
#    0.000    6.250    0.000    0.000    0.000    0.000 
#    0.000    0.000    0.000    0.000    0.000    0.000 
#
# Total GULP energy -198213.409083 kJ/mol
# GULP energy per Si atom -12388.338068 kJ/mol
# Density = 2.147870 g / cm^3
# Si number density = 21.527694 Si / 1000 Ang^3
#
#
#
# Elastic Constant Matrix: (Units=GPa)
#
#
# Indices 1 2 3 4 5 6 
#
# 1 106.7882 22.1851 30.8472 -2.6533 -1.5323 -11.4054
# 2 22.1851 62.7948 13.2839 -5.5704 -4.1192 -9.8566
# 3 30.8472 13.2839 88.4739 -8.3773 -5.7330 -13.5985
# 4 -2.6533 -5.5704 -8.3773 21.4121 2.8026 5.3953
# 5 -1.5323 -4.1192 -5.7330 2.8026 22.0289 0.1490
# 6 -11.4054 -9.8566 -13.5985 5.3953 0.1490 26.4185
#
#
#
# Elastic Compliance Matrix: (Units=1/GPa)
#
#
# Indices 1 2 3 4 5 6 
#
# 1 0.011130 -0.003033 -0.003221 -0.001174 -0.000497 0.002258
# 2 -0.003033 0.018254 -0.000542 0.002632 0.002695 0.004670
# 3 -0.003221 -0.000542 0.013734 0.003258 0.002802 0.004795
# 4 -0.001174 0.002632 0.003258 0.051288 -0.005210 -0.008293
# 5 -0.000497 0.002695 0.002802 -0.005210 0.047236 0.003031
# 6 0.002258 0.004670 0.004795 -0.008293 0.003031 0.044714
#
#
# Mechanical properties :
#
#
# Convention : Reuss Voigt Hill
#
# Bulk Modulus (GPa) = 33.86840 43.40993 38.63917
# Shear Modulus (GPa) = 23.83326 26.75463 25.29394
#
# Velocity S-wave (km/s) = 3.33092 3.52916 3.43147
# Velocity P-wave (km/s) = 5.52811 6.06755 5.80410
#
# Compressibility (1/GPa) = 0.02952604
#
# Stress axis : x y z
#
# Youngs Moduli (GPa) = 89.84854 54.78175 72.80954
#
# Poissons Ratio (x) = 0.16615 0.23456
# Poissons Ratio (y) = 0.27251 0.03944
# Poissons Ratio (z) = 0.28945 0.02968
#
# Static dielectric constant tensor:
#      x y z
#    x 3.801540 0.048470 -0.118140 
#    y 0.048470 4.008740 -0.060290 
#    z -0.118140 -0.060290 3.599160 
# 
# 
# High freq. dielectric constant tensor:
#      x y z
#    x 1.833770 0.000150 -0.013330 
#    y 0.000150 1.852140 -0.005180 
#    z -0.013330 -0.005180 1.822390 
# 
# From -- ./inp_files/138887.got.cif
#   From: 2010.06.25/outbox.cif.g09.slc.cpg/sg2_70_cif.got.tgz:138887.got - 2010.06.27 13:26:56.
