data_PCOD8008804
_publ_section_title
;
Structure prediction by ZEFSAII (Michael W. Deem and Ramdas Pophale) SiO2 
 PCOD8008804
Probable space group: P -1
;
_chemical_formula_sum "Si O2"
_cell_formula_units_Z 14
_cell_length_a 5.283113
_cell_length_b 23.864069
_cell_length_c 14.523856
_cell_angle_alpha 158.162346
_cell_angle_beta 77.431961
_cell_angle_gamma 100.546434
_cell_volume 663.907967
_symmetry_space_group_name_H-M "P -1"
_symmetry_group_IT_number 2
_symmetry_cell_setting 'triclinic'
loop_
_space_group_symop_operation_xyz
x,y,z
-x,-y,-z
loop_
_atom_site_type_symbol
_atom_site_label
_atom_site_fract_x
_atom_site_fract_y
_atom_site_fract_z
Si Si1 0.793142 0.834499 0.180035
Si Si2 0.324036 0.020725 0.206378
Si Si3 0.568013 0.316656 0.609840
Si Si4 0.767640 0.189748 0.750501
Si Si5 0.189966 0.109701 0.934369
Si Si6 0.222339 0.596937 0.088469
Si Si7 0.885551 0.147782 0.182729
O O1 0.534494 0.765957 0.137481
O O2 0.048087 0.773339 0.121471
O O3 0.784290 0.015282 0.456766
O O4 0.805275 0.784560 0.995194
O O5 0.358840 0.189275 0.424318
O O6 0.528364 0.973423 0.198461
O O7 0.358514 0.905524 0.940720
O O8 0.027786 0.014457 0.256796
O O9 0.442209 0.481939 0.851385
O O10 0.798796 0.280346 0.462373
O O11 0.668414 0.305638 0.689295
O O12 0.872695 0.289208 0.810390
O O13 0.101701 0.203780 0.177538
O O14 0.000000 0.500000 0.000000
O O15 0.000000 0.000000 0.000000
#
# Coordination Sequence:
#
# PCOD8008804 Si02
#       7
#     2   2   2   2   2   2   2
#     4  10  21  40  65  89 119 164 210 283 307 361
#     4  10  21  34  61  94 130 158 203 264 317 374
#     4  11  23  40  58  92 132 173 211 248 330 385
#     4  10  23  40  62  89 122 164 222 257 318 363
#     4  10  21  34  62  96 124 155 201 269 327 365
#     4  11  28  40  63  91 133 185 203 257 314 408
#     4  10  22  36  62  98 129 167 206 275 321 376
#
# _framework density 21.087261999999999
#
# number of rings (size 3 to 8) (size 9 to 14) (size 15 to 20)
#    0.857    0.857    1.429    2.143   10.000    1.143 
#    0.000    0.000    0.000    1.714    0.000    0.000 
#    0.000    0.000    0.000    0.000    0.000    0.000 
#
# Total GULP energy -173458.213788 kJ/mol
# GULP energy per Si atom -12389.872413 kJ/mol
# Density = 2.103927 g / cm^3
# Si number density = 21.087262 Si / 1000 Ang^3
#
#
#
# Elastic Constant Matrix: (Units=GPa)
#
#
# Indices 1 2 3 4 5 6 
#
# 1 125.0906 36.3377 18.8102 0.4329 2.2907 -13.1456
# 2 36.3377 133.4631 31.6100 -2.9289 -6.3058 -8.2842
# 3 18.8102 31.6100 64.2992 -16.3248 -4.8139 -4.1482
# 4 0.4329 -2.9289 -16.3248 30.1659 6.5962 -0.1463
# 5 2.2907 -6.3058 -4.8139 6.5962 13.8147 2.1020
# 6 -13.1456 -8.2842 -4.1482 -0.1463 2.1020 38.1504
#
#
#
# Elastic Compliance Matrix: (Units=1/GPa)
#
#
# Indices 1 2 3 4 5 6 
#
# 1 0.009226 -0.002057 -0.001921 -0.000651 -0.003238 0.002699
# 2 -0.002057 0.009216 -0.004145 -0.002204 0.004063 0.000610
# 3 -0.001921 -0.004145 0.020999 0.010899 0.000427 0.000739
# 4 -0.000651 -0.002204 0.010899 0.042733 -0.017752 0.001624
# 5 -0.003238 0.004063 0.000427 -0.017752 0.084148 -0.004892
# 6 0.002699 0.000610 0.000739 0.001624 -0.004892 0.027631
#
#
# Mechanical properties :
#
#
# Convention : Reuss Voigt Hill
#
# Bulk Modulus (GPa) = 43.11356 55.15205 49.13280
# Shear Modulus (GPa) = 22.94316 32.16586 27.55451
#
# Velocity S-wave (km/s) = 3.30208 3.90983 3.61874
# Velocity P-wave (km/s) = 5.91845 6.82593 6.38832
#
# Compressibility (1/GPa) = 0.02319456
#
# Stress axis : x y z
#
# Youngs Moduli (GPa) = 108.39217 108.50926 47.62121
#
# Poissons Ratio (x) = 0.22315 0.09150
# Poissons Ratio (y) = 0.22291 0.19739
# Poissons Ratio (z) = 0.20827 0.44978
#
# Static dielectric constant tensor:
#      x y z
#    x 3.959600 -0.058620 0.041390 
#    y -0.058620 3.909130 -0.334080 
#    z 0.041390 -0.334080 3.480140 
# 
# 
# High freq. dielectric constant tensor:
#      x y z
#    x 1.836920 -0.004590 0.003850 
#    y -0.004590 1.830460 -0.021170 
#    z 0.003850 -0.021170 1.774260 
# 
# From -- ./inp_files/486000.got.cif
#   From: 2010.06.25/outbox.cif.g09.slc.cpg/sg2_243_cif.got.tgz:486000.got - 2010.06.27 13:26:56.
