data_PCOD8008834
_publ_section_title
;
Structure prediction by ZEFSAII (Michael W. Deem and Ramdas Pophale) SiO2 
 PCOD8008834
Probable space group: P -1
;
_chemical_formula_sum "Si O2"
_cell_formula_units_Z 16
_cell_length_a 14.142648
_cell_length_b 9.057426
_cell_length_c 17.844432
_cell_angle_alpha 117.521428
_cell_angle_beta 149.838749
_cell_angle_gamma 81.837994
_cell_volume 831.129649
_symmetry_space_group_name_H-M "P -1"
_symmetry_group_IT_number 2
_symmetry_cell_setting 'triclinic'
loop_
_space_group_symop_operation_xyz
x,y,z
-x,-y,-z
loop_
_atom_site_type_symbol
_atom_site_label
_atom_site_fract_x
_atom_site_fract_y
_atom_site_fract_z
Si Si1 0.403707 0.556049 0.878825
Si Si2 0.453565 0.929151 0.070848
Si Si3 0.031167 0.878825 0.556048
Si Si4 0.985259 0.892955 0.107046
Si Si5 0.830447 0.610887 0.804100
Si Si6 0.584539 0.804099 0.610886
Si Si7 0.208782 0.121566 0.878433
Si Si8 0.740020 0.085715 0.914285
O O1 0.170266 0.360189 0.639811
O O2 0.500000 0.500000 0.000000
O O3 0.353847 0.716998 0.910671
O O4 0.597213 0.656757 0.970291
O O5 0.402718 0.885391 0.114609
O O6 0.726178 0.089329 0.283002
O O7 0.331517 0.024991 0.975008
O O8 0.029834 0.970290 0.656756
O O9 0.000000 0.000000 0.500000
O O10 0.934264 0.849716 0.150285
O O11 0.891003 0.682681 0.948951
O O12 0.259372 0.051048 0.317320
O O13 0.858460 0.989021 0.010982
O O14 0.698353 0.698353 0.698352
O O15 0.671677 0.365183 0.634818
O O16 0.062762 0.696148 0.935643
O O17 0.569027 0.935639 0.696147
#
# Coordination Sequence:
#
# PCOD8008834 Si02
#       8
#     2   2   2   2   2   2   2   2
#     4  11  21  37  56  73 102 141 179 218 267 321
#     4  10  21  35  54  83 111 134 175 227 266 305
#     4  11  21  37  56  73 102 141 179 218 267 321
#     4   8  15  27  42  69 107 136 161 207 259 301
#     4   8  13  23  42  67 101 139 167 196 249 311
#     4   8  13  23  42  67 101 139 167 196 249 311
#     4  10  21  35  54  83 111 134 175 227 266 305
#     4   8  15  27  42  69 107 136 161 207 259 301
#
# _framework density 19.250907999999999
#
# number of rings (size 3 to 8) (size 9 to 14) (size 15 to 20)
#    0.000    2.750    2.500    3.000    0.000    4.000 
#    0.000    5.000    0.000    0.000    0.000    7.000 
#    0.000    0.000    0.000    0.000    0.000    0.000 
#
# Total GULP energy -198335.053400 kJ/mol
# GULP energy per Si atom -12395.940838 kJ/mol
# Density = 1.920709 g / cm^3
# Si number density = 19.250908 Si / 1000 Ang^3
#
#
#
# Elastic Constant Matrix: (Units=GPa)
#
#
# Indices 1 2 3 4 5 6 
#
# 1 175.0619 18.5673 75.5583 25.9334 -15.6669 28.7085
# 2 18.5673 36.1863 27.0361 11.3460 -0.2660 17.8117
# 3 75.5583 27.0361 166.2733 46.8745 -6.4119 14.5961
# 4 25.9334 11.3460 46.8745 34.8009 7.1478 2.7985
# 5 -15.6669 -0.2660 -6.4119 7.1478 17.7226 0.2989
# 6 28.7085 17.8117 14.5961 2.7985 0.2989 15.4276
#
#
#
# Elastic Compliance Matrix: (Units=1/GPa)
#
#
# Indices 1 2 3 4 5 6 
#
# 1 0.021866 0.036695 0.000697 -0.029716 0.033449 -0.078972
# 2 0.036695 0.136768 0.003533 -0.073377 0.069033 -0.217558
# 3 0.000697 0.003533 0.012600 -0.020333 0.013662 -0.013872
# 4 -0.029716 -0.073377 -0.020333 0.107337 -0.080401 0.141339
# 5 0.033449 0.069033 0.013662 -0.080401 0.126809 -0.142744
# 6 -0.078972 -0.217558 -0.013872 0.141339 -0.142744 0.453207
#
#
# Mechanical properties :
#
#
# Convention : Reuss Voigt Hill
#
# Bulk Modulus (GPa) = 3.95128 68.87166 36.41147
# Shear Modulus (GPa) = 5.80654 30.68086 18.24370
#
# Velocity S-wave (km/s) = 1.73862 3.99649 3.08178
# Velocity P-wave (km/s) = 2.46726 7.55972 5.62302
#
# Compressibility (1/GPa) = 0.25308263
#
# Stress axis : x y z
#
# Youngs Moduli (GPa) = 45.73324 7.31163 79.36653
#
# Poissons Ratio (x) = -0.26830 -0.05530
# Poissons Ratio (y) = -1.67818 -0.28037
# Poissons Ratio (z) = -0.03187 -0.02583
#
# Static dielectric constant tensor:
#      x y z
#    x 3.976060 0.143350 -0.106850 
#    y 0.143350 3.082790 0.079250 
#    z -0.106850 0.079250 3.280710 
# 
# 
# High freq. dielectric constant tensor:
#      x y z
#    x 1.755740 0.011800 -0.004960 
#    y 0.011800 1.713400 0.015140 
#    z -0.004960 0.015140 1.747280 
# 
# From -- ./inp_files/207559.got.cif
#   From: 2010.06.25/outbox.cif.g09.slc.cpg/sg2_104_cif.got.tgz:207559.got - 2010.06.27 13:26:56.
