data_PCOD8008874
_publ_section_title
;
Structure prediction by ZEFSAII (Michael W. Deem and Ramdas Pophale) SiO2 
 PCOD8008874
Probable space group: P -1
;
_chemical_formula_sum "Si O2"
_cell_formula_units_Z 16
_cell_length_a 19.246177
_cell_length_b 26.260637
_cell_length_c 11.869660
_cell_angle_alpha 34.947242
_cell_angle_beta 146.654597
_cell_angle_gamma 163.959153
_cell_volume 905.596539
_symmetry_space_group_name_H-M "P -1"
_symmetry_group_IT_number 2
_symmetry_cell_setting 'triclinic'
loop_
_space_group_symop_operation_xyz
x,y,z
-x,-y,-z
loop_
_atom_site_type_symbol
_atom_site_label
_atom_site_fract_x
_atom_site_fract_y
_atom_site_fract_z
Si Si1 0.751364 0.526356 0.025060
Si Si2 0.048269 0.163428 0.281086
Si Si3 0.766068 0.379226 0.158516
Si Si4 0.112732 0.715007 0.363282
Si Si5 0.566945 0.442368 0.159668
Si Si6 0.211367 0.651087 0.105152
Si Si7 0.651461 0.796275 0.510772
Si Si8 0.584503 0.938405 0.917148
O O1 0.647509 0.394117 0.029937
O O2 0.528800 0.406090 0.038569
O O3 0.009997 0.642577 0.225799
O O4 0.826679 0.666957 0.813692
O O5 0.279116 0.240194 0.415019
O O6 0.878191 0.012236 0.424214
O O7 0.865578 0.069466 0.094306
O O8 0.800511 0.325354 0.397358
O O9 0.561843 0.220369 0.075939
O O10 0.050557 0.583217 0.121023
O O11 0.873318 0.610232 0.302401
O O12 0.366565 0.937478 0.303582
O O13 0.376009 0.256398 0.303700
O O14 0.500000 0.500000 0.000000
O O15 0.373606 0.662853 0.334151
O O16 0.411946 0.846411 0.965533
O O17 0.000000 0.500000 0.000000
#
# Coordination Sequence:
#
# PCOD8008874 Si02
#       8
#     2   2   2   2   2   2   2   2
#     4   9  19  30  47  74 103 125 164 207 250 288
#     4   9  18  32  52  76  92 125 172 204 242 289
#     4  11  18  31  49  72 105 133 158 203 256 292
#     4   9  18  30  48  73  97 131 173 197 239 299
#     4  10  17  30  52  76  95 125 170 210 233 290
#     4   9  18  30  49  74  98 130 164 199 243 292
#     4  10  16  31  55  74  92 127 172 209 232 286
#     4   9  18  32  48  71 101 131 168 202 237 291
#
# _framework density 17.667911
#
# number of rings (size 3 to 8) (size 9 to 14) (size 15 to 20)
#    0.750    1.750    2.500    0.750    0.000    0.000 
#    0.000    6.875    0.000   15.000    0.000    0.000 
#    0.000    0.000    0.000    0.000    0.000    0.000 
#
# Total GULP energy -198215.551483 kJ/mol
# GULP energy per Si atom -12388.471968 kJ/mol
# Density = 1.762770 g / cm^3
# Si number density = 17.667911 Si / 1000 Ang^3
#
#
#
# Elastic Constant Matrix: (Units=GPa)
#
#
# Indices 1 2 3 4 5 6 
#
# 1 97.4329 38.4360 36.1566 -25.9953 3.7743 5.1827
# 2 38.4360 56.3729 26.2920 -26.5389 -2.3745 5.4909
# 3 36.1566 26.2920 79.4040 -35.3565 -1.9283 7.4497
# 4 -25.9953 -26.5389 -35.3565 37.8040 8.6115 -3.0149
# 5 3.7743 -2.3745 -1.9283 8.6115 25.6958 -5.7731
# 6 5.1827 5.4909 7.4497 -3.0149 -5.7731 25.0046
#
#
#
# Elastic Compliance Matrix: (Units=1/GPa)
#
#
# Indices 1 2 3 4 5 6 
#
# 1 0.015576 -0.007640 -0.002987 0.003518 -0.004694 -0.001320
# 2 -0.007640 0.031192 0.001795 0.018685 -0.003079 -0.004259
# 3 -0.002987 0.001795 0.023691 0.022368 -0.006374 -0.005608
# 4 0.003518 0.018685 0.022368 0.067136 -0.021490 -0.008363
# 5 -0.004694 -0.003079 -0.006374 -0.021490 0.048791 0.012222
# 6 -0.001320 -0.004259 -0.005608 -0.008363 0.012222 0.044686
#
#
# Mechanical properties :
#
#
# Convention : Reuss Voigt Hill
#
# Bulk Modulus (GPa) = 18.94076 48.33100 33.63588
# Shear Modulus (GPa) = 18.77337 26.52258 22.64797
#
# Velocity S-wave (km/s) = 3.26324 3.87870 3.58421
# Velocity P-wave (km/s) = 4.99420 6.89012 6.01730
#
# Compressibility (1/GPa) = 0.05279620
#
# Stress axis : x y z
#
# Youngs Moduli (GPa) = 64.19967 32.05911 42.21086
#
# Poissons Ratio (x) = 0.24494 0.12606
# Poissons Ratio (y) = 0.49050 -0.07578
# Poissons Ratio (z) = 0.19173 -0.05755
#
# Static dielectric constant tensor:
#      x y z
#    x 3.198080 0.445080 -0.177810 
#    y 0.445080 3.302370 -0.301890 
#    z -0.177810 -0.301890 3.430900 
# 
# 
# High freq. dielectric constant tensor:
#      x y z
#    x 1.658490 0.029630 -0.007270 
#    y 0.029630 1.660010 -0.020360 
#    z -0.007270 -0.020360 1.689280 
# 
# From -- ./inp_files/467285.got.cif
#   From: 2010.06.25/outbox.cif.g09.slc.cpg/sg2_234_cif.got.tgz:467285.got - 2010.06.27 13:26:56.
