data_PCOD8008868
_publ_section_title
;
Structure prediction by ZEFSAII (Michael W. Deem and Ramdas Pophale) SiO2 
 PCOD8008868
Probable space group: P -1
;
_chemical_formula_sum "Si O2"
_cell_formula_units_Z 16
_cell_length_a 12.464012
_cell_length_b 12.415920
_cell_length_c 23.906889
_cell_angle_alpha 153.344571
_cell_angle_beta 28.173606
_cell_angle_gamma 145.181583
_cell_volume 773.995294
_symmetry_space_group_name_H-M "P -1"
_symmetry_group_IT_number 2
_symmetry_cell_setting 'triclinic'
loop_
_space_group_symop_operation_xyz
x,y,z
-x,-y,-z
loop_
_atom_site_type_symbol
_atom_site_label
_atom_site_fract_x
_atom_site_fract_y
_atom_site_fract_z
Si Si1 0.924946 0.114789 0.458380
Si Si2 0.546615 0.785482 0.547727
Si Si3 0.780542 0.871961 0.179566
Si Si4 0.646163 0.343055 0.115125
Si Si5 0.278980 0.959342 0.959192
Si Si6 0.062391 0.157158 0.784796
Si Si7 0.399046 0.227669 0.354707
Si Si8 0.631915 0.530945 0.794565
O O1 0.835213 0.371559 0.623533
O O2 0.164447 0.124256 0.383836
O O3 0.746910 0.901985 0.468882
O O4 0.951811 0.052000 0.351957
O O5 0.476404 0.507642 0.434006
O O6 0.638269 0.815779 0.582748
O O7 0.321983 0.912503 0.703094
O O8 0.843367 0.946871 0.249645
O O9 0.601894 0.622128 0.144147
O O10 0.012253 0.831115 0.021698
O O11 0.582743 0.162631 0.112576
O O12 0.765008 0.605267 0.204653
O O13 0.414212 0.368638 0.199579
O O14 0.812921 0.231653 0.943676
O O15 0.399311 0.918543 0.826306
O O16 0.287249 0.246177 0.097817
#
# Coordination Sequence:
#
# PCOD8008868 Si02
#       8
#     2   2   2   2   2   2   2   2
#     4  11  22  39  60  85 117 150 186 235 284 334
#     4  10  23  43  60  81 114 149 191 240 279 331
#     4   9  21  40  58  84 117 149 186 233 283 332
#     4   9  18  34  54  84 119 151 184 227 279 336
#     4  11  21  36  58  84 115 150 188 234 279 332
#     4   9  18  34  60  86 114 149 186 227 283 343
#     4  11  24  39  61  85 109 151 197 232 281 335
#     4  10  21  35  56  84 119 151 186 229 279 343
#
# _framework density 20.671959999999999
#
# number of rings (size 3 to 8) (size 9 to 14) (size 15 to 20)
#    0.000    2.000    0.000    3.750    0.000    8.000 
#    0.000    6.250    0.000    0.000    0.000    0.000 
#    0.000    0.000    0.000    0.000    0.000    0.000 
#
# Total GULP energy -198462.412211 kJ/mol
# GULP energy per Si atom -12403.900763 kJ/mol
# Density = 2.062491 g / cm^3
# Si number density = 20.671960 Si / 1000 Ang^3
#
#
#
# Elastic Constant Matrix: (Units=GPa)
#
#
# Indices 1 2 3 4 5 6 
#
# 1 46.9660 17.9722 4.9856 -2.4174 -18.8785 1.2683
# 2 17.9722 31.8152 13.4424 5.6036 -9.5018 -2.4564
# 3 4.9856 13.4424 64.0249 2.4980 -14.3035 0.4500
# 4 -2.4174 5.6036 2.4980 34.3962 0.7815 -6.4551
# 5 -18.8785 -9.5018 -14.3035 0.7815 23.1977 -0.4825
# 6 1.2683 -2.4564 0.4500 -6.4551 -0.4825 21.4480
#
#
#
# Elastic Compliance Matrix: (Units=1/GPa)
#
#
# Indices 1 2 3 4 5 6 
#
# 1 0.038961 -0.017226 0.006859 0.003907 0.028695 -0.002599
# 2 -0.017226 0.046285 -0.008049 -0.007371 0.000315 0.004277
# 3 0.006859 -0.008049 0.020066 -0.000279 0.014636 -0.001503
# 4 0.003907 -0.007371 -0.000279 0.032204 -0.000918 0.008602
# 5 0.028695 0.000315 0.014636 -0.000918 0.075633 -0.000542
# 6 -0.002599 0.004277 -0.001503 0.008602 -0.000542 0.049876
#
#
# Mechanical properties :
#
#
# Convention : Reuss Voigt Hill
#
# Bulk Modulus (GPa) = 14.60248 23.95629 19.27938
# Shear Modulus (GPa) = 15.49511 22.90213 19.19862
#
# Velocity S-wave (km/s) = 2.74080 3.33210 3.05081
# Velocity P-wave (km/s) = 4.13464 5.13982 4.66439
#
# Compressibility (1/GPa) = 0.06848154
#
# Stress axis : x y z
#
# Youngs Moduli (GPa) = 25.66669 21.60513 49.83595
#
# Poissons Ratio (x) = 0.37217 -0.34183
# Poissons Ratio (y) = 0.44213 0.40111
# Poissons Ratio (z) = -0.17605 0.17389
#
# Static dielectric constant tensor:
#      x y z
#    x 3.634130 0.000050 -0.155940 
#    y 0.000050 3.760020 0.039460 
#    z -0.155940 0.039460 3.656820 
# 
# 
# High freq. dielectric constant tensor:
#      x y z
#    x 1.798670 0.004690 -0.011490 
#    y 0.004690 1.814860 0.004100 
#    z -0.011490 0.004100 1.802690 
# 
# From -- ./inp_files/185883.got.cif
#   From: 2010.06.25/outbox.cif.g09.slc.cpg/sg2_93_cif.got.tgz:185883.got - 2010.06.27 13:26:56.
