data_PCOD8008482
_publ_section_title
;
Structure prediction by ZEFSAII (Michael W. Deem and Ramdas Pophale) SiO2 
 PCOD8008482
Probable space group: P -1
;
_chemical_formula_sum "Si O2"
_cell_formula_units_Z 14
_cell_length_a 11.716686
_cell_length_b 7.386906
_cell_length_c 17.710299
_cell_angle_alpha 70.299417
_cell_angle_beta 157.032365
_cell_angle_gamma 108.176577
_cell_volume 563.111093
_symmetry_space_group_name_H-M "P -1"
_symmetry_group_IT_number 2
_symmetry_cell_setting 'triclinic'
loop_
_space_group_symop_operation_xyz
x,y,z
-x,-y,-z
loop_
_atom_site_type_symbol
_atom_site_label
_atom_site_fract_x
_atom_site_fract_y
_atom_site_fract_z
Si Si1 0.266296 0.256351 0.724013
Si Si2 0.028085 0.021793 0.835360
Si Si3 0.663718 0.146999 0.223098
Si Si4 0.207361 0.614883 0.285979
Si Si5 0.032958 0.204049 0.028460
Si Si6 0.846253 0.264266 0.163072
Si Si7 0.345209 0.650304 0.652493
O O1 0.364045 0.421802 0.702253
O O2 0.966060 0.296427 0.583332
O O3 0.222945 0.071285 0.669677
O O4 0.515085 0.220927 0.942020
O O5 0.788150 0.179207 0.695192
O O6 0.956522 0.910314 0.728673
O O7 0.322488 0.144811 0.994027
O O8 0.068557 0.833499 0.942427
O O9 0.855839 0.251457 0.260759
O O10 0.697479 0.267215 0.301572
O O11 0.500000 0.500000 0.500000
O O12 0.940643 0.478742 0.167578
O O13 0.162493 0.650390 0.162625
O O14 0.372906 0.268413 0.229822
O O15 0.000000 0.000000 0.000000
#
# Coordination Sequence:
#
# PCOD8008482 Si02
#       7
#     2   2   2   2   2   2   2
#     4  10  22  39  64  99 129 169 226 266 335 395
#     4  10  22  43  70  94 134 178 221 280 331 392
#     4  11  22  41  68  95 139 176 216 271 341 398
#     4  11  24  44  66 100 133 177 226 273 344 397
#     4  10  20  43  70  92 134 175 222 278 331 390
#     4  11  24  44  66  96 138 176 220 271 341 400
#     4  11  21  41  66  98 131 172 222 279 327 394
#
# _framework density 24.861878999999998
#
# number of rings (size 3 to 8) (size 9 to 14) (size 15 to 20)
#    0.000    1.429    4.286    2.143    0.000    6.857 
#    5.143    2.857    0.000    0.000    0.000    0.000 
#    0.000    0.000    0.000    0.000    0.000    0.000 
#
# Total GULP energy -173470.962445 kJ/mol
# GULP energy per Si atom -12390.783032 kJ/mol
# Density = 2.480529 g / cm^3
# Si number density = 24.861879 Si / 1000 Ang^3
#
#
#
# Elastic Constant Matrix: (Units=GPa)
#
#
# Indices 1 2 3 4 5 6 
#
# 1 98.8363 28.8402 0.3649 -3.3700 2.9541 11.0320
# 2 28.8402 131.8403 22.5750 -11.7260 -2.4187 17.0900
# 3 0.3649 22.5750 89.4366 -10.1341 6.1368 8.3249
# 4 -3.3700 -11.7260 -10.1341 41.8851 -0.3746 9.2576
# 5 2.9541 -2.4187 6.1368 -0.3746 13.9170 4.3345
# 6 11.0320 17.0900 8.3249 9.2576 4.3345 32.1739
#
#
#
# Elastic Compliance Matrix: (Units=1/GPa)
#
#
# Indices 1 2 3 4 5 6 
#
# 1 0.011192 -0.002179 0.001074 0.001192 -0.002263 -0.002996
# 2 -0.002179 0.009445 -0.001828 0.003253 0.004667 -0.005362
# 3 0.001074 -0.001828 0.012625 0.003225 -0.005122 -0.002902
# 4 0.001192 0.003253 0.003225 0.028240 0.003243 -0.011534
# 5 -0.002263 0.004667 -0.005122 0.003243 0.079224 -0.011984
# 6 -0.002996 -0.005362 -0.002902 -0.011534 -0.011984 0.040641
#
#
# Mechanical properties :
#
#
# Convention : Reuss Voigt Hill
#
# Bulk Modulus (GPa) = 36.50236 47.07483 41.78859
# Shear Modulus (GPa) = 25.46274 35.48405 30.47340
#
# Velocity S-wave (km/s) = 3.20373 3.78199 3.50481
# Velocity P-wave (km/s) = 5.32909 6.16822 5.76394
#
# Compressibility (1/GPa) = 0.02739549
#
# Stress axis : x y z
#
# Youngs Moduli (GPa) = 89.34637 105.88090 79.20771
#
# Poissons Ratio (x) = 0.23075 -0.08504
# Poissons Ratio (y) = 0.19471 0.14476
# Poissons Ratio (z) = -0.09593 0.19351
#
# Static dielectric constant tensor:
#      x y z
#    x 3.209160 -0.487190 0.566150 
#    y -0.487190 4.600140 0.252250 
#    z 0.566150 0.252250 4.418160 
# 
# 
# High freq. dielectric constant tensor:
#      x y z
#    x 1.968900 0.002330 0.008310 
#    y 0.002330 2.012280 0.001920 
#    z 0.008310 0.001920 1.977840 
# 
# From -- ./inp_files/594094.got.cif
#   From: 2010.06.25/outbox.cif.g09.slc.cpg/sg2_298_cif.got.tgz:594094.got - 2010.06.27 13:26:56.
