data_PCOD8008607
_publ_section_title
;
Structure prediction by ZEFSAII (Michael W. Deem and Ramdas Pophale) SiO2 
 PCOD8008607
Probable space group: P -1
;
_chemical_formula_sum "Si O2"
_cell_formula_units_Z 16
_cell_length_a 13.787752
_cell_length_b 6.452904
_cell_length_c 14.901771
_cell_angle_alpha 85.100492
_cell_angle_beta 37.029917
_cell_angle_gamma 101.841057
_cell_volume 708.170682
_symmetry_space_group_name_H-M "P -1"
_symmetry_group_IT_number 2
_symmetry_cell_setting 'triclinic'
loop_
_space_group_symop_operation_xyz
x,y,z
-x,-y,-z
loop_
_atom_site_type_symbol
_atom_site_label
_atom_site_fract_x
_atom_site_fract_y
_atom_site_fract_z
Si Si1 0.323719 0.359617 0.859445
Si Si2 0.980483 0.044115 0.614147
Si Si3 0.055031 0.609396 0.257523
Si Si4 0.621354 0.787518 0.348938
Si Si5 0.024087 0.076485 0.834054
Si Si6 0.412340 0.781864 0.669371
Si Si7 0.666164 0.581774 0.943703
Si Si8 0.198375 0.906193 0.569240
O O1 0.458030 0.336048 0.685219
O O2 0.302554 0.586881 0.832655
O O3 0.146631 0.116167 0.979852
O O4 0.391957 0.392739 0.911288
O O5 0.814703 0.831013 0.792504
O O6 0.171060 0.073412 0.510482
O O7 0.954142 0.272909 0.645038
O O8 0.000000 0.000000 0.500000
O O9 0.245212 0.596175 0.113650
O O10 0.881221 0.359076 0.395045
O O11 0.041552 0.762915 0.179960
O O12 0.466966 0.672082 0.545490
O O13 0.692691 0.071431 0.286707
O O14 0.803375 0.759918 0.238242
O O15 0.082748 0.911254 0.739254
O O16 0.591343 0.989077 0.572722
O O17 0.500000 0.500000 0.000000
#
# Coordination Sequence:
#
# PCOD8008607 Si02
#       8
#     2   2   2   2   2   2   2   2
#     4  12  23  42  65  97 134 169 221 272 326 390
#     4  10  22  42  67  95 125 165 226 269 322 392
#     4  10  20  44  71  88 132 172 217 270 330 381
#     4  10  24  42  63  96 134 175 222 261 326 392
#     4  10  21  41  67  95 127 170 215 269 320 395
#     4  10  24  41  63  97 137 172 213 267 329 387
#     4  11  26  45  65  99 133 170 220 274 331 391
#     4   9  20  40  62  92 127 170 215 260 318 391
#
# _framework density 22.593423999999999
#
# number of rings (size 3 to 8) (size 9 to 14) (size 15 to 20)
#    0.000    1.750    3.750    0.750    3.500    9.000 
#    2.250    0.000    0.000    0.000    0.000    0.000 
#    0.000    0.000    0.000    0.000    0.000    0.000 
#
# Total GULP energy -198213.116022 kJ/mol
# GULP energy per Si atom -12388.319751 kJ/mol
# Density = 2.254200 g / cm^3
# Si number density = 22.593424 Si / 1000 Ang^3
#
#
#
# Elastic Constant Matrix: (Units=GPa)
#
#
# Indices 1 2 3 4 5 6 
#
# 1 129.7733 45.5703 54.3160 17.1788 11.6503 4.0755
# 2 45.5703 109.3328 42.4109 14.4636 4.0488 2.3766
# 3 54.3160 42.4109 77.7403 6.9330 26.5623 5.6201
# 4 17.1788 14.4636 6.9330 38.1775 7.6785 7.9679
# 5 11.6503 4.0488 26.5623 7.6785 44.4824 10.4579
# 6 4.0755 2.3766 5.6201 7.9679 10.4579 34.1310
#
#
#
# Elastic Compliance Matrix: (Units=1/GPa)
#
#
# Indices 1 2 3 4 5 6 
#
# 1 0.011837 -0.001414 -0.007998 -0.003861 0.002433 0.000158
# 2 -0.001414 0.012822 -0.007061 -0.003770 0.004052 0.000077
# 3 -0.007998 -0.007061 0.026691 0.004166 -0.014007 0.000371
# 4 -0.003861 -0.003770 0.004166 0.030800 -0.005139 -0.005578
# 5 0.002433 0.004052 -0.014007 -0.005139 0.032368 -0.006984
# 6 0.000158 0.000077 0.000371 -0.005578 -0.006984 0.032656
#
#
# Mechanical properties :
#
#
# Convention : Reuss Voigt Hill
#
# Bulk Modulus (GPa) = 54.33397 66.82675 60.58036
# Shear Modulus (GPa) = 26.84516 34.99480 30.91998
#
# Velocity S-wave (km/s) = 3.45074 3.93987 3.70339
# Velocity P-wave (km/s) = 6.32279 7.09499 6.71999
#
# Compressibility (1/GPa) = 0.01840469
#
# Stress axis : x y z
#
# Youngs Moduli (GPa) = 84.47809 77.99262 37.46648
#
# Poissons Ratio (x) = 0.11031 0.29964
# Poissons Ratio (y) = 0.11948 0.26453
# Poissons Ratio (z) = 0.67562 0.55067
#
# Static dielectric constant tensor:
#      x y z
#    x 5.154500 -0.279510 0.001160 
#    y -0.279510 4.255860 0.104320 
#    z 0.001160 0.104320 3.820860 
# 
# 
# High freq. dielectric constant tensor:
#      x y z
#    x 1.886800 -0.000850 0.015900 
#    y -0.000850 1.905170 0.000630 
#    z 0.015900 0.000630 1.874340 
# 
# From -- ./inp_files/525338.got.cif
#   From: 2010.06.25/outbox.cif.g09.slc.cpg/sg2_263_cif.got.tgz:525338.got - 2010.06.27 13:26:56.
