data_PCOD8008995
_publ_section_title
;
Structure prediction by ZEFSAII (Michael W. Deem and Ramdas Pophale) SiO2 
 PCOD8008995
Probable space group: P -1
;
_chemical_formula_sum "Si O2"
_cell_formula_units_Z 16
_cell_length_a 6.906277
_cell_length_b 17.462656
_cell_length_c 8.688774
_cell_angle_alpha 113.280431
_cell_angle_beta 121.886081
_cell_angle_gamma 59.556334
_cell_volume 755.344773
_symmetry_space_group_name_H-M "P -1"
_symmetry_group_IT_number 2
_symmetry_cell_setting 'triclinic'
loop_
_space_group_symop_operation_xyz
x,y,z
-x,-y,-z
loop_
_atom_site_type_symbol
_atom_site_label
_atom_site_fract_x
_atom_site_fract_y
_atom_site_fract_z
Si Si1 0.623994 0.725269 0.179919
Si Si2 0.748823 0.528795 0.004550
Si Si3 0.231340 0.870056 0.325991
Si Si4 0.878204 0.652736 0.531775
Si Si5 0.312420 0.493629 0.695423
Si Si6 0.645379 0.838224 0.712207
Si Si7 0.303911 0.134372 0.892277
Si Si8 0.767228 0.996922 0.809328
O O1 0.596167 0.636773 0.028171
O O2 0.362858 0.790411 0.194321
O O3 0.831997 0.695632 0.376321
O O4 0.716316 0.772928 0.122186
O O5 0.801925 0.489514 0.167319
O O6 0.594632 0.482131 0.807772
O O7 0.000000 0.500000 0.000000
O O8 0.381148 0.852909 0.535500
O O9 0.955520 0.876830 0.243220
O O10 0.230194 0.963466 0.328248
O O11 0.700967 0.597962 0.450710
O O12 0.823331 0.732953 0.694962
O O13 0.158627 0.581504 0.600448
O O14 0.780394 0.894795 0.721621
O O15 0.611251 0.867003 0.897582
O O16 0.512122 0.050584 0.832302
O O17 0.000000 0.000000 0.000000
#
# Coordination Sequence:
#
# PCOD8008995 Si02
#       8
#     2   2   2   2   2   2   2   2
#     4   9  22  41  58  94 126 160 204 258 308 367
#     4  10  21  35  62  91 121 163 206 249 312 363
#     4  10  23  44  64  90 129 166 206 258 309 369
#     4   9  20  41  63  88 122 163 206 254 312 363
#     4   9  20  40  62  84 124 163 202 257 305 364
#     4  11  23  40  68  93 121 168 209 254 315 368
#     4  11  24  42  65  93 130 161 207 261 306 371
#     4  11  23  44  65  92 131 163 206 259 309 370
#
# _framework density 21.182379999999998
#
# number of rings (size 3 to 8) (size 9 to 14) (size 15 to 20)
#    0.000    2.000    1.250    0.750    3.500    3.500 
#    9.000    5.625    0.000    0.000    0.000    0.000 
#    0.000    0.000    0.000    0.000    0.000    0.000 
#
# Total GULP energy -198408.916844 kJ/mol
# GULP energy per Si atom -12400.557303 kJ/mol
# Density = 2.113417 g / cm^3
# Si number density = 21.182380 Si / 1000 Ang^3
#
#
#
# Elastic Constant Matrix: (Units=GPa)
#
#
# Indices 1 2 3 4 5 6 
#
# 1 119.5813 35.7730 35.9911 -6.8823 20.4663 -0.2951
# 2 35.7730 112.1679 24.9561 -1.8280 10.7654 13.9450
# 3 35.9911 24.9561 82.2205 -3.4897 20.1740 2.8095
# 4 -6.8823 -1.8280 -3.4897 36.0481 7.9930 -1.6462
# 5 20.4663 10.7654 20.1740 7.9930 26.5552 -8.3581
# 6 -0.2951 13.9450 2.8095 -1.6462 -8.3581 24.7269
#
#
#
# Elastic Compliance Matrix: (Units=1/GPa)
#
#
# Indices 1 2 3 4 5 6 
#
# 1 0.011127 -0.002239 -0.002290 0.003339 -0.007097 -0.000521
# 2 -0.002239 0.011298 -0.000963 0.000764 -0.004831 -0.007871
# 3 -0.002290 -0.000963 0.017278 0.004031 -0.014050 -0.005928
# 4 0.003339 0.000764 0.004031 0.032395 -0.017105 -0.004474
# 5 -0.007097 -0.004831 -0.014050 -0.017105 0.069250 0.026505
# 6 -0.000521 -0.007871 -0.005928 -0.004474 0.026505 0.054209
#
#
# Mechanical properties :
#
#
# Convention : Reuss Voigt Hill
#
# Bulk Modulus (GPa) = 34.81887 56.37889 45.59888
# Shear Modulus (GPa) = 23.13582 31.94935 27.54258
#
# Velocity S-wave (km/s) = 3.30846 3.88790 3.60982
# Velocity P-wave (km/s) = 5.57386 6.84310 6.24083
#
# Compressibility (1/GPa) = 0.02872006
#
# Stress axis : x y z
#
# Youngs Moduli (GPa) = 89.87022 88.51127 57.87627
#
# Poissons Ratio (x) = 0.19816 0.13256
# Poissons Ratio (y) = 0.20120 0.05571
# Poissons Ratio (z) = 0.20583 0.08520
#
# Static dielectric constant tensor:
#      x y z
#    x 3.616990 0.225850 0.037510 
#    y 0.225850 4.212200 -0.033470 
#    z 0.037510 -0.033470 3.859290 
# 
# 
# High freq. dielectric constant tensor:
#      x y z
#    x 1.810440 0.015240 0.007930 
#    y 0.015240 1.844550 -0.006670 
#    z 0.007930 -0.006670 1.833750 
# 
# From -- ./inp_files/46554.got.cif
#   From: 2010.06.25/outbox.cif.g09.slc.cpg/sg2_24_cif.got.tgz:46554.got - 2010.06.27 13:26:56.
