data_PCOD8008488
_publ_section_title
;
Structure prediction by ZEFSAII (Michael W. Deem and Ramdas Pophale) SiO2 
 PCOD8008488
Probable space group: P -1
;
_chemical_formula_sum "Si O2"
_cell_formula_units_Z 16
_cell_length_a 18.223841
_cell_length_b 12.284058
_cell_length_c 10.561253
_cell_angle_alpha 115.177494
_cell_angle_beta 38.914793
_cell_angle_gamma 143.230694
_cell_volume 755.972589
_symmetry_space_group_name_H-M "P -1"
_symmetry_group_IT_number 2
_symmetry_cell_setting 'triclinic'
loop_
_space_group_symop_operation_xyz
x,y,z
-x,-y,-z
loop_
_atom_site_type_symbol
_atom_site_label
_atom_site_fract_x
_atom_site_fract_y
_atom_site_fract_z
Si Si1 0.780792 0.778075 0.236772
Si Si2 0.425854 0.066762 0.923034
Si Si3 0.150003 0.619739 0.979025
Si Si4 0.314973 0.249487 0.132506
Si Si5 0.297523 0.993610 0.328662
Si Si6 0.583166 0.369399 0.305877
Si Si7 0.088244 0.049494 0.589724
Si Si8 0.124984 0.637368 0.527297
O O1 0.728680 0.600062 0.171561
O O2 0.605668 0.728443 0.409550
O O3 0.795144 0.782688 0.371518
O O4 0.000000 0.000000 0.000000
O O5 0.375920 0.162111 0.008079
O O6 0.364134 0.977082 0.105574
O O7 0.295934 0.863367 0.908479
O O8 0.673546 0.273102 0.673482
O O9 0.018867 0.492343 0.220800
O O10 0.293783 0.623321 0.770546
O O11 0.000000 0.500000 0.000000
O O12 0.193931 0.187877 0.389613
O O13 0.500000 0.500000 0.000000
O O14 0.158155 0.133456 0.167685
O O15 0.502120 0.236700 0.221966
O O16 0.113116 0.927097 0.507521
O O17 0.217366 0.848079 0.482716
O O18 0.000000 0.500000 0.500000
#
# Coordination Sequence:
#
# PCOD8008488 Si02
#       8
#     2   2   2   2   2   2   2   2
#     4  10  23  42  67  97 126 172 221 274 336 392
#     4  11  24  44  65 102 133 169 230 283 326 406
#     4  12  28  46  65  96 145 184 219 275 340 403
#     4  10  23  41  64  93 131 174 209 268 335 396
#     4  10  20  43  70  97 129 159 227 291 327 383
#     4  10  23  43  64  96 133 170 220 279 328 395
#     4   9  22  40  62  93 131 161 219 271 325 391
#     4  12  24  41  74  98 126 179 225 274 339 393
#
# _framework density 21.164788000000001
#
# number of rings (size 3 to 8) (size 9 to 14) (size 15 to 20)
#    0.000    1.500    2.500    1.125    7.000    5.500 
#    2.250    0.000    0.000    0.000    0.000    0.000 
#    0.000    0.000    0.000    0.000    0.000    0.000 
#
# Total GULP energy -198325.021350 kJ/mol
# GULP energy per Si atom -12395.313834 kJ/mol
# Density = 2.111662 g / cm^3
# Si number density = 21.164788 Si / 1000 Ang^3
#
#
#
# Elastic Constant Matrix: (Units=GPa)
#
#
# Indices 1 2 3 4 5 6 
#
# 1 114.4114 50.6078 54.0223 -1.5218 -29.3806 2.6346
# 2 50.6078 148.4382 54.4556 -15.1023 -14.2208 -0.0152
# 3 54.0223 54.4556 113.6187 -17.7486 -21.6685 -6.5610
# 4 -1.5218 -15.1023 -17.7486 30.8757 1.2265 -1.3618
# 5 -29.3806 -14.2208 -21.6685 1.2265 41.3829 0.6968
# 6 2.6346 -0.0152 -6.5610 -1.3618 0.6968 37.6072
#
#
#
# Elastic Compliance Matrix: (Units=1/GPa)
#
#
# Indices 1 2 3 4 5 6 
#
# 1 0.013873 -0.002745 -0.004728 -0.003728 0.006576 -0.002055
# 2 -0.002745 0.008868 -0.002594 0.002718 -0.000338 -0.000152
# 3 -0.004728 -0.002594 0.014037 0.006585 0.002857 0.002965
# 4 -0.003728 0.002718 0.006585 0.037417 0.000579 0.002755
# 5 0.006576 -0.000338 0.002857 0.000579 0.030205 -0.000501
# 6 -0.002055 -0.000152 0.002965 0.002755 -0.000501 0.027361
#
#
# Mechanical properties :
#
#
# Convention : Reuss Voigt Hill
#
# Bulk Modulus (GPa) = 60.07532 77.18218 68.62875
# Shear Modulus (GPa) = 31.75746 36.46531 34.11139
#
# Velocity S-wave (km/s) = 3.87781 4.15531 4.01896
# Velocity P-wave (km/s) = 6.96391 7.71807 7.35067
#
# Compressibility (1/GPa) = 0.01664577
#
# Stress axis : x y z
#
# Youngs Moduli (GPa) = 72.08088 112.75893 71.23992
#
# Poissons Ratio (x) = 0.30953 0.33680
# Poissons Ratio (y) = 0.19787 0.18479
# Poissons Ratio (z) = 0.34077 0.29248
#
# Static dielectric constant tensor:
#      x y z
#    x 3.966850 0.080320 -0.254770 
#    y 0.080320 3.654020 -0.168800 
#    z -0.254770 -0.168800 3.926210 
# 
# 
# High freq. dielectric constant tensor:
#      x y z
#    x 1.824980 0.000390 -0.023570 
#    y 0.000390 1.839030 -0.006390 
#    z -0.023570 -0.006390 1.830240 
# 
# From -- ./inp_files/464663.got.cif
#   From: 2010.06.25/outbox.cif.g09.slc.cpg/sg2_233_cif.got.tgz:464663.got - 2010.06.27 13:26:56.
