data_PCOD8008979
_publ_section_title
;
Structure prediction by ZEFSAII (Michael W. Deem and Ramdas Pophale) SiO2 
 PCOD8008979
Probable space group: P -1
;
_chemical_formula_sum "Si O2"
_cell_formula_units_Z 16
_cell_length_a 13.951951
_cell_length_b 11.755386
_cell_length_c 14.494314
_cell_angle_alpha 27.759443
_cell_angle_beta 57.062656
_cell_angle_gamma 75.945599
_cell_volume 736.602206
_symmetry_space_group_name_H-M "P -1"
_symmetry_group_IT_number 2
_symmetry_cell_setting 'triclinic'
loop_
_space_group_symop_operation_xyz
x,y,z
-x,-y,-z
loop_
_atom_site_type_symbol
_atom_site_label
_atom_site_fract_x
_atom_site_fract_y
_atom_site_fract_z
Si Si1 0.304575 0.819781 0.476301
Si Si2 0.149723 0.228676 0.876501
Si Si3 0.167896 0.121681 0.733631
Si Si4 0.645797 0.621067 0.893350
Si Si5 0.566370 0.372392 0.316933
Si Si6 0.279198 0.763871 0.952231
Si Si7 0.607976 0.237552 0.922372
Si Si8 0.395675 0.250606 0.811041
O O1 0.197108 0.566201 0.638720
O O2 0.318092 0.639176 0.679753
O O3 0.252704 0.006036 0.416043
O O4 0.455275 0.094897 0.151386
O O5 0.185125 0.244769 0.739228
O O6 0.234276 0.138720 0.957445
O O7 0.979226 0.971777 0.167993
O O8 0.307895 0.402881 0.403551
O O9 0.159764 0.813865 0.955153
O O10 0.613990 0.480053 0.112187
O O11 0.746139 0.549649 0.841407
O O12 0.500000 0.500000 0.000000
O O13 0.548582 0.600400 0.222895
O O14 0.421308 0.031011 0.632280
O O15 0.297706 0.793311 0.031217
O O16 0.596869 0.033768 0.989062
O O17 0.500000 0.500000 0.500000
#
# Coordination Sequence:
#
# PCOD8008979 Si02
#       8
#     2   2   2   2   2   2   2   2
#     4  10  22  39  60  94 123 158 207 259 305 360
#     4  10  22  42  59  90 136 161 200 257 308 377
#     4  11  24  39  61  91 129 172 199 246 318 371
#     4  12  23  37  61  96 123 161 215 258 308 368
#     4  10  21  35  61  92 128 162 191 270 320 346
#     4  11  22  39  57  88 132 160 206 255 310 366
#     4  11  21  36  65  95 119 164 205 258 304 378
#     4  11  18  39  64  96 131 153 201 263 314 360
#
# _framework density 21.721357999999999
#
# number of rings (size 3 to 8) (size 9 to 14) (size 15 to 20)
#    0.000    1.250    7.500    1.125    1.750    1.000 
#    0.000    0.625    0.000    3.750    0.000    0.000 
#    0.000    0.000    0.000    0.000    0.000    0.000 
#
# Total GULP energy -198303.950844 kJ/mol
# GULP energy per Si atom -12393.996928 kJ/mol
# Density = 2.167192 g / cm^3
# Si number density = 21.721358 Si / 1000 Ang^3
#
#
#
# Elastic Constant Matrix: (Units=GPa)
#
#
# Indices 1 2 3 4 5 6 
#
# 1 76.1061 26.6908 23.3383 0.1093 -4.7146 1.9049
# 2 26.6908 136.6260 25.9968 -33.3316 4.7540 -8.8196
# 3 23.3383 25.9968 63.1755 -8.3631 3.5714 5.2125
# 4 0.1093 -33.3316 -8.3631 32.5123 -0.7336 15.5168
# 5 -4.7146 4.7540 3.5714 -0.7336 23.1714 -4.3311
# 6 1.9049 -8.8196 5.2125 15.5168 -4.3311 32.7819
#
#
#
# Elastic Compliance Matrix: (Units=1/GPa)
#
#
# Indices 1 2 3 4 5 6 
#
# 1 0.016557 -0.003717 -0.006007 -0.006651 0.005380 0.002852
# 2 -0.003717 0.011254 -0.001182 0.012571 -0.003031 -0.002919
# 3 -0.006007 -0.001182 0.020445 0.007517 -0.005290 -0.007477
# 4 -0.006651 0.012571 0.007517 0.057746 -0.008091 -0.025829
# 5 0.005380 -0.003031 -0.005290 -0.008091 0.047262 0.009787
# 6 0.002852 -0.002919 -0.007477 -0.025829 0.009787 0.044261
#
#
# Mechanical properties :
#
#
# Convention : Reuss Voigt Hill
#
# Bulk Modulus (GPa) = 37.81428 47.55103 42.68266
# Shear Modulus (GPa) = 21.91537 31.01858 26.46697
#
# Velocity S-wave (km/s) = 3.17981 3.78302 3.49446
# Velocity P-wave (km/s) = 5.56132 6.40473 5.99786
#
# Compressibility (1/GPa) = 0.02644503
#
# Stress axis : x y z
#
# Youngs Moduli (GPa) = 60.39887 88.85577 48.91141
#
# Poissons Ratio (x) = 0.33031 0.29379
# Poissons Ratio (y) = 0.22452 0.05779
# Poissons Ratio (z) = 0.36279 0.10498
#
# Static dielectric constant tensor:
#      x y z
#    x 4.011240 -0.001680 0.142940 
#    y -0.001680 4.332740 -0.367770 
#    z 0.142940 -0.367770 3.594440 
# 
# 
# High freq. dielectric constant tensor:
#      x y z
#    x 1.849310 0.002170 0.025130 
#    y 0.002170 1.867550 -0.021060 
#    z 0.025130 -0.021060 1.808640 
# 
# From -- ./inp_files/532266.got.cif
#   From: 2010.06.25/outbox.cif.g09.slc.cpg/sg2_267_cif.got.tgz:532266.got - 2010.06.27 13:26:56.
