data_PCOD8008559
_publ_section_title
;
Structure prediction by ZEFSAII (Michael W. Deem and Ramdas Pophale) SiO2 
 PCOD8008559
Probable space group: P -1
;
_chemical_formula_sum "Si O2"
_cell_formula_units_Z 14
_cell_length_a 22.400086
_cell_length_b 12.308254
_cell_length_c 19.251222
_cell_angle_alpha 26.858986
_cell_angle_beta 161.478114
_cell_angle_gamma 143.760324
_cell_volume 732.554686
_symmetry_space_group_name_H-M "P -1"
_symmetry_group_IT_number 2
_symmetry_cell_setting 'triclinic'
loop_
_space_group_symop_operation_xyz
x,y,z
-x,-y,-z
loop_
_atom_site_type_symbol
_atom_site_label
_atom_site_fract_x
_atom_site_fract_y
_atom_site_fract_z
Si Si1 0.279714 0.396817 0.633689
Si Si2 0.806122 0.089517 0.690123
Si Si3 0.252565 0.533266 0.369405
Si Si4 0.313434 0.005123 0.675140
Si Si5 0.070433 0.805215 0.627679
Si Si6 0.360779 0.331333 0.282244
Si Si7 0.842132 0.864348 0.717935
O O1 0.309765 0.627295 0.580434
O O2 0.204395 0.486082 0.422741
O O3 0.110076 0.296123 0.539017
O O4 0.481053 0.185701 0.970956
O O5 0.668773 0.905615 0.659270
O O6 0.861021 0.069218 0.680010
O O7 0.000000 0.000000 0.000000
O O8 0.329128 0.277999 0.557105
O O9 0.411305 0.688754 0.451026
O O10 0.054565 0.700580 0.020791
O O11 0.274457 0.991401 0.558344
O O12 0.138754 0.940053 0.561214
O O13 0.253103 0.585864 0.979811
O O14 0.000000 0.000000 0.500000
O O15 0.274940 0.320514 0.271509
#
# Coordination Sequence:
#
# PCOD8008559 Si02
#       7
#     2   2   2   2   2   2   2
#     4  12  22  40  67  90 127 164 212 259 302 370
#     4  10  20  44  67  86 123 170 215 254 295 375
#     4  12  21  40  68  93 122 169 208 253 312 381
#     4  12  26  39  63 100 132 156 205 266 322 358
#     4  12  21  38  64  95 124 164 206 256 310 373
#     4  10  22  39  66  93 114 168 219 240 310 371
#     4  10  24  44  61  94 130 162 207 265 308 365
#
# _framework density 19.111201999999999
#
# number of rings (size 3 to 8) (size 9 to 14) (size 15 to 20)
#    0.857    0.000    7.143    1.714    0.000    2.857 
#    2.571    0.714    0.000    0.000    0.000    0.000 
#    0.000    0.000    0.000    0.000    0.000    0.000 
#
# Total GULP energy -173617.795025 kJ/mol
# GULP energy per Si atom -12401.271073 kJ/mol
# Density = 1.906770 g / cm^3
# Si number density = 19.111202 Si / 1000 Ang^3
#
#
#
# Elastic Constant Matrix: (Units=GPa)
#
#
# Indices 1 2 3 4 5 6 
#
# 1 80.3663 22.6774 7.4429 10.2597 -12.5091 -2.7615
# 2 22.6774 87.3467 5.2323 9.4827 1.1752 3.9266
# 3 7.4429 5.2323 49.1109 4.6970 5.9701 4.9229
# 4 10.2597 9.4827 4.6970 32.7642 -0.6873 17.0801
# 5 -12.5091 1.1752 5.9701 -0.6873 30.9582 2.5761
# 6 -2.7615 3.9266 4.9229 17.0801 2.5761 35.3727
#
#
#
# Elastic Compliance Matrix: (Units=1/GPa)
#
#
# Indices 1 2 3 4 5 6 
#
# 1 0.015540 -0.003554 -0.002653 -0.005489 0.006458 0.004157
# 2 -0.003554 0.012689 -0.000323 -0.002364 -0.001878 -0.000363
# 3 -0.002653 -0.000323 0.021753 -0.001105 -0.005088 -0.002295
# 4 -0.005489 -0.002364 -0.001105 0.044287 0.000854 -0.021459
# 5 0.006458 -0.001878 -0.005088 0.000854 0.036117 -0.001622
# 6 0.004157 -0.000363 -0.002295 -0.021459 -0.001622 0.039434
#
#
# Mechanical properties :
#
#
# Convention : Reuss Voigt Hill
#
# Bulk Modulus (GPa) = 27.08365 31.94769 29.51567
# Shear Modulus (GPa) = 25.61643 31.91712 28.76677
#
# Velocity S-wave (km/s) = 3.66510 4.09109 3.88394
# Velocity P-wave (km/s) = 5.66683 6.25052 5.96582
#
# Compressibility (1/GPa) = 0.03692264
#
# Stress axis : x y z
#
# Youngs Moduli (GPa) = 64.34901 78.81016 45.97109
#
# Poissons Ratio (x) = 0.28006 0.12198
# Poissons Ratio (y) = 0.22867 0.01483
# Poissons Ratio (z) = 0.17074 0.02543
#
# Static dielectric constant tensor:
#      x y z
#    x 3.394670 0.034260 0.102630 
#    y 0.034260 3.686090 -0.039280 
#    z 0.102630 -0.039280 3.344020 
# 
# 
# High freq. dielectric constant tensor:
#      x y z
#    x 1.730950 0.001210 0.010700 
#    y 0.001210 1.747360 0.001690 
#    z 0.010700 0.001690 1.741040 
# 
# From -- ./inp_files/179604.got.cif
#   From: 2010.06.25/outbox.cif.g09.slc.cpg/sg2_90_cif.got.tgz:179604.got - 2010.06.27 13:26:56.
