data_PCOD8008331
_publ_section_title
;
Structure prediction by ZEFSAII (Michael W. Deem and Ramdas Pophale) SiO2 
 PCOD8008331
Probable space group: P -1
;
_chemical_formula_sum "Si O2"
_cell_formula_units_Z 14
_cell_length_a 7.687156
_cell_length_b 16.622067
_cell_length_c 15.985870
_cell_angle_alpha 155.431711
_cell_angle_beta 90.172169
_cell_angle_gamma 101.454199
_cell_volume 743.076740
_symmetry_space_group_name_H-M "P -1"
_symmetry_group_IT_number 2
_symmetry_cell_setting 'triclinic'
loop_
_space_group_symop_operation_xyz
x,y,z
-x,-y,-z
loop_
_atom_site_type_symbol
_atom_site_label
_atom_site_fract_x
_atom_site_fract_y
_atom_site_fract_z
Si Si1 0.150276 0.330479 0.037303
Si Si2 0.445652 0.188403 0.161569
Si Si3 0.438772 0.300358 0.605969
Si Si4 0.683811 0.645849 0.527103
Si Si5 0.878399 0.020852 0.170515
Si Si6 0.975811 0.964994 0.564506
Si Si7 0.775198 0.210515 0.503063
O O1 0.390902 0.448280 0.133192
O O2 0.084920 0.161309 0.954240
O O3 0.092097 0.520337 0.240264
O O4 0.032634 0.198421 0.829586
O O5 0.612386 0.386100 0.292945
O O6 0.431116 0.281693 0.339294
O O7 0.240638 0.086430 0.014796
O O8 0.500000 0.000000 0.000000
O O9 0.360615 0.298821 0.512142
O O10 0.546775 0.146225 0.464945
O O11 0.253510 0.212951 0.585857
O O12 0.916997 0.775651 0.666564
O O13 0.770418 0.115176 0.320848
O O14 0.128594 0.884202 0.520208
O O15 0.000000 0.000000 0.500000
#
# Coordination Sequence:
#
# PCOD8008331 Si02
#       7
#     2   2   2   2   2   2   2
#     4   9  21  40  61  89 118 158 205 250 299 368
#     4  11  24  37  57  91 124 162 203 251 308 345
#     4  10  20  43  61  87 125 160 202 251 299 366
#     4  11  22  39  60  86 122 160 207 255 291 361
#     4  11  20  40  61  87 122 160 209 251 296 359
#     4  11  23  42  64  93 125 156 200 254 308 363
#     4   9  21  39  60  91 120 158 207 239 301 378
#
# _framework density 18.840582999999999
#
# number of rings (size 3 to 8) (size 9 to 14) (size 15 to 20)
#    0.857    0.857    4.286    1.286    0.000    3.429 
#    7.714    0.000    0.000    0.000    0.000    0.000 
#    0.000    0.000    0.000    0.000    0.000    0.000 
#
# Total GULP energy -173533.158205 kJ/mol
# GULP energy per Si atom -12395.225586 kJ/mol
# Density = 1.879770 g / cm^3
# Si number density = 18.840583 Si / 1000 Ang^3
#
#
#
# Elastic Constant Matrix: (Units=GPa)
#
#
# Indices 1 2 3 4 5 6 
#
# 1 45.4135 41.3041 27.3388 25.6786 -0.3488 10.7712
# 2 41.3041 83.5959 18.2560 12.4594 1.7412 0.7932
# 3 27.3388 18.2560 93.6860 13.8115 5.7896 -8.4616
# 4 25.6786 12.4594 13.8115 22.3997 5.0930 4.2221
# 5 -0.3488 1.7412 5.7896 5.0930 46.4919 8.9253
# 6 10.7712 0.7932 -8.4616 4.2221 8.9253 16.0316
#
#
#
# Elastic Compliance Matrix: (Units=1/GPa)
#
#
# Indices 1 2 3 4 5 6 
#
# 1 -0.899986 0.302729 0.173296 0.691369 -0.236495 0.630751
# 2 0.302729 -0.088550 -0.059965 -0.238993 0.079983 -0.212252
# 3 0.173296 -0.059965 -0.019897 -0.141957 0.042767 -0.110392
# 4 0.691369 -0.238993 -0.141957 -0.473600 0.180312 -0.503272
# 5 -0.236495 0.079983 0.042767 0.180312 -0.037285 0.150781
# 6 0.630751 -0.212252 -0.110392 -0.503272 0.150781 -0.360575
#
#
# Mechanical properties :
#
#
# Convention : Reuss Voigt Hill
#
# Bulk Modulus (GPa) = -5.67176 44.05479 19.19152
# Shear Modulus (GPa) = -1.80454 26.03772 12.11659
#
# Velocity S-wave (km/s) = -0.97973 3.72156 2.53871
# Velocity P-wave (km/s) = 2.07286 6.47305 4.33611
#
# Compressibility (1/GPa) = -0.17631221
#
# Stress axis : x y z
#
# Youngs Moduli (GPa) = -1.11113 -11.29300 -50.25988
#
# Poissons Ratio (x) = 3.41872 8.70984
# Poissons Ratio (y) = 0.33637 -3.01383
# Poissons Ratio (z) = 0.19255 -0.67718
#
# Static dielectric constant tensor:
#      x y z
#    x 3.285190 0.006360 0.016920 
#    y 0.006360 3.307940 0.058900 
#    z 0.016920 0.058900 3.576270 
# 
# 
# High freq. dielectric constant tensor:
#      x y z
#    x 1.721200 -0.006720 0.006290 
#    y -0.006720 1.721740 -0.000460 
#    z 0.006290 -0.000460 1.744480 
# 
# From -- ./inp_files/348315.got.cif
#   From: 2010.06.25/outbox.cif.g09.slc.cpg/sg2_175_cif.got.tgz:348315.got - 2010.06.27 13:26:56.
