data_PCOD8008302
_publ_section_title
;
Structure prediction by ZEFSAII (Michael W. Deem and Ramdas Pophale) SiO2 
 PCOD8008302
Probable space group: P -1
;
_chemical_formula_sum "Si O2"
_cell_formula_units_Z 16
_cell_length_a 15.094817
_cell_length_b 8.804545
_cell_length_c 9.591209
_cell_angle_alpha 112.505953
_cell_angle_beta 38.914502
_cell_angle_gamma 110.716079
_cell_volume 736.292888
_symmetry_space_group_name_H-M "P -1"
_symmetry_group_IT_number 2
_symmetry_cell_setting 'triclinic'
loop_
_space_group_symop_operation_xyz
x,y,z
-x,-y,-z
loop_
_atom_site_type_symbol
_atom_site_label
_atom_site_fract_x
_atom_site_fract_y
_atom_site_fract_z
Si Si1 0.883575 0.921300 0.215485
Si Si2 0.794083 0.176947 0.616817
Si Si3 0.374322 0.658437 0.576323
Si Si4 0.555141 0.329251 0.829737
Si Si5 0.025192 0.197828 0.534470
Si Si6 0.326183 0.139673 0.214024
Si Si7 0.381299 0.279794 0.500570
Si Si8 0.934793 0.325749 0.958136
O O1 0.754402 0.797833 0.269089
O O2 0.963043 0.817916 0.192905
O O3 0.807534 0.067646 0.426325
O O4 0.000000 0.000000 0.000000
O O5 0.702208 0.322481 0.731761
O O6 0.952848 0.248597 0.495217
O O7 0.717277 0.058032 0.790949
O O8 0.427166 0.684642 0.362608
O O9 0.362920 0.470382 0.571244
O O10 0.482455 0.755722 0.586799
O O11 0.220136 0.723627 0.805086
O O12 0.500000 0.500000 0.000000
O O13 0.447028 0.175933 0.961894
O O14 0.194088 0.241276 0.361712
O O15 0.936451 0.312446 0.784664
O O16 0.000000 0.000000 0.500000
O O17 0.385262 0.201991 0.314381
O O18 0.000000 0.500000 0.000000
#
# Coordination Sequence:
#
# PCOD8008302 Si02
#       8
#     2   2   2   2   2   2   2   2
#     4  11  22  43  67  95 140 176 227 290 343 408
#     4  10  23  43  67  97 131 182 228 272 350 412
#     4  11  24  40  66 100 137 179 229 278 353 410
#     4  12  25  42  65  97 136 173 226 288 334 406
#     4  10  20  42  71  97 129 182 232 273 339 420
#     4  10  20  43  68  93 133 178 222 276 338 412
#     4  10  21  43  63  95 137 179 225 275 347 418
#     4  12  22  41  71  99 133 180 229 287 337 411
#
# _framework density 21.730484000000001
#
# number of rings (size 3 to 8) (size 9 to 14) (size 15 to 20)
#    0.000    1.250    6.250    1.125    1.750    1.000 
#    2.250    3.750    0.000    0.000    0.000    0.000 
#    0.000    0.000    0.000    0.000    0.000    0.000 
#
# Total GULP energy -198217.847303 kJ/mol
# GULP energy per Si atom -12388.615456 kJ/mol
# Density = 2.168102 g / cm^3
# Si number density = 21.730484 Si / 1000 Ang^3
#
#
#
# Elastic Constant Matrix: (Units=GPa)
#
#
# Indices 1 2 3 4 5 6 
#
# 1 169.3587 35.5192 52.1154 0.5560 -20.0286 9.0063
# 2 35.5192 58.8969 31.2268 -3.1366 -0.9623 -0.4745
# 3 52.1154 31.2268 118.7201 -13.2339 -11.3202 5.6117
# 4 0.5560 -3.1366 -13.2339 44.6371 -3.2432 -8.5602
# 5 -20.0286 -0.9623 -11.3202 -3.2432 31.5698 4.9013
# 6 9.0063 -0.4745 5.6117 -8.5602 4.9013 30.0670
#
#
#
# Elastic Compliance Matrix: (Units=1/GPa)
#
#
# Indices 1 2 3 4 5 6 
#
# 1 0.008059 -0.003766 -0.002097 -0.001264 0.004612 -0.003194
# 2 -0.003766 0.021615 -0.004473 0.000556 -0.003755 0.003075
# 3 -0.002097 -0.004473 0.011204 0.003031 0.003043 -0.001167
# 4 -0.001264 0.000556 0.003031 0.024749 0.001824 0.006571
# 5 0.004612 -0.003755 0.003043 0.001824 0.036932 -0.007510
# 6 -0.003194 0.003075 -0.001167 0.006571 -0.007510 0.037577
#
#
# Mechanical properties :
#
#
# Convention : Reuss Voigt Hill
#
# Bulk Modulus (GPa) = 49.49525 64.96650 57.23088
# Shear Modulus (GPa) = 29.84290 36.46240 33.15265
#
# Velocity S-wave (km/s) = 3.70985 4.10071 3.91017
# Velocity P-wave (km/s) = 6.41693 7.23757 6.83957
#
# Compressibility (1/GPa) = 0.02020396
#
# Stress axis : x y z
#
# Youngs Moduli (GPa) = 124.07964 46.26449 89.25617
#
# Poissons Ratio (x) = 0.17423 0.18721
# Poissons Ratio (y) = 0.46728 0.39929
# Poissons Ratio (z) = 0.26026 0.20696
#
# Static dielectric constant tensor:
#      x y z
#    x 4.372820 0.046100 -0.137870 
#    y 0.046100 3.922750 -0.310700 
#    z -0.137870 -0.310700 4.477220 
# 
# 
# High freq. dielectric constant tensor:
#      x y z
#    x 1.864780 0.004310 -0.017830 
#    y 0.004310 1.834160 0.004390 
#    z -0.017830 0.004390 1.851380 
# 
# From -- ./inp_files/299076.got.cif
#   From: 2010.06.25/outbox.cif.g09.slc.cpg/sg2_150_cif.got.tgz:299076.got - 2010.06.27 13:26:56.
