data_PCOD8008883
_publ_section_title
;
Structure prediction by ZEFSAII (Michael W. Deem and Ramdas Pophale) SiO2 
 PCOD8008883
Probable space group: P -1
;
_chemical_formula_sum "Si O2"
_cell_formula_units_Z 16
_cell_length_a 14.813693
_cell_length_b 15.360660
_cell_length_c 14.842825
_cell_angle_alpha 40.352101
_cell_angle_beta 19.573562
_cell_angle_gamma 43.297243
_cell_volume 731.887489
_symmetry_space_group_name_H-M "P -1"
_symmetry_group_IT_number 2
_symmetry_cell_setting 'triclinic'
loop_
_space_group_symop_operation_xyz
x,y,z
-x,-y,-z
loop_
_atom_site_type_symbol
_atom_site_label
_atom_site_fract_x
_atom_site_fract_y
_atom_site_fract_z
Si Si1 0.048789 0.361839 0.795458
Si Si2 0.907221 0.211048 0.888758
Si Si3 0.736795 0.004824 0.343478
Si Si4 0.396890 0.780765 0.564780
Si Si5 0.234066 0.903915 0.244293
Si Si6 0.704438 0.079064 0.625553
Si Si7 0.097420 0.645900 0.466985
Si Si8 0.532176 0.634442 0.919242
O O1 0.301854 0.276506 0.662212
O O2 0.071467 0.521984 0.658280
O O3 0.017129 0.343874 0.729223
O O4 0.791880 0.322366 0.126566
O O5 0.928207 0.113214 0.033244
O O6 0.609449 0.240396 0.103272
O O7 0.100898 0.140661 0.685239
O O8 0.638527 0.065824 0.483243
O O9 0.500000 0.000000 0.500000
O O10 0.343142 0.796504 0.496675
O O11 0.325568 0.860232 0.293498
O O12 0.116832 0.778858 0.402250
O O13 0.004778 0.021261 0.371871
O O14 0.488031 0.963269 0.906157
O O15 0.844058 0.660988 0.624228
O O16 0.372721 0.620941 0.172735
O O17 0.500000 0.500000 0.000000
#
# Coordination Sequence:
#
# PCOD8008883 Si02
#       8
#     2   2   2   2   2   2   2   2
#     4  11  23  41  61  87 133 171 214 262 320 373
#     4  10  23  38  54  85 123 172 211 262 313 361
#     4  10  21  35  57  83 124 163 212 266 310 373
#     4  11  23  39  66  93 122 171 217 263 323 388
#     4  10  23  44  68  98 130 166 201 279 330 390
#     4  10  22  44  71  96 130 160 213 268 342 381
#     4  12  26  43  64  96 131 175 221 265 323 384
#     4  12  26  40  64  90 130 177 224 261 308 387
#
# _framework density 21.861284999999999
#
# number of rings (size 3 to 8) (size 9 to 14) (size 15 to 20)
#    0.000    1.250    2.500    2.625    5.250    1.000 
#    0.000    1.250    0.000    0.000    0.000    0.000 
#    0.000    0.000    0.000    0.000    0.000    0.000 
#
# Total GULP energy -198368.430778 kJ/mol
# GULP energy per Si atom -12398.026924 kJ/mol
# Density = 2.181153 g / cm^3
# Si number density = 21.861285 Si / 1000 Ang^3
#
#
#
# Elastic Constant Matrix: (Units=GPa)
#
#
# Indices 1 2 3 4 5 6 
#
# 1 93.4674 33.7831 6.0587 -8.2900 -4.1945 -9.1769
# 2 33.7831 68.5411 0.9016 1.4609 -5.4686 -2.0524
# 3 6.0587 0.9016 51.3755 2.9572 -9.9241 0.0603
# 4 -8.2900 1.4609 2.9572 32.8003 -5.3395 -8.1238
# 5 -4.1945 -5.4686 -9.9241 -5.3395 34.7854 -1.7962
# 6 -9.1769 -2.0524 0.0603 -8.1238 -1.7962 34.9669
#
#
#
# Elastic Compliance Matrix: (Units=1/GPa)
#
#
# Indices 1 2 3 4 5 6 
#
# 1 0.014296 -0.006901 -0.001642 0.005429 0.001245 0.004675
# 2 -0.006901 0.018143 0.001004 -0.002659 0.001833 -0.001272
# 3 -0.001642 0.001004 0.020819 -0.001537 0.005639 -0.000475
# 4 0.005429 -0.002659 -0.001537 0.035483 0.005751 0.009811
# 5 0.001245 0.001833 0.005639 0.005751 0.031853 0.003397
# 6 0.004675 -0.001272 -0.000475 0.009811 0.003397 0.032205
#
#
# Mechanical properties :
#
#
# Convention : Reuss Voigt Hill
#
# Bulk Modulus (GPa) = 26.19236 32.76340 29.47788
# Shear Modulus (GPa) = 27.68482 32.01990 29.85236
#
# Velocity S-wave (km/s) = 3.56249 3.83127 3.69932
# Velocity P-wave (km/s) = 5.37857 5.88141 5.63560
#
# Compressibility (1/GPa) = 0.03817908
#
# Stress axis : x y z
#
# Youngs Moduli (GPa) = 69.94873 55.11794 48.03333
#
# Poissons Ratio (x) = 0.38038 0.07889
# Poissons Ratio (y) = 0.48273 -0.04823
# Poissons Ratio (z) = 0.11488 -0.05534
#
# Static dielectric constant tensor:
#      x y z
#    x 3.661150 0.512070 -0.443020 
#    y 0.512070 3.073520 0.868170 
#    z -0.443020 0.868170 3.312360 
# 
# 
# High freq. dielectric constant tensor:
#      x y z
#    x 1.844060 -0.013450 -0.004430 
#    y -0.013450 1.854520 0.005060 
#    z -0.004430 0.005060 1.873230 
# 
# From -- ./inp_files/534226.got.cif
#   From: 2010.06.25/outbox.cif.g09.slc.cpg/sg2_268_cif.got.tgz:534226.got - 2010.06.27 13:26:56.
