data_PCOD8008891
_publ_section_title
;
Structure prediction by ZEFSAII (Michael W. Deem and Ramdas Pophale) SiO2 
 PCOD8008891
Probable space group: P -1
;
_chemical_formula_sum "Si O2"
_cell_formula_units_Z 16
_cell_length_a 13.053037
_cell_length_b 13.961831
_cell_length_c 10.353965
_cell_angle_alpha 78.225304
_cell_angle_beta 36.141067
_cell_angle_gamma 52.216606
_cell_volume 687.511833
_symmetry_space_group_name_H-M "P -1"
_symmetry_group_IT_number 2
_symmetry_cell_setting 'triclinic'
loop_
_space_group_symop_operation_xyz
x,y,z
-x,-y,-z
loop_
_atom_site_type_symbol
_atom_site_label
_atom_site_fract_x
_atom_site_fract_y
_atom_site_fract_z
Si Si1 0.455024 0.166703 0.146844
Si Si2 0.104987 0.674881 0.379338
Si Si3 0.270225 0.528034 0.513589
Si Si4 0.261421 0.025650 0.723671
Si Si5 0.142552 0.666102 0.057588
Si Si6 0.761514 0.180727 0.680958
Si Si7 0.010854 0.163480 0.208984
Si Si8 0.709500 0.702605 0.434543
O O1 0.377274 0.245592 0.342888
O O2 0.221284 0.199579 0.318112
O O3 0.490024 0.242647 0.990313
O O4 0.721100 0.981004 0.939997
O O5 0.251482 0.542779 0.372769
O O6 0.215919 0.596572 0.145935
O O7 0.173565 0.757651 0.308354
O O8 0.212642 0.442225 0.638722
O O9 0.042209 0.696539 0.767244
O O10 0.575439 0.429038 0.275252
O O11 0.060391 0.147860 0.777975
O O12 0.500000 0.000000 0.500000
O O13 0.437081 0.848485 0.583242
O O14 0.051997 0.113201 0.034471
O O15 0.977236 0.654550 0.148663
O O16 0.750378 0.223921 0.530511
O O17 0.000000 0.000000 0.500000
#
# Coordination Sequence:
#
# PCOD8008891 Si02
#       8
#     2   2   2   2   2   2   2   2
#     4   9  18  36  58  80 115 157 193 230 275 334
#     4  10  21  35  57  88 117 150 191 231 281 342
#     4  11  22  34  55  88 124 145 179 239 295 340
#     4   9  19  41  65  80 107 153 202 236 270 334
#     4  10  21  37  59  83 115 155 189 233 282 330
#     4   9  18  32  53  82 115 145 182 231 281 331
#     4   9  20  36  56  85 116 149 189 237 286 336
#     4   9  20  38  60  85 111 151 198 232 275 339
#
# _framework density 23.272324999999999
#
# number of rings (size 3 to 8) (size 9 to 14) (size 15 to 20)
#    0.000    2.500    0.000    1.875    0.000   10.500 
#    0.000    3.750    0.000    6.000    0.000    0.000 
#    0.000    0.000    0.000    0.000    0.000    0.000 
#
# Total GULP energy -198212.194960 kJ/mol
# GULP energy per Si atom -12388.262185 kJ/mol
# Density = 2.321936 g / cm^3
# Si number density = 23.272325 Si / 1000 Ang^3
#
#
#
# Elastic Constant Matrix: (Units=GPa)
#
#
# Indices 1 2 3 4 5 6 
#
# 1 22.6210 15.4144 14.9027 -3.7530 -11.2289 3.2483
# 2 15.4144 128.3893 8.5161 1.8506 -19.1419 19.2233
# 3 14.9027 8.5161 85.7954 -12.6321 -24.3838 8.6635
# 4 -3.7530 1.8506 -12.6321 31.6950 -3.1540 -0.0213
# 5 -11.2289 -19.1419 -24.3838 -3.1540 25.0456 -3.0315
# 6 3.2483 19.2233 8.6635 -0.0213 -3.0315 33.9796
#
#
#
# Elastic Compliance Matrix: (Units=1/GPa)
#
#
# Indices 1 2 3 4 5 6 
#
# 1 0.061541 -0.003675 -0.002155 0.008998 0.023680 -0.001136
# 2 -0.003675 0.010024 0.002553 0.000786 0.007961 -0.005260
# 3 -0.002155 0.002553 0.019446 0.009390 0.020572 -0.004355
# 4 0.008998 0.000786 0.009390 0.038136 0.018332 -0.002039
# 5 0.023680 0.007961 0.020572 0.018332 0.078359 -0.005010
# 6 -0.001136 -0.005260 -0.004355 -0.002039 -0.005010 0.033176
#
#
# Mechanical properties :
#
#
# Convention : Reuss Voigt Hill
#
# Bulk Modulus (GPa) = 11.84048 34.94133 23.39091
# Shear Modulus (GPa) = 18.15625 31.34220 24.74923
#
# Velocity S-wave (km/s) = 2.79617 3.67380 3.26461
# Velocity P-wave (km/s) = 3.94000 5.74826 4.92778
#
# Compressibility (1/GPa) = 0.08445604
#
# Stress axis : x y z
#
# Youngs Moduli (GPa) = 16.24927 99.76276 51.42540
#
# Poissons Ratio (x) = 0.36660 0.11084
# Poissons Ratio (y) = 0.05971 -0.13128
# Poissons Ratio (z) = 0.03502 -0.25467
#
# Static dielectric constant tensor:
#      x y z
#    x 3.601780 -0.269350 -0.111240 
#    y -0.269350 4.837790 -0.308460 
#    z -0.111240 -0.308460 4.509040 
# 
# 
# High freq. dielectric constant tensor:
#      x y z
#    x 1.868780 -0.011280 -0.004510 
#    y -0.011280 1.934820 -0.004160 
#    z -0.004510 -0.004160 1.924760 
# 
# From -- ./inp_files/455684.got.cif
#   From: 2010.06.25/outbox.cif.g09.slc.cpg/sg2_228_cif.got.tgz:455684.got - 2010.06.27 13:26:56.
