data_PCOD8008665
_publ_section_title
;
Structure prediction by ZEFSAII (Michael W. Deem and Ramdas Pophale) SiO2 
 PCOD8008665
Probable space group: P -1
;
_chemical_formula_sum "Si O2"
_cell_formula_units_Z 16
_cell_length_a 14.808506
_cell_length_b 14.270462
_cell_length_c 9.512915
_cell_angle_alpha 119.274997
_cell_angle_beta 127.375246
_cell_angle_gamma 28.758433
_cell_volume 763.695823
_symmetry_space_group_name_H-M "P -1"
_symmetry_group_IT_number 2
_symmetry_cell_setting 'triclinic'
loop_
_space_group_symop_operation_xyz
x,y,z
-x,-y,-z
loop_
_atom_site_type_symbol
_atom_site_label
_atom_site_fract_x
_atom_site_fract_y
_atom_site_fract_z
Si Si1 0.681906 0.334029 0.941083
Si Si2 0.856808 0.966263 0.837342
Si Si3 0.739974 0.965495 0.457088
Si Si4 0.787078 0.125191 0.443015
Si Si5 0.310762 0.327076 0.176732
Si Si6 0.112110 0.096527 0.854064
Si Si7 0.107555 0.304683 0.823560
Si Si8 0.644594 0.463418 0.705489
O O1 0.605748 0.453265 0.816999
O O2 0.710741 0.184610 0.833224
O O3 0.500000 0.500000 0.000000
O O4 0.904236 0.203284 0.105682
O O5 0.770703 0.938618 0.635106
O O6 0.837142 0.946800 0.965778
O O7 0.869877 0.767945 0.360979
O O8 0.824874 0.016730 0.530471
O O9 0.505090 0.138071 0.314006
O O10 0.593540 0.362435 0.468729
O O11 0.723562 0.102799 0.228785
O O12 0.000000 0.000000 0.500000
O O13 0.337822 0.421616 0.200522
O O14 0.125280 0.467396 0.217355
O O15 0.271072 0.272455 0.974273
O O16 0.138851 0.196691 0.901995
O O17 0.872624 0.240302 0.704212
#
# Coordination Sequence:
#
# PCOD8008665 Si02
#       8
#     2   2   2   2   2   2   2   2
#     4  10  21  35  54  72 106 157 184 206 264 322
#     4  10  22  36  53  76 115 142 181 221 262 318
#     4  10  21  34  51  84 109 136 175 231 267 310
#     4  10  21  32  52  75 107 138 181 221 260 313
#     4   9  18  36  58  81 105 136 178 228 272 319
#     4   9  19  37  53  75 106 143 177 215 265 321
#     4   9  18  36  62  79 103 140 179 221 277 320
#     4   9  19  34  52  78 102 138 183 216 260 313
#
# _framework density 20.950749999999999
#
# number of rings (size 3 to 8) (size 9 to 14) (size 15 to 20)
#    0.000    2.500    0.000    1.125    7.000    1.500 
#    4.500    0.625    0.000   12.000    0.000    0.000 
#    0.000    0.000    0.000    0.000    0.000    0.000 
#
# Total GULP energy -198263.353378 kJ/mol
# GULP energy per Si atom -12391.459586 kJ/mol
# Density = 2.090307 g / cm^3
# Si number density = 20.950750 Si / 1000 Ang^3
#
#
#
# Elastic Constant Matrix: (Units=GPa)
#
#
# Indices 1 2 3 4 5 6 
#
# 1 53.0948 14.3534 25.3016 -3.9266 -1.2201 -5.3796
# 2 14.3534 102.2300 32.7365 16.0373 -1.2103 -4.9514
# 3 25.3016 32.7365 110.4249 12.9612 -11.8706 -1.8258
# 4 -3.9266 16.0373 12.9612 28.3455 -7.9182 -2.5662
# 5 -1.2201 -1.2103 -11.8706 -7.9182 29.7649 0.7720
# 6 -5.3796 -4.9514 -1.8258 -2.5662 0.7720 17.7575
#
#
#
# Elastic Compliance Matrix: (Units=1/GPa)
#
#
# Indices 1 2 3 4 5 6 
#
# 1 0.023357 -0.002453 -0.005367 0.007884 0.000634 0.006952
# 2 -0.002453 0.011980 -0.002453 -0.006520 -0.002366 0.001505
# 3 -0.005367 -0.002453 0.011813 -0.003977 0.003381 -0.001817
# 4 0.007884 -0.006520 -0.003977 0.045343 0.010372 0.006263
# 5 0.000634 -0.002366 0.003381 0.010372 0.037640 -0.000257
# 6 0.006952 0.001505 -0.001817 0.006263 -0.000257 0.059570
#
#
# Mechanical properties :
#
#
# Convention : Reuss Voigt Hill
#
# Bulk Modulus (GPa) = 37.59012 45.61472 41.60242
# Shear Modulus (GPa) = 22.81878 28.06414 25.44146
#
# Velocity S-wave (km/s) = 3.30383 3.66393 3.48853
# Velocity P-wave (km/s) = 5.70393 6.30228 6.01056
#
# Compressibility (1/GPa) = 0.02660273
#
# Stress axis : x y z
#
# Youngs Moduli (GPa) = 42.81382 83.47390 84.65171
#
# Poissons Ratio (x) = 0.20480 0.45430
# Poissons Ratio (y) = 0.10504 0.20769
# Poissons Ratio (z) = 0.22977 0.20480
#
# Static dielectric constant tensor:
#      x y z
#    x 3.690800 -0.178720 0.197430 
#    y -0.178720 4.666690 0.127280 
#    z 0.197430 0.127280 3.608370 
# 
# 
# High freq. dielectric constant tensor:
#      x y z
#    x 1.803430 -0.011280 0.015440 
#    y -0.011280 1.851700 0.011960 
#    z 0.015440 0.011960 1.812260 
# 
# From -- ./inp_files/206681.got.cif
#   From: 2010.06.25/outbox.cif.g09.slc.cpg/sg2_104_cif.got.tgz:206681.got - 2010.06.27 13:26:56.
