data_PCOD8008117
_publ_section_title
;
Structure prediction by ZEFSAII (Michael W. Deem and Ramdas Pophale) SiO2 
 PCOD8008117
Probable space group: P -1
;
_chemical_formula_sum "Si O2"
_cell_formula_units_Z 16
_cell_length_a 17.607406
_cell_length_b 11.807247
_cell_length_c 9.644889
_cell_angle_alpha 115.355622
_cell_angle_beta 150.035840
_cell_angle_gamma 53.451964
_cell_volume 785.105744
_symmetry_space_group_name_H-M "P -1"
_symmetry_group_IT_number 2
_symmetry_cell_setting 'triclinic'
loop_
_space_group_symop_operation_xyz
x,y,z
-x,-y,-z
loop_
_atom_site_type_symbol
_atom_site_label
_atom_site_fract_x
_atom_site_fract_y
_atom_site_fract_z
Si Si1 0.298344 0.051805 0.742310
Si Si2 0.295949 0.078162 0.308166
Si Si3 0.146474 0.394476 0.275637
Si Si4 0.496830 0.614554 0.162253
Si Si5 0.203264 0.927297 0.298605
Si Si6 0.022178 0.373160 0.368960
Si Si7 0.349061 0.938631 0.059586
Si Si8 0.344771 0.621681 0.227318
O O1 0.165520 0.217261 0.574890
O O2 0.254020 0.934896 0.541938
O O3 0.500000 0.000000 0.000000
O O4 0.267953 0.038325 0.849788
O O5 0.183026 0.245879 0.189530
O O6 0.494589 0.040051 0.623668
O O7 0.251656 0.038301 0.364130
O O8 0.233098 0.004036 0.049867
O O9 0.304958 0.425695 0.522149
O O10 0.092071 0.404005 0.353895
O O11 0.000000 0.500000 0.000000
O O12 0.392536 0.775403 0.015094
O O13 0.407465 0.609788 0.162035
O O14 0.500000 0.500000 0.000000
O O15 0.310073 0.770063 0.319432
O O16 0.000000 0.000000 0.000000
O O17 0.000000 0.500000 0.500000
O O18 0.833105 0.386143 0.053362
O O19 0.500000 0.500000 0.500000
#
# Coordination Sequence:
#
# PCOD8008117 Si02
#       8
#     2   2   2   2   2   2   2   2
#     4  12  24  42  70 100 131 180 230 276 342 397
#     4  10  20  42  66  92 127 167 225 269 322 401
#     4  11  23  43  68  94 129 179 221 268 334 403
#     4  11  24  44  65  97 136 171 219 279 334 399
#     4  12  23  45  67  95 140 173 224 289 333 400
#     4  12  27  46  66 103 141 172 228 286 332 414
#     4  10  22  39  68  95 123 172 222 271 326 398
#     4  12  27  45  70 102 135 184 224 278 352 400
#
# _framework density 20.379421000000001
#
# number of rings (size 3 to 8) (size 9 to 14) (size 15 to 20)
#    0.000    0.750    5.000    2.250    5.250    0.000 
#    0.000    1.250    0.000    0.000    0.000    0.000 
#    0.000    0.000    0.000    0.000    0.000    0.000 
#
# Total GULP energy -198260.931675 kJ/mol
# GULP energy per Si atom -12391.308230 kJ/mol
# Density = 2.033304 g / cm^3
# Si number density = 20.379421 Si / 1000 Ang^3
#
#
#
# Elastic Constant Matrix: (Units=GPa)
#
#
# Indices 1 2 3 4 5 6 
#
# 1 99.0721 -96.5578 159.9525 15.2086 10.5387 4.0048
# 2 -96.5578 990.1835 -849.8499 -126.0135 -182.3282 -104.4664
# 3 159.9525 -849.8499 1116.9635 135.5521 175.2334 90.2244
# 4 15.2086 -126.0135 135.5521 67.3312 26.3905 5.6731
# 5 10.5387 -182.3282 175.2334 26.3905 79.6187 21.0794
# 6 4.0048 -104.4664 90.2244 5.6731 21.0794 44.0057
#
#
#
# Elastic Compliance Matrix: (Units=1/GPa)
#
#
# Indices 1 2 3 4 5 6 
#
# 1 0.014211 -0.000212 -0.003063 0.001034 0.003299 0.002770
# 2 -0.000212 0.003808 0.001988 0.001752 0.002900 0.003368
# 3 -0.003063 0.001988 0.003391 -0.001668 -0.001710 -0.000922
# 4 0.001034 0.001752 -0.001668 0.021145 -0.000828 0.005154
# 5 0.003299 0.002900 -0.001710 -0.000828 0.023023 -0.000830
# 6 0.002770 0.003368 -0.000922 0.005154 -0.000830 0.032090
#
#
# Mechanical properties :
#
#
# Convention : Reuss Voigt Hill
#
# Bulk Modulus (GPa) = 53.09109 70.36763 61.72936
# Shear Modulus (GPa) = 46.93946 237.70274 142.32110
#
# Velocity S-wave (km/s) = 4.80445 10.81165 8.36584
# Velocity P-wave (km/s) = 7.54221 13.80071 11.12080
#
# Compressibility (1/GPa) = 0.01883555
#
# Stress axis : x y z
#
# Youngs Moduli (GPa) = 70.36866 262.63927 294.86411
#
# Poissons Ratio (x) = 0.05562 0.90317
# Poissons Ratio (y) = 0.01490 -0.58610
# Poissons Ratio (z) = 0.21554 -0.52204
#
# Static dielectric constant tensor:
#      x y z
#    x 3.900750 0.055080 0.053780 
#    y 0.055080 3.666520 -0.041270 
#    z 0.053780 -0.041270 3.656020 
# 
# 
# High freq. dielectric constant tensor:
#      x y z
#    x 1.812730 -0.007260 -0.007100 
#    y -0.007260 1.810660 0.007130 
#    z -0.007100 0.007130 1.798240 
# 
# From -- ./inp_files/186965.got.cif
#   From: 2010.06.25/outbox.cif.g09.slc.cpg/sg2_94_cif.got.tgz:186965.got - 2010.06.27 13:26:56.
