data_PCOD8008766
_publ_section_title
;
Structure prediction by ZEFSAII (Michael W. Deem and Ramdas Pophale) SiO2 
 PCOD8008766
Probable space group: P -1
;
_chemical_formula_sum "Si O2"
_cell_formula_units_Z 16
_cell_length_a 19.289875
_cell_length_b 8.527425
_cell_length_c 7.724010
_cell_angle_alpha 97.996253
_cell_angle_beta 79.533555
_cell_angle_gamma 142.852332
_cell_volume 754.445408
_symmetry_space_group_name_H-M "P -1"
_symmetry_group_IT_number 2
_symmetry_cell_setting 'triclinic'
loop_
_space_group_symop_operation_xyz
x,y,z
-x,-y,-z
loop_
_atom_site_type_symbol
_atom_site_label
_atom_site_fract_x
_atom_site_fract_y
_atom_site_fract_z
Si Si1 0.286074 0.485883 0.937319
Si Si2 0.656986 0.081384 0.151278
Si Si3 0.812340 0.248617 0.411153
Si Si4 0.568927 0.480793 0.885545
Si Si5 0.133278 0.997701 0.688599
Si Si6 0.248189 0.962346 0.215102
Si Si7 0.055516 0.831691 0.339480
Si Si8 0.936057 0.847820 0.833723
O O1 0.352968 0.751092 0.863483
O O2 0.213481 0.266718 0.788996
O O3 0.375016 0.523577 0.987982
O O4 0.201084 0.406514 0.112232
O O5 0.729969 0.198344 0.312211
O O6 0.526373 0.794639 0.213128
O O7 0.713214 0.086623 0.964221
O O8 0.934417 0.552442 0.422215
O O9 0.833749 0.119444 0.284084
O O10 0.756931 0.135996 0.611495
O O11 0.664466 0.731430 0.757895
O O12 0.500000 0.500000 0.000000
O O13 0.148899 0.030706 0.480026
O O14 0.994648 0.787540 0.738791
O O15 0.123136 0.816762 0.194801
O O16 0.030980 0.951884 0.277356
O O17 0.000000 0.000000 0.000000
#
# Coordination Sequence:
#
# PCOD8008766 Si02
#       8
#     2   2   2   2   2   2   2   2
#     4  11  22  41  63  93 125 164 215 254 323 376
#     4  11  25  41  67  92 128 172 208 269 310 372
#     4  11  24  40  65  97 131 165 215 257 311 383
#     4  10  21  43  70  90 122 166 216 265 313 367
#     4  10  21  37  59  91 126 167 199 256 315 372
#     4  10  22  42  65  95 124 169 213 261 317 371
#     4  11  22  40  60  91 133 164 208 262 311 379
#     4  10  21  34  57  88 124 167 200 245 313 378
#
# _framework density 21.207629000000001
#
# number of rings (size 3 to 8) (size 9 to 14) (size 15 to 20)
#    0.000    1.500    1.250    5.250    5.250    1.000 
#    0.000    1.250    0.000    6.750    0.000    0.000 
#    0.000    0.000    0.000    0.000    0.000    0.000 
#
# Total GULP energy -198238.763840 kJ/mol
# GULP energy per Si atom -12389.922740 kJ/mol
# Density = 2.115936 g / cm^3
# Si number density = 21.207629 Si / 1000 Ang^3
#
#
#
# Elastic Constant Matrix: (Units=GPa)
#
#
# Indices 1 2 3 4 5 6 
#
# 1 105.8990 17.6600 18.9340 -5.3607 20.6311 10.0457
# 2 17.6600 118.3747 31.0562 -9.9726 18.2349 4.3746
# 3 18.9340 31.0562 68.8012 -5.6953 14.0939 6.3275
# 4 -5.3607 -9.9726 -5.6953 31.2420 -7.4387 5.3075
# 5 20.6311 18.2349 14.0939 -7.4387 24.0935 -1.2935
# 6 10.0457 4.3746 6.3275 5.3075 -1.2935 31.0534
#
#
#
# Elastic Compliance Matrix: (Units=1/GPa)
#
#
# Indices 1 2 3 4 5 6 
#
# 1 0.011923 0.000170 -0.000917 0.000272 -0.009941 -0.004155
# 2 0.000170 0.010340 -0.003307 0.001621 -0.005609 -0.001348
# 3 -0.000917 -0.003307 0.018150 0.000955 -0.007217 -0.003400
# 4 0.000272 0.001621 0.000955 0.035891 0.008726 -0.006282
# 5 -0.009941 -0.005609 -0.007217 0.008726 0.061529 0.006548
# 6 -0.004155 -0.001348 -0.003400 -0.006282 0.006548 0.035776
#
#
# Mechanical properties :
#
#
# Convention : Reuss Voigt Hill
#
# Bulk Modulus (GPa) = 30.95535 47.59726 39.27631
# Shear Modulus (GPa) = 25.97585 32.30609 29.14097
#
# Velocity S-wave (km/s) = 3.50356 3.90721 3.71088
# Velocity P-wave (km/s) = 5.56728 6.54578 6.07626
#
# Compressibility (1/GPa) = 0.03230459
#
# Stress axis : x y z
#
# Youngs Moduli (GPa) = 83.87046 96.70760 55.09712
#
# Poissons Ratio (x) = -0.01639 0.05051
# Poissons Ratio (y) = -0.01422 0.18221
# Poissons Ratio (z) = 0.07689 0.31983
#
# Static dielectric constant tensor:
#      x y z
#    x 6.807210 2.158020 -3.252500 
#    y 2.158020 5.865770 -2.549120 
#    z -3.252500 -2.549120 7.323390 
# 
# 
# High freq. dielectric constant tensor:
#      x y z
#    x 1.847270 -0.003950 0.003380 
#    y -0.003950 1.829470 -0.003940 
#    z 0.003380 -0.003940 1.818170 
# 
# From -- ./inp_files/308848.got.cif
#   From: 2010.06.25/outbox.cif.g09.slc.cpg/sg2_155_cif.got.tgz:308848.got - 2010.06.27 13:26:56.
