data_PCOD8008027
_publ_section_title
;
Structure prediction by ZEFSAII (Michael W. Deem and Ramdas Pophale) SiO2 
 PCOD8008027
Probable space group: P -1
;
_chemical_formula_sum "Si O2"
_cell_formula_units_Z 14
_cell_length_a 11.938788
_cell_length_b 12.054804
_cell_length_c 8.495395
_cell_angle_alpha 126.020499
_cell_angle_beta 63.811377
_cell_angle_gamma 138.640877
_cell_volume 653.436355
_symmetry_space_group_name_H-M "P -1"
_symmetry_group_IT_number 2
_symmetry_cell_setting 'triclinic'
loop_
_space_group_symop_operation_xyz
x,y,z
-x,-y,-z
loop_
_atom_site_type_symbol
_atom_site_label
_atom_site_fract_x
_atom_site_fract_y
_atom_site_fract_z
Si Si1 0.057028 0.555420 0.732368
Si Si2 0.238332 0.310747 0.104420
Si Si3 0.319642 0.627423 0.138162
Si Si4 0.531105 0.407837 0.533182
Si Si5 0.942452 0.233167 0.353043
Si Si6 0.619739 0.222597 0.108417
Si Si7 0.642126 0.842820 0.294752
O O1 0.125030 0.711392 0.689771
O O2 0.180988 0.668879 0.899696
O O3 0.857647 0.425644 0.782407
O O4 0.071779 0.410802 0.536488
O O5 0.287451 0.442292 0.033753
O O6 0.326049 0.425010 0.304485
O O7 0.038989 0.179101 0.160170
O O8 0.294179 0.200878 0.929859
O O9 0.460823 0.776977 0.305926
O O10 0.400469 0.713939 0.990362
O O11 0.500000 0.500000 0.500000
O O12 0.573484 0.292779 0.334097
O O13 0.369360 0.253109 0.616720
O O14 0.783755 0.064172 0.413450
O O15 0.500000 0.000000 0.000000
#
# Coordination Sequence:
#
# PCOD8008027 Si02
#       7
#     2   2   2   2   2   2   2
#     4  10  22  40  61  87 128 166 196 256 318 359
#     4  10  20  42  64  88 121 167 202 253 315 368
#     4  10  22  39  63  88 124 162 204 251 311 368
#     4  11  23  41  63  89 128 165 204 257 316 366
#     4  10  21  38  63  92 124 158 208 254 306 368
#     4  12  24  40  62  95 126 164 211 257 306 372
#     4  11  22  38  67  94 118 162 217 249 301 378
#
# _framework density 21.425194000000001
#
# number of rings (size 3 to 8) (size 9 to 14) (size 15 to 20)
#    0.000    1.429    1.429    5.143    4.000    0.571 
#    0.000    0.714    0.000    0.000    0.000    0.000 
#    0.000    0.000    0.000    0.000    0.000    0.000 
#
# Total GULP energy -173492.657695 kJ/mol
# GULP energy per Si atom -12392.332693 kJ/mol
# Density = 2.137643 g / cm^3
# Si number density = 21.425194 Si / 1000 Ang^3
#
#
#
# Elastic Constant Matrix: (Units=GPa)
#
#
# Indices 1 2 3 4 5 6 
#
# 1 98.6145 56.7042 41.5117 4.1927 8.6241 1.7377
# 2 56.7042 143.2187 30.4686 -6.7824 18.0321 3.6256
# 3 41.5117 30.4686 87.8998 -0.8418 3.1854 -8.3902
# 4 4.1927 -6.7824 -0.8418 27.7754 -4.1863 4.1479
# 5 8.6241 18.0321 3.1854 -4.1863 34.1336 -7.9603
# 6 1.7377 3.6256 -8.3902 4.1479 -7.9603 26.0208
#
#
#
# Elastic Compliance Matrix: (Units=1/GPa)
#
#
# Indices 1 2 3 4 5 6 
#
# 1 0.015814 -0.004878 -0.005963 -0.003698 -0.001846 -0.002275
# 2 -0.004878 0.009949 -0.001272 0.002966 -0.004301 -0.003259
# 3 -0.005963 -0.001272 0.015136 0.000480 0.002239 0.006064
# 4 -0.003698 0.002966 0.000480 0.038514 0.002812 -0.005290
# 5 -0.001846 -0.004301 0.002239 0.002812 0.034893 0.011671
# 6 -0.002275 -0.003259 0.006064 -0.005290 0.011671 0.045406
#
#
# Mechanical properties :
#
#
# Convention : Reuss Voigt Hill
#
# Bulk Modulus (GPa) = 59.97636 65.23357 62.60496
# Shear Modulus (GPa) = 26.38599 30.98920 28.68759
#
# Velocity S-wave (km/s) = 3.51314 3.80727 3.66316
# Velocity P-wave (km/s) = 6.67161 7.05977 6.86843
#
# Compressibility (1/GPa) = 0.01667324
#
# Stress axis : x y z
#
# Youngs Moduli (GPa) = 63.23426 100.51744 66.06777
#
# Poissons Ratio (x) = 0.49029 0.39398
# Poissons Ratio (y) = 0.30844 0.08402
# Poissons Ratio (z) = 0.37709 0.12783
#
# Static dielectric constant tensor:
#      x y z
#    x 3.944630 0.017060 -0.032650 
#    y 0.017060 3.887300 -0.083530 
#    z -0.032650 -0.083530 3.769300 
# 
# 
# High freq. dielectric constant tensor:
#      x y z
#    x 1.835500 0.001910 -0.004630 
#    y 0.001910 1.846730 -0.005480 
#    z -0.004630 -0.005480 1.829960 
# 
# From -- ./inp_files/154181.got.cif
#   From: 2010.06.25/outbox.cif.g09.slc.cpg/sg2_78_cif.got.tgz:154181.got - 2010.06.27 13:26:56.
