data_PCOD8008622
_publ_section_title
;
Structure prediction by ZEFSAII (Michael W. Deem and Ramdas Pophale) SiO2 
 PCOD8008622
Probable space group: P -1
;
_chemical_formula_sum "Si O2"
_cell_formula_units_Z 16
_cell_length_a 14.281266
_cell_length_b 7.610634
_cell_length_c 10.498612
_cell_angle_alpha 115.688092
_cell_angle_beta 47.148516
_cell_angle_gamma 90.008919
_cell_volume 674.746825
_symmetry_space_group_name_H-M "P -1"
_symmetry_group_IT_number 2
_symmetry_cell_setting 'triclinic'
loop_
_space_group_symop_operation_xyz
x,y,z
-x,-y,-z
loop_
_atom_site_type_symbol
_atom_site_label
_atom_site_fract_x
_atom_site_fract_y
_atom_site_fract_z
Si Si1 0.578140 0.717408 0.343821
Si Si2 0.619130 0.152552 0.864611
Si Si3 0.983586 0.847534 0.135458
Si Si4 0.685644 0.683104 0.748024
Si Si5 0.335038 0.999764 0.499803
Si Si6 0.762682 0.795739 0.974582
Si Si7 0.066196 0.683062 0.748063
Si Si8 0.250330 0.774325 0.999213
O O1 0.597013 0.827745 0.493280
O O2 0.409899 0.827364 0.492918
O O3 0.663634 0.779281 0.172943
O O4 0.634929 0.460942 0.230376
O O5 0.731620 0.202696 0.858209
O O6 0.645928 0.909956 0.790191
O O7 0.630941 0.156796 0.703395
O O8 0.462329 0.334713 0.107610
O O9 0.834090 0.843765 0.297101
O O10 0.089695 0.797429 0.141820
O O11 0.936307 0.089906 0.209256
O O12 0.069510 0.665031 0.892642
O O13 0.750244 0.666550 0.822963
O O14 0.792554 0.499870 0.499983
O O15 0.926837 0.666384 0.822402
O O16 0.724516 0.046675 0.050987
#
# Coordination Sequence:
#
# PCOD8008622 Si02
#       8
#     2   2   2   2   2   2   2   2
#     4  11  24  43  70 100 131 185 219 278 345 390
#     4  10  23  42  63 100 138 172 229 279 327 410
#     4  10  23  42  63 100 138 172 229 279 327 410
#     4  10  21  39  68  96 133 182 223 274 341 396
#     4  11  24  43  66 100 140 171 226 285 330 406
#     4  10  20  45  66  99 138 167 233 281 321 416
#     4  10  21  39  68  96 133 182 223 274 341 396
#     4  10  25  43  68  98 138 177 225 278 335 395
#
# _framework density 23.712596000000001
#
# number of rings (size 3 to 8) (size 9 to 14) (size 15 to 20)
#    0.000    1.750    2.500    0.375    3.500    3.500 
#    0.000    3.125    0.000    0.000    0.000    0.000 
#    0.000    0.000    0.000    0.000    0.000    0.000 
#
# Total GULP energy -198239.591583 kJ/mol
# GULP energy per Si atom -12389.974474 kJ/mol
# Density = 2.365863 g / cm^3
# Si number density = 23.712596 Si / 1000 Ang^3
#
#
#
# Elastic Constant Matrix: (Units=GPa)
#
#
# Indices 1 2 3 4 5 6 
#
# 1 203.2275 18.0404 66.1759 7.4617 -2.1980 -0.1381
# 2 18.0404 32.3065 21.3784 6.9701 0.0414 0.0603
# 3 66.1759 21.3784 150.4202 27.4877 0.5146 0.3370
# 4 7.4617 6.9701 27.4877 28.1540 0.5547 0.4182
# 5 -2.1980 0.0414 0.5146 0.5547 10.4280 -5.4939
# 6 -0.1381 0.0603 0.3370 0.4182 -5.4939 7.6603
#
#
#
# Elastic Compliance Matrix: (Units=1/GPa)
#
#
# Indices 1 2 3 4 5 6 
#
# 1 0.005907 -0.001884 -0.002591 0.001360 0.002239 0.001767
# 2 -0.001884 0.035250 -0.003259 -0.005045 -0.000082 0.000048
# 3 -0.002591 -0.003259 0.009710 -0.007957 -0.000959 -0.000701
# 4 0.001360 -0.005045 -0.007957 0.044339 -0.004365 -0.005137
# 5 0.002239 -0.000082 -0.000959 -0.004365 0.155617 0.111930
# 6 0.001767 0.000048 -0.000701 -0.005137 0.111930 0.211163
#
#
# Mechanical properties :
#
#
# Convention : Reuss Voigt Hill
#
# Bulk Modulus (GPa) = 28.24883 66.34929 47.29906
# Shear Modulus (GPa) = 10.21962 27.93908 19.07935
#
# Velocity S-wave (km/s) = 2.07825 3.43627 2.83964
# Velocity P-wave (km/s) = 4.20687 6.61705 5.54450
#
# Compressibility (1/GPa) = 0.03539970
#
# Stress axis : x y z
#
# Youngs Moduli (GPa) = 169.28959 28.36839 102.98385
#
# Poissons Ratio (x) = 0.05343 0.26686
# Poissons Ratio (y) = 0.31886 0.33565
# Poissons Ratio (z) = 0.43867 0.09246
#
# Static dielectric constant tensor:
#      x y z
#    x 4.749920 0.001800 -0.006240 
#    y 0.001800 3.965020 0.148990 
#    z -0.006240 0.148990 4.432400 
# 
# 
# High freq. dielectric constant tensor:
#      x y z
#    x 1.966620 0.000340 -0.000560 
#    y 0.000340 1.908380 0.021060 
#    z -0.000560 0.021060 1.933600 
# 
# From -- ./inp_files/446294.got.cif
#   From: 2010.06.25/outbox.cif.g09.slc.cpg/sg2_224_cif.got.tgz:446294.got - 2010.06.27 13:26:56.
