data_PCOD8008124
_publ_section_title
;
Structure prediction by ZEFSAII (Michael W. Deem and Ramdas Pophale) SiO2 
 PCOD8008124
Probable space group: P -1
;
_chemical_formula_sum "Si O2"
_cell_formula_units_Z 14
_cell_length_a 18.078647
_cell_length_b 14.573397
_cell_length_c 21.535716
_cell_angle_alpha 26.674712
_cell_angle_beta 162.168650
_cell_angle_gamma 158.925816
_cell_volume 624.030357
_symmetry_space_group_name_H-M "P -1"
_symmetry_group_IT_number 2
_symmetry_cell_setting 'triclinic'
loop_
_space_group_symop_operation_xyz
x,y,z
-x,-y,-z
loop_
_atom_site_type_symbol
_atom_site_label
_atom_site_fract_x
_atom_site_fract_y
_atom_site_fract_z
Si Si1 0.415765 0.684935 0.337194
Si Si2 0.360939 0.982880 0.333036
Si Si3 0.313414 0.789026 0.069304
Si Si4 0.754021 0.507648 0.908862
Si Si5 0.628794 0.727281 0.143617
Si Si6 0.267820 0.083473 0.423242
Si Si7 0.348097 0.402738 0.004703
O O1 0.500000 0.500000 0.500000
O O2 0.517940 0.856186 0.253127
O O3 0.605839 0.854072 0.444721
O O4 0.062135 0.549931 0.150705
O O5 0.481134 0.882456 0.440588
O O6 0.500000 0.000000 0.500000
O O7 0.449258 0.251866 0.215178
O O8 0.005565 0.775676 0.180828
O O9 0.447824 0.758658 0.131610
O O10 0.000000 0.500000 0.000000
O O11 0.293618 0.022029 0.910258
O O12 0.574669 0.495873 0.833516
O O13 0.828030 0.741689 0.784277
O O14 0.452327 0.643692 0.986935
O O15 0.957407 0.792902 0.353156
O O16 0.500000 0.500000 0.000000
#
# Coordination Sequence:
#
# PCOD8008124 Si02
#       7
#     2   2   2   2   2   2   2
#     4  11  21  41  68  93 135 182 222 273 338 396
#     4  11  26  49  73 100 139 181 230 288 353 410
#     4  10  20  42  66  92 138 181 215 272 337 394
#     4  11  23  44  65  97 141 177 227 279 335 400
#     4  12  24  43  71  99 136 180 224 281 339 400
#     4  12  24  42  70  98 136 179 223 280 340 404
#     4  11  27  48  72 104 140 178 232 293 345 410
#
# _framework density 22.434805000000001
#
# number of rings (size 3 to 8) (size 9 to 14) (size 15 to 20)
#    0.000    0.857    4.286    3.857    2.000    5.714 
#    2.571    1.429    0.000    0.000    0.000    0.000 
#    0.000    0.000    0.000    0.000    0.000    0.000 
#
# Total GULP energy -173446.744926 kJ/mol
# GULP energy per Si atom -12389.053209 kJ/mol
# Density = 2.238374 g / cm^3
# Si number density = 22.434805 Si / 1000 Ang^3
#
#
#
# Elastic Constant Matrix: (Units=GPa)
#
#
# Indices 1 2 3 4 5 6 
#
# 1 164.2729 36.2629 56.7577 25.5948 -19.8260 6.7592
# 2 36.2629 70.0213 40.6351 15.9980 -5.0510 0.3630
# 3 56.7577 40.6351 129.8000 5.4836 -16.2006 10.1059
# 4 25.5948 15.9980 5.4836 25.6140 -7.5132 0.8621
# 5 -19.8260 -5.0510 -16.2006 -7.5132 46.1002 4.2122
# 6 6.7592 0.3630 10.1059 0.8621 4.2122 40.0607
#
#
#
# Elastic Compliance Matrix: (Units=1/GPa)
#
#
# Indices 1 2 3 4 5 6 
#
# 1 0.008603 -0.001115 -0.002878 -0.006813 0.001523 -0.000729
# 2 -0.001115 0.020728 -0.005970 -0.011305 -0.002331 0.001995
# 3 -0.002878 -0.005970 0.011217 0.005220 0.003150 -0.002734
# 4 -0.006813 -0.011305 0.005220 0.053795 0.006608 -0.001917
# 5 0.001523 -0.002331 0.003150 0.006608 0.024619 -0.003761
# 6 -0.000729 0.001995 -0.002734 -0.001917 -0.003761 0.026193
#
#
# Mechanical properties :
#
#
# Convention : Reuss Voigt Hill
#
# Bulk Modulus (GPa) = 48.49298 70.15617 59.32458
# Shear Modulus (GPa) = 29.07707 37.71755 33.39731
#
# Velocity S-wave (km/s) = 3.60400 4.10470 3.86247
# Velocity P-wave (km/s) = 6.24343 7.33511 6.81117
#
# Compressibility (1/GPa) = 0.02062154
#
# Stress axis : x y z
#
# Youngs Moduli (GPa) = 116.23422 48.24455 89.14792
#
# Poissons Ratio (x) = 0.05379 0.25660
# Poissons Ratio (y) = 0.12959 0.53223
# Poissons Ratio (z) = 0.33456 0.28803
#
# Static dielectric constant tensor:
#      x y z
#    x 4.487970 -0.037710 -0.029080 
#    y -0.037710 3.938500 -0.057160 
#    z -0.029080 -0.057160 4.085890 
# 
# 
# High freq. dielectric constant tensor:
#      x y z
#    x 1.916400 -0.003780 -0.005920 
#    y -0.003780 1.870020 0.000510 
#    z -0.005920 0.000510 1.877870 
# 
# From -- ./inp_files/600282.got.cif
#   From: 2010.06.25/outbox.cif.g09.slc.cpg/sg2_301_cif.got.tgz:600282.got - 2010.06.27 13:26:56.
