data_PCOD8008815
_publ_section_title
;
Structure prediction by ZEFSAII (Michael W. Deem and Ramdas Pophale) SiO2 
 PCOD8008815
Probable space group: P -1
;
_chemical_formula_sum "Si O2"
_cell_formula_units_Z 12
_cell_length_a 13.221425
_cell_length_b 13.439662
_cell_length_c 7.724422
_cell_angle_alpha 82.793797
_cell_angle_beta 82.068577
_cell_angle_gamma 22.432245
_cell_volume 518.739216
_symmetry_space_group_name_H-M "P -1"
_symmetry_group_IT_number 2
_symmetry_cell_setting 'triclinic'
loop_
_space_group_symop_operation_xyz
x,y,z
-x,-y,-z
loop_
_atom_site_type_symbol
_atom_site_label
_atom_site_fract_x
_atom_site_fract_y
_atom_site_fract_z
Si Si1 0.545983 0.237164 0.212740
Si Si2 0.256596 0.657646 0.451291
Si Si3 0.877408 0.417123 0.344340
Si Si4 0.118665 0.885898 0.751668
Si Si5 0.927495 0.261761 0.005378
Si Si6 0.447502 0.936080 0.466725
O O1 0.554934 0.131684 0.350434
O O2 0.257696 0.516716 0.139828
O O3 0.613239 0.284623 0.285511
O O4 0.765503 0.019025 0.061285
O O5 0.500000 0.500000 0.500000
O O6 0.260606 0.532849 0.490315
O O7 0.050987 0.873600 0.609008
O O8 0.128227 0.810276 0.263398
O O9 0.884713 0.365319 0.164041
O O10 0.169995 0.183300 0.380130
O O11 0.683657 0.689128 0.334103
O O12 0.139619 0.796231 0.935022
O O13 0.500000 0.000000 0.500000
#
# Coordination Sequence:
#
# PCOD8008815 Si02
#       6
#     2   2   2   2   2   2
#     4  12  24  44  63 101 137 176 220 278 323 389
#     4  10  21  34  64  98 135 178 223 262 318 394
#     4  11  24  46  69  98 136 174 224 275 331 400
#     4  10  22  36  60  97 138 179 216 254 324 402
#     4  11  26  40  67 100 143 176 209 262 347 402
#     4  12  26  48  75  96 123 175 237 287 330 384
#
# _framework density 23.133012999999998
#
# number of rings (size 3 to 8) (size 9 to 14) (size 15 to 20)
#    0.000    1.000    1.667    4.500   11.667    0.000 
#    0.000    5.000    0.000    0.000    0.000    0.000 
#    0.000    0.000    0.000    0.000    0.000    0.000 
#
# Total GULP energy -148740.401823 kJ/mol
# GULP energy per Si atom -12395.033485 kJ/mol
# Density = 2.308036 g / cm^3
# Si number density = 23.133013 Si / 1000 Ang^3
#
#
#
# Elastic Constant Matrix: (Units=GPa)
#
#
# Indices 1 2 3 4 5 6 
#
# 1 142.4136 58.3901 42.6961 -4.1044 5.7689 19.0568
# 2 58.3901 136.7594 11.5976 -5.6624 11.3866 1.9742
# 3 42.6961 11.5976 70.9844 -3.6044 -0.4528 8.4515
# 4 -4.1044 -5.6624 -3.6044 31.9414 -1.7947 17.4703
# 5 5.7689 11.3866 -0.4528 -1.7947 27.1808 -1.9475
# 6 19.0568 1.9742 8.4515 17.4703 -1.9475 42.4721
#
#
#
# Elastic Compliance Matrix: (Units=1/GPa)
#
#
# Indices 1 2 3 4 5 6 
#
# 1 0.011000 -0.003992 -0.005252 0.002724 -0.000919 -0.004867
# 2 -0.003992 0.009201 0.000811 0.000597 -0.002896 0.000824
# 3 -0.005252 0.000811 0.017527 0.002735 0.001087 -0.002244
# 4 0.002724 0.000597 0.002735 0.042674 0.000651 -0.019318
# 5 -0.000919 -0.002896 0.001087 0.000651 0.038390 0.001823
# 6 -0.004867 0.000824 -0.002244 -0.019318 0.001823 0.034167
#
#
# Mechanical properties :
#
#
# Convention : Reuss Voigt Hill
#
# Bulk Modulus (GPa) = 47.93031 63.94723 55.93877
# Shear Modulus (GPa) = 28.28377 36.15043 32.21710
#
# Velocity S-wave (km/s) = 3.50045 3.95741 3.73592
# Velocity P-wave (km/s) = 6.09113 6.97028 6.54548
#
# Compressibility (1/GPa) = 0.02086362
#
# Stress axis : x y z
#
# Youngs Moduli (GPa) = 90.90858 108.67864 57.05415
#
# Poissons Ratio (x) = 0.43380 0.29966
# Poissons Ratio (y) = 0.36287 -0.04629
# Poissons Ratio (z) = 0.47747 -0.08817
#
# Static dielectric constant tensor:
#      x y z
#    x 6.537520 2.411680 1.886860 
#    y 2.411680 6.888460 1.638940 
#    z 1.886860 1.638940 5.667820 
# 
# 
# High freq. dielectric constant tensor:
#      x y z
#    x 1.894710 0.015240 0.021390 
#    y 0.015240 1.952370 0.013120 
#    z 0.021390 0.013120 1.924480 
# 
# From -- ./inp_files/36896.got.cif
#   From: 2010.06.25/outbox.cif.g09.slc.cpg/sg2_19_cif.got.tgz:36896.got - 2010.06.27 13:26:56.
