data_PCOD8008122
_publ_section_title
;
Structure prediction by ZEFSAII (Michael W. Deem and Ramdas Pophale) SiO2 
 PCOD8008122
Probable space group: P -1
;
_chemical_formula_sum "Si O2"
_cell_formula_units_Z 16
_cell_length_a 10.981738
_cell_length_b 14.540627
_cell_length_c 14.608160
_cell_angle_alpha 160.727328
_cell_angle_beta 68.582418
_cell_angle_gamma 112.166692
_cell_volume 712.710002
_symmetry_space_group_name_H-M "P -1"
_symmetry_group_IT_number 2
_symmetry_cell_setting 'triclinic'
loop_
_space_group_symop_operation_xyz
x,y,z
-x,-y,-z
loop_
_atom_site_type_symbol
_atom_site_label
_atom_site_fract_x
_atom_site_fract_y
_atom_site_fract_z
Si Si1 0.824694 0.774578 0.152745
Si Si2 0.014431 0.628533 0.342008
Si Si3 0.356693 0.838852 0.898619
Si Si4 0.821833 0.651580 0.841578
Si Si5 0.719977 0.741613 0.545799
Si Si6 0.280135 0.841031 0.718616
Si Si7 0.459144 0.000096 0.303001
Si Si8 0.422287 0.415160 0.850325
O O1 0.943763 0.575390 0.942692
O O2 0.749081 0.690119 0.996658
O O3 0.723558 0.728574 0.220276
O O4 0.885999 0.092859 0.430124
O O5 0.039779 0.469960 0.283946
O O6 0.864885 0.676698 0.418193
O O7 0.367797 0.542870 0.667239
O O8 0.285632 0.771516 0.758477
O O9 0.500000 0.000000 0.000000
O O10 0.268665 0.030532 0.162108
O O11 0.738863 0.445661 0.601619
O O12 0.836412 0.958839 0.078796
O O13 0.656737 0.863597 0.588749
O O14 0.417020 0.009104 0.806647
O O15 0.494837 0.184663 0.557858
O O16 0.406997 0.683597 0.044406
O O17 0.500000 0.500000 0.000000
#
# Coordination Sequence:
#
# PCOD8008122 Si02
#       8
#     2   2   2   2   2   2   2   2
#     4  10  20  42  66  92 133 173 219 253 336 384
#     4  10  22  43  70  89 131 190 210 265 321 393
#     4  12  26  44  69  97 135 169 220 276 332 393
#     4  10  21  39  67  92 128 175 220 254 332 387
#     4  12  26  48  67  97 132 176 224 265 326 392
#     4  12  22  40  65  99 127 174 212 278 332 388
#     4  12  26  40  67  97 136 167 221 263 334 391
#     4  12  25  41  65 105 134 166 214 279 326 383
#
# _framework density 22.449525000000001
#
# number of rings (size 3 to 8) (size 9 to 14) (size 15 to 20)
#    0.750    0.000    2.500    6.000    1.750    0.000 
#    0.000    7.500    0.000    0.000    0.000    0.000 
#    0.000    0.000    0.000    0.000    0.000    0.000 
#
# Total GULP energy -198354.235960 kJ/mol
# GULP energy per Si atom -12397.139747 kJ/mol
# Density = 2.239843 g / cm^3
# Si number density = 22.449525 Si / 1000 Ang^3
#
#
#
# Elastic Constant Matrix: (Units=GPa)
#
#
# Indices 1 2 3 4 5 6 
#
# 1 57.2435 7.6978 -7.6926 5.0254 -11.6022 -1.5956
# 2 7.6978 65.6443 15.7644 9.3368 1.6409 -2.1277
# 3 -7.6926 15.7644 107.2977 12.3912 -4.4751 -2.0127
# 4 5.0254 9.3368 12.3912 39.1415 -1.8058 -4.2718
# 5 -11.6022 1.6409 -4.4751 -1.8058 32.4986 0.7361
# 6 -1.5956 -2.1277 -2.0127 -4.2718 0.7361 17.9036
#
#
#
# Elastic Compliance Matrix: (Units=1/GPa)
#
#
# Indices 1 2 3 4 5 6 
#
# 1 0.019889 -0.002753 0.002413 -0.002222 0.007428 0.000881
# 2 -0.002753 0.016625 -0.002390 -0.002868 -0.002330 0.000873
# 3 0.002413 -0.002390 0.010273 -0.002855 0.002231 0.000313
# 4 -0.002222 -0.002868 -0.002855 0.028075 0.000387 0.005823
# 5 0.007428 -0.002330 0.002231 0.000387 0.033884 -0.000665
# 6 0.000881 0.000873 0.000313 0.005823 -0.000665 0.057489
#
#
# Mechanical properties :
#
#
# Convention : Reuss Voigt Hill
#
# Bulk Modulus (GPa) = 24.19664 29.08052 26.63858
# Shear Modulus (GPa) = 26.95881 32.20314 29.58098
#
# Velocity S-wave (km/s) = 3.46911 3.79155 3.63390
# Velocity P-wave (km/s) = 5.18150 5.67006 5.43128
#
# Compressibility (1/GPa) = 0.04132805
#
# Stress axis : x y z
#
# Youngs Moduli (GPa) = 50.27915 60.15130 97.34675
#
# Poissons Ratio (x) = 0.16559 -0.23493
# Poissons Ratio (y) = 0.13841 0.23261
# Poissons Ratio (z) = -0.12134 0.14373
#
# Static dielectric constant tensor:
#      x y z
#    x 3.706010 -0.148640 -0.153170 
#    y -0.148640 4.071630 -0.012000 
#    z -0.153170 -0.012000 4.325970 
# 
# 
# High freq. dielectric constant tensor:
#      x y z
#    x 1.861500 -0.010850 -0.009520 
#    y -0.010850 1.873480 0.005410 
#    z -0.009520 0.005410 1.911270 
# 
# From -- ./inp_files/522716.got.cif
#   From: 2010.06.25/outbox.cif.g09.slc.cpg/sg2_262_cif.got.tgz:522716.got - 2010.06.27 13:26:56.
