data_PCOD8008743
_publ_section_title
;
Structure prediction by ZEFSAII (Michael W. Deem and Ramdas Pophale) SiO2 
 PCOD8008743
Probable space group: P -1
;
_chemical_formula_sum "Si O2"
_cell_formula_units_Z 16
_cell_length_a 17.185343
_cell_length_b 12.045967
_cell_length_c 13.140498
_cell_angle_alpha 46.784501
_cell_angle_beta 37.154698
_cell_angle_gamma 75.187733
_cell_volume 900.523088
_symmetry_space_group_name_H-M "P -1"
_symmetry_group_IT_number 2
_symmetry_cell_setting 'triclinic'
loop_
_space_group_symop_operation_xyz
x,y,z
-x,-y,-z
loop_
_atom_site_type_symbol
_atom_site_label
_atom_site_fract_x
_atom_site_fract_y
_atom_site_fract_z
Si Si1 0.813139 0.367187 0.732457
Si Si2 0.733966 0.749725 0.977818
Si Si3 0.520504 0.174104 0.315199
Si Si4 0.218888 0.995904 0.065803
Si Si5 0.685514 0.824337 0.624064
Si Si6 0.939574 0.982684 0.421606
Si Si7 0.428482 0.340260 0.469773
Si Si8 0.332864 0.467596 0.314834
O O1 0.755909 0.164720 0.866987
O O2 0.793920 0.485341 0.593413
O O3 0.000000 0.500000 0.500000
O O4 0.695457 0.318149 0.981004
O O5 0.793245 0.838133 0.747615
O O6 0.682992 0.862433 0.024655
O O7 0.570249 0.512683 0.293034
O O8 0.897595 0.798473 0.836474
O O9 0.360118 0.073123 0.468997
O O10 0.527957 0.316205 0.298693
O O11 0.500000 0.000000 0.500000
O O12 0.017223 0.883254 0.359056
O O13 0.291008 0.132784 0.803218
O O14 0.848192 0.000480 0.412909
O O15 0.734839 0.713476 0.578084
O O16 0.526257 0.665220 0.963159
O O17 0.331514 0.403045 0.472787
#
# Coordination Sequence:
#
# PCOD8008743 Si02
#       8
#     2   2   2   2   2   2   2   2
#     4  11  22  36  54  81 117 140 179 225 277 329
#     4   9  20  33  59  79 106 148 191 222 261 319
#     4  10  21  36  56  84 108 147 174 222 288 322
#     4  10  21  34  55  84 111 142 182 227 274 313
#     4   9  16  33  57  77 107 140 187 222 256 337
#     4   9  18  34  55  83 102 142 193 221 264 309
#     4  11  19  37  58  81 113 141 188 222 267 334
#     4   9  19  31  56  82 104 147 177 220 278 321
#
# _framework density 17.767451999999999
#
# number of rings (size 3 to 8) (size 9 to 14) (size 15 to 20)
#    0.750    1.500    2.500    1.875    1.750    0.000 
#    2.250    2.500    0.000    0.750    0.000    0.000 
#    0.000    0.000    0.000    0.000    0.000    0.000 
#
# Total GULP energy -198246.055111 kJ/mol
# GULP energy per Si atom -12390.378444 kJ/mol
# Density = 1.772701 g / cm^3
# Si number density = 17.767452 Si / 1000 Ang^3
#
#
#
# Elastic Constant Matrix: (Units=GPa)
#
#
# Indices 1 2 3 4 5 6 
#
# 1 150.3038 58.5931 36.9049 -15.7451 -2.6974 -5.6497
# 2 58.5931 94.6966 36.6845 4.8783 5.1168 -4.5454
# 3 36.9049 36.6845 46.0609 3.6991 8.8518 -4.2081
# 4 -15.7451 4.8783 3.6991 28.9144 1.5859 1.4005
# 5 -2.6974 5.1168 8.8518 1.5859 23.0973 -9.1645
# 6 -5.6497 -4.5454 -4.2081 1.4005 -9.1645 30.1303
#
#
#
# Elastic Compliance Matrix: (Units=1/GPa)
#
#
# Indices 1 2 3 4 5 6 
#
# 1 0.011047 -0.004967 -0.006283 0.007309 0.004934 0.001605
# 2 -0.004967 0.017619 -0.009590 -0.004458 -0.000302 0.000502
# 3 -0.006283 -0.009590 0.037231 -0.005806 -0.012908 -0.001082
# 4 0.007309 -0.004458 -0.005806 0.040114 0.000600 -0.001795
# 5 0.004934 -0.000302 -0.012908 0.000600 0.055119 0.015814
# 6 0.001605 0.000502 -0.001082 -0.001795 0.015814 0.038308
#
#
# Mechanical properties :
#
#
# Convention : Reuss Voigt Hill
#
# Bulk Modulus (GPa) = 41.29712 61.71404 51.50558
# Shear Modulus (GPa) = 20.06491 27.02032 23.54261
#
# Velocity S-wave (km/s) = 3.36416 3.90394 3.64406
# Velocity P-wave (km/s) = 6.19546 7.42501 6.83793
#
# Compressibility (1/GPa) = 0.02421476
#
# Stress axis : x y z
#
# Youngs Moduli (GPa) = 90.52316 56.75765 26.85929
#
# Poissons Ratio (x) = 0.28192 0.16877
# Poissons Ratio (y) = 0.44964 0.25759
# Poissons Ratio (z) = 0.56880 0.54433
#
# Static dielectric constant tensor:
#      x y z
#    x 3.407000 0.000010 0.064790 
#    y 0.000010 3.282070 0.135450 
#    z 0.064790 0.135450 3.062580 
# 
# 
# High freq. dielectric constant tensor:
#      x y z
#    x 1.686820 0.011240 -0.000290 
#    y 0.011240 1.670300 0.013000 
#    z -0.000290 0.013000 1.672450 
# 
# From -- ./inp_files/463568.got.cif
#   From: 2010.06.25/outbox.cif.g09.slc.cpg/sg2_232_cif.got.tgz:463568.got - 2010.06.27 13:26:56.
