data_PCOD8008682
_publ_section_title
;
Structure prediction by ZEFSAII (Michael W. Deem and Ramdas Pophale) SiO2 
 PCOD8008682
Probable space group: P -1
;
_chemical_formula_sum "Si O2"
_cell_formula_units_Z 16
_cell_length_a 12.747917
_cell_length_b 10.768969
_cell_length_c 5.208663
_cell_angle_alpha 93.885095
_cell_angle_beta 94.973879
_cell_angle_gamma 80.518487
_cell_volume 701.589718
_symmetry_space_group_name_H-M "P -1"
_symmetry_group_IT_number 2
_symmetry_cell_setting 'triclinic'
loop_
_space_group_symop_operation_xyz
x,y,z
-x,-y,-z
loop_
_atom_site_type_symbol
_atom_site_label
_atom_site_fract_x
_atom_site_fract_y
_atom_site_fract_z
Si Si1 0.754373 0.182618 0.297757
Si Si2 0.090161 0.650276 0.638173
Si Si3 0.420576 0.152008 0.235984
Si Si4 0.092586 0.444285 0.199325
Si Si5 0.640323 0.968461 0.286541
Si Si6 0.561818 0.613131 0.449177
Si Si7 0.731768 0.522978 0.064087
Si Si8 0.646993 0.307328 0.790798
O O1 0.877118 0.209163 0.357269
O O2 0.691380 0.270176 0.513830
O O3 0.746540 0.035426 0.315796
O O4 0.701537 0.218320 0.013468
O O5 0.119811 0.560602 0.388507
O O6 0.169849 0.588406 0.868989
O O7 0.962271 0.659430 0.667099
O O8 0.359119 0.102950 0.455664
O O9 0.416925 0.303228 0.285670
O O10 0.541600 0.081421 0.247532
O O11 0.358514 0.130540 0.958780
O O12 0.203944 0.381864 0.072241
O O13 0.000000 0.500000 0.000000
O O14 0.500000 0.500000 0.500000
O O15 0.672842 0.578579 0.315565
O O16 0.479641 0.701948 0.252021
O O17 0.653803 0.456334 0.857228
#
# Coordination Sequence:
#
# PCOD8008682 Si02
#       8
#     2   2   2   2   2   2   2   2
#     4  11  20  36  60  83 110 152 197 246 284 329
#     4   9  18  33  53  80 113 142 187 236 289 350
#     4  10  23  38  56  80 109 154 199 242 284 327
#     4   9  17  33  52  77 113 145 181 233 291 348
#     4  10  21  39  59  77 109 150 202 252 279 317
#     4  12  25  39  55  84 123 163 195 229 283 355
#     4  10  21  33  51  77 116 159 184 225 284 349
#     4  11  22  35  51  84 119 155 197 227 275 343
#
# _framework density 22.805347999999999
#
# number of rings (size 3 to 8) (size 9 to 14) (size 15 to 20)
#    0.000    1.750    2.500    2.625    3.500    1.000 
#    0.000    0.000    0.000    0.000    0.000    1.750 
#    0.000    0.000    0.000    0.000    0.000    0.000 
#
# Total GULP energy -198226.652320 kJ/mol
# GULP energy per Si atom -12389.165770 kJ/mol
# Density = 2.275344 g / cm^3
# Si number density = 22.805348 Si / 1000 Ang^3
#
#
#
# Elastic Constant Matrix: (Units=GPa)
#
#
# Indices 1 2 3 4 5 6 
#
# 1 119.8558 38.0660 50.1576 13.9144 -19.1774 38.8608
# 2 38.0660 72.4817 19.1555 25.0377 -6.3575 37.7185
# 3 50.1576 19.1555 111.3307 23.1165 -10.3125 17.9674
# 4 13.9144 25.0377 23.1165 33.4750 5.2771 6.3410
# 5 -19.1774 -6.3575 -10.3125 5.2771 40.3588 3.4397
# 6 38.8608 37.7185 17.9674 6.3410 3.4397 39.4747
#
#
#
# Elastic Compliance Matrix: (Units=1/GPa)
#
#
# Indices 1 2 3 4 5 6 
#
# 1 0.017188 0.007080 -0.002588 -0.008277 0.011595 -0.022188
# 2 0.007080 0.055673 0.007946 -0.042790 0.024794 -0.059070
# 3 -0.002588 0.007946 0.013699 -0.013462 0.006105 -0.009649
# 4 -0.008277 -0.042790 -0.013462 0.070143 -0.027228 0.046267
# 5 0.011595 0.024794 0.006105 -0.027228 0.042484 -0.037212
# 6 -0.022188 -0.059070 -0.009649 0.046267 -0.037212 0.103820
#
#
# Mechanical properties :
#
#
# Convention : Reuss Voigt Hill
#
# Bulk Modulus (GPa) = 8.97382 57.60294 33.28838
# Shear Modulus (GPa) = 15.85904 35.74765 25.80334
#
# Velocity S-wave (km/s) = 2.63992 3.96348 3.36737
# Velocity P-wave (km/s) = 3.63810 6.80139 5.45411
#
# Compressibility (1/GPa) = 0.11143524
#
# Stress axis : x y z
#
# Youngs Moduli (GPa) = 58.17933 17.96196 72.99756
#
# Poissons Ratio (x) = -0.12717 0.18894
# Poissons Ratio (y) = -0.41191 -0.58002
# Poissons Ratio (z) = 0.15059 -0.14272
#
# Static dielectric constant tensor:
#      x y z
#    x 4.217450 0.773680 -0.611040 
#    y 0.773680 3.793230 -0.029480 
#    z -0.611040 -0.029480 4.089260 
# 
# 
# High freq. dielectric constant tensor:
#      x y z
#    x 1.895550 0.046920 0.003370 
#    y 0.046920 1.845890 -0.000050 
#    z 0.003370 -0.000050 1.923820 
# 
# From -- ./inp_files/71263.got.cif
#   From: 2010.06.25/outbox.cif.g09.slc.cpg/sg2_36_cif.got.tgz:71263.got - 2010.06.27 13:26:56.
