data_PCOD8008861
_publ_section_title
;
Structure prediction by ZEFSAII (Michael W. Deem and Ramdas Pophale) SiO2 
 PCOD8008861
Probable space group: P -1
;
_chemical_formula_sum "Si O2"
_cell_formula_units_Z 16
_cell_length_a 12.882241
_cell_length_b 14.867596
_cell_length_c 14.095130
_cell_angle_alpha 38.429903
_cell_angle_beta 133.303463
_cell_angle_gamma 151.041471
_cell_volume 812.428610
_symmetry_space_group_name_H-M "P -1"
_symmetry_group_IT_number 2
_symmetry_cell_setting 'triclinic'
loop_
_space_group_symop_operation_xyz
x,y,z
-x,-y,-z
loop_
_atom_site_type_symbol
_atom_site_label
_atom_site_fract_x
_atom_site_fract_y
_atom_site_fract_z
Si Si1 0.847533 0.444443 0.531007
Si Si2 0.304355 0.484112 0.999938
Si Si3 0.152043 0.245935 0.792005
Si Si4 0.474784 0.002278 0.749907
Si Si5 0.557912 0.765194 0.094497
Si Si6 0.719023 0.796593 0.902992
Si Si7 0.575701 0.203905 0.832434
Si Si8 0.039723 0.551500 0.764562
O O1 0.760447 0.537337 0.372246
O O2 0.640632 0.183138 0.624785
O O3 0.000000 0.500000 0.500000
O O4 0.982898 0.561636 0.615706
O O5 0.492343 0.695270 0.874962
O O6 0.094372 0.421616 0.902247
O O7 0.367675 0.539273 0.105058
O O8 0.280623 0.296959 0.115844
O O9 0.226594 0.165351 0.841374
O O10 0.226726 0.280549 0.917825
O O11 0.892670 0.054155 0.787755
O O12 0.468852 0.125420 0.725131
O O13 0.239857 0.794395 0.731591
O O14 0.579694 0.940753 0.916190
O O15 0.506330 0.730709 0.203163
O O16 0.833926 0.413262 0.817440
O O17 0.500000 0.000000 0.000000
#
# Coordination Sequence:
#
# PCOD8008861 Si02
#       8
#     2   2   2   2   2   2   2   2
#     4  11  24  37  57  86 115 156 189 224 283 345
#     4   9  18  32  54  82 111 143 184 229 284 331
#     4  10  21  35  56  79 115 147 191 229 281 336
#     4   9  21  39  58  83 119 149 188 234 288 331
#     4   9  19  36  59  85 107 145 190 238 278 333
#     4   9  19  34  54  79 114 149 182 234 284 329
#     4   9  19  35  60  89 112 143 192 240 288 324
#     4  10  21  38  57  82 120 149 188 234 281 339
#
# _framework density 19.694037000000002
#
# number of rings (size 3 to 8) (size 9 to 14) (size 15 to 20)
#    0.000    2.500    0.000    0.750   12.250    5.000 
#    6.750    2.500    0.000    1.500    0.000    0.000 
#    0.000    0.000    0.000    0.000    0.000    0.000 
#
# Total GULP energy -198271.930637 kJ/mol
# GULP energy per Si atom -12391.995665 kJ/mol
# Density = 1.964921 g / cm^3
# Si number density = 19.694037 Si / 1000 Ang^3
#
#
#
# Elastic Constant Matrix: (Units=GPa)
#
#
# Indices 1 2 3 4 5 6 
#
# 1 119.6706 31.9234 23.1876 -5.1068 -13.3045 -8.7716
# 2 31.9234 107.1343 24.2451 -15.8318 -11.8398 3.6750
# 3 23.1876 24.2451 64.5904 -9.2653 -6.8358 5.5401
# 4 -5.1068 -15.8318 -9.2653 23.7402 4.8349 -4.5286
# 5 -13.3045 -11.8398 -6.8358 4.8349 25.0299 -0.0553
# 6 -8.7716 3.6750 5.5401 -4.5286 -0.0553 31.0209
#
#
#
# Elastic Compliance Matrix: (Units=1/GPa)
#
#
# Indices 1 2 3 4 5 6 
#
# 1 0.010129 -0.002162 -0.002801 -0.000427 0.003686 0.003565
# 2 -0.002162 0.011690 -0.002456 0.005704 0.002606 -0.000720
# 3 -0.002801 -0.002456 0.018430 0.004015 0.001600 -0.003204
# 4 -0.000427 0.005704 0.004015 0.049722 -0.006024 0.005734
# 5 0.003686 0.002606 0.001600 -0.006024 0.044744 -0.000352
# 6 0.003565 -0.000720 -0.003204 0.005734 -0.000352 0.034738
#
#
# Mechanical properties :
#
#
# Convention : Reuss Voigt Hill
#
# Bulk Modulus (GPa) = 39.35571 50.01195 44.68383
# Shear Modulus (GPa) = 25.93867 30.09413 28.01640
#
# Velocity S-wave (km/s) = 3.63310 3.91331 3.77581
# Velocity P-wave (km/s) = 6.13402 6.77261 6.46121
#
# Compressibility (1/GPa) = 0.02540927
#
# Stress axis : x y z
#
# Youngs Moduli (GPa) = 98.72872 85.54504 54.25974
#
# Poissons Ratio (x) = 0.18496 0.15201
# Poissons Ratio (y) = 0.21347 0.13326
# Poissons Ratio (z) = 0.27659 0.21009
#
# Static dielectric constant tensor:
#      x y z
#    x 4.096420 -0.178360 -0.158610 
#    y -0.178360 3.715910 -0.033860 
#    z -0.158610 -0.033860 3.259150 
# 
# 
# High freq. dielectric constant tensor:
#      x y z
#    x 1.777640 -0.007630 -0.007480 
#    y -0.007630 1.772560 -0.007290 
#    z -0.007480 -0.007290 1.720350 
# 
# From -- ./inp_files/451157.got.cif
#   From: 2010.06.25/outbox.cif.g09.slc.cpg/sg2_226_cif.got.tgz:451157.got - 2010.06.27 13:26:56.
