data_PCOD8008560
_publ_section_title
;
Structure prediction by ZEFSAII (Michael W. Deem and Ramdas Pophale) SiO2 
 PCOD8008560
Probable space group: P -1
;
_chemical_formula_sum "Si O2"
_cell_formula_units_Z 14
_cell_length_a 12.741399
_cell_length_b 9.060563
_cell_length_c 16.389248
_cell_angle_alpha 46.146092
_cell_angle_beta 149.912717
_cell_angle_gamma 122.370363
_cell_volume 673.151617
_symmetry_space_group_name_H-M "P -1"
_symmetry_group_IT_number 2
_symmetry_cell_setting 'triclinic'
loop_
_space_group_symop_operation_xyz
x,y,z
-x,-y,-z
loop_
_atom_site_type_symbol
_atom_site_label
_atom_site_fract_x
_atom_site_fract_y
_atom_site_fract_z
Si Si1 0.636589 0.917047 0.390922
Si Si2 0.113579 0.882195 0.777825
Si Si3 0.786475 0.155374 0.809250
Si Si4 0.313693 0.692675 0.821870
Si Si5 0.356334 0.498635 0.543463
Si Si6 0.186497 0.627202 0.084887
Si Si7 0.076418 0.346952 0.537928
O O1 0.424405 0.954006 0.290710
O O2 0.635673 0.699875 0.431590
O O3 0.857425 0.903692 0.592844
O O4 0.610815 0.098844 0.237200
O O5 0.243260 0.727841 0.855944
O O6 0.170572 0.112988 0.720434
O O7 0.183965 0.796005 0.946957
O O8 0.774264 0.307364 0.665785
O O9 0.822036 0.264692 0.875519
O O10 0.000000 0.000000 0.000000
O O11 0.104949 0.657589 0.648438
O O12 0.500000 0.500000 0.000000
O O13 0.593401 0.537228 0.707888
O O14 0.256652 0.456338 0.578439
O O15 0.000000 0.500000 0.000000
O O16 0.000000 0.500000 0.500000
#
# Coordination Sequence:
#
# PCOD8008560 Si02
#       7
#     2   2   2   2   2   2   2
#     4  10  20  44  67  91 126 181 213 259 333 391
#     4  11  22  45  67  97 135 171 220 270 330 393
#     4  11  26  43  67  96 127 174 222 273 324 392
#     4  11  24  40  69  98 132 175 216 271 328 393
#     4  11  22  44  68  89 134 176 213 264 333 390
#     4  11  25  42  67  95 127 174 220 268 324 391
#     4  11  25  41  67  99 133 172 218 271 327 389
#
# _framework density 20.797692000000001
#
# number of rings (size 3 to 8) (size 9 to 14) (size 15 to 20)
#    0.000    1.143    2.857    4.286    6.000    1.714 
#    2.571    1.429    0.000    0.000    0.000    0.000 
#    0.000    0.000    0.000    0.000    0.000    0.000 
#
# Total GULP energy -173554.412275 kJ/mol
# GULP energy per Si atom -12396.743734 kJ/mol
# Density = 2.075036 g / cm^3
# Si number density = 20.797692 Si / 1000 Ang^3
#
#
#
# Elastic Constant Matrix: (Units=GPa)
#
#
# Indices 1 2 3 4 5 6 
#
# 1 139.4707 49.0800 65.5301 -3.4224 10.9779 13.8953
# 2 49.0800 81.1844 46.9401 -1.7349 5.3336 15.6108
# 3 65.5301 46.9401 138.4003 -22.7711 4.2294 10.5182
# 4 -3.4224 -1.7349 -22.7711 30.6213 0.0570 -1.0030
# 5 10.9779 5.3336 4.2294 0.0570 45.0388 -1.2611
# 6 13.8953 15.6108 10.5182 -1.0030 -1.2611 31.6612
#
#
#
# Elastic Compliance Matrix: (Units=1/GPa)
#
#
# Indices 1 2 3 4 5 6 
#
# 1 0.010570 -0.003760 -0.003873 -0.001962 -0.001811 -0.001633
# 2 -0.003760 0.018306 -0.004409 -0.002858 -0.001003 -0.006042
# 3 -0.003873 -0.004409 0.011869 0.008150 0.000347 0.000202
# 4 -0.001962 -0.002858 0.008150 0.038362 0.000025 0.000779
# 5 -0.001811 -0.001003 0.000347 0.000025 0.022789 0.002082
# 6 -0.001633 -0.006042 0.000202 0.000779 0.002082 0.035320
#
#
# Mechanical properties :
#
#
# Convention : Reuss Voigt Hill
#
# Bulk Modulus (GPa) = 60.01516 75.79509 67.90513
# Shear Modulus (GPa) = 29.96635 34.63127 32.29881
#
# Velocity S-wave (km/s) = 3.79997 4.08505 3.94509
# Velocity P-wave (km/s) = 6.94063 7.66637 7.31251
#
# Compressibility (1/GPa) = 0.01666246
#
# Stress axis : x y z
#
# Youngs Moduli (GPa) = 94.61042 54.62552 84.25015
#
# Poissons Ratio (x) = 0.20538 0.32628
# Poissons Ratio (y) = 0.35571 0.37147
# Poissons Ratio (z) = 0.36640 0.24085
#
# Static dielectric constant tensor:
#      x y z
#    x 3.851120 0.408110 0.103070 
#    y 0.408110 3.816470 0.172340 
#    z 0.103070 0.172340 4.096910 
# 
# 
# High freq. dielectric constant tensor:
#      x y z
#    x 1.827150 0.016110 0.004930 
#    y 0.016110 1.807880 0.000950 
#    z 0.004930 0.000950 1.825150 
# 
# From -- ./inp_files/182795.got.cif
#   From: 2010.06.25/outbox.cif.g09.slc.cpg/sg2_92_cif.got.tgz:182795.got - 2010.06.27 13:26:56.
