data_PCOD8008457
_publ_section_title
;
Structure prediction by ZEFSAII (Michael W. Deem and Ramdas Pophale) SiO2 
 PCOD8008457
Probable space group: P -1
;
_chemical_formula_sum "Si O2"
_cell_formula_units_Z 16
_cell_length_a 8.931014
_cell_length_b 16.066489
_cell_length_c 5.402522
_cell_angle_alpha 124.911662
_cell_angle_beta 97.424076
_cell_angle_gamma 76.650118
_cell_volume 618.516206
_symmetry_space_group_name_H-M "P -1"
_symmetry_group_IT_number 2
_symmetry_cell_setting 'triclinic'
loop_
_space_group_symop_operation_xyz
x,y,z
-x,-y,-z
loop_
_atom_site_type_symbol
_atom_site_label
_atom_site_fract_x
_atom_site_fract_y
_atom_site_fract_z
Si Si1 0.806473 0.321126 0.552868
Si Si2 0.641014 0.400910 0.143473
Si Si3 0.357346 0.030738 0.341460
Si Si4 0.125663 0.907596 0.978483
Si Si5 0.662269 0.608603 0.692171
Si Si6 0.907445 0.653789 0.134188
Si Si7 0.299464 0.212228 0.318124
Si Si8 0.923840 0.847407 0.198471
O O1 0.729311 0.349558 0.319260
O O2 0.871910 0.197351 0.356056
O O3 0.943853 0.390123 0.736711
O O4 0.688041 0.346987 0.799770
O O5 0.661009 0.520517 0.335136
O O6 0.461943 0.397654 0.132519
O O7 0.408425 0.108961 0.280671
O O8 0.201209 0.084431 0.537549
O O9 0.500000 0.000000 0.500000
O O10 0.300249 0.931091 0.044935
O O11 0.072141 0.895144 0.232972
O O12 0.000000 0.000000 0.000000
O O13 0.623196 0.725433 0.767181
O O14 0.835242 0.582517 0.805141
O O15 0.756797 0.706583 0.340587
O O16 0.985592 0.735391 0.136104
O O17 0.155448 0.169654 0.108347
#
# Coordination Sequence:
#
# PCOD8008457 Si02
#       8
#     2   2   2   2   2   2   2   2
#     4  12  27  48  75 119 153 187 266 325 369 444
#     4  11  29  51  75 116 153 199 257 319 383 461
#     4  11  25  43  69 112 148 190 259 320 373 446
#     4  12  23  47  74 101 146 211 242 309 381 460
#     4  10  26  49  80 101 152 211 243 305 402 466
#     4  10  22  43  75 104 146 192 247 307 377 452
#     4  10  21  44  73 104 141 196 249 301 382 458
#     4  10  20  43  68  99 142 200 246 293 375 460
#
# _framework density 25.868359000000002
#
# number of rings (size 3 to 8) (size 9 to 14) (size 15 to 20)
#    0.000    1.250    2.500    1.875    5.250    6.500 
#    4.500    0.000    0.000    0.000    0.000    0.000 
#    0.000    0.000    0.000    0.000    0.000    0.000 
#
# Total GULP energy -198230.099054 kJ/mol
# GULP energy per Si atom -12389.381191 kJ/mol
# Density = 2.580948 g / cm^3
# Si number density = 25.868359 Si / 1000 Ang^3
#
#
#
# Elastic Constant Matrix: (Units=GPa)
#
#
# Indices 1 2 3 4 5 6 
#
# 1 83.3453 33.1451 39.0091 10.6388 23.5645 10.4357
# 2 33.1451 103.3676 25.5789 -4.1098 22.6176 2.6814
# 3 39.0091 25.5789 84.7771 -4.4491 9.4666 8.9139
# 4 10.6388 -4.1098 -4.4491 32.2870 -1.9203 4.1925
# 5 23.5645 22.6176 9.4666 -1.9203 35.8748 1.3692
# 6 10.4357 2.6814 8.9139 4.1925 1.3692 33.9782
#
#
#
# Elastic Compliance Matrix: (Units=1/GPa)
#
#
# Indices 1 2 3 4 5 6 
#
# 1 0.021240 -0.002844 -0.007922 -0.008719 -0.010431 -0.002725
# 2 -0.002844 0.012241 -0.001729 0.001897 -0.005305 0.000341
# 3 -0.007922 -0.001729 0.016216 0.005079 0.002378 -0.002407
# 4 -0.008719 0.001897 0.005079 0.035539 0.005223 -0.003400
# 5 -0.010431 -0.005305 0.002378 0.005223 0.037691 0.000835
# 6 -0.002725 0.000341 -0.002407 -0.003400 0.000835 0.031258
#
#
# Mechanical properties :
#
#
# Convention : Reuss Voigt Hill
#
# Bulk Modulus (GPa) = 40.47077 51.88405 46.17741
# Shear Modulus (GPa) = 26.67933 32.01177 29.34555
#
# Velocity S-wave (km/s) = 3.21495 3.52161 3.37177
# Velocity P-wave (km/s) = 5.42771 6.05278 5.74875
#
# Compressibility (1/GPa) = 0.02470919
#
# Stress axis : x y z
#
# Youngs Moduli (GPa) = 47.08018 81.69095 61.66598
#
# Poissons Ratio (x) = 0.23234 0.48850
# Poissons Ratio (y) = 0.13390 0.10660
# Poissons Ratio (z) = 0.37295 0.14121
#
# Static dielectric constant tensor:
#      x y z
#    x 5.346950 0.003290 1.274620 
#    y 0.003290 4.872640 -0.150960 
#    z 1.274620 -0.150960 6.110040 
# 
# 
# High freq. dielectric constant tensor:
#      x y z
#    x 2.025330 0.010660 0.015320 
#    y 0.010660 2.036280 -0.006650 
#    z 0.015320 -0.006650 2.040450 
# 
# From -- ./inp_files/49389.got.cif
#   From: 2010.06.25/outbox.cif.g09.slc.cpg/sg2_25_cif.got.tgz:49389.got - 2010.06.27 13:26:56.
