data_PCOD8008220
_publ_section_title
;
Structure prediction by ZEFSAII (Michael W. Deem and Ramdas Pophale) SiO2 
 PCOD8008220
Probable space group: P -1
;
_chemical_formula_sum "Si O2"
_cell_formula_units_Z 16
_cell_length_a 14.450160
_cell_length_b 8.902894
_cell_length_c 11.159486
_cell_angle_alpha 106.907458
_cell_angle_beta 133.951185
_cell_angle_gamma 49.399437
_cell_volume 750.008750
_symmetry_space_group_name_H-M "P -1"
_symmetry_group_IT_number 2
_symmetry_cell_setting 'triclinic'
loop_
_space_group_symop_operation_xyz
x,y,z
-x,-y,-z
loop_
_atom_site_type_symbol
_atom_site_label
_atom_site_fract_x
_atom_site_fract_y
_atom_site_fract_z
Si Si1 0.470600 0.589667 0.818990
Si Si2 0.803385 0.278587 0.927188
Si Si3 0.176829 0.220889 0.014042
Si Si4 0.130484 0.973968 0.518736
Si Si5 0.498326 0.232015 0.877081
Si Si6 0.051876 0.346692 0.191742
Si Si7 0.018995 0.909615 0.178679
Si Si8 0.166678 0.292194 0.551038
O O1 0.630415 0.501971 0.858081
O O2 0.301879 0.738299 0.624811
O O3 0.485310 0.395625 0.820846
O O4 0.463552 0.725403 0.948242
O O5 0.810133 0.237930 0.782246
O O6 0.975585 0.234214 0.106317
O O7 0.841068 0.089157 0.990580
O O8 0.174690 0.263420 0.165438
O O9 0.357700 0.006791 0.087349
O O10 0.121319 0.414241 0.929420
O O11 0.022852 0.227762 0.838751
O O12 0.043778 0.020890 0.324855
O O13 0.176691 0.121087 0.595297
O O14 0.000000 0.000000 0.500000
O O15 0.323922 0.274989 0.726942
O O16 0.156156 0.294400 0.396294
O O17 0.000000 0.500000 0.500000
#
# Coordination Sequence:
#
# PCOD8008220 Si02
#       8
#     2   2   2   2   2   2   2   2
#     4  11  25  42  64  97 130 169 215 267 317 386
#     4  10  20  42  68  92 128 169 215 258 319 376
#     4  10  22  42  69  97 129 174 211 260 317 383
#     4  12  27  43  65  95 129 168 220 267 321 386
#     4  11  25  43  66  94 131 170 214 266 325 377
#     4  10  23  42  67  97 132 168 216 261 316 382
#     4  10  21  41  69  92 123 175 213 261 315 380
#     4  12  27  43  64  95 131 171 213 270 323 380
#
# _framework density 21.333085000000001
#
# number of rings (size 3 to 8) (size 9 to 14) (size 15 to 20)
#    0.000    1.250    2.500    2.250    8.750    1.500 
#    0.000    0.000    0.000    0.000    0.000    0.000 
#    0.000    0.000    0.000    0.000    0.000    0.000 
#
# Total GULP energy -198217.452253 kJ/mol
# GULP energy per Si atom -12388.590766 kJ/mol
# Density = 2.128453 g / cm^3
# Si number density = 21.333085 Si / 1000 Ang^3
#
#
#
# Elastic Constant Matrix: (Units=GPa)
#
#
# Indices 1 2 3 4 5 6 
#
# 1 96.4099 42.5840 40.1647 -7.2036 5.5634 -11.8281
# 2 42.5840 119.2052 30.0723 -14.6865 5.1179 -21.5540
# 3 40.1647 30.0723 70.7197 -1.9511 9.7900 -1.3754
# 4 -7.2036 -14.6865 -1.9511 38.1694 -0.2657 10.1870
# 5 5.5634 5.1179 9.7900 -0.2657 26.2007 -3.7394
# 6 -11.8281 -21.5540 -1.3754 10.1870 -3.7394 37.8926
#
#
#
# Elastic Compliance Matrix: (Units=1/GPa)
#
#
# Indices 1 2 3 4 5 6 
#
# 1 0.015077 -0.003024 -0.007277 0.000618 0.000486 0.002604
# 2 -0.003024 0.011375 -0.002995 0.002372 0.000249 0.004804
# 3 -0.007277 -0.002995 0.020288 -0.000548 -0.005982 -0.003682
# 4 0.000618 0.002372 -0.000548 0.028886 -0.001002 -0.006342
# 5 0.000486 0.000249 -0.005982 -0.001002 0.040865 0.004379
# 6 0.002604 0.004804 -0.003682 -0.006342 0.004379 0.031939
#
#
# Mechanical properties :
#
#
# Convention : Reuss Voigt Hill
#
# Bulk Modulus (GPa) = 49.63150 56.88632 53.25891
# Shear Modulus (GPa) = 27.51203 32.02012 29.76608
#
# Velocity S-wave (km/s) = 3.59505 3.87843 3.73943
# Velocity P-wave (km/s) = 6.36774 6.83958 6.60787
#
# Compressibility (1/GPa) = 0.02014850
#
# Stress axis : x y z
#
# Youngs Moduli (GPa) = 66.32514 87.91099 49.29044
#
# Poissons Ratio (x) = 0.26587 0.35867
# Poissons Ratio (y) = 0.20059 0.14763
# Poissons Ratio (z) = 0.48262 0.26330
#
# Static dielectric constant tensor:
#      x y z
#    x 4.780750 0.258610 -0.196880 
#    y 0.258610 4.058150 0.105080 
#    z -0.196880 0.105080 3.734340 
# 
# 
# High freq. dielectric constant tensor:
#      x y z
#    x 1.846250 0.006440 -0.003720 
#    y 0.006440 1.857010 0.004570 
#    z -0.003720 0.004570 1.815110 
# 
# From -- ./inp_files/318125.got.cif
#   From: 2010.06.25/outbox.cif.g09.slc.cpg/sg2_160_cif.got.tgz:318125.got - 2010.06.27 13:26:56.
