data_PCOD8008241
_publ_section_title
;
Structure prediction by ZEFSAII (Michael W. Deem and Ramdas Pophale) SiO2 
 PCOD8008241
Probable space group: P -1
;
_chemical_formula_sum "Si O2"
_cell_formula_units_Z 16
_cell_length_a 11.514353
_cell_length_b 8.616898
_cell_length_c 12.035311
_cell_angle_alpha 62.637966
_cell_angle_beta 52.691168
_cell_angle_gamma 49.650763
_cell_volume 719.377985
_symmetry_space_group_name_H-M "P -1"
_symmetry_group_IT_number 2
_symmetry_cell_setting 'triclinic'
loop_
_space_group_symop_operation_xyz
x,y,z
-x,-y,-z
loop_
_atom_site_type_symbol
_atom_site_label
_atom_site_fract_x
_atom_site_fract_y
_atom_site_fract_z
Si Si1 0.923280 0.787191 0.864809
Si Si2 0.909296 0.193728 0.756493
Si Si3 0.735305 0.575998 0.126861
Si Si4 0.825848 0.516523 0.514150
Si Si5 0.729596 0.946774 0.487592
Si Si6 0.421685 0.363537 0.573408
Si Si7 0.658295 0.510532 0.954332
Si Si8 0.170611 0.268923 0.295696
O O1 0.932800 0.737096 0.746484
O O2 0.108833 0.648114 0.857167
O O3 0.853992 0.026165 0.839137
O O4 0.790878 0.737325 0.013648
O O5 0.818434 0.356488 0.655033
O O6 0.836888 0.307391 0.879729
O O7 0.116415 0.073663 0.670510
O O8 0.613383 0.684371 0.266635
O O9 0.644143 0.536437 0.087765
O O10 0.710831 0.749849 0.546081
O O11 0.748117 0.508497 0.443357
O O12 0.024217 0.456125 0.397172
O O13 0.765845 0.939318 0.602152
O O14 0.553819 0.156905 0.496946
O O15 0.500000 0.500000 0.500000
O O16 0.672688 0.698526 0.834542
O O17 0.500000 0.500000 0.000000
#
# Coordination Sequence:
#
# PCOD8008241 Si02
#       8
#     2   2   2   2   2   2   2   2
#     4  10  22  41  71  98 133 183 227 277 331 417
#     4  11  23  43  70 106 126 177 233 274 342 399
#     4  10  24  46  64  99 140 182 220 278 351 393
#     4  11  22  44  70  97 140 177 223 286 336 404
#     4  11  23  40  70 100 137 177 225 282 340 400
#     4  12  27  42  68 104 138 176 228 286 337 399
#     4  11  24  42  70  95 140 175 222 280 332 411
#     4  10  20  42  68  97 134 179 222 271 344 396
#
# _framework density 22.241439
#
# number of rings (size 3 to 8) (size 9 to 14) (size 15 to 20)
#    0.000    1.250    3.750    1.875    3.500    2.500 
#    0.000    3.750    0.000    0.000    0.000    0.000 
#    0.000    0.000    0.000    0.000    0.000    0.000 
#
# Total GULP energy -198320.886868 kJ/mol
# GULP energy per Si atom -12395.055429 kJ/mol
# Density = 2.219082 g / cm^3
# Si number density = 22.241439 Si / 1000 Ang^3
#
#
#
# Elastic Constant Matrix: (Units=GPa)
#
#
# Indices 1 2 3 4 5 6 
#
# 1 96.2251 17.1222 28.9859 -4.3099 -1.5091 -3.2913
# 2 17.1222 100.9335 29.6285 -6.1272 -9.9232 8.9379
# 3 28.9859 29.6285 87.7618 6.5900 4.1568 0.7484
# 4 -4.3099 -6.1272 6.5900 36.6608 3.1540 -4.6226
# 5 -1.5091 -9.9232 4.1568 3.1540 30.8140 2.0070
# 6 -3.2913 8.9379 0.7484 -4.6226 2.0070 27.0719
#
#
#
# Elastic Compliance Matrix: (Units=1/GPa)
#
#
# Indices 1 2 3 4 5 6 
#
# 1 0.011884 -0.000914 -0.003819 0.002169 0.000438 0.002190
# 2 -0.000914 0.012184 -0.004124 0.001770 0.004518 -0.004052
# 3 -0.003819 -0.004124 0.014454 -0.003450 -0.003121 0.000140
# 4 0.002169 0.001770 -0.003450 0.029257 -0.002174 0.004932
# 5 0.000438 0.004518 -0.003121 -0.002174 0.034853 -0.004307
# 6 0.002190 -0.004052 0.000140 0.004932 -0.004307 0.039700
#
#
# Mechanical properties :
#
#
# Convention : Reuss Voigt Hill
#
# Bulk Modulus (GPa) = 48.05814 48.48817 48.27316
# Shear Modulus (GPa) = 29.94350 32.85492 31.39921
#
# Velocity S-wave (km/s) = 3.67317 3.84760 3.76139
# Velocity P-wave (km/s) = 6.29634 6.44879 6.37302
#
# Compressibility (1/GPa) = 0.02080813
#
# Stress axis : x y z
#
# Youngs Moduli (GPa) = 84.14500 82.07805 69.18708
#
# Poissons Ratio (x) = 0.07504 0.26421
# Poissons Ratio (y) = 0.07693 0.28530
# Poissons Ratio (z) = 0.32133 0.33846
#
# Static dielectric constant tensor:
#      x y z
#    x 3.878360 -0.102310 -0.217530 
#    y -0.102310 4.173940 0.094010 
#    z -0.217530 0.094010 3.516200 
# 
# 
# High freq. dielectric constant tensor:
#      x y z
#    x 1.872810 0.009180 0.007320 
#    y 0.009180 1.864740 0.000720 
#    z 0.007320 0.000720 1.883150 
# 
# From -- ./inp_files/206956.got.cif
#   From: 2010.06.25/outbox.cif.g09.slc.cpg/sg2_104_cif.got.tgz:206956.got - 2010.06.27 13:26:56.
