data_PCOD8008814
_publ_section_title
;
Structure prediction by ZEFSAII (Michael W. Deem and Ramdas Pophale) SiO2 
 PCOD8008814
Probable space group: P -1
;
_chemical_formula_sum "Si O2"
_cell_formula_units_Z 12
_cell_length_a 12.646565
_cell_length_b 5.052346
_cell_length_c 13.612169
_cell_angle_alpha 102.804360
_cell_angle_beta 48.142106
_cell_angle_gamma 119.606357
_cell_volume 555.319751
_symmetry_space_group_name_H-M "P -1"
_symmetry_group_IT_number 2
_symmetry_cell_setting 'triclinic'
loop_
_space_group_symop_operation_xyz
x,y,z
-x,-y,-z
loop_
_atom_site_type_symbol
_atom_site_label
_atom_site_fract_x
_atom_site_fract_y
_atom_site_fract_z
Si Si1 0.130978 0.587661 0.009523
Si Si2 0.513798 0.208176 0.239150
Si Si3 0.132844 0.182408 0.139022
Si Si4 0.713884 0.303041 0.786295
Si Si5 0.331910 0.586452 0.384057
Si Si6 0.997282 0.848751 0.385288
O O1 0.293686 0.615365 0.864216
O O2 0.058973 0.304385 0.108741
O O3 0.000000 0.500000 0.000000
O O4 0.174019 0.918859 0.055960
O O5 0.456395 0.458276 0.314506
O O6 0.446603 0.025349 0.160752
O O7 0.437808 0.959124 0.354766
O O8 0.297215 0.490537 0.099454
O O9 0.015183 0.064659 0.297478
O O10 0.747426 0.509830 0.683958
O O11 0.866305 0.253534 0.711915
O O12 0.181969 0.447031 0.541007
O O13 0.000000 0.000000 0.500000
#
# Coordination Sequence:
#
# PCOD8008814 Si02
#       6
#     2   2   2   2   2   2
#     4  12  28  49  66  83 124 180 233 271 298 359
#     4  10  22  40  62  94 126 172 208 261 321 376
#     4  12  25  40  69  99 123 171 214 264 319 383
#     4  10  21  36  59 106 131 163 195 249 330 397
#     4  10  21  34  64  98 135 166 187 247 326 403
#     4  12  19  38  64 104 142 162 192 247 339 409
#
# _framework density 21.609169999999999
#
# number of rings (size 3 to 8) (size 9 to 14) (size 15 to 20)
#    1.000    0.000    5.000    2.000    2.333    1.333 
#    0.000    0.000    0.000    6.000    0.000    0.000 
#    0.000    0.000    0.000    0.000    0.000    0.000 
#
# Total GULP energy -148658.469741 kJ/mol
# GULP energy per Si atom -12388.205812 kJ/mol
# Density = 2.155999 g / cm^3
# Si number density = 21.609170 Si / 1000 Ang^3
#
#
#
# Elastic Constant Matrix: (Units=GPa)
#
#
# Indices 1 2 3 4 5 6 
#
# 1 120.7543 37.8176 61.6632 -25.2957 -21.2327 -20.9476
# 2 37.8176 84.3336 28.9206 -14.3318 -6.0709 -32.9731
# 3 61.6632 28.9206 79.4195 -31.3808 -3.2757 -4.1065
# 4 -25.2957 -14.3318 -31.3808 34.0047 -10.1271 3.3275
# 5 -21.2327 -6.0709 -3.2757 -10.1271 26.2241 -9.6069
# 6 -20.9476 -32.9731 -4.1065 3.3275 -9.6069 36.6532
#
#
#
# Elastic Compliance Matrix: (Units=1/GPa)
#
#
# Indices 1 2 3 4 5 6 
#
# 1 0.042149 0.021928 -0.019487 0.038651 0.072635 0.057161
# 2 0.021928 0.039598 -0.012756 0.033267 0.059941 0.059416
# 3 -0.019487 -0.012756 0.032723 0.006419 -0.021371 -0.025131
# 4 0.038651 0.033267 0.006419 0.102550 0.105431 0.071059
# 5 0.072635 0.059941 -0.021371 0.105431 0.198503 0.135497
# 6 0.057161 0.059416 -0.025131 0.071059 0.135497 0.139649
#
#
# Mechanical properties :
#
#
# Convention : Reuss Voigt Hill
#
# Bulk Modulus (GPa) = 10.65653 60.14557 35.40105
# Shear Modulus (GPa) = 8.23611 29.78347 19.00979
#
# Velocity S-wave (km/s) = 1.95440 3.71655 2.96921
# Velocity P-wave (km/s) = 3.16782 6.80520 5.30782
#
# Compressibility (1/GPa) = 0.09383917
#
# Stress axis : x y z
#
# Youngs Moduli (GPa) = 23.72514 25.25372 30.55987
#
# Poissons Ratio (x) = -0.55377 0.59553
# Poissons Ratio (y) = -0.52025 0.38983
# Poissons Ratio (z) = 0.46234 0.32214
#
# Static dielectric constant tensor:
#      x y z
#    x 3.632900 -0.271550 0.098210 
#    y -0.271550 4.042950 -0.149880 
#    z 0.098210 -0.149880 4.150500 
# 
# 
# High freq. dielectric constant tensor:
#      x y z
#    x 1.822320 -0.029230 -0.004620 
#    y -0.029230 1.858900 -0.020890 
#    z -0.004620 -0.020890 1.824930 
# 
# From -- ./inp_files/286915.got.cif
#   From: 2010.06.25/outbox.cif.g09.slc.cpg/sg2_144_cif.got.tgz:286915.got - 2010.06.27 13:26:56.
