data_PCOD8008506
_publ_section_title
;
Structure prediction by ZEFSAII (Michael W. Deem and Ramdas Pophale) SiO2 
 PCOD8008506
Probable space group: P -1
;
_chemical_formula_sum "Si O2"
_cell_formula_units_Z 16
_cell_length_a 11.429247
_cell_length_b 8.899362
_cell_length_c 15.523803
_cell_angle_alpha 49.515292
_cell_angle_beta 111.064698
_cell_angle_gamma 140.551865
_cell_volume 729.400015
_symmetry_space_group_name_H-M "P -1"
_symmetry_group_IT_number 2
_symmetry_cell_setting 'triclinic'
loop_
_space_group_symop_operation_xyz
x,y,z
-x,-y,-z
loop_
_atom_site_type_symbol
_atom_site_label
_atom_site_fract_x
_atom_site_fract_y
_atom_site_fract_z
Si Si1 0.814869 0.184546 0.812602
Si Si2 0.464102 0.563526 0.162161
Si Si3 0.737864 0.784172 0.588470
Si Si4 0.869775 0.207089 0.014302
Si Si5 0.851128 0.592155 0.560221
Si Si6 0.588264 0.330897 0.182958
Si Si7 0.481481 0.080007 0.555958
Si Si8 0.841160 0.773269 0.935391
O O1 0.913422 0.477702 0.676124
O O2 0.584131 0.912432 0.840042
O O3 0.889927 0.063552 0.842724
O O4 0.869860 0.290295 0.886523
O O5 0.353793 0.421223 0.275441
O O6 0.532719 0.431134 0.199583
O O7 0.320068 0.478233 0.084038
O O8 0.648085 0.926618 0.090732
O O9 0.740765 0.625364 0.573915
O O10 0.616964 0.825619 0.508479
O O11 0.957537 0.103078 0.549630
O O12 0.960423 0.096979 0.082799
O O13 0.000000 0.500000 0.000000
O O14 0.705584 0.357773 0.535151
O O15 0.632762 0.186891 0.303365
O O16 0.772147 0.618223 0.069391
O O17 0.500000 0.000000 0.500000
#
# Coordination Sequence:
#
# PCOD8008506 Si02
#       8
#     2   2   2   2   2   2   2   2
#     4  10  21  45  68  96 135 176 229 274 334 409
#     4  11  23  45  67 100 139 171 227 286 333 404
#     4  11  25  47  70  96 142 184 225 284 338 405
#     4  12  27  40  64 107 134 174 224 278 344 410
#     4  10  26  46  70  99 137 186 229 274 351 404
#     4  10  20  43  71  98 135 182 223 280 339 396
#     4  11  23  43  70 107 134 178 236 284 333 398
#     4  11  23  43  73  96 135 184 221 276 348 399
#
# _framework density 21.935838
#
# number of rings (size 3 to 8) (size 9 to 14) (size 15 to 20)
#    0.000    1.250    3.750    1.500    3.500    4.000 
#    2.250    0.000    0.000    0.000    0.000    0.000 
#    0.000    0.000    0.000    0.000    0.000    0.000 
#
# Total GULP energy -198437.085914 kJ/mol
# GULP energy per Si atom -12402.317870 kJ/mol
# Density = 2.188591 g / cm^3
# Si number density = 21.935838 Si / 1000 Ang^3
#
#
#
# Elastic Constant Matrix: (Units=GPa)
#
#
# Indices 1 2 3 4 5 6 
#
# 1 90.7681 33.2658 59.4730 7.7464 4.9249 7.6057
# 2 33.2658 138.2672 57.1943 10.4557 -3.8983 -6.9118
# 3 59.4730 57.1943 103.1352 9.7836 1.2266 3.2951
# 4 7.7464 10.4557 9.7836 31.0240 4.4099 1.5128
# 5 4.9249 -3.8983 1.2266 4.4099 34.7965 -6.0241
# 6 7.6057 -6.9118 3.2951 1.5128 -6.0241 20.0540
#
#
#
# Elastic Compliance Matrix: (Units=1/GPa)
#
#
# Indices 1 2 3 4 5 6 
#
# 1 0.018662 -0.000728 -0.010063 -0.000422 -0.003472 -0.006686
# 2 -0.000728 0.010063 -0.005158 -0.002232 0.002657 0.005558
# 3 -0.010063 -0.005158 0.018533 -0.001590 0.000254 -0.000810
# 4 -0.000422 -0.002232 -0.001590 0.034568 -0.005303 -0.004549
# 5 -0.003472 0.002657 0.000254 -0.005303 0.032320 0.012300
# 6 -0.006686 0.005558 -0.000810 -0.004549 0.012300 0.058488
#
#
# Mechanical properties :
#
#
# Convention : Reuss Voigt Hill
#
# Bulk Modulus (GPa) = 65.10429 70.22631 67.66530
# Shear Modulus (GPa) = 23.84919 29.32405 26.58662
#
# Velocity S-wave (km/s) = 3.30089 3.66021 3.48518
# Velocity P-wave (km/s) = 6.65369 7.06730 6.86361
#
# Compressibility (1/GPa) = 0.01535997
#
# Stress axis : x y z
#
# Youngs Moduli (GPa) = 53.58544 99.37712 53.95760
#
# Poissons Ratio (x) = 0.07230 0.54297
# Poissons Ratio (y) = 0.03899 0.27833
# Poissons Ratio (z) = 0.53923 0.51261
#
# Static dielectric constant tensor:
#      x y z
#    x 3.942740 0.064950 0.160650 
#    y 0.064950 4.038890 -0.001990 
#    z 0.160650 -0.001990 3.998960 
# 
# 
# High freq. dielectric constant tensor:
#      x y z
#    x 1.859010 0.005000 0.008210 
#    y 0.005000 1.875560 0.002530 
#    z 0.008210 0.002530 1.862250 
# 
# From -- ./inp_files/306156.got.cif
#   From: 2010.06.25/outbox.cif.g09.slc.cpg/sg2_154_cif.got.tgz:306156.got - 2010.06.27 13:26:56.
