data_PCOD8008389
_publ_section_title
;
Structure prediction by ZEFSAII (Michael W. Deem and Ramdas Pophale) SiO2 
 PCOD8008389
Probable space group: P -1
;
_chemical_formula_sum "Si O2"
_cell_formula_units_Z 16
_cell_length_a 14.492857
_cell_length_b 15.182661
_cell_length_c 8.136351
_cell_angle_alpha 61.326404
_cell_angle_beta 71.005059
_cell_angle_gamma 30.422310
_cell_volume 779.533158
_symmetry_space_group_name_H-M "P -1"
_symmetry_group_IT_number 2
_symmetry_cell_setting 'triclinic'
loop_
_space_group_symop_operation_xyz
x,y,z
-x,-y,-z
loop_
_atom_site_type_symbol
_atom_site_label
_atom_site_fract_x
_atom_site_fract_y
_atom_site_fract_z
Si Si1 0.341921 0.555242 0.696406
Si Si2 0.986634 0.252452 0.082833
Si Si3 0.679492 0.605833 0.719800
Si Si4 0.491218 0.910683 0.813977
Si Si5 0.489785 0.386774 0.429350
Si Si6 0.795292 0.681752 0.383958
Si Si7 0.173223 0.286552 0.032862
Si Si8 0.640120 0.142490 0.841518
O O1 0.331131 0.563839 0.494128
O O2 0.373298 0.640428 0.666851
O O3 0.520305 0.329635 0.848502
O O4 0.151486 0.680712 0.770454
O O5 0.134506 0.045424 0.098999
O O6 0.117889 0.217779 0.132367
O O7 0.875594 0.408459 0.866876
O O8 0.546444 0.777493 0.771499
O O9 0.592401 0.578486 0.727303
O O10 0.709120 0.649618 0.505321
O O11 0.325796 0.121986 0.640212
O O12 0.658161 0.839599 0.827400
O O13 0.422579 0.914243 0.016381
O O14 0.600909 0.197629 0.621120
O O15 0.776602 0.714406 0.173067
O O16 0.000000 0.500000 0.500000
O O17 0.000000 0.500000 0.000000
#
# Coordination Sequence:
#
# PCOD8008389 Si02
#       8
#     2   2   2   2   2   2   2   2
#     4   9  21  46  68  89 121 166 207 265 314 383
#     4  12  23  39  67  90 130 162 215 252 315 375
#     4  12  23  40  60  96 124 167 203 267 306 370
#     4  12  23  41  62  89 133 171 211 246 319 379
#     4   9  22  43  69  88 124 159 210 263 325 356
#     4  12  24  41  60  91 131 164 213 263 304 367
#     4  12  23  39  61  90 123 178 209 249 307 383
#     4  10  20  43  66  90 121 167 210 254 306 387
#
# _framework density 20.525105
#
# number of rings (size 3 to 8) (size 9 to 14) (size 15 to 20)
#    0.750    0.250    5.000    1.500    3.500    1.000 
#    0.000    1.875    0.000    0.000    0.000    0.000 
#    0.000    0.000    0.000    0.000    0.000    0.000 
#
# Total GULP energy -198284.944197 kJ/mol
# GULP energy per Si atom -12392.809012 kJ/mol
# Density = 2.047839 g / cm^3
# Si number density = 20.525105 Si / 1000 Ang^3
#
#
#
# Elastic Constant Matrix: (Units=GPa)
#
#
# Indices 1 2 3 4 5 6 
#
# 1 143.9523 60.7363 51.5206 5.6219 -7.3657 -0.2958
# 2 60.7363 124.7369 23.0907 -10.1016 5.9163 -21.8123
# 3 51.5206 23.0907 61.7397 -2.4181 -11.8176 -10.5949
# 4 5.6219 -10.1016 -2.4181 39.2828 -8.4136 -1.6434
# 5 -7.3657 5.9163 -11.8176 -8.4136 31.2240 10.9074
# 6 -0.2958 -21.8123 -10.5949 -1.6434 10.9074 25.5601
#
#
#
# Elastic Compliance Matrix: (Units=1/GPa)
#
#
# Indices 1 2 3 4 5 6 
#
# 1 0.014507 -0.007935 -0.010754 -0.004416 0.004265 -0.013165
# 2 -0.007935 0.015377 0.002400 0.004041 -0.009142 0.018186
# 3 -0.010754 0.002400 0.027383 0.005347 0.004767 0.011584
# 4 -0.004416 0.004041 0.005347 0.029021 0.006374 0.004760
# 5 0.004265 -0.009142 0.004767 0.006374 0.047197 -0.025507
# 6 -0.013165 0.018186 0.011584 0.004760 -0.025507 0.070483
#
#
# Mechanical properties :
#
#
# Convention : Reuss Voigt Hill
#
# Bulk Modulus (GPa) = 40.50356 66.79156 53.64756
# Shear Modulus (GPa) = 20.42672 32.21879 26.32275
#
# Velocity S-wave (km/s) = 3.15811 3.96628 3.58504
# Velocity P-wave (km/s) = 5.75106 7.32033 6.58262
#
# Compressibility (1/GPa) = 0.02468919
#
# Stress axis : x y z
#
# Youngs Moduli (GPa) = 68.93077 65.03071 36.51852
#
# Poissons Ratio (x) = 0.51603 0.39273
# Poissons Ratio (y) = 0.54697 -0.08764
# Poissons Ratio (z) = 0.74130 -0.15607
#
# Static dielectric constant tensor:
#      x y z
#    x 3.374600 -0.072160 -0.211710 
#    y -0.072160 3.863340 -0.045410 
#    z -0.211710 -0.045410 3.718270 
# 
# 
# High freq. dielectric constant tensor:
#      x y z
#    x 1.781520 -0.005610 -0.020590 
#    y -0.005610 1.809800 -0.002620 
#    z -0.020590 -0.002620 1.798440 
# 
# From -- ./inp_files/312661.got.cif
#   From: 2010.06.25/outbox.cif.g09.slc.cpg/sg2_157_cif.got.tgz:312661.got - 2010.06.27 13:26:56.
