data_PCOD8008942
_publ_section_title
;
Structure prediction by ZEFSAII (Michael W. Deem and Ramdas Pophale) SiO2 
 PCOD8008942
Probable space group: P -1
;
_chemical_formula_sum "Si O2"
_cell_formula_units_Z 16
_cell_length_a 16.284139
_cell_length_b 12.088804
_cell_length_c 11.544103
_cell_angle_alpha 24.114102
_cell_angle_beta 59.576021
_cell_angle_gamma 58.911934
_cell_volume 791.090665
_symmetry_space_group_name_H-M "P -1"
_symmetry_group_IT_number 2
_symmetry_cell_setting 'triclinic'
loop_
_space_group_symop_operation_xyz
x,y,z
-x,-y,-z
loop_
_atom_site_type_symbol
_atom_site_label
_atom_site_fract_x
_atom_site_fract_y
_atom_site_fract_z
Si Si1 0.688199 0.389394 0.620622
Si Si2 0.028354 0.995478 0.706029
Si Si3 0.392289 0.110280 0.936974
Si Si4 0.788343 0.517638 0.632915
Si Si5 0.224950 0.202215 0.141844
Si Si6 0.856893 0.288913 0.419764
Si Si7 0.843149 0.559205 0.807849
Si Si8 0.907929 0.961836 0.031297
O O1 0.612105 0.603139 0.399726
O O2 0.689906 0.519190 0.626743
O O3 0.794640 0.349506 0.524024
O O4 0.650201 0.098660 0.920101
O O5 0.083067 0.239342 0.482161
O O6 0.967527 0.140763 0.502069
O O7 0.105330 0.719334 0.899291
O O8 0.947832 0.883972 0.949886
O O9 0.330847 0.169209 0.042468
O O10 0.500000 0.000000 0.000000
O O11 0.780872 0.497460 0.797433
O O12 0.845369 0.757437 0.327598
O O13 0.843407 0.247706 0.795954
O O14 0.229852 0.285714 0.193446
O O15 0.189700 0.909375 0.443959
O O16 0.146899 0.420704 0.919968
O O17 0.000000 0.000000 0.000000
#
# Coordination Sequence:
#
# PCOD8008942 Si02
#       8
#     2   2   2   2   2   2   2   2
#     4  10  21  35  60  89 110 136 178 234 287 320
#     4  12  23  33  54  78 110 157 202 233 268 300
#     4  10  21  41  66  88 106 133 175 230 290 348
#     4  12  22  35  55  79 115 149 187 236 275 319
#     4  10  23  39  55  79 111 146 183 227 285 337
#     4  10  21  36  54  77 109 148 192 239 266 308
#     4  12  24  36  51  78 114 159 192 223 270 326
#     4  12  21  34  51  78 110 155 204 239 259 295
#
# _framework density 20.225242000000001
#
# number of rings (size 3 to 8) (size 9 to 14) (size 15 to 20)
#    0.000    1.000    3.750    3.750    3.500    3.000 
#    0.000    0.000    0.000    1.500    0.000    0.000 
#    0.000    0.000    0.000    0.000    0.000    0.000 
#
# Total GULP energy -198213.435119 kJ/mol
# GULP energy per Si atom -12388.339695 kJ/mol
# Density = 2.017921 g / cm^3
# Si number density = 20.225242 Si / 1000 Ang^3
#
#
#
# Elastic Constant Matrix: (Units=GPa)
#
#
# Indices 1 2 3 4 5 6 
#
# 1 83.6385 49.5035 10.8770 -0.5425 13.2345 6.6489
# 2 49.5035 105.1420 15.9540 -2.7928 10.1331 17.2518
# 3 10.8770 15.9540 89.8057 -10.8514 7.7470 -9.9880
# 4 -0.5425 -2.7928 -10.8514 23.7514 -1.6469 1.9810
# 5 13.2345 10.1331 7.7470 -1.6469 21.5410 -6.2189
# 6 6.6489 17.2518 -9.9880 1.9810 -6.2189 19.1353
#
#
#
# Elastic Compliance Matrix: (Units=1/GPa)
#
#
# Indices 1 2 3 4 5 6 
#
# 1 0.017708 -0.007042 -0.000611 -0.001048 -0.008200 -0.002679
# 2 -0.007042 0.016812 -0.003239 0.001244 -0.007191 -0.016866
# 3 -0.000611 -0.003239 0.013442 0.004953 0.000248 0.009716
# 4 -0.001048 0.001244 0.004953 0.044764 0.000981 -0.002488
# 5 -0.008200 -0.007191 0.000248 0.000981 0.063489 0.029994
# 6 -0.002679 -0.016866 0.009716 -0.002488 0.029994 0.083473
#
#
# Mechanical properties :
#
#
# Convention : Reuss Voigt Hill
#
# Bulk Modulus (GPa) = 38.20068 47.91724 43.05896
# Shear Modulus (GPa) = 18.50497 26.36899 22.43698
#
# Velocity S-wave (km/s) = 3.02809 3.61469 3.33431
# Velocity P-wave (km/s) = 5.58161 6.41596 6.01327
#
# Compressibility (1/GPa) = 0.02617755
#
# Stress axis : x y z
#
# Youngs Moduli (GPa) = 56.47277 59.48248 74.39235
#
# Poissons Ratio (x) = 0.41890 0.04544
# Poissons Ratio (y) = 0.39771 0.24094
# Poissons Ratio (z) = 0.03449 0.19265
#
# Static dielectric constant tensor:
#      x y z
#    x 3.437630 0.248820 0.149120 
#    y 0.248820 3.586560 -0.124890 
#    z 0.149120 -0.124890 4.009050 
# 
# 
# High freq. dielectric constant tensor:
#      x y z
#    x 1.757780 0.028590 0.013390 
#    y 0.028590 1.768440 -0.016720 
#    z 0.013390 -0.016720 1.812640 
# 
# From -- ./inp_files/433903.got.cif
#   From: 2010.06.25/outbox.cif.g09.slc.cpg/sg2_217_cif.got.tgz:433903.got - 2010.06.27 13:26:56.
