data_PCOD8008757
_publ_section_title
;
Structure prediction by ZEFSAII (Michael W. Deem and Ramdas Pophale) SiO2 
 PCOD8008757
Probable space group: P -1
;
_chemical_formula_sum "Si O2"
_cell_formula_units_Z 16
_cell_length_a 17.642613
_cell_length_b 11.846987
_cell_length_c 11.385592
_cell_angle_alpha 70.346581
_cell_angle_beta 38.159527
_cell_angle_gamma 42.859327
_cell_volume 820.921336
_symmetry_space_group_name_H-M "P -1"
_symmetry_group_IT_number 2
_symmetry_cell_setting 'triclinic'
loop_
_space_group_symop_operation_xyz
x,y,z
-x,-y,-z
loop_
_atom_site_type_symbol
_atom_site_label
_atom_site_fract_x
_atom_site_fract_y
_atom_site_fract_z
Si Si1 0.560778 0.939040 0.774177
Si Si2 0.007897 0.281586 0.701984
Si Si3 0.052664 0.315888 0.889768
Si Si4 0.844320 0.033337 0.529415
Si Si5 0.417413 0.260415 0.984737
Si Si6 0.808835 0.529206 0.337003
Si Si7 0.966097 0.866813 0.697932
Si Si8 0.384522 0.944345 0.780294
O O1 0.799629 0.787675 0.546020
O O2 0.490534 0.968619 0.716691
O O3 0.413174 0.160314 0.925569
O O4 0.531421 0.840352 0.917590
O O5 0.996643 0.280109 0.857429
O O6 0.036856 0.127589 0.664729
O O7 0.799990 0.502312 0.827321
O O8 0.088301 0.425013 0.769595
O O9 0.260194 0.103392 0.771105
O O10 0.860913 0.456225 0.164168
O O11 0.917949 0.918463 0.602107
O O12 0.597231 0.214725 0.753594
O O13 0.896880 0.131463 0.421990
O O14 0.562034 0.721757 0.585867
O O15 0.905991 0.356128 0.367238
O O16 0.758143 0.025292 0.973444
#
# Coordination Sequence:
#
# PCOD8008757 Si02
#       8
#     2   2   2   2   2   2   2   2
#     4  10  21  34  56  92 123 155 191 245 300 358
#     4  11  23  36  60  87 124 162 191 240 298 365
#     4  10  23  37  57  94 121 155 199 246 291 353
#     4  10  23  42  60  87 120 160 199 248 292 350
#     4  10  22  36  56  87 127 158 190 239 305 356
#     4  10  22  36  61  87 118 156 197 243 295 346
#     4  10  23  41  62  88 120 152 206 249 289 352
#     4  11  21  38  63  89 121 157 197 246 298 345
#
# _framework density 19.490296000000001
#
# number of rings (size 3 to 8) (size 9 to 14) (size 15 to 20)
#    0.000    1.750    2.500    0.750    7.000    2.000 
#    0.000    5.000    0.000    4.500    0.000    0.000 
#    0.000    0.000    0.000    0.000    0.000    0.000 
#
# Total GULP energy -198455.403391 kJ/mol
# GULP energy per Si atom -12403.462712 kJ/mol
# Density = 1.944593 g / cm^3
# Si number density = 19.490296 Si / 1000 Ang^3
#
#
#
# Elastic Constant Matrix: (Units=GPa)
#
#
# Indices 1 2 3 4 5 6 
#
# 1 90.3388 28.1190 27.2910 -5.1647 5.8760 1.0377
# 2 28.1190 80.9291 42.3106 -1.3079 -4.1541 2.1672
# 3 27.2910 42.3106 108.3944 20.1126 2.5610 7.4435
# 4 -5.1647 -1.3079 20.1126 27.7132 -0.3947 1.6325
# 5 5.8760 -4.1541 2.5610 -0.3947 33.1818 -2.2839
# 6 1.0377 2.1672 7.4435 1.6325 -2.2839 11.3070
#
#
#
# Elastic Compliance Matrix: (Units=1/GPa)
#
#
# Indices 1 2 3 4 5 6 
#
# 1 0.013342 -0.003192 -0.002878 0.004380 -0.002478 0.000149
# 2 -0.003192 0.017457 -0.007209 0.005415 0.003483 0.001614
# 3 -0.002878 -0.007209 0.015494 -0.011722 -0.002231 -0.007312
# 4 0.004380 0.005415 -0.011722 0.045685 0.001347 -0.000047
# 5 -0.002478 0.003483 -0.002231 0.001347 0.031698 0.007237
# 6 0.000149 0.001614 -0.007312 -0.000047 0.007237 0.094400
#
#
# Mechanical properties :
#
#
# Convention : Reuss Voigt Hill
#
# Bulk Modulus (GPa) = 50.66595 52.78929 51.72762
# Shear Modulus (GPa) = 19.90356 26.56985 23.23670
#
# Velocity S-wave (km/s) = 3.19909 3.69621 3.45660
# Velocity P-wave (km/s) = 6.30060 6.73496 6.52139
#
# Compressibility (1/GPa) = 0.01973712
#
# Stress axis : x y z
#
# Youngs Moduli (GPa) = 74.95055 57.28302 64.54178
#
# Poissons Ratio (x) = 0.18282 0.18575
# Poissons Ratio (y) = 0.23921 0.46525
# Poissons Ratio (z) = 0.21570 0.41293
#
# Static dielectric constant tensor:
#      x y z
#    x 3.518320 0.008640 0.134330 
#    y 0.008640 3.315870 0.047140 
#    z 0.134330 0.047140 3.750640 
# 
# 
# High freq. dielectric constant tensor:
#      x y z
#    x 1.752230 -0.008160 0.010670 
#    y -0.008160 1.741780 0.008460 
#    z 0.010670 0.008460 1.772390 
# 
# From -- ./inp_files/457606.got.cif
#   From: 2010.06.25/outbox.cif.g09.slc.cpg/sg2_229_cif.got.tgz:457606.got - 2010.06.27 13:26:56.
