data_PCOD8008934
_publ_section_title
;
Structure prediction by ZEFSAII (Michael W. Deem and Ramdas Pophale) SiO2 
 PCOD8008934
Probable space group: P -1
;
_chemical_formula_sum "Si O2"
_cell_formula_units_Z 14
_cell_length_a 12.146618
_cell_length_b 11.867845
_cell_length_c 10.891251
_cell_angle_alpha 48.529850
_cell_angle_beta 70.428127
_cell_angle_gamma 37.124607
_cell_volume 642.105037
_symmetry_space_group_name_H-M "P -1"
_symmetry_group_IT_number 2
_symmetry_cell_setting 'triclinic'
loop_
_space_group_symop_operation_xyz
x,y,z
-x,-y,-z
loop_
_atom_site_type_symbol
_atom_site_label
_atom_site_fract_x
_atom_site_fract_y
_atom_site_fract_z
Si Si1 0.759353 0.052114 0.870856
Si Si2 0.540242 0.621346 0.848305
Si Si3 0.259071 0.585513 0.333961
Si Si4 0.039582 0.307181 0.733703
Si Si5 0.292913 0.120995 0.476035
Si Si6 0.484776 0.859435 0.918718
Si Si7 0.369430 0.978925 0.285262
O O1 0.767523 0.222999 0.736147
O O2 0.767452 0.979210 0.782640
O O3 0.549541 0.213526 0.897846
O O4 0.947414 0.793327 0.066742
O O5 0.697550 0.450835 0.801869
O O6 0.620521 0.635416 0.924899
O O7 0.332284 0.913879 0.665591
O O8 0.500000 0.500000 0.000000
O O9 0.050350 0.710508 0.324286
O O10 0.428779 0.321848 0.537245
O O11 0.896385 0.603118 0.585424
O O12 0.265467 0.121871 0.745950
O O13 0.500000 0.000000 0.500000
O O14 0.241445 0.154745 0.326932
O O15 0.579010 0.919765 0.878689
#
# Coordination Sequence:
#
# PCOD8008934 Si02
#       7
#     2   2   2   2   2   2   2
#     4  10  23  35  58  86 120 151 187 233 287 334
#     4  11  19  35  57  85 108 147 191 235 275 333
#     4  11  20  38  60  85 115 152 195 232 278 338
#     4  10  21  37  58  89 114 144 198 235 283 327
#     4  11  20  37  60  81 112 150 195 234 281 340
#     4  10  21  35  60  84 117 146 192 231 283 330
#     4  11  21  38  59  84 118 155 190 225 286 347
#
# _framework density 21.803287000000001
#
# number of rings (size 3 to 8) (size 9 to 14) (size 15 to 20)
#    0.857    0.571    5.714    1.286    0.000    2.857 
#    0.000    0.000    0.000    0.000    0.000    9.000 
#    0.000    0.000    0.000    0.000    0.000    0.000 
#
# Total GULP energy -173493.261684 kJ/mol
# GULP energy per Si atom -12392.375835 kJ/mol
# Density = 2.175366 g / cm^3
# Si number density = 21.803287 Si / 1000 Ang^3
#
#
#
# Elastic Constant Matrix: (Units=GPa)
#
#
# Indices 1 2 3 4 5 6 
#
# 1 111.3458 28.3817 27.0345 -11.7305 -8.0825 37.4538
# 2 28.3817 58.8680 -12.5051 -0.8188 -4.7994 22.3160
# 3 27.0345 -12.5051 69.3142 -6.0834 -15.8919 14.9249
# 4 -11.7305 -0.8188 -6.0834 29.2368 10.9141 3.6026
# 5 -8.0825 -4.7994 -15.8919 10.9141 39.5257 0.0931
# 6 37.4538 22.3160 14.9249 3.6026 0.0931 38.6042
#
#
#
# Elastic Compliance Matrix: (Units=1/GPa)
#
#
# Indices 1 2 3 4 5 6 
#
# 1 0.015642 -0.003550 -0.003582 0.007196 -0.000630 -0.012409
# 2 -0.003550 0.028790 0.012288 0.001422 0.007361 -0.018100
# 3 -0.003582 0.012288 0.023144 0.001701 0.009625 -0.012758
# 4 0.007196 0.001422 0.001701 0.042515 -0.009382 -0.012406
# 5 -0.000630 0.007361 0.009625 -0.009382 0.032541 -0.006568
# 6 -0.012409 -0.018100 -0.012758 -0.012406 -0.006568 0.054512
#
#
# Mechanical properties :
#
#
# Convention : Reuss Voigt Hill
#
# Bulk Modulus (GPa) = 12.83871 36.15002 24.49436
# Shear Modulus (GPa) = 23.49672 34.58113 29.03892
#
# Velocity S-wave (km/s) = 3.28635 3.98685 3.65342
# Velocity P-wave (km/s) = 4.50570 6.14893 5.39030
#
# Compressibility (1/GPa) = 0.07788947
#
# Stress axis : x y z
#
# Youngs Moduli (GPa) = 63.93075 34.73399 43.20690
#
# Poissons Ratio (x) = 0.12329 0.15478
# Poissons Ratio (y) = 0.22693 -0.53094
# Poissons Ratio (z) = 0.22902 -0.42682
#
# Static dielectric constant tensor:
#      x y z
#    x 4.171220 0.018590 -0.461150 
#    y 0.018590 3.946330 0.169940 
#    z -0.461150 0.169940 4.103370 
# 
# 
# High freq. dielectric constant tensor:
#      x y z
#    x 1.837280 0.021690 -0.019910 
#    y 0.021690 1.844420 0.007040 
#    z -0.019910 0.007040 1.858990 
# 
# From -- ./inp_files/420588.got.cif
#   From: 2010.06.25/outbox.cif.g09.slc.cpg/sg2_211_cif.got.tgz:420588.got - 2010.06.27 13:26:56.
