data_PCOD8008348
_publ_section_title
;
Structure prediction by ZEFSAII (Michael W. Deem and Ramdas Pophale) SiO2 
 PCOD8008348
Probable space group: P -1
;
_chemical_formula_sum "Si O2"
_cell_formula_units_Z 16
_cell_length_a 10.726042
_cell_length_b 27.317932
_cell_length_c 6.611793
_cell_angle_alpha 134.380409
_cell_angle_beta 58.913242
_cell_angle_gamma 149.765887
_cell_volume 676.076478
_symmetry_space_group_name_H-M "P -1"
_symmetry_group_IT_number 2
_symmetry_cell_setting 'triclinic'
loop_
_space_group_symop_operation_xyz
x,y,z
-x,-y,-z
loop_
_atom_site_type_symbol
_atom_site_label
_atom_site_fract_x
_atom_site_fract_y
_atom_site_fract_z
Si Si1 0.363574 0.671946 0.545277
Si Si2 0.730353 0.614936 0.771045
Si Si3 0.808740 0.513113 0.588622
Si Si4 0.960664 0.918252 0.164309
Si Si5 0.484700 0.330041 0.987429
Si Si6 0.293414 0.834390 0.826354
Si Si7 0.638349 0.990941 0.646889
Si Si8 0.691954 0.917190 0.001566
O O1 0.350929 0.590055 0.408439
O O2 0.397432 0.677423 0.291903
O O3 0.611235 0.808671 0.823261
O O4 0.108553 0.614611 0.653210
O O5 0.500000 0.500000 0.500000
O O6 0.748312 0.572060 0.831628
O O7 0.996163 0.702200 0.687009
O O8 0.687168 0.679923 0.022787
O O9 0.716454 0.454069 0.272324
O O10 0.681722 0.777554 0.021182
O O11 0.158513 0.938403 0.136547
O O12 0.034600 0.969851 0.019394
O O13 0.000000 0.000000 0.500000
O O14 0.368048 0.868567 0.624787
O O15 0.459895 0.841815 0.822384
O O16 0.350380 0.924755 0.173980
O O17 0.700167 0.968498 0.338083
#
# Coordination Sequence:
#
# PCOD8008348 Si02
#       8
#     2   2   2   2   2   2   2   2
#     4  11  23  42  65  95 129 164 215 265 310 380
#     4  10  21  43  66  90 125 167 212 264 316 369
#     4  10  24  43  64  91 125 168 224 258 310 375
#     4  11  23  39  61  92 128 161 204 256 321 384
#     4  11  23  43  67  91 129 171 205 266 325 372
#     4  10  20  43  63  89 127 161 214 258 311 382
#     4  10  23  39  64  91 123 168 206 259 315 377
#     4  11  23  39  65  94 126 164 210 260 317 380
#
# _framework density 23.665963999999999
#
# number of rings (size 3 to 8) (size 9 to 14) (size 15 to 20)
#    0.000    1.500    3.750    0.750    1.750    2.000 
#    9.000    1.250    0.000    0.000    0.000    0.000 
#    0.000    0.000    0.000    0.000    0.000    0.000 
#
# Total GULP energy -198289.430926 kJ/mol
# GULP energy per Si atom -12393.089433 kJ/mol
# Density = 2.361210 g / cm^3
# Si number density = 23.665964 Si / 1000 Ang^3
#
#
#
# Elastic Constant Matrix: (Units=GPa)
#
#
# Indices 1 2 3 4 5 6 
#
# 1 67.5887 39.6269 -12.9595 6.9074 -1.0084 -22.7082
# 2 39.6269 173.0009 48.4355 3.8559 -1.0679 -11.2973
# 3 -12.9595 48.4355 84.0756 -16.4816 -6.4779 -10.8316
# 4 6.9074 3.8559 -16.4816 36.9856 -2.0420 0.8929
# 5 -1.0084 -1.0679 -6.4779 -2.0420 21.5449 8.2762
# 6 -22.7082 -11.2973 -10.8316 0.8929 8.2762 41.7163
#
#
#
# Elastic Compliance Matrix: (Units=1/GPa)
#
#
# Indices 1 2 3 4 5 6 
#
# 1 0.026789 -0.008131 0.010694 0.000131 -0.001886 0.015529
# 2 -0.008131 0.009709 -0.007995 -0.003038 -0.001222 -0.003565
# 3 0.010694 -0.007995 0.021140 0.008287 0.004115 0.008152
# 4 0.000131 -0.003038 0.008287 0.031332 0.005452 -0.000352
# 5 -0.001886 -0.001222 0.004115 0.005452 0.052150 -0.010752
# 6 0.015529 -0.003565 0.008152 -0.000352 -0.010752 0.035716
#
#
# Mechanical properties :
#
#
# Convention : Reuss Voigt Hill
#
# Bulk Modulus (GPa) = 21.37948 52.76346 37.07147
# Shear Modulus (GPa) = 24.59535 36.68686 30.64110
#
# Velocity S-wave (km/s) = 3.22727 3.94152 3.60214
# Velocity P-wave (km/s) = 4.78962 6.56183 5.74448
#
# Compressibility (1/GPa) = 0.04677382
#
# Stress axis : x y z
#
# Youngs Moduli (GPa) = 37.32936 103.00250 47.30309
#
# Poissons Ratio (x) = 0.83748 -0.50587
# Poissons Ratio (y) = 0.30351 0.37820
# Poissons Ratio (z) = -0.39921 0.82353
#
# Static dielectric constant tensor:
#      x y z
#    x 5.058890 -0.321390 -0.196900 
#    y -0.321390 4.600260 0.177950 
#    z -0.196900 0.177950 3.693660 
# 
# 
# High freq. dielectric constant tensor:
#      x y z
#    x 1.960300 -0.007470 -0.011790 
#    y -0.007470 1.957690 0.015950 
#    z -0.011790 0.015950 1.899140 
# 
# From -- ./inp_files/85144.got.cif
#   From: 2010.06.25/outbox.cif.g09.slc.cpg/sg2_43_cif.got.tgz:85144.got - 2010.06.27 13:26:56.
