data_PCOD8008262
_publ_section_title
;
Structure prediction by ZEFSAII (Michael W. Deem and Ramdas Pophale) SiO2 
 PCOD8008262
Probable space group: P -1
;
_chemical_formula_sum "Si O2"
_cell_formula_units_Z 14
_cell_length_a 9.671752
_cell_length_b 11.481672
_cell_length_c 8.659755
_cell_angle_alpha 115.396951
_cell_angle_beta 131.904526
_cell_angle_gamma 56.360166
_cell_volume 593.160637
_symmetry_space_group_name_H-M "P -1"
_symmetry_group_IT_number 2
_symmetry_cell_setting 'triclinic'
loop_
_space_group_symop_operation_xyz
x,y,z
-x,-y,-z
loop_
_atom_site_type_symbol
_atom_site_label
_atom_site_fract_x
_atom_site_fract_y
_atom_site_fract_z
Si Si1 0.673577 0.689516 0.587213
Si Si2 0.996608 0.973729 0.298223
Si Si3 0.540160 0.104796 0.972437
Si Si4 0.258989 0.383741 0.059811
Si Si5 0.762534 0.856596 0.499826
Si Si6 0.740869 0.330329 0.688835
Si Si7 0.082863 0.606073 0.416796
O O1 0.757063 0.670225 0.811506
O O2 0.697949 0.821620 0.599596
O O3 0.441267 0.712999 0.427896
O O4 0.809193 0.547276 0.510562
O O5 0.054964 0.809778 0.210774
O O6 0.162041 0.018107 0.362201
O O7 0.000000 0.000000 0.500000
O O8 0.779285 0.059391 0.108233
O O9 0.450487 0.265845 0.052459
O O10 0.434796 0.098142 0.728861
O O11 0.500000 0.000000 0.000000
O O12 0.276927 0.533860 0.148190
O O13 0.052684 0.400183 0.833438
O O14 0.956940 0.722489 0.509605
O O15 0.736965 0.363910 0.519874
#
# Coordination Sequence:
#
# PCOD8008262 Si02
#       7
#     2   2   2   2   2   2   2
#     4  11  23  39  64 101 135 161 212 285 330 370
#     4  12  22  42  70  92 132 178 221 263 321 403
#     4  11  23  44  71  95 128 178 226 262 315 406
#     4  10  22  42  70  96 127 172 225 266 318 395
#     4  11  25  43  65 101 133 169 220 271 333 382
#     4  11  22  39  66  97 125 172 220 259 325 392
#     4  10  20  42  69  92 128 176 220 261 320 405
#
# _framework density 23.602376
#
# number of rings (size 3 to 8) (size 9 to 14) (size 15 to 20)
#    0.000    1.143    2.857    5.571    2.000    0.571 
#    5.143    2.143    0.000    0.000    0.000    0.000 
#    0.000    0.000    0.000    0.000    0.000    0.000 
#
# Total GULP energy -173565.505641 kJ/mol
# GULP energy per Si atom -12397.536117 kJ/mol
# Density = 2.354866 g / cm^3
# Si number density = 23.602376 Si / 1000 Ang^3
#
#
#
# Elastic Constant Matrix: (Units=GPa)
#
#
# Indices 1 2 3 4 5 6 
#
# 1 97.1014 44.9185 26.2796 5.1764 15.2524 23.6205
# 2 44.9185 150.1786 51.2862 -4.5074 13.0405 6.7573
# 3 26.2796 51.2862 57.8817 0.0261 13.4670 -6.7475
# 4 5.1764 -4.5074 0.0261 32.2453 1.4168 9.7401
# 5 15.2524 13.0405 13.4670 1.4168 24.4126 -5.8656
# 6 23.6205 6.7573 -6.7475 9.7401 -5.8656 44.4798
#
#
#
# Elastic Compliance Matrix: (Units=1/GPa)
#
#
# Indices 1 2 3 4 5 6 
#
# 1 0.016492 -0.002000 -0.004815 0.000661 -0.009149 -0.010536
# 2 -0.002000 0.010364 -0.008478 0.002514 -0.000331 -0.002393
# 3 -0.004815 -0.008478 0.029454 -0.002560 -0.006640 0.007998
# 4 0.000661 0.002514 -0.002560 0.034244 -0.004546 -0.009220
# 5 -0.009149 -0.000331 -0.006640 -0.004546 0.053658 0.011973
# 6 -0.010536 -0.002393 0.007998 -0.009220 0.011973 0.033251
#
#
# Mechanical properties :
#
#
# Convention : Reuss Voigt Hill
#
# Bulk Modulus (GPa) = 38.87725 61.12558 50.00141
# Shear Modulus (GPa) = 23.08142 32.40602 27.74372
#
# Velocity S-wave (km/s) = 3.13058 3.70942 3.43222
# Velocity P-wave (km/s) = 5.43828 6.65587 6.07764
#
# Compressibility (1/GPa) = 0.02572198
#
# Stress axis : x y z
#
# Youngs Moduli (GPa) = 60.63727 96.48749 33.95179
#
# Poissons Ratio (x) = 0.19296 0.16349
# Poissons Ratio (y) = 0.12126 0.28785
# Poissons Ratio (z) = 0.29200 0.81804
#
# Static dielectric constant tensor:
#      x y z
#    x 4.104670 -0.116790 0.252370 
#    y -0.116790 4.783930 -0.076690 
#    z 0.252370 -0.076690 4.046620 
# 
# 
# High freq. dielectric constant tensor:
#      x y z
#    x 1.922560 -0.011210 0.026360 
#    y -0.011210 1.964630 -0.004820 
#    z 0.026360 -0.004820 1.907310 
# 
# From -- ./inp_files/189596.got.cif
#   From: 2010.06.25/outbox.cif.g09.slc.cpg/sg2_95_cif.got.tgz:189596.got - 2010.06.27 13:26:56.
