data_PCOD8008660
_publ_section_title
;
Structure prediction by ZEFSAII (Michael W. Deem and Ramdas Pophale) SiO2 
 PCOD8008660
Probable space group: P -1
;
_chemical_formula_sum "Si O2"
_cell_formula_units_Z 16
_cell_length_a 13.355381
_cell_length_b 11.425427
_cell_length_c 11.797334
_cell_angle_alpha 121.304239
_cell_angle_beta 64.116752
_cell_angle_gamma 67.310647
_cell_volume 836.048733
_symmetry_space_group_name_H-M "P -1"
_symmetry_group_IT_number 2
_symmetry_cell_setting 'triclinic'
loop_
_space_group_symop_operation_xyz
x,y,z
-x,-y,-z
loop_
_atom_site_type_symbol
_atom_site_label
_atom_site_fract_x
_atom_site_fract_y
_atom_site_fract_z
Si Si1 0.278758 0.809672 0.891688
Si Si2 0.856850 0.285240 0.376181
Si Si3 0.035923 0.597964 0.457842
Si Si4 0.195953 0.595908 0.785956
Si Si5 0.226786 0.930317 0.728922
Si Si6 0.358774 0.953238 0.081188
Si Si7 0.506000 0.101683 0.448631
Si Si8 0.638891 0.835085 0.018634
O O1 0.291890 0.634377 0.815589
O O2 0.328144 0.805229 0.736743
O O3 0.402990 0.763036 0.903035
O O4 0.072133 0.063520 0.135890
O O5 0.827936 0.425792 0.559038
O O6 0.764685 0.433874 0.382519
O O7 0.777247 0.211645 0.406820
O O8 0.000000 0.500000 0.500000
O O9 0.154706 0.432962 0.206480
O O10 0.838104 0.858292 0.659940
O O11 0.298407 0.361294 0.664354
O O12 0.978558 0.805595 0.025670
O O13 0.354148 0.913953 0.592126
O O14 0.501685 0.847903 0.055965
O O15 0.357868 0.059244 0.030895
O O16 0.500000 0.000000 0.500000
O O17 0.580779 0.956840 0.225972
#
# Coordination Sequence:
#
# PCOD8008660 Si02
#       8
#     2   2   2   2   2   2   2   2
#     4   8  14  32  55  86 108 128 164 221 287 328
#     4   8  16  30  56  88 108 130 170 214 288 333
#     4   9  18  29  51  82 113 137 152 208 282 334
#     4   9  20  33  56  78 107 140 173 220 272 320
#     4   9  18  36  55  77 110 138 173 232 263 312
#     4   9  17  31  53  81 108 129 160 218 280 329
#     4  12  26  38  50  74 108 153 196 215 242 310
#     4  10  21  32  48  75 108 141 175 210 261 322
#
# _framework density 19.137640000000001
#
# number of rings (size 3 to 8) (size 9 to 14) (size 15 to 20)
#    0.000    2.750    1.250    1.500    7.000    3.500 
#    0.000    0.000    0.000    3.000    0.000    5.250 
#    0.000    0.000    0.000    0.000    0.000    0.000 
#
# Total GULP energy -198241.446957 kJ/mol
# GULP energy per Si atom -12390.090435 kJ/mol
# Density = 1.909408 g / cm^3
# Si number density = 19.137640 Si / 1000 Ang^3
#
#
#
# Elastic Constant Matrix: (Units=GPa)
#
#
# Indices 1 2 3 4 5 6 
#
# 1 115.2242 23.7298 27.4799 0.0098 2.5251 14.9651
# 2 23.7298 77.7480 34.3458 6.7167 -3.9150 11.0930
# 3 27.4799 34.3458 78.3440 13.3279 6.7903 2.7301
# 4 0.0098 6.7167 13.3279 15.6607 6.6921 -2.0857
# 5 2.5251 -3.9150 6.7903 6.6921 26.3187 1.5562
# 6 14.9651 11.0930 2.7301 -2.0857 1.5562 17.7277
#
#
#
# Elastic Compliance Matrix: (Units=1/GPa)
#
#
# Indices 1 2 3 4 5 6 
#
# 1 0.010688 -0.000876 -0.003490 0.002517 -0.000446 -0.007602
# 2 -0.000876 0.018765 -0.007013 -0.006590 0.007030 -0.011315
# 3 -0.003490 -0.007013 0.019180 -0.011644 -0.002889 0.003264
# 4 0.002517 -0.006590 -0.011644 0.087919 -0.021520 0.016025
# 5 -0.000446 0.007030 -0.002889 -0.021520 0.045901 -0.010139
# 6 -0.007602 -0.011315 0.003264 0.016025 -0.010139 0.072179
#
#
# Mechanical properties :
#
#
# Convention : Reuss Voigt Hill
#
# Bulk Modulus (GPa) = 38.64548 49.15859 43.90203
# Shear Modulus (GPa) = 17.48153 24.32545 20.90349
#
# Velocity S-wave (km/s) = 3.02563 3.56909 3.30854
# Velocity P-wave (km/s) = 5.69590 6.53660 6.13068
#
# Compressibility (1/GPa) = 0.02587625
#
# Stress axis : x y z
#
# Youngs Moduli (GPa) = 93.56084 53.28979 52.13668
#
# Poissons Ratio (x) = 0.04668 0.18194
# Poissons Ratio (y) = 0.08195 0.36565
# Poissons Ratio (z) = 0.32649 0.37374
#
# Static dielectric constant tensor:
#      x y z
#    x 4.144460 0.145930 0.177610 
#    y 0.145930 2.911200 0.235430 
#    z 0.177610 0.235430 3.840830 
# 
# 
# High freq. dielectric constant tensor:
#      x y z
#    x 1.764480 0.016240 -0.003020 
#    y 0.016240 1.662490 0.036940 
#    z -0.003020 0.036940 1.750700 
# 
# From -- ./inp_files/266465.got.cif
#   From: 2010.06.25/outbox.cif.g09.slc.cpg/sg2_134_cif.got.tgz:266465.got - 2010.06.27 13:26:56.
