data_PCOD8008134
_publ_section_title
;
Structure prediction by ZEFSAII (Michael W. Deem and Ramdas Pophale) SiO2 
 PCOD8008134
Probable space group: P -1
;
_chemical_formula_sum "Si O2"
_cell_formula_units_Z 16
_cell_length_a 9.587323
_cell_length_b 21.910105
_cell_length_c 7.570350
_cell_angle_alpha 65.685960
_cell_angle_beta 101.131170
_cell_angle_gamma 145.902554
_cell_volume 777.621027
_symmetry_space_group_name_H-M "P -1"
_symmetry_group_IT_number 2
_symmetry_cell_setting 'triclinic'
loop_
_space_group_symop_operation_xyz
x,y,z
-x,-y,-z
loop_
_atom_site_type_symbol
_atom_site_label
_atom_site_fract_x
_atom_site_fract_y
_atom_site_fract_z
Si Si1 0.619339 0.241812 0.472093
Si Si2 0.196250 0.960408 0.715660
Si Si3 0.048092 0.592822 0.959585
Si Si4 0.941121 0.056341 0.915089
Si Si5 0.232182 0.208452 0.470098
Si Si6 0.576642 0.463351 0.154659
Si Si7 0.067105 0.660684 0.234001
Si Si8 0.585074 0.082634 0.076409
O O1 0.762263 0.291599 0.261194
O O2 0.464771 0.249774 0.436891
O O3 0.844887 0.333437 0.564882
O O4 0.435389 0.105897 0.617721
O O5 0.305947 0.928289 0.740195
O O6 0.011516 0.908455 0.571864
O O7 0.036249 0.904104 0.928880
O O8 0.170861 0.650905 0.116897
O O9 0.000000 0.500000 0.000000
O O10 0.754760 0.504007 0.993662
O O11 0.153149 0.173508 0.698221
O O12 0.656592 0.964218 0.873410
O O13 0.000000 0.000000 0.000000
O O14 0.326261 0.320044 0.312150
O O15 0.752226 0.541738 0.282768
O O16 0.500000 0.500000 0.000000
O O17 0.175653 0.777758 0.090533
O O18 0.500000 0.000000 0.000000
#
# Coordination Sequence:
#
# PCOD8008134 Si02
#       8
#     2   2   2   2   2   2   2   2
#     4  12  22  42  68 101 124 176 225 267 335 397
#     4  11  25  41  65  96 139 168 221 276 326 399
#     4  10  24  43  69  94 127 174 221 267 329 385
#     4  11  23  41  63  99 132 172 218 269 340 385
#     4  12  25  40  66  95 137 174 219 271 338 389
#     4  10  24  47  65  96 136 171 220 276 329 392
#     4  10  22  43  71  89 138 165 220 281 316 388
#     4  10  20  42  66  95 133 170 215 272 327 395
#
# _framework density 20.575576000000002
#
# number of rings (size 3 to 8) (size 9 to 14) (size 15 to 20)
#    0.750    0.500    5.000    1.125    1.750    4.500 
#    2.250    0.625    0.000    0.000    0.000    0.000 
#    0.000    0.000    0.000    0.000    0.000    0.000 
#
# Total GULP energy -198234.295240 kJ/mol
# GULP energy per Si atom -12389.643453 kJ/mol
# Density = 2.052875 g / cm^3
# Si number density = 20.575576 Si / 1000 Ang^3
#
#
#
# Elastic Constant Matrix: (Units=GPa)
#
#
# Indices 1 2 3 4 5 6 
#
# 1 115.2885 18.0955 28.9304 -6.3440 18.6460 8.7309
# 2 18.0955 96.6936 19.3303 3.9099 5.3166 5.1021
# 3 28.9304 19.3303 106.9668 -10.2542 -8.4367 5.4010
# 4 -6.3440 3.9099 -10.2542 31.7352 1.4996 10.9227
# 5 18.6460 5.3166 -8.4367 1.4996 40.8712 0.0042
# 6 8.7309 5.1021 5.4010 10.9227 0.0042 31.2871
#
#
#
# Elastic Compliance Matrix: (Units=1/GPa)
#
#
# Indices 1 2 3 4 5 6 
#
# 1 0.010824 -0.001121 -0.002713 0.002839 -0.005456 -0.003360
# 2 -0.001121 0.011122 -0.001977 -0.002016 -0.001270 -0.000456
# 3 -0.002713 -0.001977 0.011217 0.003918 0.003667 -0.002225
# 4 0.002839 -0.002016 0.003918 0.038715 -0.001643 -0.014655
# 5 -0.005456 -0.001270 0.003667 -0.001643 0.027938 0.001666
# 6 -0.003360 -0.000456 -0.002225 -0.014655 0.001666 0.038474
#
#
# Mechanical properties :
#
#
# Convention : Reuss Voigt Hill
#
# Bulk Modulus (GPa) = 46.42429 50.18458 48.30443
# Shear Modulus (GPa) = 31.82822 37.61823 34.72322
#
# Velocity S-wave (km/s) = 3.93732 4.28050 4.11249
# Velocity P-wave (km/s) = 6.57889 6.99096 6.78805
#
# Compressibility (1/GPa) = 0.02154045
#
# Stress axis : x y z
#
# Youngs Moduli (GPa) = 92.38893 89.90913 89.14984
#
# Poissons Ratio (x) = 0.10076 0.24190
# Poissons Ratio (y) = 0.10354 0.17628
# Poissons Ratio (z) = 0.25069 0.17778
#
# Static dielectric constant tensor:
#      x y z
#    x 3.906820 0.189030 0.298190 
#    y 0.189030 3.712220 0.048130 
#    z 0.298190 0.048130 3.722920 
# 
# 
# High freq. dielectric constant tensor:
#      x y z
#    x 1.807000 0.004370 0.011780 
#    y 0.004370 1.800710 -0.004610 
#    z 0.011780 -0.004610 1.803310 
# 
# From -- ./inp_files/223474.got.cif
#   From: 2010.06.25/outbox.cif.g09.slc.cpg/sg2_112_cif.got.tgz:223474.got - 2010.06.27 13:26:56.
