data_PCOD8008497
_publ_section_title
;
Structure prediction by ZEFSAII (Michael W. Deem and Ramdas Pophale) SiO2 
 PCOD8008497
Probable space group: P -1
;
_chemical_formula_sum "Si O2"
_cell_formula_units_Z 16
_cell_length_a 9.131620
_cell_length_b 20.636473
_cell_length_c 24.166780
_cell_angle_alpha 21.379612
_cell_angle_beta 30.327023
_cell_angle_gamma 29.020601
_cell_volume 774.007847
_symmetry_space_group_name_H-M "P -1"
_symmetry_group_IT_number 2
_symmetry_cell_setting 'triclinic'
loop_
_space_group_symop_operation_xyz
x,y,z
-x,-y,-z
loop_
_atom_site_type_symbol
_atom_site_label
_atom_site_fract_x
_atom_site_fract_y
_atom_site_fract_z
Si Si1 0.691952 0.008278 0.876876
Si Si2 0.323567 0.933629 0.562560
Si Si3 0.203414 0.416325 0.553444
Si Si4 0.133009 0.590419 0.046622
Si Si5 0.886553 0.337803 0.397269
Si Si6 0.947001 0.669836 0.924770
Si Si7 0.335710 0.011947 0.877781
Si Si8 0.960504 0.724681 0.474564
O O1 0.462755 0.041716 0.872547
O O2 0.832924 0.172571 0.704552
O O3 0.000474 0.815538 0.924265
O O4 0.500000 0.000000 0.000000
O O5 0.582203 0.846763 0.498778
O O6 0.190861 0.775191 0.752273
O O7 0.500000 0.000000 0.500000
O O8 0.034560 0.129391 0.483730
O O9 0.524555 0.444524 0.415926
O O10 0.000000 0.500000 0.500000
O O11 0.024090 0.527391 0.578271
O O12 0.288166 0.190999 0.711553
O O13 0.038278 0.480689 0.213007
O O14 0.500000 0.500000 0.000000
O O15 0.006514 0.564151 0.048625
O O16 0.926036 0.317671 0.466079
O O17 0.588501 0.823009 0.916345
O O18 0.000000 0.500000 0.000000
O O19 0.000000 0.000000 0.000000
#
# Coordination Sequence:
#
# PCOD8008497 Si02
#       8
#     2   2   2   2   2   2   2   2
#     4  11  24  43  68 101 133 170 222 278 332 398
#     4  10  20  43  71  95 130 174 222 277 335 395
#     4  12  27  43  65  97 133 177 226 268 331 397
#     4  11  23  40  66 103 132 167 223 275 333 398
#     4  11  21  43  68  94 132 171 222 285 326 386
#     4  11  25  46  68  99 138 180 220 274 342 402
#     4  11  26  46  66  93 139 177 217 275 336 395
#     4  11  23  42  71  96 127 175 227 270 339 397
#
# _framework density 20.671624000000001
#
# number of rings (size 3 to 8) (size 9 to 14) (size 15 to 20)
#    0.000    1.000    2.500    5.625    8.750    1.000 
#    2.250    1.250    0.000    0.000    0.000    0.000 
#    0.000    0.000    0.000    0.000    0.000    0.000 
#
# Total GULP energy -198391.626934 kJ/mol
# GULP energy per Si atom -12399.476683 kJ/mol
# Density = 2.062457 g / cm^3
# Si number density = 20.671624 Si / 1000 Ang^3
#
#
#
# Elastic Constant Matrix: (Units=GPa)
#
#
# Indices 1 2 3 4 5 6 
#
# 1 81.1550 70.3309 38.9383 -7.8023 7.7668 -9.6118
# 2 70.3309 171.4633 39.9894 1.3792 -2.6674 -12.3085
# 3 38.9383 39.9894 121.7631 8.7833 6.5072 -4.4683
# 4 -7.8023 1.3792 8.7833 44.0559 -3.2949 -3.5168
# 5 7.7668 -2.6674 6.5072 -3.2949 34.5973 -4.5936
# 6 -9.6118 -12.3085 -4.4683 -3.5168 -4.5936 30.3106
#
#
#
# Elastic Compliance Matrix: (Units=1/GPa)
#
#
# Indices 1 2 3 4 5 6 
#
# 1 0.022930 -0.008181 -0.004690 0.005216 -0.003966 0.003262
# 2 -0.008181 0.009457 -0.000487 -0.001330 0.002721 0.001432
# 3 -0.004690 -0.000487 0.010129 -0.002988 -0.001271 -0.000731
# 4 0.005216 -0.001330 -0.002988 0.024730 0.002157 0.003870
# 5 -0.003966 0.002721 -0.001271 0.002157 0.031062 0.004617
# 6 0.003262 0.001432 -0.000731 0.003870 0.004617 0.035649
#
#
# Mechanical properties :
#
#
# Convention : Reuss Voigt Hill
#
# Bulk Modulus (GPa) = 63.29125 74.76650 69.02888
# Shear Modulus (GPa) = 30.13156 36.80094 33.46625
#
# Velocity S-wave (km/s) = 3.82203 4.22389 4.02798
# Velocity P-wave (km/s) = 7.08246 7.74826 7.42283
#
# Compressibility (1/GPa) = 0.01579997
#
# Stress axis : x y z
#
# Youngs Moduli (GPa) = 43.61154 105.74017 98.72540
#
# Poissons Ratio (x) = 0.86505 0.46306
# Poissons Ratio (y) = 0.35678 0.04805
# Poissons Ratio (z) = 0.20456 0.05146
#
# Static dielectric constant tensor:
#      x y z
#    x -1.305770 -9.982900 -8.027930 
#    y -9.982900 -15.854430 -16.553080 
#    z -8.027930 -16.553080 -9.579580 
# 
# 
# High freq. dielectric constant tensor:
#      x y z
#    x 1.785680 -0.008850 0.001770 
#    y -0.008850 1.838020 0.001440 
#    z 0.001770 0.001440 1.819050 
# 
# From -- ./inp_files/608621.got.cif
#   From: 2010.06.25/outbox.cif.g09.slc.cpg/sg2_305_cif.got.tgz:608621.got - 2010.06.27 13:26:56.
