data_PCOD8008923
_publ_section_title
;
Structure prediction by ZEFSAII (Michael W. Deem and Ramdas Pophale) SiO2 
 PCOD8008923
Probable space group: P -1
;
_chemical_formula_sum "Si O2"
_cell_formula_units_Z 14
_cell_length_a 11.576075
_cell_length_b 25.548044
_cell_length_c 15.574053
_cell_angle_alpha 18.149247
_cell_angle_beta 140.835902
_cell_angle_gamma 148.204896
_cell_volume 741.138686
_symmetry_space_group_name_H-M "P -1"
_symmetry_group_IT_number 2
_symmetry_cell_setting 'triclinic'
loop_
_space_group_symop_operation_xyz
x,y,z
-x,-y,-z
loop_
_atom_site_type_symbol
_atom_site_label
_atom_site_fract_x
_atom_site_fract_y
_atom_site_fract_z
Si Si1 0.867727 0.862595 0.267724
Si Si2 0.723583 0.223619 0.776058
Si Si3 0.115620 0.165769 0.078890
Si Si4 0.978061 0.247284 0.629525
Si Si5 0.691061 0.372543 0.341563
Si Si6 0.640147 0.473502 0.462169
Si Si7 0.217068 0.193208 0.282715
O O1 0.619374 0.668904 0.444071
O O2 0.996149 0.795647 0.387100
O O3 0.999346 0.950437 0.296513
O O4 0.860836 0.040258 0.941124
O O5 0.737245 0.338822 0.517597
O O6 0.729202 0.348787 0.665833
O O7 0.935145 0.214979 0.917825
O O8 0.500000 0.000000 0.000000
O O9 0.218734 0.148482 0.252612
O O10 0.319398 0.350071 0.854170
O O11 0.817923 0.323164 0.422959
O O12 0.222603 0.421868 0.534800
O O13 0.428184 0.220439 0.408031
O O14 0.781942 0.607045 0.014208
O O15 0.000000 0.000000 0.500000
#
# Coordination Sequence:
#
# PCOD8008923 Si02
#       7
#     2   2   2   2   2   2   2
#     4  10  21  35  59  88 121 151 194 239 289 351
#     4  12  19  34  61  90 117 147 187 249 304 343
#     4  11  21  37  57  89 118 149 197 244 293 350
#     4  10  21  38  56  88 121 155 191 240 289 348
#     4  11  22  40  57  87 123 151 194 245 289 355
#     4  11  19  33  58  84 118 150 189 239 298 341
#     4  11  25  39  59  85 119 161 194 240 301 349
#
# _framework density 18.889851
#
# number of rings (size 3 to 8) (size 9 to 14) (size 15 to 20)
#    0.000    1.143    5.714    2.571    0.000    1.143 
#    0.000    0.714    0.000    1.714    0.000    0.000 
#    0.000    0.000    0.000    0.000    0.000    0.000 
#
# Total GULP energy -173654.280566 kJ/mol
# GULP energy per Si atom -12403.877183 kJ/mol
# Density = 1.884686 g / cm^3
# Si number density = 18.889851 Si / 1000 Ang^3
#
#
#
# Elastic Constant Matrix: (Units=GPa)
#
#
# Indices 1 2 3 4 5 6 
#
# 1 96.0030 27.0307 30.4501 -12.1742 8.6819 -1.6317
# 2 27.0307 62.4859 25.4000 -20.3882 -2.0127 -6.0344
# 3 30.4501 25.4000 63.8146 -26.3519 -6.7334 8.0108
# 4 -12.1742 -20.3882 -26.3519 32.8132 6.8846 -7.8796
# 5 8.6819 -2.0127 -6.7334 6.8846 29.9482 -12.8018
# 6 -1.6317 -6.0344 8.0108 -7.8796 -12.8018 30.5206
#
#
#
# Elastic Compliance Matrix: (Units=1/GPa)
#
#
# Indices 1 2 3 4 5 6 
#
# 1 0.013853 -0.004389 -0.005896 -0.001424 -0.005921 -0.001431
# 2 -0.004389 0.024484 -0.003356 0.012588 0.003661 0.010272
# 3 -0.005896 -0.003356 0.027199 0.016345 0.002651 -0.002786
# 4 -0.001424 0.012588 0.016345 0.054109 -0.002847 0.010898
# 5 -0.005921 0.003661 0.002651 -0.002847 0.044068 0.017461
# 6 -0.001431 0.010272 -0.002786 0.010898 0.017461 0.045588
#
#
# Mechanical properties :
#
#
# Convention : Reuss Voigt Hill
#
# Bulk Modulus (GPa) = 26.14243 43.11836 34.63039
# Shear Modulus (GPa) = 20.05343 27.95124 24.00233
#
# Velocity S-wave (km/s) = 3.26175 3.85085 3.56848
# Velocity P-wave (km/s) = 5.29668 6.53053 5.94570
#
# Compressibility (1/GPa) = 0.03825199
#
# Stress axis : x y z
#
# Youngs Moduli (GPa) = 72.18687 40.84354 36.76657
#
# Poissons Ratio (x) = 0.17928 0.21679
# Poissons Ratio (y) = 0.31686 0.12339
# Poissons Ratio (z) = 0.42563 0.13707
#
# Static dielectric constant tensor:
#      x y z
#    x 3.556540 -0.173500 -0.026450 
#    y -0.173500 3.623470 -0.244900 
#    z -0.026450 -0.244900 3.562690 
# 
# 
# High freq. dielectric constant tensor:
#      x y z
#    x 1.734190 -0.007210 -0.006570 
#    y -0.007210 1.734570 -0.030770 
#    z -0.006570 -0.030770 1.726920 
# 
# From -- ./inp_files/177271.got.cif
#   From: 2010.06.25/outbox.cif.g09.slc.cpg/sg2_89_cif.got.tgz:177271.got - 2010.06.27 13:26:56.
