data_PCOD8008997
_publ_section_title
;
Structure prediction by ZEFSAII (Michael W. Deem and Ramdas Pophale) SiO2 
 PCOD8008997
Probable space group: P -1
;
_chemical_formula_sum "Si O2"
_cell_formula_units_Z 16
_cell_length_a 14.144588
_cell_length_b 14.463248
_cell_length_c 9.310254
_cell_angle_alpha 116.418026
_cell_angle_beta 144.838229
_cell_angle_gamma 46.426376
_cell_volume 761.890808
_symmetry_space_group_name_H-M "P -1"
_symmetry_group_IT_number 2
_symmetry_cell_setting 'triclinic'
loop_
_space_group_symop_operation_xyz
x,y,z
-x,-y,-z
loop_
_atom_site_type_symbol
_atom_site_label
_atom_site_fract_x
_atom_site_fract_y
_atom_site_fract_z
Si Si1 0.567776 0.584983 0.280548
Si Si2 0.736475 0.998538 0.698982
Si Si3 0.776507 0.643102 0.802147
Si Si4 0.800454 0.206955 0.876308
Si Si5 0.310928 0.091547 0.128161
Si Si6 0.614860 0.226135 0.385157
Si Si7 0.115559 0.046296 0.596597
Si Si8 0.316367 0.687128 0.765900
O O1 0.685917 0.633152 0.534580
O O2 0.343152 0.650641 0.126371
O O3 0.705354 0.427331 0.357950
O O4 0.506160 0.638833 0.078238
O O5 0.745335 0.963082 0.851443
O O6 0.698938 0.135513 0.741002
O O7 0.562969 0.010284 0.394852
O O8 0.962711 0.877587 0.830037
O O9 0.811986 0.751041 0.898285
O O10 0.618619 0.686645 0.772301
O O11 0.000000 0.500000 0.000000
O O12 0.775379 0.227663 0.686953
O O13 0.250095 0.064276 0.883532
O O14 0.610020 0.286312 0.269825
O O15 0.716711 0.069711 0.388294
O O16 0.917045 0.187349 0.379043
O O17 0.000000 0.000000 0.500000
#
# Coordination Sequence:
#
# PCOD8008997 Si02
#       8
#     2   2   2   2   2   2   2   2
#     4  10  22  40  62  90 120 166 207 251 301 376
#     4  10  21  35  62  92 124 154 212 256 306 363
#     4  11  24  42  62  86 128 164 206 257 306 363
#     4  10  21  38  63  91 121 163 207 256 308 359
#     4  11  22  38  59  96 121 166 204 255 319 363
#     4  10  22  39  61  92 118 166 207 253 306 368
#     4  10  22  37  63  88 125 159 201 255 312 367
#     4  10  22  38  63  91 122 160 211 248 308 371
#
# _framework density 21.000382999999999
#
# number of rings (size 3 to 8) (size 9 to 14) (size 15 to 20)
#    0.000    1.750    2.500    2.250    7.000    3.500 
#    0.000    3.125    0.000    0.000    0.000    0.000 
#    0.000    0.000    0.000    0.000    0.000    0.000 
#
# Total GULP energy -198293.509278 kJ/mol
# GULP energy per Si atom -12393.344330 kJ/mol
# Density = 2.095258 g / cm^3
# Si number density = 21.000383 Si / 1000 Ang^3
#
#
#
# Elastic Constant Matrix: (Units=GPa)
#
#
# Indices 1 2 3 4 5 6 
#
# 1 70.3907 29.2284 28.2936 -6.1875 -11.3957 -3.1403
# 2 29.2284 124.9265 49.4227 -18.0059 -5.0106 -18.2111
# 3 28.2936 49.4227 86.1764 -10.8275 3.6625 -1.9196
# 4 -6.1875 -18.0059 -10.8275 38.4981 -0.2018 2.6224
# 5 -11.3957 -5.0106 3.6625 -0.2018 33.3567 -6.5636
# 6 -3.1403 -18.2111 -1.9196 2.6224 -6.5636 25.0841
#
#
#
# Elastic Compliance Matrix: (Units=1/GPa)
#
#
# Indices 1 2 3 4 5 6 
#
# 1 0.018273 -0.001381 -0.005372 0.000635 0.007156 0.002680
# 2 -0.001381 0.012919 -0.006494 0.003374 0.004056 0.009418
# 3 -0.005372 -0.006494 0.017382 0.001347 -0.005838 -0.005726
# 4 0.000635 0.003374 0.001347 0.028046 0.000724 -0.000111
# 5 0.007156 0.004056 -0.005838 0.000724 0.036195 0.012789
# 6 0.002680 0.009418 -0.005726 -0.000111 0.012789 0.049958
#
#
# Mechanical properties :
#
#
# Convention : Reuss Voigt Hill
#
# Bulk Modulus (GPa) = 45.29074 55.04254 50.16664
# Shear Modulus (GPa) = 25.42881 31.02438 28.22659
#
# Velocity S-wave (km/s) = 3.48354 3.84777 3.67017
# Velocity P-wave (km/s) = 6.14764 6.78289 6.47306
#
# Compressibility (1/GPa) = 0.02207957
#
# Stress axis : x y z
#
# Youngs Moduli (GPa) = 54.72542 77.40678 57.52953
#
# Poissons Ratio (x) = 0.10687 0.30907
# Poissons Ratio (y) = 0.07555 0.37362
# Poissons Ratio (z) = 0.29400 0.50271
#
# Static dielectric constant tensor:
#      x y z
#    x 3.660780 -0.164840 0.009440 
#    y -0.164840 4.211990 -0.181490 
#    z 0.009440 -0.181490 3.976130 
# 
# 
# High freq. dielectric constant tensor:
#      x y z
#    x 1.802530 -0.007700 -0.010230 
#    y -0.007700 1.829900 -0.013140 
#    z -0.010230 -0.013140 1.833330 
# 
# From -- ./inp_files/314037.got.cif
#   From: 2010.06.25/outbox.cif.g09.slc.cpg/sg2_158_cif.got.tgz:314037.got - 2010.06.27 13:26:56.
