data_PCOD8008379
_publ_section_title
;
Structure prediction by ZEFSAII (Michael W. Deem and Ramdas Pophale) SiO2 
 PCOD8008379
Probable space group: P -1
;
_chemical_formula_sum "Si O2"
_cell_formula_units_Z 16
_cell_length_a 8.704561
_cell_length_b 21.754154
_cell_length_c 9.037708
_cell_angle_alpha 38.928191
_cell_angle_beta 131.578706
_cell_angle_gamma 138.069682
_cell_volume 703.728902
_symmetry_space_group_name_H-M "P -1"
_symmetry_group_IT_number 2
_symmetry_cell_setting 'triclinic'
loop_
_space_group_symop_operation_xyz
x,y,z
-x,-y,-z
loop_
_atom_site_type_symbol
_atom_site_label
_atom_site_fract_x
_atom_site_fract_y
_atom_site_fract_z
Si Si1 0.002570 0.744147 0.036716
Si Si2 0.278358 0.503416 0.781156
Si Si3 0.475552 0.086715 0.927769
Si Si4 0.361469 0.262695 0.960737
Si Si5 0.087031 0.158420 0.493738
Si Si6 0.604091 0.629440 0.524901
Si Si7 0.761064 0.968707 0.823446
Si Si8 0.759006 0.449935 0.020555
O O1 0.942511 0.808824 0.750744
O O2 0.279902 0.798774 0.135251
O O3 0.913782 0.616256 0.177103
O O4 0.879727 0.754944 0.087419
O O5 0.365575 0.594352 0.533546
O O6 0.500000 0.500000 0.000000
O O7 0.177449 0.544319 0.775193
O O8 0.268562 0.109683 0.695233
O O9 0.423389 0.040467 0.150813
O O10 0.500000 0.000000 0.000000
O O11 0.429521 0.345751 0.709974
O O12 0.578426 0.321281 0.104493
O O13 0.340442 0.146668 0.113968
O O14 0.177507 0.263546 0.464088
O O15 0.828944 0.067682 0.561668
O O16 0.637117 0.521554 0.757686
O O17 0.000000 0.000000 0.000000
O O18 0.000000 0.500000 0.000000
#
# Coordination Sequence:
#
# PCOD8008379 Si02
#       8
#     2   2   2   2   2   2   2   2
#     4  12  24  44  73  98 140 182 226 284 343 403
#     4  10  20  43  65  95 139 182 224 279 338 413
#     4  11  26  45  69 106 137 174 240 284 333 417
#     4  12  23  42  68  98 136 181 228 277 345 405
#     4  11  23  47  75  94 139 190 219 283 354 398
#     4  11  21  44  70  92 138 183 224 273 350 398
#     4  10  22  43  68  96 138 175 223 288 337 402
#     4  11  24  41  66 101 137 176 232 283 329 410
#
# _framework density 22.736027
#
# number of rings (size 3 to 8) (size 9 to 14) (size 15 to 20)
#    0.000    1.000    7.500    1.875    1.750    2.500 
#    4.500    1.250    0.000    0.000    0.000    0.000 
#    0.000    0.000    0.000    0.000    0.000    0.000 
#
# Total GULP energy -198373.203036 kJ/mol
# GULP energy per Si atom -12398.325190 kJ/mol
# Density = 2.268428 g / cm^3
# Si number density = 22.736027 Si / 1000 Ang^3
#
#
#
# Elastic Constant Matrix: (Units=GPa)
#
#
# Indices 1 2 3 4 5 6 
#
# 1 147.6944 61.1286 31.3493 -6.1188 -52.8902 -4.0400
# 2 61.1286 156.5407 25.2051 -28.5586 -17.2302 -17.3943
# 3 31.3493 25.2051 88.7671 -9.4614 -42.2312 -3.3672
# 4 -6.1188 -28.5586 -9.4614 29.5865 6.8103 -6.2081
# 5 -52.8902 -17.2302 -42.2312 6.8103 46.1533 -2.8194
# 6 -4.0400 -17.3943 -3.3672 -6.2081 -2.8194 43.8822
#
#
#
# Elastic Compliance Matrix: (Units=1/GPa)
#
#
# Indices 1 2 3 4 5 6 
#
# 1 0.015375 -0.005453 0.005972 -0.005116 0.021827 0.000391
# 2 -0.005453 0.010781 -0.002630 0.010793 -0.005935 0.004715
# 3 0.005972 -0.002630 0.022869 0.000458 0.026907 0.003056
# 4 -0.005116 0.010793 0.000458 0.047196 -0.007767 0.010020
# 5 0.021827 -0.005935 0.026907 -0.007767 0.070546 0.005155
# 6 0.000391 0.004715 0.003056 0.010020 0.005155 0.026676
#
#
# Mechanical properties :
#
#
# Convention : Reuss Voigt Hill
#
# Bulk Modulus (GPa) = 22.31967 69.81869 46.06918
# Shear Modulus (GPa) = 23.51859 42.27903 32.89881
#
# Velocity S-wave (km/s) = 3.21973 4.31694 3.80806
# Velocity P-wave (km/s) = 4.86419 7.45809 6.29617
#
# Compressibility (1/GPa) = 0.04480353
#
# Stress axis : x y z
#
# Youngs Moduli (GPa) = 65.03957 92.75943 43.72820
#
# Poissons Ratio (x) = 0.50582 -0.26116
# Poissons Ratio (y) = 0.35466 0.11499
# Poissons Ratio (z) = -0.38844 0.24393
#
# Static dielectric constant tensor:
#      x y z
#    x 4.493400 0.141320 -0.689800 
#    y 0.141320 4.333490 -0.176820 
#    z -0.689800 -0.176820 4.311020 
# 
# 
# High freq. dielectric constant tensor:
#      x y z
#    x 1.903820 -0.001010 -0.032250 
#    y -0.001010 1.912250 -0.009550 
#    z -0.032250 -0.009550 1.882020 
# 
# From -- ./inp_files/223265.got.cif
#   From: 2010.06.25/outbox.cif.g09.slc.cpg/sg2_112_cif.got.tgz:223265.got - 2010.06.27 13:26:56.
