data_PCOD8008948
_publ_section_title
;
Structure prediction by ZEFSAII (Michael W. Deem and Ramdas Pophale) SiO2 
 PCOD8008948
Probable space group: P -1
;
_chemical_formula_sum "Si O2"
_cell_formula_units_Z 16
_cell_length_a 10.130345
_cell_length_b 14.812220
_cell_length_c 11.618365
_cell_angle_alpha 123.774894
_cell_angle_beta 93.458850
_cell_angle_gamma 41.360836
_cell_volume 727.851542
_symmetry_space_group_name_H-M "P -1"
_symmetry_group_IT_number 2
_symmetry_cell_setting 'triclinic'
loop_
_space_group_symop_operation_xyz
x,y,z
-x,-y,-z
loop_
_atom_site_type_symbol
_atom_site_label
_atom_site_fract_x
_atom_site_fract_y
_atom_site_fract_z
Si Si1 0.940846 0.897443 0.813889
Si Si2 0.033896 0.559907 0.372325
Si Si3 0.091188 0.017568 0.870199
Si Si4 0.447524 0.114143 0.970341
Si Si5 0.345397 0.443749 0.491514
Si Si6 0.360269 0.336717 0.654633
Si Si7 0.047595 0.265672 0.919941
Si Si8 0.244000 0.108145 0.574962
O O1 0.901768 0.046346 0.865058
O O2 0.218109 0.652255 0.610134
O O3 0.707176 0.979717 0.828946
O O4 0.959511 0.887011 0.945395
O O5 0.132651 0.508869 0.472104
O O6 0.788813 0.652933 0.414960
O O7 0.943799 0.739764 0.437704
O O8 0.269876 0.342031 0.156065
O O9 0.386250 0.761629 0.708339
O O10 0.042744 0.139693 0.854726
O O11 0.316158 0.128555 0.880936
O O12 0.500000 0.000000 0.000000
O O13 0.397806 0.397060 0.598086
O O14 0.642590 0.094934 0.546909
O O15 0.202305 0.497774 0.868513
O O16 0.056215 0.275135 0.790426
O O17 0.500000 0.000000 0.500000
#
# Coordination Sequence:
#
# PCOD8008948 Si02
#       8
#     2   2   2   2   2   2   2   2
#     4  11  23  36  59  94 126 156 201 247 320 347
#     4  10  22  36  56  92 131 153 199 249 307 353
#     4  11  22  39  59  93 123 159 198 261 293 373
#     4  11  20  37  60  97 122 156 195 253 305 355
#     4  12  20  37  61  91 116 162 201 255 299 363
#     4  10  21  35  60  91 120 161 198 250 306 359
#     4  11  21  40  64  87 126 158 208 245 305 358
#     4  10  23  39  57  91 126 167 196 250 301 364
#
# _framework density 21.982503999999999
#
# number of rings (size 3 to 8) (size 9 to 14) (size 15 to 20)
#    0.000    1.250    5.000    1.500    3.500    4.500 
#    0.000    0.000    0.000    1.500    0.000    0.000 
#    0.000    0.000    0.000    0.000    0.000    0.000 
#
# Total GULP energy -198282.974974 kJ/mol
# GULP energy per Si atom -12392.685936 kJ/mol
# Density = 2.193247 g / cm^3
# Si number density = 21.982504 Si / 1000 Ang^3
#
#
#
# Elastic Constant Matrix: (Units=GPa)
#
#
# Indices 1 2 3 4 5 6 
#
# 1 78.5015 12.5019 6.5900 6.5329 1.6063 14.7097
# 2 12.5019 85.6616 26.2156 16.3783 -0.6885 14.5531
# 3 6.5900 26.2156 105.9614 9.9281 1.5119 2.3861
# 4 6.5329 16.3783 9.9281 32.6446 6.7260 -1.1547
# 5 1.6063 -0.6885 1.5119 6.7260 16.5201 6.6943
# 6 14.7097 14.5531 2.3861 -1.1547 6.6943 18.9616
#
#
#
# Elastic Compliance Matrix: (Units=1/GPa)
#
#
# Indices 1 2 3 4 5 6 
#
# 1 0.016049 0.002052 -0.000641 -0.006330 0.008131 -0.017200
# 2 0.002052 0.018480 -0.003263 -0.012439 0.014548 -0.021258
# 3 -0.000641 -0.003263 0.010351 -0.000998 -0.001492 0.002165
# 4 -0.006330 -0.012439 -0.000998 0.045530 -0.029619 0.027812
# 5 0.008131 0.014548 -0.001492 -0.029619 0.093681 -0.052163
# 6 -0.017200 -0.021258 0.002165 0.027812 -0.052163 0.102233
#
#
# Mechanical properties :
#
#
# Convention : Reuss Voigt Hill
#
# Bulk Modulus (GPa) = 24.28717 40.08218 32.18467
# Shear Modulus (GPa) = 16.46064 28.61306 22.53685
#
# Velocity S-wave (km/s) = 2.73940 3.61172 3.20538
# Velocity P-wave (km/s) = 4.59109 5.97210 5.32654
#
# Compressibility (1/GPa) = 0.04117401
#
# Stress axis : x y z
#
# Youngs Moduli (GPa) = 62.30895 54.11333 96.61219
#
# Poissons Ratio (x) = -0.11102 0.06196
# Poissons Ratio (y) = -0.12784 0.31525
# Poissons Ratio (z) = 0.03996 0.17657
#
# Static dielectric constant tensor:
#      x y z
#    x 3.750860 0.163900 0.053270 
#    y 0.163900 4.182780 0.230000 
#    z 0.053270 0.230000 4.187210 
# 
# 
# High freq. dielectric constant tensor:
#      x y z
#    x 1.829420 0.022940 0.001020 
#    y 0.022940 1.844600 0.010910 
#    z 0.001020 0.010910 1.884250 
# 
# From -- ./inp_files/313465.got.cif
#   From: 2010.06.25/outbox.cif.g09.slc.cpg/sg2_157_cif.got.tgz:313465.got - 2010.06.27 13:26:56.
