data_PCOD8008561
_publ_section_title
;
Structure prediction by ZEFSAII (Michael W. Deem and Ramdas Pophale) SiO2 
 PCOD8008561
Probable space group: P -1
;
_chemical_formula_sum "Si O2"
_cell_formula_units_Z 16
_cell_length_a 9.209435
_cell_length_b 15.579433
_cell_length_c 15.560398
_cell_angle_alpha 36.040925
_cell_angle_beta 47.767142
_cell_angle_gamma 75.017585
_cell_volume 735.628015
_symmetry_space_group_name_H-M "P -1"
_symmetry_group_IT_number 2
_symmetry_cell_setting 'triclinic'
loop_
_space_group_symop_operation_xyz
x,y,z
-x,-y,-z
loop_
_atom_site_type_symbol
_atom_site_label
_atom_site_fract_x
_atom_site_fract_y
_atom_site_fract_z
Si Si1 0.303413 0.249358 0.615997
Si Si2 0.290016 0.711456 0.009623
Si Si3 0.853147 0.045666 0.578383
Si Si4 0.211046 0.485954 0.897939
Si Si5 0.051971 0.178910 0.940236
Si Si6 0.715138 0.512383 0.949315
Si Si7 0.786271 0.805540 0.946963
Si Si8 0.208485 0.494427 0.381409
O O1 0.602255 0.373803 0.367489
O O2 0.295057 0.292290 0.685529
O O3 0.144057 0.291698 0.586903
O O4 0.176254 0.030598 0.836772
O O5 0.279348 0.642602 0.972916
O O6 0.239426 0.550147 0.223976
O O7 0.054666 0.709351 0.107281
O O8 0.562393 0.921064 0.756710
O O9 0.000575 0.272432 0.336914
O O10 0.000000 0.000000 0.500000
O O11 0.856887 0.989141 0.721013
O O12 0.086234 0.270082 0.094274
O O13 0.383851 0.549909 0.862995
O O14 0.000000 0.500000 0.000000
O O15 0.118832 0.147386 0.031788
O O16 0.500000 0.500000 0.000000
O O17 0.477409 0.641966 0.205665
O O18 0.000000 0.500000 0.500000
#
# Coordination Sequence:
#
# PCOD8008561 Si02
#       8
#     2   2   2   2   2   2   2   2
#     4  10  24  43  68  91 141 173 221 280 341 402
#     4  11  24  42  68 102 133 181 227 277 340 408
#     4  11  22  42  65  97 140 176 225 282 332 403
#     4  11  24  42  63  96 130 174 223 274 338 404
#     4  11  24  44  66  99 134 177 224 280 348 396
#     4  12  23  41  68  99 133 179 228 273 342 399
#     4  10  23  41  66  97 133 170 222 280 340 398
#     4  10  20  44  67  91 128 175 225 273 332 396
#
# _framework density 21.750121
#
# number of rings (size 3 to 8) (size 9 to 14) (size 15 to 20)
#    0.000    1.250    3.750    2.250    5.250    2.000 
#    2.250    2.500    0.000    0.000    0.000    0.000 
#    0.000    0.000    0.000    0.000    0.000    0.000 
#
# Total GULP energy -198322.567768 kJ/mol
# GULP energy per Si atom -12395.160485 kJ/mol
# Density = 2.170062 g / cm^3
# Si number density = 21.750121 Si / 1000 Ang^3
#
#
#
# Elastic Constant Matrix: (Units=GPa)
#
#
# Indices 1 2 3 4 5 6 
#
# 1 79.2540 35.3540 18.9439 12.0257 2.0193 10.3875
# 2 35.3540 117.9986 34.1027 15.2555 -6.5031 4.0114
# 3 18.9439 34.1027 80.0985 11.7193 0.8803 3.3257
# 4 12.0257 15.2555 11.7193 37.9373 -2.7443 -0.4758
# 5 2.0193 -6.5031 0.8803 -2.7443 26.4379 7.8761
# 6 10.3875 4.0114 3.3257 -0.4758 7.8761 48.5159
#
#
#
# Elastic Compliance Matrix: (Units=1/GPa)
#
#
# Indices 1 2 3 4 5 6 
#
# 1 0.015536 -0.003831 -0.001464 -0.003082 -0.001602 -0.002679
# 2 -0.003831 0.011077 -0.003546 -0.001929 0.003044 -0.000366
# 3 -0.001464 -0.003546 0.014772 -0.002783 -0.001484 -0.000192
# 4 -0.003082 -0.001929 -0.002783 0.029172 0.002622 0.000870
# 5 -0.001602 0.003044 -0.001484 0.002622 0.040932 -0.006426
# 6 -0.002679 -0.000366 -0.000192 0.000870 -0.006426 0.022281
#
#
# Mechanical properties :
#
#
# Convention : Reuss Voigt Hill
#
# Bulk Modulus (GPa) = 42.18699 50.46137 46.32418
# Shear Modulus (GPa) = 31.37720 35.17490 33.27605
#
# Velocity S-wave (km/s) = 3.80231 4.02584 3.91567
# Velocity P-wave (km/s) = 6.22214 6.69781 6.46435
#
# Compressibility (1/GPa) = 0.02370399
#
# Stress axis : x y z
#
# Youngs Moduli (GPa) = 64.36723 90.27875 67.69514
#
# Poissons Ratio (x) = 0.34581 0.09909
# Poissons Ratio (y) = 0.24656 0.24006
# Poissons Ratio (z) = 0.09422 0.32014
#
# Static dielectric constant tensor:
#      x y z
#    x 2.495190 -2.421660 -0.818770 
#    y -2.421660 0.109050 -1.629440 
#    z -0.818770 -1.629440 3.517550 
# 
# 
# High freq. dielectric constant tensor:
#      x y z
#    x 1.855180 -0.001660 0.016410 
#    y -0.001660 1.858400 0.012960 
#    z 0.016410 0.012960 1.847910 
# 
# From -- ./inp_files/398504.got.cif
#   From: 2010.06.25/outbox.cif.g09.slc.cpg/sg2_200_cif.got.tgz:398504.got - 2010.06.27 13:26:56.
