data_PCOD8008206
_publ_section_title
;
Structure prediction by ZEFSAII (Michael W. Deem and Ramdas Pophale) SiO2 
 PCOD8008206
Probable space group: P -1
;
_chemical_formula_sum "Si O2"
_cell_formula_units_Z 16
_cell_length_a 21.283637
_cell_length_b 11.817687
_cell_length_c 9.780387
_cell_angle_alpha 50.644851
_cell_angle_beta 146.221785
_cell_angle_gamma 148.601957
_cell_volume 688.012147
_symmetry_space_group_name_H-M "P -1"
_symmetry_group_IT_number 2
_symmetry_cell_setting 'triclinic'
loop_
_space_group_symop_operation_xyz
x,y,z
-x,-y,-z
loop_
_atom_site_type_symbol
_atom_site_label
_atom_site_fract_x
_atom_site_fract_y
_atom_site_fract_z
Si Si1 0.319303 0.122480 0.583350
Si Si2 0.020798 0.597204 0.820259
Si Si3 0.612221 0.990808 0.941307
Si Si4 0.460823 0.320025 0.157648
Si Si5 0.625008 0.282410 0.884492
Si Si6 0.770013 0.647231 0.677617
Si Si7 0.157438 0.680908 0.547745
Si Si8 0.056434 0.929790 0.754381
O O1 0.498507 0.289308 0.695516
O O2 0.244240 0.212097 0.377629
O O3 0.189906 0.886543 0.451134
O O4 0.346083 0.094073 0.808472
O O5 0.872892 0.398361 0.601305
O O6 0.993499 0.739091 0.689783
O O7 0.000000 0.500000 0.000000
O O8 0.209617 0.756651 0.976886
O O9 0.520568 0.048979 0.790278
O O10 0.513496 0.808378 0.780790
O O11 0.597377 0.451645 0.425593
O O12 0.500000 0.500000 0.000000
O O13 0.263640 0.133151 0.002752
O O14 0.776241 0.516096 0.894329
O O15 0.688671 0.265377 0.150676
O O16 0.950171 0.824979 0.784076
O O17 0.000000 0.500000 0.500000
O O18 0.000000 0.000000 0.500000
#
# Coordination Sequence:
#
# PCOD8008206 Si02
#       8
#     2   2   2   2   2   2   2   2
#     4  11  23  44  67  95 141 188 242 282 351 432
#     4  11  23  42  69 104 141 174 233 301 347 418
#     4  10  20  42  67  99 135 179 240 288 344 436
#     4  11  22  42  70 102 137 188 226 288 368 407
#     4  11  25  43  67 100 136 185 241 293 353 419
#     4  12  25  46  67 103 151 181 241 305 342 427
#     4  11  23  44  74  95 137 192 229 288 365 419
#     4  11  24  41  70 105 141 185 237 292 356 426
#
# _framework density 23.255403000000001
#
# number of rings (size 3 to 8) (size 9 to 14) (size 15 to 20)
#    0.000    1.000    5.000    3.375    0.000    5.500 
#    0.000    1.875    0.000    0.000    0.000    0.000 
#    0.000    0.000    0.000    0.000    0.000    0.000 
#
# Total GULP energy -198314.625499 kJ/mol
# GULP energy per Si atom -12394.664094 kJ/mol
# Density = 2.320247 g / cm^3
# Si number density = 23.255403 Si / 1000 Ang^3
#
#
#
# Elastic Constant Matrix: (Units=GPa)
#
#
# Indices 1 2 3 4 5 6 
#
# 1 138.1204 64.7854 40.8509 4.5870 0.9774 -14.1226
# 2 64.7854 144.3361 44.0159 -4.0444 -10.6557 -13.4949
# 3 40.8509 44.0159 65.4546 0.2992 -13.5686 -14.8303
# 4 4.5870 -4.0444 0.2992 37.3240 3.9122 -1.4108
# 5 0.9774 -10.6557 -13.5686 3.9122 31.1203 -3.0979
# 6 -14.1226 -13.4949 -14.8303 -1.4108 -3.0979 55.0298
#
#
#
# Elastic Compliance Matrix: (Units=1/GPa)
#
#
# Indices 1 2 3 4 5 6 
#
# 1 0.010371 -0.003455 -0.004782 -0.001242 -0.003407 0.000302
# 2 -0.003455 0.009930 -0.004060 0.001385 0.001622 0.000581
# 3 -0.004782 -0.004060 0.024134 -0.000899 0.009875 0.004814
# 4 -0.001242 0.001385 -0.000899 0.027460 -0.003301 0.000297
# 5 -0.003407 0.001622 0.009875 -0.003301 0.037938 0.004236
# 6 0.000302 0.000581 0.004814 0.000297 0.004236 0.019935
#
#
# Mechanical properties :
#
#
# Convention : Reuss Voigt Hill
#
# Bulk Modulus (GPa) = 50.39662 71.91284 61.15473
# Shear Modulus (GPa) = 31.06083 37.91208 34.48645
#
# Velocity S-wave (km/s) = 3.65860 4.04201 3.85508
# Velocity P-wave (km/s) = 6.29008 7.26457 6.79482
#
# Compressibility (1/GPa) = 0.01984260
#
# Stress axis : x y z
#
# Youngs Moduli (GPa) = 96.42188 100.70511 41.43560
#
# Poissons Ratio (x) = 0.34794 0.19813
# Poissons Ratio (y) = 0.33314 0.16821
# Poissons Ratio (z) = 0.46104 0.40882
#
# Static dielectric constant tensor:
#      x y z
#    x 4.615120 0.054980 -0.050880 
#    y 0.054980 5.003590 0.256690 
#    z -0.050880 0.256690 4.137960 
# 
# 
# High freq. dielectric constant tensor:
#      x y z
#    x 1.938100 0.000930 0.001280 
#    y 0.000930 1.940100 -0.010750 
#    z 0.001280 -0.010750 1.891420 
# 
# From -- ./inp_files/345984.got.cif
#   From: 2010.06.25/outbox.cif.g09.slc.cpg/sg2_173_cif.got.tgz:345984.got - 2010.06.27 13:26:56.
