data_PCOD8008305
_publ_section_title
;
Structure prediction by ZEFSAII (Michael W. Deem and Ramdas Pophale) SiO2 
 PCOD8008305
Probable space group: P -1
;
_chemical_formula_sum "Si O2"
_cell_formula_units_Z 16
_cell_length_a 11.135405
_cell_length_b 13.794156
_cell_length_c 9.414617
_cell_angle_alpha 75.512890
_cell_angle_beta 130.592778
_cell_angle_gamma 132.537214
_cell_volume 761.188097
_symmetry_space_group_name_H-M "P -1"
_symmetry_group_IT_number 2
_symmetry_cell_setting 'triclinic'
loop_
_space_group_symop_operation_xyz
x,y,z
-x,-y,-z
loop_
_atom_site_type_symbol
_atom_site_label
_atom_site_fract_x
_atom_site_fract_y
_atom_site_fract_z
Si Si1 0.510398 0.605788 0.388145
Si Si2 0.901024 0.408180 0.321571
Si Si3 0.968168 0.750408 0.583013
Si Si4 0.293028 0.189713 0.306502
Si Si5 0.900612 0.162549 0.036697
Si Si6 0.015759 0.063878 0.640421
Si Si7 0.395610 0.152012 0.093360
Si Si8 0.060462 0.439195 0.964552
O O1 0.500000 0.500000 0.500000
O O2 0.733763 0.703218 0.434778
O O3 0.509218 0.692589 0.476079
O O4 0.311285 0.521367 0.157733
O O5 0.646359 0.262162 0.190813
O O6 0.946764 0.519916 0.211408
O O7 0.000000 0.500000 0.500000
O O8 0.045272 0.373787 0.407911
O O9 0.051775 0.849737 0.473661
O O10 0.112135 0.831045 0.805281
O O11 0.388102 0.201006 0.223487
O O12 0.127925 0.210027 0.147862
O O13 0.160918 0.043682 0.336796
O O14 0.898224 0.270959 0.920123
O O15 0.690663 0.000523 0.894838
O O16 0.253495 0.148500 0.866518
O O17 0.000000 0.000000 0.500000
O O18 0.000000 0.500000 0.000000
#
# Coordination Sequence:
#
# PCOD8008305 Si02
#       8
#     2   2   2   2   2   2   2   2
#     4  11  20  39  73  96 123 176 231 269 331 394
#     4  12  30  46  63  98 146 178 223 283 337 398
#     4  11  22  43  65  99 133 172 226 284 316 403
#     4  10  22  39  71  99 135 167 219 282 337 400
#     4  10  20  42  71  99 129 169 228 275 329 403
#     4  11  19  41  71 103 128 166 233 280 329 402
#     4  11  25  44  67 101 138 180 215 280 357 394
#     4  12  24  44  72 100 132 180 229 279 335 401
#
# _framework density 21.019772
#
# number of rings (size 3 to 8) (size 9 to 14) (size 15 to 20)
#    0.000    1.000    7.500    2.250    3.500    2.500 
#    2.250    3.125    0.000    0.000    0.000    0.000 
#    0.000    0.000    0.000    0.000    0.000    0.000 
#
# Total GULP energy -198273.905784 kJ/mol
# GULP energy per Si atom -12392.119111 kJ/mol
# Density = 2.097193 g / cm^3
# Si number density = 21.019772 Si / 1000 Ang^3
#
#
#
# Elastic Constant Matrix: (Units=GPa)
#
#
# Indices 1 2 3 4 5 6 
#
# 1 70.4469 27.4627 31.6463 -8.3026 -19.2416 -8.3364
# 2 27.4627 150.6094 53.8588 -23.2014 2.2100 -15.3984
# 3 31.6463 53.8588 111.0278 -12.0054 -14.6167 -5.9844
# 4 -8.3026 -23.2014 -12.0054 45.2601 -0.3216 -0.5077
# 5 -19.2416 2.2100 -14.6167 -0.3216 25.3834 0.7913
# 6 -8.3364 -15.3984 -5.9844 -0.5077 0.7913 32.4690
#
#
#
# Elastic Compliance Matrix: (Units=1/GPa)
#
#
# Indices 1 2 3 4 5 6 
#
# 1 0.020878 -0.002491 -0.002419 0.002053 0.014570 0.003410
# 2 -0.002491 0.009448 -0.004005 0.003325 -0.005077 0.003279
# 3 -0.002419 -0.004005 0.012464 0.000846 0.005714 -0.000349
# 4 0.002053 0.003325 0.000846 0.024443 0.001983 0.002594
# 5 0.014570 -0.005077 0.005714 0.001983 0.054164 0.001097
# 6 0.003410 0.003279 -0.000349 0.002594 0.001097 0.033179
#
#
# Mechanical properties :
#
#
# Convention : Reuss Voigt Hill
#
# Bulk Modulus (GPa) = 40.06381 62.00219 51.03300
# Shear Modulus (GPa) = 27.66632 35.23026 31.44829
#
# Velocity S-wave (km/s) = 3.63189 4.09840 3.87218
# Velocity P-wave (km/s) = 6.05714 7.20812 6.65755
#
# Compressibility (1/GPa) = 0.02496018
#
# Stress axis : x y z
#
# Youngs Moduli (GPa) = 47.89797 105.84082 80.23076
#
# Poissons Ratio (x) = 0.26364 0.19404
# Poissons Ratio (y) = 0.11931 0.32136
# Poissons Ratio (z) = 0.11584 0.42394
#
# Static dielectric constant tensor:
#      x y z
#    x 3.828120 -0.004300 -0.179600 
#    y -0.004300 4.305850 0.077640 
#    z -0.179600 0.077640 3.775980 
# 
# 
# High freq. dielectric constant tensor:
#      x y z
#    x 1.806130 -0.000110 -0.009730 
#    y -0.000110 1.842790 -0.006040 
#    z -0.009730 -0.006040 1.819000 
# 
# From -- ./inp_files/245089.got.cif
#   From: 2010.06.25/outbox.cif.g09.slc.cpg/sg2_123_cif.got.tgz:245089.got - 2010.06.27 13:26:56.
