data_PCOD8008319
_publ_section_title
;
Structure prediction by ZEFSAII (Michael W. Deem and Ramdas Pophale) SiO2 
 PCOD8008319
Probable space group: P -1
;
_chemical_formula_sum "Si O2"
_cell_formula_units_Z 14
_cell_length_a 11.114802
_cell_length_b 25.840085
_cell_length_c 11.735196
_cell_angle_alpha 28.249620
_cell_angle_beta 39.029238
_cell_angle_gamma 21.050714
_cell_volume 552.315308
_symmetry_space_group_name_H-M "P -1"
_symmetry_group_IT_number 2
_symmetry_cell_setting 'triclinic'
loop_
_space_group_symop_operation_xyz
x,y,z
-x,-y,-z
loop_
_atom_site_type_symbol
_atom_site_label
_atom_site_fract_x
_atom_site_fract_y
_atom_site_fract_z
Si Si1 0.713630 0.285831 0.993049
Si Si2 0.608883 0.056880 0.744779
Si Si3 0.595695 0.695027 0.394450
Si Si4 0.724468 0.376166 0.187727
Si Si5 0.963578 0.720240 0.423088
Si Si6 0.657396 0.656013 0.022222
Si Si7 0.466234 0.113064 0.140637
O O1 0.352381 0.492926 0.915685
O O2 0.654733 0.210936 0.097055
O O3 0.884667 0.295886 0.768342
O O4 0.970973 0.143782 0.187996
O O5 0.565158 0.182708 0.610207
O O6 0.389366 0.175400 0.560129
O O7 0.500000 0.000000 0.000000
O O8 0.404878 0.671314 0.561553
O O9 0.000000 0.500000 0.500000
O O10 0.524004 0.804070 0.127263
O O11 0.135813 0.189696 0.221553
O O12 0.500000 0.500000 0.000000
O O13 0.273752 0.489690 0.676658
O O14 0.821430 0.870328 0.337092
O O15 0.550981 0.812321 0.872292
O O16 0.000000 0.500000 0.000000
#
# Coordination Sequence:
#
# PCOD8008319 Si02
#       7
#     2   2   2   2   2   2   2
#     4  11  23  48  71 104 147 189 244 303 367 438
#     4  10  20  42  73 107 139 179 241 309 360 428
#     4  12  22  41  73 106 147 191 243 301 372 436
#     4  12  25  41  72 111 145 189 245 305 370 435
#     4  11  25  47  78 106 147 193 248 313 363 440
#     4  12  27  48  71 104 153 197 244 303 374 439
#     4  12  25  49  73 105 148 196 250 303 365 444
#
# _framework density 25.347840000000001
#
# number of rings (size 3 to 8) (size 9 to 14) (size 15 to 20)
#    0.000    0.571    5.714    4.714    0.000    2.286 
#    2.571    2.143    0.000    0.000    0.000    0.000 
#    0.000    0.000    0.000    0.000    0.000    0.000 
#
# Total GULP energy -173434.276854 kJ/mol
# GULP energy per Si atom -12388.162632 kJ/mol
# Density = 2.529015 g / cm^3
# Si number density = 25.347840 Si / 1000 Ang^3
#
#
#
# Elastic Constant Matrix: (Units=GPa)
#
#
# Indices 1 2 3 4 5 6 
#
# 1 128.7056 1.2089 11.2573 -2.3729 -10.8447 9.9043
# 2 1.2089 76.7226 7.7664 4.8669 -5.5372 13.2644
# 3 11.2573 7.7664 33.7623 10.1271 -3.9006 -7.0380
# 4 -2.3729 4.8669 10.1271 34.5442 -0.2548 -7.5251
# 5 -10.8447 -5.5372 -3.9006 -0.2548 21.3057 -6.3163
# 6 9.9043 13.2644 -7.0380 -7.5251 -6.3163 50.7547
#
#
#
# Elastic Compliance Matrix: (Units=1/GPa)
#
#
# Indices 1 2 3 4 5 6 
#
# 1 0.008488 0.000667 -0.003275 0.001105 0.003404 -0.001697
# 2 0.000667 0.014428 -0.003665 -0.001861 0.002084 -0.004426
# 3 -0.003275 -0.003665 0.036143 -0.008959 0.005665 0.005985
# 4 0.001105 -0.001861 -0.008959 0.032759 -0.000019 0.003883
# 5 0.003404 0.002084 0.005665 -0.000019 0.052041 0.006050
# 6 -0.001697 -0.004426 0.005985 0.003883 0.006050 0.023349
#
#
# Mechanical properties :
#
#
# Convention : Reuss Voigt Hill
#
# Bulk Modulus (GPa) = 21.49951 31.07284 26.28617
# Shear Modulus (GPa) = 25.60713 35.91811 30.76262
#
# Velocity S-wave (km/s) = 3.18186 3.76840 3.48748
# Velocity P-wave (km/s) = 4.69033 5.58745 5.15843
#
# Compressibility (1/GPa) = 0.04651269
#
# Stress axis : x y z
#
# Youngs Moduli (GPa) = 117.81775 69.30947 27.66759
#
# Poissons Ratio (x) = -0.04622 0.09062
# Poissons Ratio (y) = -0.07857 0.10139
# Poissons Ratio (z) = 0.38589 0.25400
#
# Static dielectric constant tensor:
#      x y z
#    x 6.032450 -0.887840 1.143580 
#    y -0.887840 5.347290 -1.159440 
#    z 1.143580 -1.159440 6.027580 
# 
# 
# High freq. dielectric constant tensor:
#      x y z
#    x 2.021550 0.001300 -0.005160 
#    y 0.001300 2.023410 -0.001870 
#    z -0.005160 -0.001870 1.994800 
# 
# From -- ./inp_files/439541.got.cif
#   From: 2010.06.25/outbox.cif.g09.slc.cpg/sg2_220_cif.got.tgz:439541.got - 2010.06.27 13:26:56.
