data_PCOD8008279
_publ_section_title
;
Structure prediction by ZEFSAII (Michael W. Deem and Ramdas Pophale) SiO2 
 PCOD8008279
Probable space group: P -1
;
_chemical_formula_sum "Si O2"
_cell_formula_units_Z 16
_cell_length_a 9.512093
_cell_length_b 22.597466
_cell_length_c 8.799173
_cell_angle_alpha 52.585886
_cell_angle_beta 97.259047
_cell_angle_gamma 139.574717
_cell_volume 738.045806
_symmetry_space_group_name_H-M "P -1"
_symmetry_group_IT_number 2
_symmetry_cell_setting 'triclinic'
loop_
_space_group_symop_operation_xyz
x,y,z
-x,-y,-z
loop_
_atom_site_type_symbol
_atom_site_label
_atom_site_fract_x
_atom_site_fract_y
_atom_site_fract_z
Si Si1 0.646361 0.120827 0.452428
Si Si2 0.520016 0.798516 0.794648
Si Si3 0.203218 0.387788 0.569525
Si Si4 0.158275 0.912220 0.937159
Si Si5 0.920962 0.964944 0.340452
Si Si6 0.194578 0.184228 0.712384
Si Si7 0.725020 0.413953 0.658645
Si Si8 0.242415 0.352866 0.294752
O O1 0.668224 0.213843 0.240222
O O2 0.959258 0.231486 0.345539
O O3 0.500000 0.000000 0.500000
O O4 0.481896 0.049345 0.706230
O O5 0.630490 0.812368 0.629911
O O6 0.342507 0.655344 0.082045
O O7 0.805557 0.953589 0.684504
O O8 0.500000 0.500000 0.500000
O O9 0.148955 0.447092 0.514654
O O10 0.200869 0.380985 0.398521
O O11 0.983118 0.233414 0.869687
O O12 0.022637 0.919544 0.811378
O O13 0.095430 0.912198 0.101726
O O14 0.880379 0.925602 0.218623
O O15 0.444287 0.282619 0.716808
O O16 0.305799 0.295436 0.432062
O O17 0.000000 0.500000 0.500000
O O18 0.500000 0.500000 0.000000
#
# Coordination Sequence:
#
# PCOD8008279 Si02
#       8
#     2   2   2   2   2   2   2   2
#     4  11  26  43  69 104 140 181 228 301 343 410
#     4  10  23  41  67  99 134 177 222 277 359 407
#     4  11  23  46  71  96 139 189 230 289 341 418
#     4  10  22  41  71  96 134 174 240 278 354 403
#     4  10  20  42  70 101 130 172 224 288 350 413
#     4  11  23  43  69 100 132 181 227 292 344 415
#     4  12  27  42  66 103 139 187 230 281 356 412
#     4  11  27  44  71 102 137 189 239 275 354 422
#
# _framework density 21.678871999999998
#
# number of rings (size 3 to 8) (size 9 to 14) (size 15 to 20)
#    0.000    1.250    3.750    1.125    7.000    4.000 
#    0.000    1.250    0.000    0.000    0.000    0.000 
#    0.000    0.000    0.000    0.000    0.000    0.000 
#
# Total GULP energy -198243.827257 kJ/mol
# GULP energy per Si atom -12390.239204 kJ/mol
# Density = 2.162953 g / cm^3
# Si number density = 21.678872 Si / 1000 Ang^3
#
#
#
# Elastic Constant Matrix: (Units=GPa)
#
#
# Indices 1 2 3 4 5 6 
#
# 1 118.5849 35.4255 58.0158 -1.1759 6.6191 -6.9287
# 2 35.4255 95.6675 28.9964 5.4635 -6.2391 -4.1091
# 3 58.0158 28.9964 155.8976 12.4055 0.9162 6.4658
# 4 -1.1759 5.4635 12.4055 27.2421 3.4363 -0.2647
# 5 6.6191 -6.2391 0.9162 3.4363 40.2179 0.3236
# 6 -6.9287 -4.1091 6.4658 -0.2647 0.3236 38.7528
#
#
#
# Elastic Compliance Matrix: (Units=1/GPa)
#
#
# Indices 1 2 3 4 5 6 
#
# 1 0.011785 -0.003380 -0.004117 0.003424 -0.002683 0.002481
# 2 -0.003380 0.012328 -0.000882 -0.002550 0.002700 0.000810
# 3 -0.004117 -0.000882 0.008519 -0.003991 0.000706 -0.002284
# 4 0.003424 -0.002550 -0.003991 0.039737 -0.004274 0.001315
# 5 -0.002683 0.002700 0.000706 -0.004274 0.026079 -0.000558
# 6 0.002481 0.000810 -0.002284 0.001315 -0.000558 0.026729
#
#
# Mechanical properties :
#
#
# Convention : Reuss Voigt Hill
#
# Bulk Modulus (GPa) = 62.99192 68.33615 65.66404
# Shear Modulus (GPa) = 33.96164 37.75669 35.85917
#
# Velocity S-wave (km/s) = 3.96230 4.17782 4.07148
# Velocity P-wave (km/s) = 7.07481 7.40693 7.24278
#
# Compressibility (1/GPa) = 0.01587505
#
# Stress axis : x y z
#
# Youngs Moduli (GPa) = 84.85183 81.11415 117.38990
#
# Poissons Ratio (x) = 0.27418 0.48325
# Poissons Ratio (y) = 0.28682 0.10350
# Poissons Ratio (z) = 0.34931 0.07152
#
# Static dielectric constant tensor:
#      x y z
#    x 3.933620 0.055110 -0.059260 
#    y 0.055110 3.586140 0.382050 
#    z -0.059260 0.382050 3.949730 
# 
# 
# High freq. dielectric constant tensor:
#      x y z
#    x 1.861260 0.000410 0.008710 
#    y 0.000410 1.824770 0.017670 
#    z 0.008710 0.017670 1.873310 
# 
# From -- ./inp_files/226159.got.cif
#   From: 2010.06.25/outbox.cif.g09.slc.cpg/sg2_114_cif.got.tgz:226159.got - 2010.06.27 13:26:56.
