data_PCOD8008999
_publ_section_title
;
Structure prediction by ZEFSAII (Michael W. Deem and Ramdas Pophale) SiO2 
 PCOD8008999
Probable space group: P -1
;
_chemical_formula_sum "Si O2"
_cell_formula_units_Z 16
_cell_length_a 14.186673
_cell_length_b 6.505571
_cell_length_c 9.564366
_cell_angle_alpha 120.433230
_cell_angle_beta 77.296173
_cell_angle_gamma 105.009667
_cell_volume 730.946271
_symmetry_space_group_name_H-M "P -1"
_symmetry_group_IT_number 2
_symmetry_cell_setting 'triclinic'
loop_
_space_group_symop_operation_xyz
x,y,z
-x,-y,-z
loop_
_atom_site_type_symbol
_atom_site_label
_atom_site_fract_x
_atom_site_fract_y
_atom_site_fract_z
Si Si1 0.192179 0.922586 0.567780
Si Si2 0.799971 0.501408 0.953635
Si Si3 0.134243 0.963155 0.297234
Si Si4 0.539849 0.116723 0.379893
Si Si5 0.449167 0.410002 0.322663
Si Si6 0.954470 0.917299 0.137012
Si Si7 0.751571 0.566453 0.687686
Si Si8 0.354704 0.286788 0.761469
O O1 0.123246 0.912200 0.449206
O O2 0.248147 0.694690 0.472271
O O3 0.123463 0.916074 0.726507
O O4 0.278119 0.162164 0.624440
O O5 0.800642 0.215470 0.858531
O O6 0.808033 0.596958 0.825775
O O7 0.895282 0.643585 0.051246
O O8 0.697678 0.547730 0.064594
O O9 0.031086 0.920829 0.237942
O O10 0.189108 0.236320 0.365316
O O11 0.457228 0.146590 0.298888
O O12 0.584180 0.403067 0.486711
O O13 0.500000 0.000000 0.500000
O O14 0.613167 0.941487 0.241437
O O15 0.359128 0.380429 0.233087
O O16 0.551566 0.532955 0.263829
O O17 0.000000 0.000000 0.000000
#
# Coordination Sequence:
#
# PCOD8008999 Si02
#       8
#     2   2   2   2   2   2   2   2
#     4  10  24  41  67  97 125 163 216 260 315 375
#     4  10  24  44  64  91 127 166 212 258 323 375
#     4  11  24  42  66  92 129 167 208 261 320 380
#     4   9  19  34  57  86 120 164 208 255 299 361
#     4  10  21  35  62  92 126 168 212 252 314 366
#     4  11  22  48  68  92 125 167 207 266 323 380
#     4  11  23  41  63  96 128 167 207 262 311 378
#     4  10  21  40  63  93 127 168 211 264 303 371
#
# _framework density 21.889434000000001
#
# number of rings (size 3 to 8) (size 9 to 14) (size 15 to 20)
#    0.000    1.750    2.500    0.750    5.250    3.000 
#    6.750    1.250    0.000    0.000    0.000    0.000 
#    0.000    0.000    0.000    0.000    0.000    0.000 
#
# Total GULP energy -198226.071413 kJ/mol
# GULP energy per Si atom -12389.129463 kJ/mol
# Density = 2.183961 g / cm^3
# Si number density = 21.889434 Si / 1000 Ang^3
#
#
#
# Elastic Constant Matrix: (Units=GPa)
#
#
# Indices 1 2 3 4 5 6 
#
# 1 128.3112 37.2830 42.3413 -10.1516 -0.6938 -7.9357
# 2 37.2830 90.1855 28.7364 -4.2300 -3.5601 -8.1525
# 3 42.3413 28.7364 86.9136 3.1111 -11.5204 1.9507
# 4 -10.1516 -4.2300 3.1111 23.0244 -2.2757 -1.1672
# 5 -0.6938 -3.5601 -11.5204 -2.2757 33.4151 -1.6566
# 6 -7.9357 -8.1525 1.9507 -1.1672 -1.6566 35.3526
#
#
#
# Elastic Compliance Matrix: (Units=1/GPa)
#
#
# Indices 1 2 3 4 5 6 
#
# 1 0.010585 -0.002500 -0.004716 0.004832 -0.001236 0.002161
# 2 -0.002500 0.013556 -0.003331 0.002034 0.000523 0.002840
# 3 -0.004716 -0.003331 0.015725 -0.004501 0.004532 -0.002631
# 4 0.004832 0.002034 -0.004501 0.046930 0.002132 0.003452
# 5 -0.001236 0.000523 0.004532 0.002132 0.031721 0.001150
# 6 0.002161 0.002840 -0.002631 0.003452 0.001150 0.029740
#
#
# Mechanical properties :
#
#
# Convention : Reuss Voigt Hill
#
# Bulk Modulus (GPa) = 53.26887 58.01462 55.64174
# Shear Modulus (GPa) = 28.47224 31.49507 29.98365
#
# Velocity S-wave (km/s) = 3.61048 3.79730 3.70507
# Velocity P-wave (km/s) = 6.46289 6.76661 6.61649
#
# Compressibility (1/GPa) = 0.01877269
#
# Stress axis : x y z
#
# Youngs Moduli (GPa) = 94.46946 73.76726 63.59230
#
# Poissons Ratio (x) = 0.18444 0.29987
# Poissons Ratio (y) = 0.23620 0.21184
# Poissons Ratio (z) = 0.44547 0.24574
#
# Static dielectric constant tensor:
#      x y z
#    x 4.217420 -0.409130 0.010740 
#    y -0.409130 3.902810 0.257110 
#    z 0.010740 0.257110 3.940210 
# 
# 
# High freq. dielectric constant tensor:
#      x y z
#    x 1.872260 -0.015520 0.004720 
#    y -0.015520 1.848470 0.012960 
#    z 0.004720 0.012960 1.845300 
# 
# From -- ./inp_files/289165.got.cif
#   From: 2010.06.25/outbox.cif.g09.slc.cpg/sg2_145_cif.got.tgz:289165.got - 2010.06.27 13:26:56.
