data_PCOD8008306
_publ_section_title
;
Structure prediction by ZEFSAII (Michael W. Deem and Ramdas Pophale) SiO2 
 PCOD8008306
Probable space group: P -1
;
_chemical_formula_sum "Si O2"
_cell_formula_units_Z 16
_cell_length_a 8.422482
_cell_length_b 13.862366
_cell_length_c 11.371577
_cell_angle_alpha 29.864735
_cell_angle_beta 78.023907
_cell_angle_gamma 77.078741
_cell_volume 644.137380
_symmetry_space_group_name_H-M "P -1"
_symmetry_group_IT_number 2
_symmetry_cell_setting 'triclinic'
loop_
_space_group_symop_operation_xyz
x,y,z
-x,-y,-z
loop_
_atom_site_type_symbol
_atom_site_label
_atom_site_fract_x
_atom_site_fract_y
_atom_site_fract_z
Si Si1 0.782090 0.056629 0.071537
Si Si2 0.407450 0.814751 0.680163
Si Si3 0.062740 0.275814 0.725673
Si Si4 0.604888 0.542650 0.788483
Si Si5 0.951113 0.612120 0.769643
Si Si6 0.480419 0.620580 0.253843
Si Si7 0.834759 0.675257 0.090458
Si Si8 0.917996 0.057467 0.306236
O O1 0.818426 0.098830 0.156916
O O2 0.808550 0.821358 0.290314
O O3 0.606526 0.160255 0.950402
O O4 0.903991 0.160651 0.858468
O O5 0.471643 0.727688 0.636010
O O6 0.211578 0.867506 0.652271
O O7 0.500000 0.000000 0.500000
O O8 0.460713 0.650837 0.942115
O O9 0.154508 0.236723 0.875040
O O10 0.000000 0.500000 0.500000
O O11 0.769845 0.582459 0.787673
O O12 0.626154 0.506058 0.683261
O O13 0.068265 0.535509 0.724509
O O14 0.976728 0.835055 0.551548
O O15 0.000000 0.500000 0.000000
O O16 0.500000 0.500000 0.500000
O O17 0.646125 0.649251 0.127361
O O18 0.920872 0.824662 0.833456
#
# Coordination Sequence:
#
# PCOD8008306 Si02
#       8
#     2   2   2   2   2   2   2   2
#     4  10  22  42  72 100 142 188 255 301 372 442
#     4  11  22  44  82 110 144 198 247 313 385 452
#     4  10  20  42  71  99 133 189 243 309 366 432
#     4  11  25  49  77 110 151 192 251 309 380 453
#     4  12  27  47  75 108 146 191 249 323 389 453
#     4  12  27  48  75 110 157 208 255 308 377 458
#     4  11  26  44  66 105 151 188 252 305 373 452
#     4  11  23  47  72 108 146 194 247 319 383 449
#
# _framework density 24.83942
#
# number of rings (size 3 to 8) (size 9 to 14) (size 15 to 20)
#    0.000    1.000    3.750    2.250    3.500    4.000 
#    2.250    5.000    0.000    0.000    0.000    0.000 
#    0.000    0.000    0.000    0.000    0.000    0.000 
#
# Total GULP energy -198292.222424 kJ/mol
# GULP energy per Si atom -12393.263902 kJ/mol
# Density = 2.478288 g / cm^3
# Si number density = 24.839420 Si / 1000 Ang^3
#
#
#
# Elastic Constant Matrix: (Units=GPa)
#
#
# Indices 1 2 3 4 5 6 
#
# 1 118.4134 51.8713 56.6047 -7.8271 -5.7900 -22.3149
# 2 51.8713 151.8677 37.2615 -28.3549 17.5952 -28.3686
# 3 56.6047 37.2615 121.3661 -35.1559 6.9623 -9.0184
# 4 -7.8271 -28.3549 -35.1559 48.9559 2.1266 13.4250
# 5 -5.7900 17.5952 6.9623 2.1266 31.2606 1.1062
# 6 -22.3149 -28.3686 -9.0184 13.4250 1.1062 44.2166
#
#
#
# Elastic Compliance Matrix: (Units=1/GPa)
#
#
# Indices 1 2 3 4 5 6 
#
# 1 0.015016 -0.004504 -0.007860 -0.007602 0.007400 0.005208
# 2 -0.004504 0.010300 0.001211 0.005595 -0.007391 0.003068
# 3 -0.007860 0.001211 0.014922 0.011371 -0.006113 -0.003446
# 4 -0.007602 0.005595 0.011371 0.033140 -0.009070 -0.007763
# 5 0.007400 -0.007391 -0.006113 -0.009070 0.039515 -0.000489
# 6 0.005208 0.003068 -0.003446 -0.007763 -0.000489 0.028879
#
#
# Mechanical properties :
#
#
# Convention : Reuss Voigt Hill
#
# Bulk Modulus (GPa) = 55.76741 75.90248 65.83495
# Shear Modulus (GPa) = 29.40182 41.28060 35.34121
#
# Velocity S-wave (km/s) = 3.44419 4.08106 3.77608
# Velocity P-wave (km/s) = 6.19003 7.26845 6.75081
#
# Compressibility (1/GPa) = 0.01793162
#
# Stress axis : x y z
#
# Youngs Moduli (GPa) = 66.59401 97.08739 67.01436
#
# Poissons Ratio (x) = 0.43730 0.52676
# Poissons Ratio (y) = 0.29995 -0.08116
# Poissons Ratio (z) = 0.52345 -0.11758
#
# Static dielectric constant tensor:
#      x y z
#    x 4.374960 -0.255070 -0.115770 
#    y -0.255070 6.986300 -0.268790 
#    z -0.115770 -0.268790 4.491470 
# 
# 
# High freq. dielectric constant tensor:
#      x y z
#    x 1.978690 -0.010630 -0.004770 
#    y -0.010630 2.010360 -0.014540 
#    z -0.004770 -0.014540 1.982830 
# 
# From -- ./inp_files/398079.got.cif
#   From: 2010.06.25/outbox.cif.g09.slc.cpg/sg2_200_cif.got.tgz:398079.got - 2010.06.27 13:26:56.
