data_PCOD8008273
_publ_section_title
;
Structure prediction by ZEFSAII (Michael W. Deem and Ramdas Pophale) SiO2 
 PCOD8008273
Probable space group: P -1
;
_chemical_formula_sum "Si O2"
_cell_formula_units_Z 14
_cell_length_a 20.059107
_cell_length_b 13.208448
_cell_length_c 7.818938
_cell_angle_alpha 136.133187
_cell_angle_beta 123.645348
_cell_angle_gamma 24.097893
_cell_volume 545.062988
_symmetry_space_group_name_H-M "P -1"
_symmetry_group_IT_number 2
_symmetry_cell_setting 'triclinic'
loop_
_space_group_symop_operation_xyz
x,y,z
-x,-y,-z
loop_
_atom_site_type_symbol
_atom_site_label
_atom_site_fract_x
_atom_site_fract_y
_atom_site_fract_z
Si Si1 0.154360 0.615475 0.431008
Si Si2 0.438067 0.391300 0.054291
Si Si3 0.582457 0.583088 0.333258
Si Si4 0.177501 0.246518 0.063256
Si Si5 0.858784 0.320491 0.908704
Si Si6 0.745776 0.013102 0.485636
Si Si7 0.885805 0.861405 0.859216
O O1 0.334677 0.392130 0.487953
O O2 0.162344 0.603941 0.225347
O O3 0.125968 0.499108 0.317737
O O4 0.989986 0.972734 0.702607
O O5 0.328618 0.420385 0.964772
O O6 0.318812 0.722445 0.342097
O O7 0.611469 0.109327 0.070535
O O8 0.492061 0.314115 0.838582
O O9 0.421722 0.820870 0.523988
O O10 0.727978 0.222800 0.136294
O O11 0.128571 0.255820 0.815937
O O12 0.091506 0.299312 0.161730
O O13 0.932639 0.341699 0.139315
O O14 0.856100 0.838849 0.605085
#
# Coordination Sequence:
#
# PCOD8008273 Si02
#       7
#     2   2   2   2   2   2   2
#     4  10  25  43  66  98 139 174 226 273 338 401
#     4  11  22  41  74 102 128 179 230 272 336 395
#     4  10  20  42  69  98 136 173 226 280 325 402
#     4  12  24  42  74 101 130 179 227 277 333 390
#     4  10  24  46  68  93 141 179 218 277 340 404
#     4  11  22  39  70 105 133 173 226 280 327 403
#     4  10  22  44  66  97 139 174 223 274 333 402
#
# _framework density 25.685106999999999
#
# number of rings (size 3 to 8) (size 9 to 14) (size 15 to 20)
#    0.000    1.429    2.857    2.143    6.000    8.571 
#    2.571    0.714    0.000    0.000    0.000    0.000 
#    0.000    0.000    0.000    0.000    0.000    0.000 
#
# Total GULP energy -173735.379477 kJ/mol
# GULP energy per Si atom -12409.669963 kJ/mol
# Density = 2.562665 g / cm^3
# Si number density = 25.685107 Si / 1000 Ang^3
#
#
#
# Elastic Constant Matrix: (Units=GPa)
#
#
# Indices 1 2 3 4 5 6 
#
# 1 138.4191 37.0078 52.4697 8.1618 33.6873 -1.7309
# 2 37.0078 87.3391 45.3641 -19.7602 14.1834 13.3873
# 3 52.4697 45.3641 127.6496 -10.5084 17.3712 8.8087
# 4 8.1618 -19.7602 -10.5084 30.3050 -10.8855 5.4567
# 5 33.6873 14.1834 17.3712 -10.8855 39.9719 2.7733
# 6 -1.7309 13.3873 8.8087 5.4567 2.7733 42.7327
#
#
#
# Elastic Compliance Matrix: (Units=1/GPa)
#
#
# Indices 1 2 3 4 5 6 
#
# 1 0.014377 -0.006531 -0.003507 -0.015041 -0.012795 0.006102
# 2 -0.006531 0.020248 -0.003190 0.017164 0.004967 -0.008464
# 3 -0.003507 -0.003190 0.010730 0.003037 0.000374 -0.001767
# 4 -0.015041 0.017164 0.003037 0.060323 0.022790 -0.015794
# 5 -0.012795 0.004967 0.000374 0.022790 0.040616 -0.007698
# 6 0.006102 -0.008464 -0.001767 -0.015794 -0.007698 0.029181
#
#
# Mechanical properties :
#
#
# Convention : Reuss Voigt Hill
#
# Bulk Modulus (GPa) = 52.91218 69.23234 61.07226
# Shear Modulus (GPa) = 24.01189 37.17301 30.59245
#
# Velocity S-wave (km/s) = 3.06086 3.80841 3.45491
# Velocity P-wave (km/s) = 5.75646 6.80819 6.30430
#
# Compressibility (1/GPa) = 0.01889924
#
# Stress axis : x y z
#
# Youngs Moduli (GPa) = 69.55624 49.38791 93.19559
#
# Poissons Ratio (x) = 0.32255 0.32681
# Poissons Ratio (y) = 0.45427 0.29730
# Poissons Ratio (z) = 0.24391 0.15755
#
# Static dielectric constant tensor:
#      x y z
#    x 4.529270 -0.135040 0.237950 
#    y -0.135040 4.901170 -0.176300 
#    z 0.237950 -0.176300 4.468900 
# 
# 
# High freq. dielectric constant tensor:
#      x y z
#    x 2.037860 -0.010680 0.007420 
#    y -0.010680 2.048850 -0.009830 
#    z 0.007420 -0.009830 2.017550 
# 
# From -- ./inp_files/215139.got.cif
#   From: 2010.06.25/outbox.cif.g09.slc.cpg/sg2_108_cif.got.tgz:215139.got - 2010.06.27 13:26:56.
