data_PCOD8008338
_publ_section_title
;
Structure prediction by ZEFSAII (Michael W. Deem and Ramdas Pophale) SiO2 
 PCOD8008338
Probable space group: P -1
;
_chemical_formula_sum "Si O2"
_cell_formula_units_Z 16
_cell_length_a 8.835778
_cell_length_b 10.803984
_cell_length_c 14.465627
_cell_angle_alpha 72.289444
_cell_angle_beta 64.244206
_cell_angle_gamma 121.120892
_cell_volume 774.866037
_symmetry_space_group_name_H-M "P -1"
_symmetry_group_IT_number 2
_symmetry_cell_setting 'triclinic'
loop_
_space_group_symop_operation_xyz
x,y,z
-x,-y,-z
loop_
_atom_site_type_symbol
_atom_site_label
_atom_site_fract_x
_atom_site_fract_y
_atom_site_fract_z
Si Si1 0.085677 0.350982 0.073339
Si Si2 0.086049 0.383040 0.275746
Si Si3 0.065469 0.899988 0.463790
Si Si4 0.678465 0.745128 0.079714
Si Si5 0.070855 0.169949 0.822979
Si Si6 0.355222 0.725148 0.821060
Si Si7 0.686104 0.711981 0.448382
Si Si8 0.217663 0.545150 0.699926
O O1 0.056694 0.302611 0.200592
O O2 0.812912 0.242203 0.129502
O O3 0.166155 0.269066 0.017893
O O4 0.299718 0.590936 0.949437
O O5 0.382588 0.572297 0.175562
O O6 0.947541 0.211004 0.425625
O O7 0.950688 0.442726 0.305761
O O8 0.862271 0.748450 0.471825
O O9 0.347876 0.063488 0.307258
O O10 0.000000 0.000000 0.500000
O O11 0.708399 0.731889 0.183024
O O12 0.796187 0.956118 0.978809
O O13 0.137089 0.133192 0.717745
O O14 0.063590 0.320822 0.775905
O O15 0.256917 0.592527 0.786610
O O16 0.500000 0.500000 0.500000
O O17 0.503191 0.715255 0.540152
#
# Coordination Sequence:
#
# PCOD8008338 Si02
#       8
#     2   2   2   2   2   2   2   2
#     4  10  22  39  65  93 135 161 203 270 322 370
#     4  11  25  38  66  96 127 163 208 274 316 372
#     4  12  24  40  67  97 127 166 218 262 311 385
#     4  11  22  41  62  92 127 165 222 253 316 381
#     4  10  23  40  65  87 121 180 210 259 316 386
#     4  10  21  39  65  97 129 166 204 264 324 371
#     4  10  22  42  65  88 129 173 209 257 324 373
#     4  10  20  43  62  90 131 160 210 265 324 367
#
# _framework density 20.648731000000002
#
# number of rings (size 3 to 8) (size 9 to 14) (size 15 to 20)
#    0.000    1.500    2.500    2.625    3.500    3.500 
#    0.000   10.625    0.000    0.000    0.000    0.000 
#    0.000    0.000    0.000    0.000    0.000    0.000 
#
# Total GULP energy -198401.152386 kJ/mol
# GULP energy per Si atom -12400.072024 kJ/mol
# Density = 2.060173 g / cm^3
# Si number density = 20.648731 Si / 1000 Ang^3
#
#
#
# Elastic Constant Matrix: (Units=GPa)
#
#
# Indices 1 2 3 4 5 6 
#
# 1 109.3295 37.1939 57.4516 2.9031 0.1928 -8.2986
# 2 37.1939 62.2933 30.5996 1.7204 4.4659 6.5786
# 3 57.4516 30.5996 109.7084 3.1700 -3.9726 -1.7835
# 4 2.9031 1.7204 3.1700 37.3814 7.1839 2.1652
# 5 0.1928 4.4659 -3.9726 7.1839 39.9549 3.5906
# 6 -8.2986 6.5786 -1.7835 2.1652 3.5906 25.9237
#
#
#
# Elastic Compliance Matrix: (Units=1/GPa)
#
#
# Indices 1 2 3 4 5 6 
#
# 1 0.014998 -0.006675 -0.005886 -0.000650 -0.000351 0.006193
# 2 -0.006675 0.022473 -0.002996 0.000610 -0.002187 -0.007794
# 3 -0.005886 -0.002996 0.013118 -0.000851 0.001857 -0.000407
# 4 -0.000650 0.000610 -0.000851 0.027923 -0.004985 -0.002063
# 5 -0.000351 -0.002187 0.001857 -0.004985 0.026598 -0.002697
# 6 0.006193 -0.007794 -0.000407 -0.002063 -0.002697 0.043053
#
#
# Mechanical properties :
#
#
# Convention : Reuss Voigt Hill
#
# Bulk Modulus (GPa) = 51.34503 59.09126 55.21815
# Shear Modulus (GPa) = 26.91505 31.05774 28.98639
#
# Velocity S-wave (km/s) = 3.61428 3.88248 3.75078
# Velocity P-wave (km/s) = 6.50671 6.98410 6.74963
#
# Compressibility (1/GPa) = 0.01947608
#
# Stress axis : x y z
#
# Youngs Moduli (GPa) = 66.67416 44.49720 76.22982
#
# Poissons Ratio (x) = 0.29701 0.44867
# Poissons Ratio (y) = 0.44504 0.22841
# Poissons Ratio (z) = 0.39243 0.13333
#
# Static dielectric constant tensor:
#      x y z
#    x 3.876830 0.063710 0.052630 
#    y 0.063710 3.782730 0.414750 
#    z 0.052630 0.414750 4.525050 
# 
# 
# High freq. dielectric constant tensor:
#      x y z
#    x 1.802230 0.006360 0.002700 
#    y 0.006360 1.799390 0.010450 
#    z 0.002700 0.010450 1.824670 
# 
# From -- ./inp_files/278653.got.cif
#   From: 2010.06.25/outbox.cif.g09.slc.cpg/sg2_140_cif.got.tgz:278653.got - 2010.06.27 13:26:56.
