data_PCOD8008196
_publ_section_title
;
Structure prediction by ZEFSAII (Michael W. Deem and Ramdas Pophale) SiO2 
 PCOD8008196
Probable space group: P -1
;
_chemical_formula_sum "Si O2"
_cell_formula_units_Z 16
_cell_length_a 9.107018
_cell_length_b 11.915639
_cell_length_c 15.061668
_cell_angle_alpha 150.951581
_cell_angle_beta 87.430113
_cell_angle_gamma 100.302869
_cell_volume 759.228444
_symmetry_space_group_name_H-M "P -1"
_symmetry_group_IT_number 2
_symmetry_cell_setting 'triclinic'
loop_
_space_group_symop_operation_xyz
x,y,z
-x,-y,-z
loop_
_atom_site_type_symbol
_atom_site_label
_atom_site_fract_x
_atom_site_fract_y
_atom_site_fract_z
Si Si1 0.824967 0.259028 0.249608
Si Si2 0.407189 0.045250 0.661631
Si Si3 0.779407 0.192314 0.001917
Si Si4 0.936387 0.992473 0.363597
Si Si5 0.357659 0.620343 0.237966
Si Si6 0.913149 0.790843 0.670619
Si Si7 0.438665 0.131764 0.921753
Si Si8 0.019098 0.629301 0.225694
O O1 0.844202 0.264417 0.147785
O O2 0.817804 0.518769 0.463221
O O3 0.973290 0.197537 0.242129
O O4 0.668396 0.065793 0.148236
O O5 0.247108 0.102135 0.689092
O O6 0.538224 0.267227 0.771110
O O7 0.439900 0.021316 0.747563
O O8 0.406526 0.793739 0.441764
O O9 0.886766 0.378058 0.058567
O O10 0.607281 0.204769 0.008586
O O11 0.787888 0.925554 0.793097
O O12 0.002202 0.769798 0.232848
O O13 0.005045 0.213195 0.580922
O O14 0.981574 0.080262 0.324331
O O15 0.182508 0.579054 0.186768
O O16 0.377720 0.364249 0.084488
#
# Coordination Sequence:
#
# PCOD8008196 Si02
#       8
#     2   2   2   2   2   2   2   2
#     4  11  25  47  66  92 129 169 222 268 315 374
#     4  10  22  42  63  96 132 169 213 252 327 383
#     4  12  26  42  65 100 129 170 214 266 320 379
#     4  10  20  42  67  96 132 167 209 268 323 378
#     4  10  23  41  68  97 132 172 205 268 321 384
#     4  11  24  43  72  92 125 172 216 270 318 376
#     4  12  25  42  66  94 132 174 213 262 317 387
#     4  10  22  39  69  99 131 165 210 265 326 382
#
# _framework density 21.074026
#
# number of rings (size 3 to 8) (size 9 to 14) (size 15 to 20)
#    0.000    1.250    2.500    2.625    1.750    4.000 
#    0.000    0.000    0.000    0.000    0.000    0.000 
#    0.000    0.000    0.000    0.000    0.000    0.000 
#
# Total GULP energy -198528.551751 kJ/mol
# GULP energy per Si atom -12408.034484 kJ/mol
# Density = 2.102606 g / cm^3
# Si number density = 21.074026 Si / 1000 Ang^3
#
#
#
# Elastic Constant Matrix: (Units=GPa)
#
#
# Indices 1 2 3 4 5 6 
#
# 1 107.7629 30.8378 45.3807 26.7907 -12.0929 1.5099
# 2 30.8378 87.7108 31.7228 14.9488 -1.6271 -5.7747
# 3 45.3807 31.7228 75.3470 21.4380 1.0296 -7.1808
# 4 26.7907 14.9488 21.4380 41.3482 1.9284 5.8969
# 5 -12.0929 -1.6271 1.0296 1.9284 22.6908 12.2049
# 6 1.5099 -5.7747 -7.1808 5.8969 12.2049 30.1136
#
#
#
# Elastic Compliance Matrix: (Units=1/GPa)
#
#
# Indices 1 2 3 4 5 6 
#
# 1 0.016284 -0.002087 -0.008442 -0.004946 0.013489 -0.007728
# 2 -0.002087 0.014016 -0.003756 -0.002111 -0.001279 0.002828
# 3 -0.008442 -0.003756 0.022843 -0.006043 -0.011123 0.010841
# 4 -0.004946 -0.002111 -0.006043 0.032404 -0.001272 -0.007428
# 5 0.013489 -0.001279 -0.011123 -0.001272 0.068503 -0.031089
# 6 -0.007728 0.002828 0.010841 -0.007428 -0.031089 0.050777
#
#
# Mechanical properties :
#
#
# Convention : Reuss Voigt Hill
#
# Bulk Modulus (GPa) = 40.69942 54.07814 47.38878
# Shear Modulus (GPa) = 20.69640 29.68915 25.19278
#
# Velocity S-wave (km/s) = 3.13722 3.75747 3.46127
# Velocity P-wave (km/s) = 5.69889 6.67395 6.20560
#
# Compressibility (1/GPa) = 0.02457037
#
# Stress axis : x y z
#
# Youngs Moduli (GPa) = 61.41092 71.34828 43.77793
#
# Poissons Ratio (x) = 0.14893 0.36959
# Poissons Ratio (y) = 0.12819 0.16443
# Poissons Ratio (z) = 0.51845 0.26799
#
# Static dielectric constant tensor:
#      x y z
#    x 3.729470 -0.048260 -0.019070 
#    y -0.048260 3.858300 0.012010 
#    z -0.019070 0.012010 3.937040 
# 
# 
# High freq. dielectric constant tensor:
#      x y z
#    x 1.826040 -0.000550 0.000100 
#    y -0.000550 1.832670 0.001490 
#    z 0.000100 0.001490 1.837430 
# 
# From -- ./inp_files/400106.got.cif
#   From: 2010.06.25/outbox.cif.g09.slc.cpg/sg2_201_cif.got.tgz:400106.got - 2010.06.27 13:26:56.
