data_PCOD8008194
_publ_section_title
;
Structure prediction by ZEFSAII (Michael W. Deem and Ramdas Pophale) SiO2 
 PCOD8008194
Probable space group: P -1
;
_chemical_formula_sum "Si O2"
_cell_formula_units_Z 16
_cell_length_a 7.845930
_cell_length_b 12.857615
_cell_length_c 8.421684
_cell_angle_alpha 105.716846
_cell_angle_beta 109.640883
_cell_angle_gamma 63.379986
_cell_volume 707.995125
_symmetry_space_group_name_H-M "P -1"
_symmetry_group_IT_number 2
_symmetry_cell_setting 'triclinic'
loop_
_space_group_symop_operation_xyz
x,y,z
-x,-y,-z
loop_
_atom_site_type_symbol
_atom_site_label
_atom_site_fract_x
_atom_site_fract_y
_atom_site_fract_z
Si Si1 0.777806 0.933095 0.799616
Si Si2 0.667908 0.405371 0.915086
Si Si3 0.972048 0.676772 0.766983
Si Si4 0.110835 0.997344 0.822892
Si Si5 0.089684 0.525915 0.197663
Si Si6 0.986689 0.746052 0.450436
Si Si7 0.656627 0.000860 0.405750
Si Si8 0.241804 0.807591 0.331038
O O1 0.568888 0.988176 0.664783
O O2 0.805699 0.803940 0.813674
O O3 0.772492 0.017059 0.980790
O O4 0.972110 0.921360 0.748275
O O5 0.707074 0.468277 0.795865
O O6 0.616618 0.298916 0.781195
O O7 0.500000 0.500000 0.000000
O O8 0.849287 0.352804 0.069049
O O9 0.038348 0.682313 0.609967
O O10 0.875989 0.579829 0.711027
O O11 0.273038 0.960498 0.720029
O O12 0.964106 0.132417 0.805726
O O13 0.951665 0.652096 0.282303
O O14 0.000000 0.500000 0.000000
O O15 0.179577 0.766864 0.461288
O O16 0.791660 0.867557 0.445875
O O17 0.665413 0.096353 0.576318
#
# Coordination Sequence:
#
# PCOD8008194 Si02
#       8
#     2   2   2   2   2   2   2   2
#     4  11  23  40  65 101 140 173 229 272 332 404
#     4  10  22  45  68  90 128 179 225 273 338 395
#     4  11  21  42  65  96 131 172 222 277 334 392
#     4  10  21  42  63  94 140 183 211 279 339 393
#     4   9  21  42  65  91 127 171 221 276 328 389
#     4  10  21  40  69  95 137 178 217 277 341 398
#     4  11  23  41  68 102 135 179 223 268 344 404
#     4  10  20  42  67  95 135 175 220 280 333 397
#
# _framework density 22.599025999999999
#
# number of rings (size 3 to 8) (size 9 to 14) (size 15 to 20)
#    0.000    1.750    1.250    3.750    1.750    2.000 
#   15.750    1.250    0.000    0.000    0.000    0.000 
#    0.000    0.000    0.000    0.000    0.000    0.000 
#
# Total GULP energy -198236.532947 kJ/mol
# GULP energy per Si atom -12389.783309 kJ/mol
# Density = 2.254759 g / cm^3
# Si number density = 22.599026 Si / 1000 Ang^3
#
#
#
# Elastic Constant Matrix: (Units=GPa)
#
#
# Indices 1 2 3 4 5 6 
#
# 1 111.1977 67.0874 59.2740 14.3093 -7.7789 4.9972
# 2 67.0874 169.4850 64.0828 15.3769 -11.0571 15.4127
# 3 59.2740 64.0828 116.6345 11.1805 -1.8926 8.8969
# 4 14.3093 15.3769 11.1805 49.8929 -1.1684 -6.4770
# 5 -7.7789 -11.0571 -1.8926 -1.1684 41.9040 -0.8153
# 6 4.9972 15.4127 8.8969 -6.4770 -0.8153 32.0895
#
#
#
# Elastic Compliance Matrix: (Units=1/GPa)
#
#
# Indices 1 2 3 4 5 6 
#
# 1 0.014102 -0.003444 -0.005129 -0.001726 0.001440 0.000568
# 2 -0.003444 0.008797 -0.002670 -0.001509 0.001457 -0.003216
# 3 -0.005129 -0.002670 0.012836 -0.000826 -0.001132 -0.001673
# 4 -0.001726 -0.001509 -0.000826 0.021920 -0.000035 0.005646
# 5 0.001440 0.001457 -0.001132 -0.000035 0.024464 0.000005
# 6 0.000568 -0.003216 -0.001673 0.005646 0.000005 0.034223
#
#
# Mechanical properties :
#
#
# Convention : Reuss Voigt Hill
#
# Bulk Modulus (GPa) = 75.47267 86.46727 80.96997
# Shear Modulus (GPa) = 34.90546 38.56880 36.73713
#
# Velocity S-wave (km/s) = 3.93435 4.13565 4.03626
# Velocity P-wave (km/s) = 7.35579 7.81981 7.59135
#
# Compressibility (1/GPa) = 0.01324983
#
# Stress axis : x y z
#
# Youngs Moduli (GPa) = 70.91123 113.67196 77.90765
#
# Poissons Ratio (x) = 0.39147 0.39960
# Poissons Ratio (y) = 0.24421 0.20799
# Poissons Ratio (z) = 0.36371 0.30347
#
# Static dielectric constant tensor:
#      x y z
#    x 4.003950 0.392640 -0.200620 
#    y 0.392640 4.651640 -0.079780 
#    z -0.200620 -0.079780 4.337110 
# 
# 
# High freq. dielectric constant tensor:
#      x y z
#    x 1.856060 0.029010 -0.017460 
#    y 0.029010 1.900460 0.003390 
#    z -0.017460 0.003390 1.913590 
# 
# From -- ./inp_files/180335.got.cif
#   From: 2010.06.25/outbox.cif.g09.slc.cpg/sg2_91_cif.got.tgz:180335.got - 2010.06.27 13:26:56.
