data_PCOD8008954
_publ_section_title
;
Structure prediction by ZEFSAII (Michael W. Deem and Ramdas Pophale) SiO2 
 PCOD8008954
Probable space group: P -1
;
_chemical_formula_sum "Si O2"
_cell_formula_units_Z 14
_cell_length_a 9.291226
_cell_length_b 11.625872
_cell_length_c 11.787697
_cell_angle_alpha 141.887206
_cell_angle_beta 116.821379
_cell_angle_gamma 71.562468
_cell_volume 699.604854
_symmetry_space_group_name_H-M "P -1"
_symmetry_group_IT_number 2
_symmetry_cell_setting 'triclinic'
loop_
_space_group_symop_operation_xyz
x,y,z
-x,-y,-z
loop_
_atom_site_type_symbol
_atom_site_label
_atom_site_fract_x
_atom_site_fract_y
_atom_site_fract_z
Si Si1 0.080439 0.383720 0.133488
Si Si2 0.972216 0.773172 0.436109
Si Si3 0.159237 0.816983 0.948733
Si Si4 0.176551 0.153658 0.789806
Si Si5 0.882879 0.770086 0.653358
Si Si6 0.632181 0.660002 0.635978
Si Si7 0.512421 0.042894 0.904699
O O1 0.235119 0.301429 0.186662
O O2 0.086590 0.607622 0.317125
O O3 0.906291 0.309704 0.066797
O O4 0.093331 0.314612 0.955393
O O5 0.839637 0.796815 0.309755
O O6 0.875909 0.742633 0.495325
O O7 0.088048 0.956407 0.635754
O O8 0.058544 0.737272 0.741171
O O9 0.343105 0.805561 0.963875
O O10 0.145847 0.027957 0.148553
O O11 0.361845 0.139714 0.875228
O O12 0.742503 0.618917 0.533422
O O13 0.500000 0.500000 0.500000
O O14 0.536857 0.838868 0.704904
O O15 0.500000 0.000000 0.000000
#
# Coordination Sequence:
#
# PCOD8008954 Si02
#       7
#     2   2   2   2   2   2   2
#     4  11  21  40  63  88 119 156 200 247 292 353
#     4  11  23  38  64  86 119 163 204 235 292 365
#     4   9  19  35  63  87 114 155 200 243 300 350
#     4  11  23  41  61  88 121 160 201 243 293 353
#     4   9  18  37  59  87 120 157 195 246 296 350
#     4  10  21  35  60  94 118 148 200 253 297 350
#     4  11  20  36  61  86 118 155 192 248 306 342
#
# _framework density 20.011296999999999
#
# number of rings (size 3 to 8) (size 9 to 14) (size 15 to 20)
#    0.000    1.714    2.857    3.000    0.000    3.429 
#    0.000    3.571    3.143    0.000    0.000    0.000 
#    0.000    0.000    0.000    0.000    0.000    0.000 
#
# Total GULP energy -173464.941125 kJ/mol
# GULP energy per Si atom -12390.352938 kJ/mol
# Density = 1.996575 g / cm^3
# Si number density = 20.011297 Si / 1000 Ang^3
#
#
#
# Elastic Constant Matrix: (Units=GPa)
#
#
# Indices 1 2 3 4 5 6 
#
# 1 154.0917 52.5652 71.1616 -17.6523 9.5348 14.4249
# 2 52.5652 64.4535 33.8901 -9.1761 -6.5534 -2.5417
# 3 71.1616 33.8901 87.0329 -2.6508 -6.1732 12.3128
# 4 -17.6523 -9.1761 -2.6508 32.9838 2.3841 -3.4655
# 5 9.5348 -6.5534 -6.1732 2.3841 27.1869 -0.5804
# 6 14.4249 -2.5417 12.3128 -3.4655 -0.5804 30.2807
#
#
#
# Elastic Compliance Matrix: (Units=1/GPa)
#
#
# Indices 1 2 3 4 5 6 
#
# 1 0.014939 -0.007678 -0.009246 0.005446 -0.009743 -0.003565
# 2 -0.007678 0.025467 -0.004121 0.002916 0.007810 0.007954
# 3 -0.009246 -0.004121 0.021771 -0.005445 0.007558 -0.005272
# 4 0.005446 0.002916 -0.005445 0.034383 -0.005380 0.003697
# 5 -0.009743 0.007810 0.007558 -0.005380 0.044322 0.002458
# 6 -0.003565 0.007954 -0.005272 0.003697 0.002458 0.038004
#
#
# Mechanical properties :
#
#
# Convention : Reuss Voigt Hill
#
# Bulk Modulus (GPa) = 49.78594 68.97910 59.38252
# Shear Modulus (GPa) = 21.96134 27.95436 24.95785
#
# Velocity S-wave (km/s) = 3.31637 3.74161 3.53539
# Velocity P-wave (km/s) = 6.29264 7.29459 6.81206
#
# Compressibility (1/GPa) = 0.02008599
#
# Stress axis : x y z
#
# Youngs Moduli (GPa) = 66.93767 39.26681 45.93325
#
# Poissons Ratio (x) = 0.30149 0.42470
# Poissons Ratio (y) = 0.51395 0.18930
# Poissons Ratio (z) = 0.61891 0.16183
#
# Static dielectric constant tensor:
#      x y z
#    x 3.973500 0.071720 0.046190 
#    y 0.071720 3.603290 0.076940 
#    z 0.046190 0.076940 3.542080 
# 
# 
# High freq. dielectric constant tensor:
#      x y z
#    x 1.789910 0.009830 -0.005930 
#    y 0.009830 1.763090 0.010670 
#    z -0.005930 0.010670 1.774620 
# 
# From -- ./inp_files/233860.got.cif
#   From: 2010.06.25/outbox.cif.g09.slc.cpg/sg2_117_cif.got.tgz:233860.got - 2010.06.27 13:26:56.
