data_PCOD8008310
_publ_section_title
;
Structure prediction by ZEFSAII (Michael W. Deem and Ramdas Pophale) SiO2 
 PCOD8008310
Probable space group: P -1
;
_chemical_formula_sum "Si O2"
_cell_formula_units_Z 12
_cell_length_a 6.458227
_cell_length_b 11.931724
_cell_length_c 15.424656
_cell_angle_alpha 144.439606
_cell_angle_beta 47.540843
_cell_angle_gamma 114.028677
_cell_volume 481.237764
_symmetry_space_group_name_H-M "P -1"
_symmetry_group_IT_number 2
_symmetry_cell_setting 'triclinic'
loop_
_space_group_symop_operation_xyz
x,y,z
-x,-y,-z
loop_
_atom_site_type_symbol
_atom_site_label
_atom_site_fract_x
_atom_site_fract_y
_atom_site_fract_z
Si Si1 0.748864 0.044525 0.281786
Si Si2 0.663392 0.316557 0.131592
Si Si3 0.515844 0.717750 0.651525
Si Si4 0.961391 0.447692 0.877819
Si Si5 0.374016 0.779338 0.251218
Si Si6 0.192553 0.655665 0.405551
O O1 0.453260 0.986975 0.353001
O O2 0.721035 0.107403 0.227957
O O3 0.740657 0.239782 0.461365
O O4 0.063538 0.866260 0.101693
O O5 0.565322 0.232775 0.194053
O O6 0.369189 0.408709 0.211430
O O7 0.776863 0.516114 0.231336
O O8 0.500000 0.500000 0.500000
O O9 0.844434 0.708617 0.528327
O O10 0.910375 0.228617 0.733286
O O11 0.664203 0.608512 0.023811
O O12 0.000000 0.500000 0.000000
O O13 0.319877 0.742554 0.343250
#
# Coordination Sequence:
#
# PCOD8008310 Si02
#       6
#     2   2   2   2   2   2
#     4  11  27  46  71 108 141 191 240 288 353 427
#     4  11  24  47  73 100 144 188 237 292 349 423
#     4  12  26  48  70 100 144 190 244 291 354 416
#     4  10  20  42  72 104 136 186 230 286 357 415
#     4  10  23  41  70 108 141 181 237 290 353 424
#     4  12  25  47  72 105 145 187 231 302 354 418
#
# _framework density 24.935697999999999
#
# number of rings (size 3 to 8) (size 9 to 14) (size 15 to 20)
#    0.000    1.000    3.333    2.500    0.000    4.000 
#    6.000    0.000    0.000    0.000    0.000    0.000 
#    0.000    0.000    0.000    0.000    0.000    0.000 
#
# Total GULP energy -148663.943261 kJ/mol
# GULP energy per Si atom -12388.661938 kJ/mol
# Density = 2.487894 g / cm^3
# Si number density = 24.935698 Si / 1000 Ang^3
#
#
#
# Elastic Constant Matrix: (Units=GPa)
#
#
# Indices 1 2 3 4 5 6 
#
# 1 91.4892 17.9538 24.5083 10.3678 -0.2554 -15.8345
# 2 17.9538 112.7185 16.6378 -10.3333 1.6066 -22.2482
# 3 24.5083 16.6378 74.0605 -6.1985 -26.7917 -6.4605
# 4 10.3678 -10.3333 -6.1985 36.1618 -4.8332 2.3277
# 5 -0.2554 1.6066 -26.7917 -4.8332 29.7857 -5.7259
# 6 -15.8345 -22.2482 -6.4605 2.3277 -5.7259 41.1467
#
#
#
# Elastic Compliance Matrix: (Units=1/GPa)
#
#
# Indices 1 2 3 4 5 6 
#
# 1 0.014416 -0.001109 -0.007293 -0.006825 -0.006862 0.003234
# 2 -0.001109 0.010471 -0.001591 0.002643 -0.000664 0.004743
# 3 -0.007293 -0.001591 0.027026 0.009585 0.026607 0.003737
# 4 -0.006825 0.002643 0.009585 0.033855 0.013979 0.000338
# 5 -0.006862 -0.000664 0.026607 0.013979 0.061469 0.008941
# 6 0.003234 0.004743 0.003737 0.000338 0.008941 0.029924
#
#
# Mechanical properties :
#
#
# Convention : Reuss Voigt Hill
#
# Bulk Modulus (GPa) = 31.32060 44.05200 37.68630
# Shear Modulus (GPa) = 24.06275 36.03006 30.04640
#
# Velocity S-wave (km/s) = 3.10980 3.80533 3.47501
# Velocity P-wave (km/s) = 5.04800 6.08375 5.58992
#
# Compressibility (1/GPa) = 0.03192787
#
# Stress axis : x y z
#
# Youngs Moduli (GPa) = 69.36939 95.50074 37.00079
#
# Poissons Ratio (x) = 0.10593 0.26984
# Poissons Ratio (y) = 0.07695 0.05885
# Poissons Ratio (z) = 0.50590 0.15190
#
# Static dielectric constant tensor:
#      x y z
#    x 5.682130 0.786640 -0.679750 
#    y 0.786640 5.392400 -0.555350 
#    z -0.679750 -0.555350 4.704410 
# 
# 
# High freq. dielectric constant tensor:
#      x y z
#    x 1.992650 0.005890 -0.021560 
#    y 0.005890 1.998810 -0.009260 
#    z -0.021560 -0.009260 1.990230 
# 
# From -- ./inp_files/26424.got.cif
#   From: 2010.06.25/outbox.cif.g09.slc.cpg/sg2_14_cif.got.tgz:26424.got - 2010.06.27 13:26:56.
