data_PCOD8008486
_publ_section_title
;
Structure prediction by ZEFSAII (Michael W. Deem and Ramdas Pophale) SiO2 
 PCOD8008486
Probable space group: P -1
;
_chemical_formula_sum "Si O2"
_cell_formula_units_Z 14
_cell_length_a 11.985951
_cell_length_b 10.957207
_cell_length_c 6.947173
_cell_angle_alpha 86.380644
_cell_angle_beta 115.888531
_cell_angle_gamma 122.929614
_cell_volume 670.363368
_symmetry_space_group_name_H-M "P -1"
_symmetry_group_IT_number 2
_symmetry_cell_setting 'triclinic'
loop_
_space_group_symop_operation_xyz
x,y,z
-x,-y,-z
loop_
_atom_site_type_symbol
_atom_site_label
_atom_site_fract_x
_atom_site_fract_y
_atom_site_fract_z
Si Si1 0.719035 0.080693 0.536853
Si Si2 0.231542 0.107518 0.647433
Si Si3 0.475797 0.630767 0.976780
Si Si4 0.941949 0.285130 0.997352
Si Si5 0.243944 0.591253 0.095856
Si Si6 0.464316 0.788399 0.580965
Si Si7 0.000801 0.939092 0.800844
O O1 0.624103 0.146449 0.400119
O O2 0.765151 0.036094 0.381695
O O3 0.624577 0.931634 0.613726
O O4 0.872007 0.207726 0.746923
O O5 0.399872 0.246780 0.797280
O O6 0.165433 0.141284 0.408968
O O7 0.126012 0.078891 0.752638
O O8 0.314670 0.575200 0.955867
O O9 0.500000 0.500000 0.000000
O O10 0.490795 0.700094 0.770979
O O11 0.952955 0.175544 0.153553
O O12 0.111839 0.428182 0.084416
O O13 0.831559 0.319930 0.015017
O O14 0.370365 0.675041 0.347962
O O15 0.000000 0.000000 0.000000
#
# Coordination Sequence:
#
# PCOD8008486 Si02
#       7
#     2   2   2   2   2   2   2
#     4  10  20  43  70  96 126 164 224 269 320 385
#     4  11  25  41  63 100 125 170 221 264 327 383
#     4  12  28  41  65  97 134 174 220 266 327 399
#     4  10  22  43  69  92 132 173 212 272 318 388
#     4  10  24  45  64  97 130 172 220 258 335 386
#     4  10  23  43  66  97 130 168 212 274 323 381
#     4  11  24  41  66  93 132 168 212 272 325 378
#
# _framework density 20.884198000000001
#
# number of rings (size 3 to 8) (size 9 to 14) (size 15 to 20)
#    0.000    1.429    2.857    0.857    6.000    1.143 
#    0.000    2.143    0.000    0.000    0.000    0.000 
#    0.000    0.000    0.000    0.000    0.000    0.000 
#
# Total GULP energy -173613.489669 kJ/mol
# GULP energy per Si atom -12400.963548 kJ/mol
# Density = 2.083666 g / cm^3
# Si number density = 20.884198 Si / 1000 Ang^3
#
#
#
# Elastic Constant Matrix: (Units=GPa)
#
#
# Indices 1 2 3 4 5 6 
#
# 1 119.0883 39.1684 41.6297 -6.2771 -8.6012 -12.0952
# 2 39.1684 86.2153 39.4679 -0.3004 6.4306 -16.0108
# 3 41.6297 39.4679 90.8999 -10.7262 4.0888 -6.3690
# 4 -6.2771 -0.3004 -10.7262 37.4873 -4.4381 7.6352
# 5 -8.6012 6.4306 4.0888 -4.4381 36.4243 -0.7150
# 6 -12.0952 -16.0108 -6.3690 7.6352 -0.7150 35.2537
#
#
#
# Elastic Compliance Matrix: (Units=1/GPa)
#
#
# Indices 1 2 3 4 5 6 
#
# 1 0.011284 -0.003476 -0.003610 0.000975 0.003832 0.001507
# 2 -0.003476 0.017235 -0.005734 -0.003799 -0.003558 0.006349
# 3 -0.003610 -0.005734 0.015538 0.004056 -0.001128 -0.001937
# 4 0.000975 -0.003799 0.004056 0.029872 0.003947 -0.007048
# 5 0.003832 -0.003558 -0.001128 0.003947 0.029580 -0.000760
# 6 0.001507 0.006349 -0.001937 -0.007048 -0.000760 0.032927
#
#
# Mechanical properties :
#
#
# Convention : Reuss Voigt Hill
#
# Bulk Modulus (GPa) = 54.30422 59.63730 56.97076
# Shear Modulus (GPa) = 29.72389 33.56220 31.64305
#
# Velocity S-wave (km/s) = 3.77672 4.01317 3.89674
# Velocity P-wave (km/s) = 6.71395 7.07758 6.89816
#
# Compressibility (1/GPa) = 0.01841478
#
# Stress axis : x y z
#
# Youngs Moduli (GPa) = 88.62402 58.02289 64.35884
#
# Poissons Ratio (x) = 0.20170 0.23233
# Poissons Ratio (y) = 0.30808 0.36906
# Poissons Ratio (z) = 0.31993 0.33273
#
# Static dielectric constant tensor:
#      x y z
#    x 4.068790 -0.153320 0.162010 
#    y -0.153320 3.812940 0.114710 
#    z 0.162010 0.114710 3.642870 
# 
# 
# High freq. dielectric constant tensor:
#      x y z
#    x 1.837730 -0.002600 0.008270 
#    y -0.002600 1.811340 0.011760 
#    z 0.008270 0.011760 1.811070 
# 
# From -- ./inp_files/68759.got.cif
#   From: 2010.06.25/outbox.cif.g09.slc.cpg/sg2_35_cif.got.tgz:68759.got - 2010.06.27 13:26:56.
