data_PCOD8008261
_publ_section_title
;
Structure prediction by ZEFSAII (Michael W. Deem and Ramdas Pophale) SiO2 
 PCOD8008261
Probable space group: P -1
;
_chemical_formula_sum "Si O2"
_cell_formula_units_Z 16
_cell_length_a 8.807950
_cell_length_b 10.966604
_cell_length_c 17.421086
_cell_angle_alpha 147.889520
_cell_angle_beta 125.205190
_cell_angle_gamma 62.578699
_cell_volume 729.373593
_symmetry_space_group_name_H-M "P -1"
_symmetry_group_IT_number 2
_symmetry_cell_setting 'triclinic'
loop_
_space_group_symop_operation_xyz
x,y,z
-x,-y,-z
loop_
_atom_site_type_symbol
_atom_site_label
_atom_site_fract_x
_atom_site_fract_y
_atom_site_fract_z
Si Si1 0.783464 0.559511 0.562007
Si Si2 0.168931 0.456621 0.686492
Si Si3 0.799483 0.907613 0.613518
Si Si4 0.234143 0.460119 0.872067
Si Si5 0.884796 0.719568 0.101283
Si Si6 0.558671 0.172051 0.782237
Si Si7 0.506647 0.834492 0.711744
Si Si8 0.499704 0.173058 0.022008
O O1 0.775907 0.702643 0.558442
O O2 0.681840 0.679928 0.667480
O O3 0.674639 0.310644 0.386116
O O4 0.997475 0.535277 0.629267
O O5 0.217521 0.201768 0.534987
O O6 0.102047 0.459661 0.758309
O O7 0.348102 0.622695 0.808907
O O8 0.640042 0.087272 0.679605
O O9 0.998719 0.043245 0.754459
O O10 0.162939 0.283943 0.823459
O O11 0.421057 0.375104 0.839106
O O12 0.270324 0.713666 0.054776
O O13 0.699862 0.720315 0.995316
O O14 0.000000 0.500000 0.000000
O O15 0.458776 0.954086 0.680655
O O16 0.566355 0.036108 0.894974
O O17 0.500000 0.000000 0.000000
#
# Coordination Sequence:
#
# PCOD8008261 Si02
#       8
#     2   2   2   2   2   2   2   2
#     4  10  23  42  67  97 133 175 223 277 340 405
#     4  12  25  40  66 104 137 165 227 289 333 391
#     4  11  24  43  68  97 134 179 217 280 338 403
#     4  11  22  42  67  94 132 177 223 271 329 406
#     4  12  25  45  70  98 136 188 226 267 343 418
#     4  10  20  43  69  89 128 182 220 258 338 408
#     4  10  20  42  69  91 128 184 223 262 342 414
#     4  12  24  41  69 100 136 176 228 286 335 394
#
# _framework density 21.936630999999998
#
# number of rings (size 3 to 8) (size 9 to 14) (size 15 to 20)
#    0.000    1.000    3.750    3.375    0.000    2.500 
#    0.000    0.000    0.000    0.000    0.000    0.000 
#    0.000    0.000    0.000    0.000    0.000    0.000 
#
# Total GULP energy -198342.769436 kJ/mol
# GULP energy per Si atom -12396.423090 kJ/mol
# Density = 2.188670 g / cm^3
# Si number density = 21.936631 Si / 1000 Ang^3
#
#
#
# Elastic Constant Matrix: (Units=GPa)
#
#
# Indices 1 2 3 4 5 6 
#
# 1 92.8829 27.0191 39.7534 3.6934 6.3169 -4.9757
# 2 27.0191 66.5992 13.1678 2.4684 2.2687 2.6773
# 3 39.7534 13.1678 115.7821 12.7141 4.8299 -12.5039
# 4 3.6934 2.4684 12.7141 28.2193 5.9720 -1.9175
# 5 6.3169 2.2687 4.8299 5.9720 51.1343 13.4310
# 6 -4.9757 2.6773 -12.5039 -1.9175 13.4310 39.4629
#
#
#
# Elastic Compliance Matrix: (Units=1/GPa)
#
#
# Indices 1 2 3 4 5 6 
#
# 1 0.014139 -0.004945 -0.004174 0.000896 -0.001601 0.001384
# 2 -0.004945 0.017205 -0.000413 -0.000938 0.000563 -0.002159
# 3 -0.004174 -0.000413 0.010916 -0.003951 -0.000838 0.003053
# 4 0.000896 -0.000938 -0.003951 0.038365 -0.004814 0.002427
# 5 -0.001601 0.000563 -0.000838 -0.004814 0.022584 -0.008426
# 6 0.001384 -0.002159 0.003053 0.002427 -0.008426 0.029614
#
#
# Mechanical properties :
#
#
# Convention : Reuss Voigt Hill
#
# Bulk Modulus (GPa) = 43.11065 48.34941 45.73003
# Shear Modulus (GPa) = 31.32479 36.78490 34.05485
#
# Velocity S-wave (km/s) = 3.78294 4.09940 3.94435
# Velocity P-wave (km/s) = 6.22703 6.67047 6.45256
#
# Compressibility (1/GPa) = 0.02319612
#
# Stress axis : x y z
#
# Youngs Moduli (GPa) = 70.72811 58.12167 91.61242
#
# Poissons Ratio (x) = 0.28741 0.38240
# Poissons Ratio (y) = 0.34975 0.03779
# Poissons Ratio (z) = 0.29523 0.02398
#
# Static dielectric constant tensor:
#      x y z
#    x 4.413450 0.104940 -0.249340 
#    y 0.104940 3.838510 0.147450 
#    z -0.249340 0.147450 4.094810 
# 
# 
# High freq. dielectric constant tensor:
#      x y z
#    x 1.874670 0.007290 -0.006170 
#    y 0.007290 1.850050 0.022330 
#    z -0.006170 0.022330 1.862000 
# 
# From -- ./inp_files/333026.got.cif
#   From: 2010.06.25/outbox.cif.g09.slc.cpg/sg2_167_cif.got.tgz:333026.got - 2010.06.27 13:26:56.
