data_PCOD8008158
_publ_section_title
;
Structure prediction by ZEFSAII (Michael W. Deem and Ramdas Pophale) SiO2 
 PCOD8008158
Probable space group: P -1
;
_chemical_formula_sum "Si O2"
_cell_formula_units_Z 16
_cell_length_a 9.076379
_cell_length_b 9.188903
_cell_length_c 26.441139
_cell_angle_alpha 37.677870
_cell_angle_beta 136.169958
_cell_angle_gamma 107.196791
_cell_volume 709.039580
_symmetry_space_group_name_H-M "P -1"
_symmetry_group_IT_number 2
_symmetry_cell_setting 'triclinic'
loop_
_space_group_symop_operation_xyz
x,y,z
-x,-y,-z
loop_
_atom_site_type_symbol
_atom_site_label
_atom_site_fract_x
_atom_site_fract_y
_atom_site_fract_z
Si Si1 0.901573 0.936703 0.858452
Si Si2 0.233963 0.054116 0.396755
Si Si3 0.539391 0.629809 0.796052
Si Si4 0.082726 0.285567 0.826346
Si Si5 0.883106 0.749566 0.797195
Si Si6 0.438255 0.111756 0.130519
Si Si7 0.450041 0.202929 0.855779
Si Si8 0.905051 0.842032 0.389365
O O1 0.825083 0.947969 0.778078
O O2 0.699310 0.931308 0.845194
O O3 0.840946 0.263657 0.762736
O O4 0.228823 0.622803 0.034880
O O5 0.235790 0.039144 0.340475
O O6 0.986421 0.397368 0.262203
O O7 0.500000 0.000000 0.500000
O O8 0.171389 0.829217 0.461835
O O9 0.708564 0.633040 0.791941
O O10 0.372051 0.533310 0.755885
O O11 0.297566 0.979191 0.661590
O O12 0.254665 0.166742 0.849302
O O13 0.236572 0.062610 0.974005
O O14 0.214954 0.452163 0.956105
O O15 0.563065 0.838776 0.195318
O O16 0.709077 0.056349 0.233803
O O17 0.000000 0.500000 0.500000
#
# Coordination Sequence:
#
# PCOD8008158 Si02
#       8
#     2   2   2   2   2   2   2   2
#     4  10  21  37  71 106 140 169 223 295 343 402
#     4  12  29  48  67  99 141 189 229 279 341 415
#     4  10  20  42  67 102 140 175 226 281 348 403
#     4  10  22  40  63  98 143 177 222 287 341 399
#     4  11  22  42  73 104 135 174 229 293 340 401
#     4  11  22  41  73 106 134 176 231 283 346 402
#     4  10  21  37  67 105 135 174 228 286 341 400
#     4  12  27  48  69  97 144 184 227 281 342 417
#
# _framework density 22.565736000000001
#
# number of rings (size 3 to 8) (size 9 to 14) (size 15 to 20)
#    0.000    1.250    5.000    0.750    5.250    2.000 
#    2.250    2.500    0.000    0.000    0.000    0.000 
#    0.000    0.000    0.000    0.000    0.000    0.000 
#
# Total GULP energy -198273.110403 kJ/mol
# GULP energy per Si atom -12392.069400 kJ/mol
# Density = 2.251438 g / cm^3
# Si number density = 22.565736 Si / 1000 Ang^3
#
#
#
# Elastic Constant Matrix: (Units=GPa)
#
#
# Indices 1 2 3 4 5 6 
#
# 1 69.8269 37.2870 24.7732 11.8905 0.5091 -4.1354
# 2 37.2870 118.4768 18.5348 -2.5625 2.9830 3.5499
# 3 24.7732 18.5348 47.3461 3.7747 5.9090 0.7975
# 4 11.8905 -2.5625 3.7747 39.4590 2.2960 -0.0008
# 5 0.5091 2.9830 5.9090 2.2960 23.4481 1.7368
# 6 -4.1354 3.5499 0.7975 -0.0008 1.7368 54.1677
#
#
#
# Elastic Compliance Matrix: (Units=1/GPa)
#
#
# Indices 1 2 3 4 5 6 
#
# 1 0.021737 -0.005696 -0.009055 -0.006228 0.002991 0.002070
# 2 -0.005696 0.010536 -0.001196 0.002578 -0.001088 -0.001073
# 3 -0.009055 -0.001196 0.027113 0.000434 -0.006467 -0.000805
# 4 -0.006228 0.002578 0.000434 0.027517 -0.002955 -0.000556
# 5 0.002991 -0.001088 -0.006467 -0.002955 0.044717 -0.001039
# 6 0.002070 -0.001073 -0.000805 -0.000556 -0.001039 0.018735
#
#
# Mechanical properties :
#
#
# Convention : Reuss Voigt Hill
#
# Bulk Modulus (GPa) = 36.37502 44.09331 40.23417
# Shear Modulus (GPa) = 26.12159 33.75195 29.93677
#
# Velocity S-wave (km/s) = 3.40601 3.87165 3.64627
# Velocity P-wave (km/s) = 5.62338 6.29035 5.96620
#
# Compressibility (1/GPa) = 0.02749139
#
# Stress axis : x y z
#
# Youngs Moduli (GPa) = 46.00478 94.91627 36.88250
#
# Poissons Ratio (x) = 0.54069 0.33398
# Poissons Ratio (y) = 0.26206 0.04409
# Poissons Ratio (z) = 0.41658 0.11347
#
# Static dielectric constant tensor:
#      x y z
#    x 3.850720 0.087650 0.133280 
#    y 0.087650 4.688760 -0.070450 
#    z 0.133280 -0.070450 3.876620 
# 
# 
# High freq. dielectric constant tensor:
#      x y z
#    x 1.882070 0.000930 0.013040 
#    y 0.000930 1.909150 0.003070 
#    z 0.013040 0.003070 1.853080 
# 
# From -- ./inp_files/261562.got.cif
#   From: 2010.06.25/outbox.cif.g09.slc.cpg/sg2_131_cif.got.tgz:261562.got - 2010.06.27 13:26:56.
