data_PCOD8008554
_publ_section_title
;
Structure prediction by ZEFSAII (Michael W. Deem and Ramdas Pophale) SiO2 
 PCOD8008554
Probable space group: P -1
;
_chemical_formula_sum "Si O2"
_cell_formula_units_Z 14
_cell_length_a 7.348642
_cell_length_b 6.590874
_cell_length_c 16.653706
_cell_angle_alpha 117.501631
_cell_angle_beta 100.804260
_cell_angle_gamma 90.497716
_cell_volume 698.562184
_symmetry_space_group_name_H-M "P -1"
_symmetry_group_IT_number 2
_symmetry_cell_setting 'triclinic'
loop_
_space_group_symop_operation_xyz
x,y,z
-x,-y,-z
loop_
_atom_site_type_symbol
_atom_site_label
_atom_site_fract_x
_atom_site_fract_y
_atom_site_fract_z
Si Si1 0.328503 0.477743 0.710050
Si Si2 0.597486 0.558775 0.602200
Si Si3 0.898198 0.158687 0.192363
Si Si4 0.925078 0.382626 0.672823
Si Si5 0.627581 0.839273 0.027517
Si Si6 0.209211 0.953649 0.268983
Si Si7 0.553404 0.358124 0.860311
O O1 0.467556 0.453091 0.644231
O O2 0.287299 0.745430 0.766737
O O3 0.409481 0.376575 0.779095
O O4 0.127679 0.329220 0.646599
O O5 0.500000 0.500000 0.500000
O O6 0.792007 0.445058 0.600263
O O7 0.636303 0.831777 0.665842
O O8 0.037389 0.389714 0.222798
O O9 0.829235 0.991145 0.082290
O O10 0.006213 0.016124 0.238589
O O11 0.817478 0.171431 0.671264
O O12 0.552841 0.765291 0.095912
O O13 0.649665 0.612709 0.936495
O O14 0.500000 0.000000 0.000000
O O15 0.281604 0.789540 0.177558
#
# Coordination Sequence:
#
# PCOD8008554 Si02
#       7
#     2   2   2   2   2   2   2
#     4  10  20  44  66  88 132 171 207 258 321 379
#     4  11  24  42  67  98 126 164 213 267 322 385
#     4   9  21  37  62  86 130 169 206 254 318 366
#     4   9  21  40  62  93 127 163 213 256 318 387
#     4  11  21  38  61  97 128 167 221 259 304 377
#     4  11  22  42  65  91 129 167 214 265 320 377
#     4  11  23  36  67  92 126 174 215 257 318 369
#
# _framework density 20.041164999999999
#
# number of rings (size 3 to 8) (size 9 to 14) (size 15 to 20)
#    0.857    0.857    2.857    1.714    0.000    1.714 
#    0.000    2.143    0.000    0.000    0.000    0.000 
#    0.000    0.000    0.000    0.000    0.000    0.000 
#
# Total GULP energy -173475.277317 kJ/mol
# GULP energy per Si atom -12391.091237 kJ/mol
# Density = 1.999555 g / cm^3
# Si number density = 20.041165 Si / 1000 Ang^3
#
#
#
# Elastic Constant Matrix: (Units=GPa)
#
#
# Indices 1 2 3 4 5 6 
#
# 1 83.4813 34.6307 42.1833 -11.2852 17.2227 -4.9662
# 2 34.6307 100.4498 41.7975 -16.5662 6.3820 -6.7576
# 3 42.1833 41.7975 98.7141 -16.6457 20.1529 -3.4665
# 4 -11.2852 -16.5662 -16.6457 25.1452 -5.9293 0.8212
# 5 17.2227 6.3820 20.1529 -5.9293 28.0153 -2.0247
# 6 -4.9662 -6.7576 -3.4665 0.8212 -2.0247 36.0957
#
#
#
# Elastic Compliance Matrix: (Units=1/GPa)
#
#
# Indices 1 2 3 4 5 6 
#
# 1 0.017107 -0.003458 -0.004356 0.000996 -0.006319 0.000911
# 2 -0.003458 0.013610 -0.003941 0.005491 0.003148 0.001745
# 3 -0.004356 -0.003941 0.015778 0.004279 -0.006891 -0.000306
# 4 0.000996 0.005491 0.004279 0.047878 0.005249 0.000781
# 5 -0.006319 0.003148 -0.006891 0.005249 0.045036 0.001465
# 6 0.000911 0.001745 -0.000306 0.000781 0.001465 0.028191
#
#
# Mechanical properties :
#
#
# Convention : Reuss Voigt Hill
#
# Bulk Modulus (GPa) = 43.50618 57.76311 50.63464
# Shear Modulus (GPa) = 25.15456 28.78683 26.97069
#
# Velocity S-wave (km/s) = 3.54665 3.79408 3.67245
# Velocity P-wave (km/s) = 6.20702 6.93384 6.58048
#
# Compressibility (1/GPa) = 0.02298524
#
# Stress axis : x y z
#
# Youngs Moduli (GPa) = 58.45636 73.47468 63.38039
#
# Poissons Ratio (x) = 0.25408 0.27609
# Poissons Ratio (y) = 0.20215 0.24975
# Poissons Ratio (z) = 0.25464 0.28953
#
# Static dielectric constant tensor:
#      x y z
#    x 3.680120 -0.097760 0.202010 
#    y -0.097760 3.771350 0.100400 
#    z 0.202010 0.100400 3.426410 
# 
# 
# High freq. dielectric constant tensor:
#      x y z
#    x 1.779790 -0.010920 0.023720 
#    y -0.010920 1.795740 0.002550 
#    z 0.023720 0.002550 1.753600 
# 
# From -- ./inp_files/487931.got.cif
#   From: 2010.06.25/outbox.cif.g09.slc.cpg/sg2_244_cif.got.tgz:487931.got - 2010.06.27 13:26:56.
