data_PCOD8008323
_publ_section_title
;
Structure prediction by ZEFSAII (Michael W. Deem and Ramdas Pophale) SiO2 
 PCOD8008323
Probable space group: P -1
;
_chemical_formula_sum "Si O2"
_cell_formula_units_Z 16
_cell_length_a 9.792065
_cell_length_b 14.157454
_cell_length_c 6.238077
_cell_angle_alpha 116.143507
_cell_angle_beta 88.170368
_cell_angle_gamma 90.806071
_cell_volume 775.919509
_symmetry_space_group_name_H-M "P -1"
_symmetry_group_IT_number 2
_symmetry_cell_setting 'triclinic'
loop_
_space_group_symop_operation_xyz
x,y,z
-x,-y,-z
loop_
_atom_site_type_symbol
_atom_site_label
_atom_site_fract_x
_atom_site_fract_y
_atom_site_fract_z
Si Si1 0.925201 0.771470 0.079076
Si Si2 0.425201 0.228530 0.536136
Si Si3 0.392761 0.417567 0.011758
Si Si4 0.750000 0.949411 0.449412
Si Si5 0.892762 0.582433 0.176625
Si Si6 0.750000 0.634002 0.634002
Si Si7 0.389252 0.933498 0.800516
Si Si8 0.110748 0.933498 0.066481
O O1 0.844408 0.878871 0.225405
O O2 0.944018 0.700780 0.223659
O O3 0.062607 0.813103 0.999776
O O4 0.836050 0.702422 0.858764
O O5 0.444017 0.299221 0.822099
O O6 0.344408 0.121129 0.467664
O O7 0.336049 0.297578 0.453919
O O8 0.562607 0.186897 0.373569
O O9 0.250000 0.448747 0.948745
O O10 0.500000 0.500000 0.000000
O O11 0.364044 0.428910 0.281491
O O12 0.645136 0.015312 0.375743
O O13 0.854864 0.015312 0.654882
O O14 0.864045 0.571090 0.423672
O O15 0.000000 0.500000 0.000000
O O16 0.250000 0.921598 0.921598
O O17 0.500000 0.000000 0.000000
O O18 0.000000 0.000000 0.000000
#
# Coordination Sequence:
#
# PCOD8008323 Si02
#       8
#     2   2   2   2   2   2   2   2
#     4  11  22  40  65  94 126 177 217 269 331 393
#     4  11  22  40  65  94 126 177 217 269 331 393
#     4  10  23  43  65  96 124 167 219 276 335 396
#     4  12  22  42  66  92 138 176 224 274 316 406
#     4  10  23  43  65  96 124 167 219 276 335 396
#     4  10  20  42  74  84 134 170 216 262 344 398
#     4  12  26  40  64  97 135 179 227 269 333 396
#     4  12  26  40  64  97 135 179 227 269 333 396
#
# _framework density 20.620694
#
# number of rings (size 3 to 8) (size 9 to 14) (size 15 to 20)
#    0.000    1.000    6.250    2.250    0.000    4.000 
#    9.000    0.000    0.000    0.000    0.000    0.000 
#    0.000    0.000    0.000    0.000    0.000    0.000 
#
# Total GULP energy -198217.204431 kJ/mol
# GULP energy per Si atom -12388.575277 kJ/mol
# Density = 2.057376 g / cm^3
# Si number density = 20.620694 Si / 1000 Ang^3
#
#
#
# Elastic Constant Matrix: (Units=GPa)
#
#
# Indices 1 2 3 4 5 6 
#
# 1 124.3833 48.1266 46.4955 0.7763 -24.5997 9.8894
# 2 48.1266 90.6849 39.5249 -7.9274 -12.7188 20.7612
# 3 46.4955 39.5249 126.5790 -9.2462 -24.5627 -5.7969
# 4 0.7763 -7.9274 -9.2462 34.5073 -5.1770 -14.2666
# 5 -24.5997 -12.7188 -24.5627 -5.1770 48.7154 -1.0516
# 6 9.8894 20.7612 -5.7969 -14.2666 -1.0516 46.5308
#
#
#
# Elastic Compliance Matrix: (Units=1/GPa)
#
#
# Indices 1 2 3 4 5 6 
#
# 1 0.011387 -0.004443 -0.002385 -0.001967 0.003151 -0.001267
# 2 -0.004443 0.016683 -0.003898 0.000000 -0.000004 -0.006985
# 3 -0.002385 -0.003898 0.011417 0.005040 0.004184 0.005308
# 4 -0.001967 0.000000 0.005040 0.036314 0.005672 0.012308
# 5 0.003151 -0.000004 0.004184 0.005672 0.024876 0.002155
# 6 -0.001267 -0.006985 0.005308 0.012308 0.002155 0.029361
#
#
# Mechanical properties :
#
#
# Convention : Reuss Voigt Hill
#
# Bulk Modulus (GPa) = 55.45447 67.77126 61.61287
# Shear Modulus (GPa) = 31.74582 39.78404 35.76493
#
# Velocity S-wave (km/s) = 3.92792 4.39717 4.16915
# Velocity P-wave (km/s) = 6.89365 7.66271 7.28833
#
# Compressibility (1/GPa) = 0.01803281
#
# Stress axis : x y z
#
# Youngs Moduli (GPa) = 87.82178 59.94256 87.59029
#
# Poissons Ratio (x) = 0.26634 0.20894
# Poissons Ratio (y) = 0.39022 0.34141
# Poissons Ratio (z) = 0.20950 0.23365
#
# Static dielectric constant tensor:
#      x y z
#    x 3.746030 0.165560 -0.412050 
#    y 0.165560 3.902670 -0.483580 
#    z -0.412050 -0.483580 4.912080 
# 
# 
# High freq. dielectric constant tensor:
#      x y z
#    x 1.810210 0.007090 -0.017650 
#    y 0.007090 1.792740 -0.012830 
#    z -0.017650 -0.012830 1.819520 
# 
# From -- ./inp_files/39855.got.cif
#   From: 2010.06.25/outbox.cif.g09.slc.cpg/sg2_20_cif.got.tgz:39855.got - 2010.06.27 13:26:56.
