data_PCOD8008150
_publ_section_title
;
Structure prediction by ZEFSAII (Michael W. Deem and Ramdas Pophale) SiO2 
 PCOD8008150
Probable space group: P -1
;
_chemical_formula_sum "Si O2"
_cell_formula_units_Z 16
_cell_length_a 21.040123
_cell_length_b 13.887894
_cell_length_c 9.605368
_cell_angle_alpha 31.031963
_cell_angle_beta 145.881058
_cell_angle_gamma 145.730202
_cell_volume 742.178475
_symmetry_space_group_name_H-M "P -1"
_symmetry_group_IT_number 2
_symmetry_cell_setting 'triclinic'
loop_
_space_group_symop_operation_xyz
x,y,z
-x,-y,-z
loop_
_atom_site_type_symbol
_atom_site_label
_atom_site_fract_x
_atom_site_fract_y
_atom_site_fract_z
Si Si1 0.266315 0.626135 0.616515
Si Si2 0.989889 0.424297 0.732456
Si Si3 0.643433 0.189271 0.735649
Si Si4 0.970686 0.944875 0.796665
Si Si5 0.918768 0.308615 0.181747
Si Si6 0.801052 0.830455 0.890317
Si Si7 0.479198 0.309695 0.502363
Si Si8 0.512153 0.260236 0.939960
O O1 0.153202 0.695675 0.330794
O O2 0.350063 0.709153 0.528865
O O3 0.201125 0.382319 0.797211
O O4 0.348776 0.703213 0.809289
O O5 0.000000 0.500000 0.500000
O O6 0.062151 0.626914 0.702078
O O7 0.051370 0.261763 0.071915
O O8 0.567691 0.273960 0.595117
O O9 0.777022 0.242630 0.973544
O O10 0.581361 0.946449 0.902680
O O11 0.857236 0.886125 0.770271
O O12 0.962649 0.123657 0.463876
O O13 0.105784 0.004576 0.038952
O O14 0.000000 0.500000 0.000000
O O15 0.661563 0.818683 0.646507
O O16 0.499302 0.230824 0.787269
O O17 0.514887 0.551593 0.281778
#
# Coordination Sequence:
#
# PCOD8008150 Si02
#       8
#     2   2   2   2   2   2   2   2
#     4  11  23  45  64  98 141 167 222 283 323 400
#     4  12  24  42  72 100 125 183 225 274 334 390
#     4  12  25  44  66  95 138 178 214 271 343 390
#     4  11  22  40  71  98 131 181 218 277 333 391
#     4  12  26  47  63  99 143 168 222 281 330 399
#     4  10  20  42  66  99 138 163 229 273 329 397
#     4  10  24  43  68  99 130 178 215 280 328 391
#     4  10  24  43  67  98 131 170 230 267 321 404
#
# _framework density 21.558157000000001
#
# number of rings (size 3 to 8) (size 9 to 14) (size 15 to 20)
#    0.000    1.000    3.750    2.250    3.500    4.500 
#    4.500    0.000    0.000    0.000    0.000    0.000 
#    0.000    0.000    0.000    0.000    0.000    0.000 
#
# Total GULP energy -198414.522540 kJ/mol
# GULP energy per Si atom -12400.907659 kJ/mol
# Density = 2.150909 g / cm^3
# Si number density = 21.558157 Si / 1000 Ang^3
#
#
#
# Elastic Constant Matrix: (Units=GPa)
#
#
# Indices 1 2 3 4 5 6 
#
# 1 84.0071 23.3242 32.6544 -4.2733 3.5106 4.5267
# 2 23.3242 84.8451 30.2744 -3.8822 10.2122 10.2851
# 3 32.6544 30.2744 107.1509 -5.2371 8.1519 -1.5414
# 4 -4.2733 -3.8822 -5.2371 46.3797 11.0456 -3.2111
# 5 3.5106 10.2122 8.1519 11.0456 40.4824 -1.1023
# 6 4.5267 10.2851 -1.5414 -3.2111 -1.1023 26.8157
#
#
#
# Elastic Compliance Matrix: (Units=1/GPa)
#
#
# Indices 1 2 3 4 5 6 
#
# 1 0.014082 -0.002344 -0.003614 0.000608 -0.000112 -0.001618
# 2 -0.002344 0.014678 -0.003209 0.001058 -0.003290 -0.005427
# 3 -0.003614 -0.003209 0.011550 0.001232 -0.001468 0.002592
# 4 0.000608 0.001058 0.001232 0.023649 -0.006963 0.002108
# 5 -0.000112 -0.003290 -0.001468 -0.006963 0.027778 0.001504
# 6 -0.001618 -0.005427 0.002592 0.002108 0.001504 0.040109
#
#
# Mechanical properties :
#
#
# Convention : Reuss Voigt Hill
#
# Bulk Modulus (GPa) = 45.50534 49.83432 47.66983
# Shear Modulus (GPa) = 31.74477 35.38557 33.56517
#
# Velocity S-wave (km/s) = 3.84150 4.05582 3.95011
# Velocity P-wave (km/s) = 6.38985 6.71560 6.55475
#
# Compressibility (1/GPa) = 0.02197544
#
# Stress axis : x y z
#
# Youngs Moduli (GPa) = 71.01114 68.13016 86.58090
#
# Poissons Ratio (x) = 0.15971 0.31293
# Poissons Ratio (y) = 0.16647 0.27781
# Poissons Ratio (z) = 0.25666 0.21861
#
# Static dielectric constant tensor:
#      x y z
#    x 3.781470 -0.118770 -0.052700 
#    y -0.118770 3.181760 -0.002300 
#    z -0.052700 -0.002300 4.028090 
# 
# 
# High freq. dielectric constant tensor:
#      x y z
#    x 1.831350 0.009030 -0.001860 
#    y 0.009030 1.860050 -0.001100 
#    z -0.001860 -0.001100 1.857690 
# 
# From -- ./inp_files/332786.got.cif
#   From: 2010.06.25/outbox.cif.g09.slc.cpg/sg2_167_cif.got.tgz:332786.got - 2010.06.27 13:26:56.
