data_PCOD8008347
_publ_section_title
;
Structure prediction by ZEFSAII (Michael W. Deem and Ramdas Pophale) SiO2 
 PCOD8008347
Probable space group: P -1
;
_chemical_formula_sum "Si O2"
_cell_formula_units_Z 14
_cell_length_a 12.071849
_cell_length_b 12.166842
_cell_length_c 14.698422
_cell_angle_alpha 152.109791
_cell_angle_beta 39.719522
_cell_angle_gamma 133.981604
_cell_volume 644.564267
_symmetry_space_group_name_H-M "P -1"
_symmetry_group_IT_number 2
_symmetry_cell_setting 'triclinic'
loop_
_space_group_symop_operation_xyz
x,y,z
-x,-y,-z
loop_
_atom_site_type_symbol
_atom_site_label
_atom_site_fract_x
_atom_site_fract_y
_atom_site_fract_z
Si Si1 0.384533 0.941874 0.760493
Si Si2 0.109852 0.764380 0.146802
Si Si3 0.689576 0.092664 0.422597
Si Si4 0.755442 0.863598 0.527973
Si Si5 0.822347 0.372178 0.194561
Si Si6 0.183574 0.361982 0.928160
Si Si7 0.449404 0.464930 0.109217
O O1 0.287052 0.915435 0.706581
O O2 0.587559 0.884169 0.583813
O O3 0.289189 0.773558 0.769247
O O4 0.370334 0.209608 0.997421
O O5 0.921545 0.870959 0.361957
O O6 0.239633 0.921604 0.245104
O O7 0.166992 0.784160 0.019850
O O8 0.120237 0.481927 0.960604
O O9 0.704983 0.363659 0.642581
O O10 0.500000 0.000000 0.500000
O O11 0.816291 0.923479 0.273308
O O12 0.733616 0.618584 0.417259
O O13 0.022276 0.424275 0.142271
O O14 0.370082 0.483882 0.915850
O O15 0.500000 0.500000 0.000000
#
# Coordination Sequence:
#
# PCOD8008347 Si02
#       7
#     2   2   2   2   2   2   2
#     4  12  24  41  64  94 128 156 204 260 311 355
#     4  10  22  39  66  93 121 168 209 243 304 362
#     4  10  23  38  65  91 116 161 208 254 303 360
#     4  10  22  40  63  93 124 167 207 246 296 377
#     4  11  26  39  61  96 129 162 196 258 315 355
#     4  10  20  43  63  88 126 159 207 256 289 374
#     4  11  22  40  65  93 114 163 212 248 300 369
#
# _framework density 21.720099000000001
#
# number of rings (size 3 to 8) (size 9 to 14) (size 15 to 20)
#    0.000    1.429    4.286    2.143    8.000    2.286 
#    0.000    0.714    0.000    0.000    0.000    0.000 
#    0.000    0.000    0.000    0.000    0.000    0.000 
#
# Total GULP energy -173441.255992 kJ/mol
# GULP energy per Si atom -12388.661142 kJ/mol
# Density = 2.167066 g / cm^3
# Si number density = 21.720099 Si / 1000 Ang^3
#
#
#
# Elastic Constant Matrix: (Units=GPa)
#
#
# Indices 1 2 3 4 5 6 
#
# 1 78.2845 25.8768 43.7269 3.0670 -4.0880 -23.1558
# 2 25.8768 100.1542 37.0254 12.3131 -0.1442 -21.4617
# 3 43.7269 37.0254 126.6656 32.1580 -2.7341 -17.0179
# 4 3.0670 12.3131 32.1580 38.5299 -7.0998 -1.0431
# 5 -4.0880 -0.1442 -2.7341 -7.0998 36.7241 5.0603
# 6 -23.1558 -21.4617 -17.0179 -1.0431 5.0603 26.9266
#
#
#
# Elastic Compliance Matrix: (Units=1/GPa)
#
#
# Indices 1 2 3 4 5 6 
#
# 1 0.020067 -0.000703 -0.006027 0.004156 0.000809 0.012896
# 2 -0.000703 0.013063 -0.001694 -0.002818 -0.001937 0.008991
# 3 -0.006027 -0.001694 0.013318 -0.010404 -0.001952 0.001848
# 4 0.004156 -0.002818 -0.010404 0.036437 0.007443 -0.005235
# 5 0.000809 -0.001937 -0.001952 0.007443 0.029620 -0.007360
# 6 0.012896 0.008991 0.001848 -0.005235 -0.007360 0.057743
#
#
# Mechanical properties :
#
#
# Convention : Reuss Voigt Hill
#
# Bulk Modulus (GPa) = 33.78346 57.59584 45.68965
# Shear Modulus (GPa) = 25.38562 33.66780 29.52671
#
# Velocity S-wave (km/s) = 3.42242 3.94137 3.69103
# Velocity P-wave (km/s) = 5.58615 6.87658 6.26468
#
# Compressibility (1/GPa) = 0.02960028
#
# Stress axis : x y z
#
# Youngs Moduli (GPa) = 49.83402 76.55282 75.08591
#
# Poissons Ratio (x) = 0.05380 0.45252
# Poissons Ratio (y) = 0.03503 0.12720
# Poissons Ratio (z) = 0.30034 0.12969
#
# Static dielectric constant tensor:
#      x y z
#    x 3.936170 -0.160560 -0.164260 
#    y -0.160560 3.646940 0.455340 
#    z -0.164260 0.455340 3.085370 
# 
# 
# High freq. dielectric constant tensor:
#      x y z
#    x 1.854330 -0.010380 -0.012370 
#    y -0.010380 1.828790 0.022330 
#    z -0.012370 0.022330 1.865210 
# 
# From -- ./inp_files/519320.got.cif
#   From: 2010.06.25/outbox.cif.g09.slc.cpg/sg2_260_cif.got.tgz:519320.got - 2010.06.27 13:26:56.
