data_PCOD8008248
_publ_section_title
;
Structure prediction by ZEFSAII (Michael W. Deem and Ramdas Pophale) SiO2 
 PCOD8008248
Probable space group: P -1
;
_chemical_formula_sum "Si O2"
_cell_formula_units_Z 16
_cell_length_a 9.582504
_cell_length_b 11.778764
_cell_length_c 15.512652
_cell_angle_alpha 111.931622
_cell_angle_beta 28.406490
_cell_angle_gamma 101.529915
_cell_volume 739.108568
_symmetry_space_group_name_H-M "P -1"
_symmetry_group_IT_number 2
_symmetry_cell_setting 'triclinic'
loop_
_space_group_symop_operation_xyz
x,y,z
-x,-y,-z
loop_
_atom_site_type_symbol
_atom_site_label
_atom_site_fract_x
_atom_site_fract_y
_atom_site_fract_z
Si Si1 0.369449 0.388206 0.560976
Si Si2 0.484425 0.226758 0.604613
Si Si3 0.651560 0.931530 0.144082
Si Si4 0.328376 0.731233 0.306495
Si Si5 0.795330 0.243783 0.984526
Si Si6 0.645097 0.776320 0.637000
Si Si7 0.117774 0.983818 0.786011
Si Si8 0.670062 0.464941 0.987701
O O1 0.500000 0.500000 0.500000
O O2 0.526457 0.337685 0.551844
O O3 0.438610 0.270636 0.422971
O O4 0.014071 0.453741 0.778855
O O5 0.705555 0.216232 0.562937
O O6 0.605264 0.095921 0.446698
O O7 0.123452 0.265064 0.835638
O O8 0.474585 0.824444 0.196911
O O9 0.437704 0.070926 0.273839
O O10 0.755172 0.933417 0.188412
O O11 0.943006 0.898045 0.910557
O O12 0.543648 0.585803 0.153404
O O13 0.006425 0.725778 0.442705
O O14 0.543774 0.281580 0.207809
O O15 0.648772 0.331609 0.005931
O O16 0.879636 0.088694 0.883058
O O17 0.500000 0.500000 0.000000
#
# Coordination Sequence:
#
# PCOD8008248 Si02
#       8
#     2   2   2   2   2   2   2   2
#     4  11  26  42  72  96 132 179 228 277 329 408
#     4  11  24  41  68 102 130 176 226 276 331 396
#     4  10  22  41  71  99 137 173 224 273 330 399
#     4  12  26  42  67 100 138 179 220 276 338 399
#     4  10  24  42  69  92 132 176 225 278 320 398
#     4  11  24  47  65 101 137 177 220 279 339 388
#     4  10  20  42  69 101 130 175 225 280 326 385
#     4  11  26  47  64  96 134 180 221 278 345 392
#
# _framework density 21.647701000000001
#
# number of rings (size 3 to 8) (size 9 to 14) (size 15 to 20)
#    0.000    1.250    3.750    0.750    5.250    2.500 
#    2.250    1.250    0.000    0.000    0.000    0.000 
#    0.000    0.000    0.000    0.000    0.000    0.000 
#
# Total GULP energy -198266.028625 kJ/mol
# GULP energy per Si atom -12391.626789 kJ/mol
# Density = 2.159843 g / cm^3
# Si number density = 21.647701 Si / 1000 Ang^3
#
#
#
# Elastic Constant Matrix: (Units=GPa)
#
#
# Indices 1 2 3 4 5 6 
#
# 1 80.2971 38.8842 13.0410 -7.7387 6.0572 -16.8745
# 2 38.8842 129.4990 41.5088 -9.5989 0.1274 -20.6219
# 3 13.0410 41.5088 94.1626 -3.3381 0.7444 0.7332
# 4 -7.7387 -9.5989 -3.3381 31.7286 -2.3586 -4.1820
# 5 6.0572 0.1274 0.7444 -2.3586 19.3599 3.6075
# 6 -16.8745 -20.6219 0.7332 -4.1820 3.6075 35.7813
#
#
#
# Elastic Compliance Matrix: (Units=1/GPa)
#
#
# Indices 1 2 3 4 5 6 
#
# 1 0.016395 -0.003370 -0.000672 0.003363 -0.005938 0.006795
# 2 -0.003370 0.011189 -0.004410 0.002827 0.000521 0.005227
# 3 -0.000672 -0.004410 0.012660 -0.000569 0.000282 -0.003213
# 4 0.003363 0.002827 -0.000569 0.034195 0.001805 0.007041
# 5 -0.005938 0.000521 0.000282 0.001805 0.055181 -0.007858
# 6 0.006795 0.005227 -0.003213 0.007041 -0.007858 0.035846
#
#
# Mechanical properties :
#
#
# Convention : Reuss Voigt Hill
#
# Bulk Modulus (GPa) = 42.84636 54.53630 48.69133
# Shear Modulus (GPa) = 26.29506 31.40895 28.85200
#
# Velocity S-wave (km/s) = 3.48901 3.81322 3.65471
# Velocity P-wave (km/s) = 6.00553 6.68093 6.35222
#
# Compressibility (1/GPa) = 0.02333920
#
# Stress axis : x y z
#
# Youngs Moduli (GPa) = 60.99445 89.37210 78.99086
#
# Poissons Ratio (x) = 0.30122 0.05305
# Poissons Ratio (y) = 0.20558 0.34837
# Poissons Ratio (z) = 0.04096 0.39415
#
# Static dielectric constant tensor:
#      x y z
#    x 3.863050 -0.419550 0.099510 
#    y -0.419550 4.248000 -0.077120 
#    z 0.099510 -0.077120 4.067930 
# 
# 
# High freq. dielectric constant tensor:
#      x y z
#    x 1.826270 -0.029080 0.002640 
#    y -0.029080 1.859780 -0.001340 
#    z 0.002640 -0.001340 1.863540 
# 
# From -- ./inp_files/242459.got.cif
#   From: 2010.06.25/outbox.cif.g09.slc.cpg/sg2_122_cif.got.tgz:242459.got - 2010.06.27 13:26:56.
