data_PCOD8008535
_publ_section_title
;
Structure prediction by ZEFSAII (Michael W. Deem and Ramdas Pophale) SiO2 
 PCOD8008535
Probable space group: P -1
;
_chemical_formula_sum "Si O2"
_cell_formula_units_Z 14
_cell_length_a 9.011261
_cell_length_b 12.407118
_cell_length_c 11.309198
_cell_angle_alpha 74.754515
_cell_angle_beta 142.652968
_cell_angle_gamma 118.395990
_cell_volume 658.871420
_symmetry_space_group_name_H-M "P -1"
_symmetry_group_IT_number 2
_symmetry_cell_setting 'triclinic'
loop_
_space_group_symop_operation_xyz
x,y,z
-x,-y,-z
loop_
_atom_site_type_symbol
_atom_site_label
_atom_site_fract_x
_atom_site_fract_y
_atom_site_fract_z
Si Si1 0.902227 0.998930 0.807848
Si Si2 0.853073 0.437050 0.546040
Si Si3 0.770994 0.725161 0.806342
Si Si4 0.789448 0.608964 0.620901
Si Si5 0.258024 0.035118 0.813800
Si Si6 0.293965 0.181107 0.577512
Si Si7 0.803213 0.218022 0.731301
O O1 0.733375 0.080798 0.671245
O O2 0.168479 0.069287 0.872154
O O3 0.737165 0.850653 0.712566
O O4 0.000000 0.000000 0.000000
O O5 0.530025 0.386844 0.330353
O O6 0.962444 0.545688 0.686488
O O7 0.903966 0.322307 0.660481
O O8 0.000000 0.500000 0.500000
O O9 0.917520 0.691003 0.798031
O O10 0.949458 0.743458 0.030163
O O11 0.500000 0.500000 0.500000
O O12 0.745421 0.695064 0.469600
O O13 0.377863 0.153176 0.767293
O O14 0.993734 0.927205 0.616705
O O15 0.500000 0.000000 0.000000
O O16 0.533637 0.206909 0.628029
#
# Coordination Sequence:
#
# PCOD8008535 Si02
#       7
#     2   2   2   2   2   2   2
#     4  10  21  40  65  96 128 161 205 257 318 378
#     4  11  25  43  62  92 128 166 213 261 308 373
#     4  10  21  43  65  90 125 164 210 258 315 372
#     4  10  20  44  63  89 122 164 218 255 302 373
#     4  11  23  41  62  95 130 161 208 260 311 377
#     4  11  23  40  65  94 122 167 215 255 313 369
#     4  11  23  42  67  94 125 169 209 257 322 370
#
# _framework density 21.248455
#
# number of rings (size 3 to 8) (size 9 to 14) (size 15 to 20)
#    0.000    1.429    4.286    1.714    2.000    3.429 
#    7.714    0.000    0.000    0.000    0.000    0.000 
#    0.000    0.000    0.000    0.000    0.000    0.000 
#
# Total GULP energy -173466.732336 kJ/mol
# GULP energy per Si atom -12390.480881 kJ/mol
# Density = 2.120009 g / cm^3
# Si number density = 21.248455 Si / 1000 Ang^3
#
#
#
# Elastic Constant Matrix: (Units=GPa)
#
#
# Indices 1 2 3 4 5 6 
#
# 1 124.7980 55.9735 19.5957 -6.7074 -22.0331 8.3280
# 2 55.9735 133.4888 34.6635 -22.7069 -14.8114 1.7578
# 3 19.5957 34.6635 80.3094 -11.4935 -12.9227 9.2392
# 4 -6.7074 -22.7069 -11.4935 34.2425 4.2352 -10.7291
# 5 -22.0331 -14.8114 -12.9227 4.2352 32.4472 -7.4516
# 6 8.3280 1.7578 9.2392 -10.7291 -7.4516 46.6849
#
#
#
# Elastic Compliance Matrix: (Units=1/GPa)
#
#
# Indices 1 2 3 4 5 6 
#
# 1 0.010855 -0.004225 -0.000067 -0.001772 0.005344 -0.001318
# 2 -0.004225 0.011172 -0.003061 0.006240 0.000770 0.002496
# 3 -0.000067 -0.003061 0.014884 0.001926 0.003828 -0.001765
# 4 -0.001772 0.006240 0.001926 0.036189 -0.000488 0.007939
# 5 0.005344 0.000770 0.003828 -0.000488 0.037331 0.004106
# 6 -0.001318 0.002496 -0.001765 0.007939 0.004106 0.024391
#
#
# Mechanical properties :
#
#
# Convention : Reuss Voigt Hill
#
# Bulk Modulus (GPa) = 45.03694 62.11797 53.57745
# Shear Modulus (GPa) = 31.86142 37.89915 34.88028
#
# Velocity S-wave (km/s) = 3.87650 4.22787 4.05599
# Velocity P-wave (km/s) = 6.42478 7.28909 6.87054
#
# Compressibility (1/GPa) = 0.02220400
#
# Stress axis : x y z
#
# Youngs Moduli (GPa) = 92.12530 89.50998 67.18517
#
# Poissons Ratio (x) = 0.37821 0.00449
# Poissons Ratio (y) = 0.38926 0.20567
# Poissons Ratio (z) = 0.00616 0.27402
#
# Static dielectric constant tensor:
#      x y z
#    x 4.595600 -0.686760 -0.404510 
#    y -0.686760 5.044510 0.097390 
#    z -0.404510 0.097390 3.800120 
# 
# 
# High freq. dielectric constant tensor:
#      x y z
#    x 1.831390 0.001290 -0.016140 
#    y 0.001290 1.846180 -0.010890 
#    z -0.016140 -0.010890 1.823680 
# 
# From -- ./inp_files/259735.got.cif
#   From: 2010.06.25/outbox.cif.g09.slc.cpg/sg2_130_cif.got.tgz:259735.got - 2010.06.27 13:26:56.
