data_PCOD8008569
_publ_section_title
;
Structure prediction by ZEFSAII (Michael W. Deem and Ramdas Pophale) SiO2 
 PCOD8008569
Probable space group: P -1
;
_chemical_formula_sum "Si O2"
_cell_formula_units_Z 12
_cell_length_a 9.729475
_cell_length_b 9.001665
_cell_length_c 11.513647
_cell_angle_alpha 125.966793
_cell_angle_beta 46.904782
_cell_angle_gamma 103.765280
_cell_volume 572.756249
_symmetry_space_group_name_H-M "P -1"
_symmetry_group_IT_number 2
_symmetry_cell_setting 'triclinic'
loop_
_space_group_symop_operation_xyz
x,y,z
-x,-y,-z
loop_
_atom_site_type_symbol
_atom_site_label
_atom_site_fract_x
_atom_site_fract_y
_atom_site_fract_z
Si Si1 0.298859 0.951699 0.097711
Si Si2 0.055662 0.849750 0.003879
Si Si3 0.940989 0.652390 0.505563
Si Si4 0.293999 0.450684 0.606351
Si Si5 0.694900 0.914666 0.418110
Si Si6 0.801468 0.157617 0.663518
O O1 0.124198 0.142908 0.301939
O O2 0.252432 0.863075 0.962951
O O3 0.314726 0.805329 0.130076
O O4 0.500000 0.000000 0.000000
O O5 0.880177 0.883665 0.212478
O O6 0.113370 0.635256 0.823188
O O7 0.000000 0.000000 0.000000
O O8 0.762784 0.624070 0.518306
O O9 0.000000 0.500000 0.500000
O O10 0.140262 0.649580 0.317608
O O11 0.500000 0.500000 0.500000
O O12 0.306736 0.288227 0.620216
O O13 0.500000 0.000000 0.500000
O O14 0.686479 0.075119 0.594206
O O15 0.000000 0.000000 0.500000
#
# Coordination Sequence:
#
# PCOD8008569 Si02
#       6
#     2   2   2   2   2   2
#     4  11  22  42  68  92 129 173 217 267 330 395
#     4  12  25  42  66 102 137 170 221 277 334 394
#     4  11  22  42  68  92 129 173 217 267 330 395
#     4  12  25  42  66 102 137 170 221 277 334 394
#     4  12  25  44  70  96 135 182 223 274 332 396
#     4  10  20  44  68  88 125 179 218 260 337 381
#
# _framework density 20.951321
#
# number of rings (size 3 to 8) (size 9 to 14) (size 15 to 20)
#    0.000    0.667    6.667    3.500    4.667    0.000 
#    0.000    0.833    0.000    0.000    0.000    0.000 
#    0.000    0.000    0.000    0.000    0.000    0.000 
#
# Total GULP energy -148767.645207 kJ/mol
# GULP energy per Si atom -12397.303767 kJ/mol
# Density = 2.090364 g / cm^3
# Si number density = 20.951321 Si / 1000 Ang^3
#
#
#
# Elastic Constant Matrix: (Units=GPa)
#
#
# Indices 1 2 3 4 5 6 
#
# 1 147.9790 68.2518 16.0336 -8.6324 5.8833 -6.0918
# 2 68.2518 189.2011 26.7718 -25.5250 -1.2496 -19.6948
# 3 16.0336 26.7718 40.2845 -5.3686 3.5135 -9.3757
# 4 -8.6324 -25.5250 -5.3686 42.7747 2.2406 -1.0760
# 5 5.8833 -1.2496 3.5135 2.2406 30.7383 -2.0752
# 6 -6.0918 -19.6948 -9.3757 -1.0760 -2.0752 45.4831
#
#
#
# Elastic Compliance Matrix: (Units=1/GPa)
#
#
# Indices 1 2 3 4 5 6 
#
# 1 0.008263 -0.002867 -0.001382 -0.000147 -0.001563 -0.000494
# 2 -0.002867 0.007457 -0.002887 0.003512 0.001087 0.002383
# 3 -0.001382 -0.002887 0.028832 0.001885 -0.002988 0.004416
# 4 -0.000147 0.003512 0.001885 0.025834 -0.001764 0.002420
# 5 -0.001563 0.001087 -0.002988 -0.001764 0.033422 0.001129
# 6 -0.000494 0.002383 0.004416 0.002420 0.001129 0.023971
#
#
# Mechanical properties :
#
#
# Convention : Reuss Voigt Hill
#
# Bulk Modulus (GPa) = 33.02479 66.61990 49.82235
# Shear Modulus (GPa) = 32.86376 41.55973 37.21175
#
# Velocity S-wave (km/s) = 3.96482 4.45863 4.21896
# Velocity P-wave (km/s) = 6.06272 7.64018 6.89670
#
# Compressibility (1/GPa) = 0.03028028
#
# Stress axis : x y z
#
# Youngs Moduli (GPa) = 121.02292 134.10153 34.68419
#
# Poissons Ratio (x) = 0.38445 0.04793
# Poissons Ratio (y) = 0.34695 0.10013
# Poissons Ratio (z) = 0.16724 0.38714
#
# Static dielectric constant tensor:
#      x y z
#    x 4.313490 -0.712580 1.008030 
#    y -0.712580 9.433890 -4.295110 
#    z 1.008030 -4.295110 7.104210 
# 
# 
# High freq. dielectric constant tensor:
#      x y z
#    x 1.835190 0.004480 0.012350 
#    y 0.004480 1.839810 -0.015290 
#    z 0.012350 -0.015290 1.802640 
# 
# From -- ./inp_files/144512.got.cif
#   From: 2010.06.25/outbox.cif.g09.slc.cpg/sg2_73_cif.got.tgz:144512.got - 2010.06.27 13:26:56.
