data_PCOD8008930
_publ_section_title
;
Structure prediction by ZEFSAII (Michael W. Deem and Ramdas Pophale) SiO2 
 PCOD8008930
Probable space group: P -1
;
_chemical_formula_sum "Si O2"
_cell_formula_units_Z 14
_cell_length_a 9.498504
_cell_length_b 12.190178
_cell_length_c 21.606932
_cell_angle_alpha 31.668124
_cell_angle_beta 33.125733
_cell_angle_gamma 50.866445
_cell_volume 688.097602
_symmetry_space_group_name_H-M "P -1"
_symmetry_group_IT_number 2
_symmetry_cell_setting 'triclinic'
loop_
_space_group_symop_operation_xyz
x,y,z
-x,-y,-z
loop_
_atom_site_type_symbol
_atom_site_label
_atom_site_fract_x
_atom_site_fract_y
_atom_site_fract_z
Si Si1 0.811453 0.654016 0.980102
Si Si2 0.766901 0.676132 0.840141
Si Si3 0.808946 0.455576 0.724252
Si Si4 0.750178 0.852126 0.127662
Si Si5 0.800355 0.012800 0.897547
Si Si6 0.745535 0.141306 0.623267
Si Si7 0.867969 0.451215 0.324666
O O1 0.504578 0.560802 0.163298
O O2 0.803031 0.679863 0.898089
O O3 0.929593 0.894238 0.853450
O O4 0.000000 0.500000 0.000000
O O5 0.028895 0.633652 0.734551
O O6 0.778301 0.914394 0.696897
O O7 0.500000 0.500000 0.000000
O O8 0.984054 0.698009 0.522268
O O9 0.869091 0.424715 0.790118
O O10 0.926446 0.274981 0.732478
O O11 0.484007 0.917551 0.211920
O O12 0.695345 0.605280 0.290123
O O13 0.812512 0.878029 0.019990
O O14 0.000000 0.000000 0.000000
O O15 0.500000 0.000000 0.000000
O O16 0.674771 0.259123 0.530452
#
# Coordination Sequence:
#
# PCOD8008930 Si02
#       7
#     2   2   2   2   2   2   2
#     4  11  23  41  63  92 122 164 209 251 297 365
#     4  12  21  40  65  89 119 169 205 245 309 373
#     4   9  20  41  59  88 127 158 196 252 317 348
#     4  12  20  37  64  96 115 157 213 254 292 362
#     4  10  21  40  62  88 130 164 203 250 302 369
#     4  10  22  38  62  92 126 157 197 260 317 354
#     4  10  21  35  59  92 126 145 205 254 305 344
#
# _framework density 20.345953000000002
#
# number of rings (size 3 to 8) (size 9 to 14) (size 15 to 20)
#    0.857    0.571    2.857    4.286    0.000    0.000 
#    0.000    8.571    0.000    1.714    0.000    0.000 
#    0.000    0.000    0.000    0.000    0.000    0.000 
#
# Total GULP energy -173450.072027 kJ/mol
# GULP energy per Si atom -12389.290859 kJ/mol
# Density = 2.029964 g / cm^3
# Si number density = 20.345953 Si / 1000 Ang^3
#
#
#
# Elastic Constant Matrix: (Units=GPa)
#
#
# Indices 1 2 3 4 5 6 
#
# 1 96.1401 34.7455 25.2726 -8.7187 10.1016 12.9606
# 2 34.7455 131.6615 31.4400 -14.2858 -6.4749 16.9104
# 3 25.2726 31.4400 86.7435 -20.7671 -9.0401 9.9644
# 4 -8.7187 -14.2858 -20.7671 40.7437 -1.6782 4.2503
# 5 10.1016 -6.4749 -9.0401 -1.6782 25.2981 0.1490
# 6 12.9606 16.9104 9.9644 4.2503 0.1490 41.0523
#
#
#
# Elastic Compliance Matrix: (Units=1/GPa)
#
#
# Indices 1 2 3 4 5 6 
#
# 1 0.013359 -0.002780 -0.003353 0.000112 -0.007223 -0.002244
# 2 -0.002780 0.009459 -0.001349 0.002476 0.003230 -0.002959
# 3 -0.003353 -0.001349 0.015895 0.007526 0.007191 -0.003049
# 4 0.000112 0.002476 0.007526 0.030118 0.005312 -0.006019
# 5 -0.007223 0.003230 0.007191 0.005312 0.046171 -0.001513
# 6 -0.002244 -0.002959 -0.003049 -0.006019 -0.001513 0.027655
#
#
# Mechanical properties :
#
#
# Convention : Reuss Voigt Hill
#
# Bulk Modulus (GPa) = 42.10586 55.27348 48.68967
# Shear Modulus (GPa) = 30.20471 36.29128 33.24799
#
# Velocity S-wave (km/s) = 3.85717 4.22798 4.04683
# Velocity P-wave (km/s) = 6.37000 7.14564 6.76894
#
# Compressibility (1/GPa) = 0.02374967
#
# Stress axis : x y z
#
# Youngs Moduli (GPa) = 74.85542 105.72492 62.91103
#
# Poissons Ratio (x) = 0.29388 0.21094
# Poissons Ratio (y) = 0.20808 0.08487
# Poissons Ratio (z) = 0.25099 0.14263
#
# Static dielectric constant tensor:
#      x y z
#    x 3.820400 0.220580 -0.099410 
#    y 0.220580 4.272040 -0.416280 
#    z -0.099410 -0.416280 3.569650 
# 
# 
# High freq. dielectric constant tensor:
#      x y z
#    x 1.783660 0.009800 0.006150 
#    y 0.009800 1.807300 -0.016020 
#    z 0.006150 -0.016020 1.778150 
# 
# From -- ./inp_files/588812.got.cif
#   From: 2010.06.25/outbox.cif.g09.slc.cpg/sg2_295_cif.got.tgz:588812.got - 2010.06.27 13:26:56.
