data_PCOD8008434
_publ_section_title
;
Structure prediction by ZEFSAII (Michael W. Deem and Ramdas Pophale) SiO2 
 PCOD8008434
Probable space group: P -1
;
_chemical_formula_sum "Si O2"
_cell_formula_units_Z 14
_cell_length_a 8.551876
_cell_length_b 13.311256
_cell_length_c 11.315842
_cell_angle_alpha 144.665012
_cell_angle_beta 124.511769
_cell_angle_gamma 70.590522
_cell_volume 590.656074
_symmetry_space_group_name_H-M "P -1"
_symmetry_group_IT_number 2
_symmetry_cell_setting 'triclinic'
loop_
_space_group_symop_operation_xyz
x,y,z
-x,-y,-z
loop_
_atom_site_type_symbol
_atom_site_label
_atom_site_fract_x
_atom_site_fract_y
_atom_site_fract_z
Si Si1 0.163793 0.057680 0.023712
Si Si2 0.502041 0.100025 0.373748
Si Si3 0.818422 0.825652 0.538431
Si Si4 0.341464 0.225176 0.829663
Si Si5 0.799947 0.482481 0.826506
Si Si6 0.844940 0.559363 0.653912
Si Si7 0.752084 0.447769 0.261509
O O1 0.050147 0.940230 0.752286
O O2 0.370380 0.028353 0.130724
O O3 0.231547 0.264235 0.208539
O O4 0.000000 0.000000 0.000000
O O5 0.346162 0.075120 0.392838
O O6 0.628433 0.309052 0.628022
O O7 0.656944 0.979394 0.334960
O O8 0.787829 0.769952 0.336230
O O9 0.795906 0.658545 0.455950
O O10 0.260838 0.331472 0.999663
O O11 0.564633 0.334252 0.001539
O O12 0.824566 0.460137 0.675593
O O13 0.000000 0.500000 0.000000
O O14 0.728931 0.423010 0.370834
O O15 0.073379 0.629843 0.783581
#
# Coordination Sequence:
#
# PCOD8008434 Si02
#       7
#     2   2   2   2   2   2   2
#     4  10  20  43  68 107 140 173 235 299 340 406
#     4  11  25  46  70 108 142 183 244 285 347 423
#     4  11  22  42  75 107 146 174 239 304 340 411
#     4  12  26  45  76 103 140 190 234 290 363 405
#     4  12  29  50  68 102 152 187 230 291 356 427
#     4  11  24  43  72 100 147 183 233 292 354 411
#     4  11  22  42  76 107 130 187 244 286 353 411
#
# _framework density 23.702456000000002
#
# number of rings (size 3 to 8) (size 9 to 14) (size 15 to 20)
#    0.000    0.857    4.286    3.429    6.000    2.857 
#    2.571    1.429    0.000    0.000    0.000    0.000 
#    0.000    0.000    0.000    0.000    0.000    0.000 
#
# Total GULP energy -173532.441654 kJ/mol
# GULP energy per Si atom -12395.174404 kJ/mol
# Density = 2.364851 g / cm^3
# Si number density = 23.702456 Si / 1000 Ang^3
#
#
#
# Elastic Constant Matrix: (Units=GPa)
#
#
# Indices 1 2 3 4 5 6 
#
# 1 46.3846 30.4271 37.7581 -12.6608 -8.1154 5.1489
# 2 30.4271 101.6643 30.0990 -11.9672 -11.3050 -4.6723
# 3 37.7581 30.0990 123.1729 -26.7774 5.7560 0.9667
# 4 -12.6608 -11.9672 -26.7774 51.0030 -8.1689 -0.2378
# 5 -8.1154 -11.3050 5.7560 -8.1689 36.8886 -2.5036
# 6 5.1489 -4.6723 0.9667 -0.2378 -2.5036 27.4650
#
#
#
# Elastic Compliance Matrix: (Units=1/GPa)
#
#
# Indices 1 2 3 4 5 6 
#
# 1 0.036901 -0.007414 -0.008951 0.003909 0.007624 -0.007135
# 2 -0.007414 0.012953 -0.000784 0.001288 0.003011 0.003907
# 3 -0.008951 -0.000784 0.011925 0.003335 -0.003274 0.000855
# 4 0.003909 0.001288 0.003335 0.023586 0.005965 0.000117
# 5 0.007624 0.003011 -0.003274 0.005965 0.031686 0.002138
# 6 -0.007135 0.003907 0.000855 0.000117 0.002138 0.038578
#
#
# Mechanical properties :
#
#
# Convention : Reuss Voigt Hill
#
# Bulk Modulus (GPa) = 36.38689 51.97668 44.18179
# Shear Modulus (GPa) = 25.11445 34.60048 29.85747
#
# Velocity S-wave (km/s) = 3.25864 3.82486 3.55305
# Velocity P-wave (km/s) = 5.43536 6.44069 5.95926
#
# Compressibility (1/GPa) = 0.02748243
#
# Stress axis : x y z
#
# Youngs Moduli (GPa) = 27.09918 77.19975 83.85554
#
# Poissons Ratio (x) = 0.57238 0.75056
# Poissons Ratio (y) = 0.20092 0.06574
# Poissons Ratio (z) = 0.24256 0.06052
#
# Static dielectric constant tensor:
#      x y z
#    x 3.950230 -0.263680 0.094890 
#    y -0.263680 4.351150 -0.193820 
#    z 0.094890 -0.193820 4.635300 
# 
# 
# High freq. dielectric constant tensor:
#      x y z
#    x 1.904430 -0.015810 0.004730 
#    y -0.015810 1.945490 -0.011280 
#    z 0.004730 -0.011280 1.952600 
# 
# From -- ./inp_files/400187.got.cif
#   From: 2010.06.25/outbox.cif.g09.slc.cpg/sg2_201_cif.got.tgz:400187.got - 2010.06.27 13:26:56.
