data_PCOD8008708
_publ_section_title
;
Structure prediction by ZEFSAII (Michael W. Deem and Ramdas Pophale) SiO2 
 PCOD8008708
Probable space group: P -1
;
_chemical_formula_sum "Si O2"
_cell_formula_units_Z 16
_cell_length_a 15.410487
_cell_length_b 9.048527
_cell_length_c 15.747479
_cell_angle_alpha 144.080508
_cell_angle_beta 46.152990
_cell_angle_gamma 142.863007
_cell_volume 770.797234
_symmetry_space_group_name_H-M "P -1"
_symmetry_group_IT_number 2
_symmetry_cell_setting 'triclinic'
loop_
_space_group_symop_operation_xyz
x,y,z
-x,-y,-z
loop_
_atom_site_type_symbol
_atom_site_label
_atom_site_fract_x
_atom_site_fract_y
_atom_site_fract_z
Si Si1 0.497105 0.895591 0.173301
Si Si2 0.510002 0.730339 0.397646
Si Si3 0.687146 0.496553 0.413545
Si Si4 0.212874 0.828461 0.340882
Si Si5 0.827114 0.175533 0.445044
Si Si6 0.096774 0.208039 0.320234
Si Si7 0.598885 0.590607 0.848197
Si Si8 0.002914 0.238378 0.668753
O O1 0.337583 0.791592 0.204391
O O2 0.490510 0.717393 0.179424
O O3 0.580517 0.251871 0.302851
O O4 0.574636 0.840166 0.018458
O O5 0.390218 0.555196 0.468690
O O6 0.467740 0.491606 0.239471
O O7 0.500000 0.000000 0.500000
O O8 0.673348 0.870113 0.384734
O O9 0.829049 0.477815 0.308126
O O10 0.735952 0.830523 0.509195
O O11 0.159376 0.684544 0.403506
O O12 0.095397 0.669379 0.270176
O O13 0.856473 0.475534 0.513715
O O14 0.950442 0.104377 0.316962
O O15 0.229799 0.268928 0.199982
O O16 0.063022 0.932809 0.276866
O O17 0.000000 0.000000 0.500000
#
# Coordination Sequence:
#
# PCOD8008708 Si02
#       8
#     2   2   2   2   2   2   2   2
#     4  11  23  41  61  88 120 168 197 247 306 360
#     4  12  21  37  60  95 117 154 204 254 291 348
#     4  11  21  37  63  90 122 154 203 246 302 354
#     4  11  20  38  60  96 119 157 201 253 297 358
#     4  11  22  33  64  92 120 150 209 253 290 348
#     4  11  20  39  56  93 120 161 197 249 299 357
#     4  11  23  41  62  85 127 158 203 248 304 358
#     4  10  21  33  59  89 126 154 191 253 306 346
#
# _framework density 20.757728
#
# number of rings (size 3 to 8) (size 9 to 14) (size 15 to 20)
#    0.000    1.000    7.500    1.875    0.000    0.000 
#    0.000    4.375    0.000    3.000    0.000    0.000 
#    0.000    0.000    0.000    0.000    0.000    0.000 
#
# Total GULP energy -198249.241573 kJ/mol
# GULP energy per Si atom -12390.577598 kJ/mol
# Density = 2.071048 g / cm^3
# Si number density = 20.757728 Si / 1000 Ang^3
#
#
#
# Elastic Constant Matrix: (Units=GPa)
#
#
# Indices 1 2 3 4 5 6 
#
# 1 112.4510 30.2092 33.8576 -17.2493 -6.3599 25.2648
# 2 30.2092 73.0036 18.7162 -15.5315 8.0077 26.4158
# 3 33.8576 18.7162 93.7559 -23.6236 -2.7748 12.7369
# 4 -17.2493 -15.5315 -23.6236 22.6545 3.5459 -11.5533
# 5 -6.3599 8.0077 -2.7748 3.5459 25.6647 -10.6418
# 6 25.2648 26.4158 12.7369 -11.5533 -10.6418 25.5279
#
#
#
# Elastic Compliance Matrix: (Units=1/GPa)
#
#
# Indices 1 2 3 4 5 6 
#
# 1 0.012265 0.000271 -0.002681 0.001236 -0.002259 -0.011463
# 2 0.000271 0.035370 -0.000457 0.004591 -0.031414 -0.047658
# 3 -0.002681 -0.000457 0.015078 0.014465 0.000002 0.002151
# 4 0.001236 0.004591 0.014465 0.073442 -0.001689 0.019343
# 5 -0.002259 -0.031414 0.000002 -0.001689 0.075595 0.065490
# 6 -0.011463 -0.047658 0.002151 0.019343 0.065490 0.134815
#
#
# Mechanical properties :
#
#
# Convention : Reuss Voigt Hill
#
# Bulk Modulus (GPa) = 17.55077 49.41960 33.48518
# Shear Modulus (GPa) = 13.46644 27.86460 20.66552
#
# Velocity S-wave (km/s) = 2.54981 3.66781 3.15867
# Velocity P-wave (km/s) = 4.14030 6.46503 5.42857
#
# Compressibility (1/GPa) = 0.05697756
#
# Stress axis : x y z
#
# Youngs Moduli (GPa) = 81.53581 28.27225 66.32159
#
# Poissons Ratio (x) = -0.00765 0.17783
# Poissons Ratio (y) = -0.02208 0.03032
# Poissons Ratio (z) = 0.21862 0.01292
#
# Static dielectric constant tensor:
#      x y z
#    x 6.827600 -0.402920 -0.165390 
#    y -0.402920 3.501100 -0.063850 
#    z -0.165390 -0.063850 3.365790 
# 
# 
# High freq. dielectric constant tensor:
#      x y z
#    x 1.822780 0.009170 -0.013510 
#    y 0.009170 1.829960 -0.019550 
#    z -0.013510 -0.019550 1.751990 
# 
# From -- ./inp_files/354327.got.cif
#   From: 2010.06.25/outbox.cif.g09.slc.cpg/sg2_178_cif.got.tgz:354327.got - 2010.06.27 13:26:56.
