data_PCOD8008699
_publ_section_title
;
Structure prediction by ZEFSAII (Michael W. Deem and Ramdas Pophale) SiO2 
 PCOD8008699
Probable space group: P -1
;
_chemical_formula_sum "Si O2"
_cell_formula_units_Z 16
_cell_length_a 6.896942
_cell_length_b 14.573502
_cell_length_c 11.331664
_cell_angle_alpha 123.120736
_cell_angle_beta 117.563353
_cell_angle_gamma 91.534201
_cell_volume 783.385992
_symmetry_space_group_name_H-M "P -1"
_symmetry_group_IT_number 2
_symmetry_cell_setting 'triclinic'
loop_
_space_group_symop_operation_xyz
x,y,z
-x,-y,-z
loop_
_atom_site_type_symbol
_atom_site_label
_atom_site_fract_x
_atom_site_fract_y
_atom_site_fract_z
Si Si1 0.931008 0.627852 0.093213
Si Si2 0.019482 0.278386 0.180229
Si Si3 0.568792 0.139537 0.104839
Si Si4 0.935764 0.496932 0.773983
Si Si5 0.802718 0.004775 0.531789
Si Si6 0.497035 0.713691 0.591288
Si Si7 0.419704 0.812987 0.407789
Si Si8 0.863773 0.825975 0.092807
O O1 0.882891 0.562822 0.164195
O O2 0.216732 0.697313 0.215609
O O3 0.813969 0.724853 0.109994
O O4 0.839282 0.534430 0.894492
O O5 0.949957 0.389457 0.199007
O O6 0.281035 0.322027 0.341018
O O7 0.828260 0.198363 0.162693
O O8 0.029223 0.204301 0.016690
O O9 0.558900 0.203698 0.269644
O O10 0.380907 0.157414 0.976225
O O11 0.500000 0.000000 0.000000
O O12 0.731404 0.405578 0.573146
O O13 0.685510 0.091938 0.507153
O O14 0.928081 0.053213 0.725926
O O15 0.608741 0.873257 0.400932
O O16 0.000000 0.000000 0.500000
O O17 0.554719 0.783151 0.533491
#
# Coordination Sequence:
#
# PCOD8008699 Si02
#       8
#     2   2   2   2   2   2   2   2
#     4   8  16  36  61  87 112 147 188 242 300 347
#     4  10  22  39  60  85 117 157 194 242 294 337
#     4  11  26  38  57  86 120 160 201 238 282 346
#     4   9  17  36  65  86 114 149 193 243 294 352
#     4  10  21  33  56  82 114 151 190 235 280 343
#     4  10  22  38  60  86 117 153 199 238 288 345
#     4   9  20  35  54  84 115 149 188 233 289 342
#     4   9  21  38  57  84 119 152 194 238 291 348
#
# _framework density 20.424160000000001
#
# number of rings (size 3 to 8) (size 9 to 14) (size 15 to 20)
#    0.000    2.500    0.000    0.375    5.250    4.500 
#    0.000    0.625    0.000    9.000    0.000    0.000 
#    0.000    0.000    0.000    0.000    0.000    0.000 
#
# Total GULP energy -198240.280091 kJ/mol
# GULP energy per Si atom -12390.017506 kJ/mol
# Density = 2.037767 g / cm^3
# Si number density = 20.424160 Si / 1000 Ang^3
#
#
#
# Elastic Constant Matrix: (Units=GPa)
#
#
# Indices 1 2 3 4 5 6 
#
# 1 82.2696 43.5719 14.4504 2.8647 5.0820 -0.9753
# 2 43.5719 133.5375 46.1563 0.6279 1.2796 -1.9544
# 3 14.4504 46.1563 102.6208 -0.6695 1.6068 -8.7109
# 4 2.8647 0.6279 -0.6695 35.6732 -4.2038 7.0601
# 5 5.0820 1.2796 1.6068 -4.2038 12.5459 -1.6295
# 6 -0.9753 -1.9544 -8.7109 7.0601 -1.6295 20.4788
#
#
#
# Elastic Compliance Matrix: (Units=1/GPa)
#
#
# Indices 1 2 3 4 5 6 
#
# 1 0.015206 -0.004961 0.000220 -0.001973 -0.006275 0.000525
# 2 -0.004961 0.010504 -0.004136 0.000522 0.001506 -0.001053
# 3 0.000220 -0.004136 0.012000 -0.000793 -0.000830 0.004927
# 4 -0.001973 0.000522 -0.000793 0.031408 0.010019 -0.010412
# 5 -0.006275 0.001506 -0.000830 0.010019 0.085933 0.002876
# 6 0.000525 -0.001053 0.004927 -0.010412 0.002876 0.054670
#
#
# Mechanical properties :
#
#
# Convention : Reuss Voigt Hill
#
# Bulk Modulus (GPa) = 50.10585 58.53168 54.31877
# Shear Modulus (GPa) = 21.35604 28.02286 24.68945
#
# Velocity S-wave (km/s) = 3.23712 3.70813 3.48060
# Velocity P-wave (km/s) = 6.20950 6.85959 6.54262
#
# Compressibility (1/GPa) = 0.01995775
#
# Stress axis : x y z
#
# Youngs Moduli (GPa) = 65.76223 95.19949 83.33465
#
# Poissons Ratio (x) = 0.47224 -0.01832
# Poissons Ratio (y) = 0.32622 0.34464
# Poissons Ratio (z) = -0.01446 0.39371
#
# Static dielectric constant tensor:
#      x y z
#    x 3.191920 -0.189340 0.139160 
#    y -0.189340 4.124850 -0.053620 
#    z 0.139160 -0.053620 3.691710 
# 
# 
# High freq. dielectric constant tensor:
#      x y z
#    x 1.750160 -0.011800 0.002830 
#    y -0.011800 1.818730 -0.002250 
#    z 0.002830 -0.002250 1.813540 
# 
# From -- ./inp_files/367997.got.cif
#   From: 2010.06.25/outbox.cif.g09.slc.cpg/sg2_184_cif.got.tgz:367997.got - 2010.06.27 13:26:56.
