data_PCOD8008777
_publ_section_title
;
Structure prediction by ZEFSAII (Michael W. Deem and Ramdas Pophale) SiO2 
 PCOD8008777
Probable space group: P -1
;
_chemical_formula_sum "Si O2"
_cell_formula_units_Z 14
_cell_length_a 8.465793
_cell_length_b 14.730344
_cell_length_c 10.801747
_cell_angle_alpha 50.543452
_cell_angle_beta 137.731362
_cell_angle_gamma 109.707354
_cell_volume 676.194688
_symmetry_space_group_name_H-M "P -1"
_symmetry_group_IT_number 2
_symmetry_cell_setting 'triclinic'
loop_
_space_group_symop_operation_xyz
x,y,z
-x,-y,-z
loop_
_atom_site_type_symbol
_atom_site_label
_atom_site_fract_x
_atom_site_fract_y
_atom_site_fract_z
Si Si1 0.299289 0.669211 0.814338
Si Si2 0.668678 0.264976 0.623709
Si Si3 0.750299 0.475923 0.329392
Si Si4 0.767184 0.975958 0.219421
Si Si5 0.215732 0.887956 0.415823
Si Si6 0.833092 0.769208 0.612513
Si Si7 0.968228 0.851177 0.857772
O O1 0.219017 0.592282 0.724669
O O2 0.359425 0.791656 0.686201
O O3 0.077579 0.686414 0.767323
O O4 0.543290 0.601284 0.086526
O O5 0.662691 0.394877 0.451421
O O6 0.716585 0.157184 0.643838
O O7 0.405010 0.276041 0.523608
O O8 0.888330 0.230012 0.878636
O O9 0.000000 0.500000 0.500000
O O10 0.798644 0.908197 0.427564
O O11 0.933140 0.893248 0.279978
O O12 0.841225 0.103691 0.160552
O O13 0.500000 0.000000 0.000000
O O14 0.238932 0.028263 0.320003
O O15 0.845821 0.768343 0.771304
#
# Coordination Sequence:
#
# PCOD8008777 Si02
#       7
#     2   2   2   2   2   2   2
#     4   9  21  41  63  86 112 153 198 243 289 338
#     4  11  22  38  58  88 121 154 193 248 293 332
#     4  10  23  45  65  81 110 153 204 245 294 350
#     4   9  17  35  56  80 123 161 190 229 272 345
#     4   8  19  36  57  86 120 158 193 228 287 343
#     4  11  21  37  59  91 123 151 192 239 289 349
#     4  10  21  34  58  91 125 154 192 223 292 355
#
# _framework density 20.704094999999999
#
# number of rings (size 3 to 8) (size 9 to 14) (size 15 to 20)
#    0.857    1.429    1.429    0.857    0.000    5.714 
#    2.571    4.286    0.000    0.000    0.000    0.000 
#    0.000    0.000    0.000    0.000    0.000    0.000 
#
# Total GULP energy -173456.203781 kJ/mol
# GULP energy per Si atom -12389.728841 kJ/mol
# Density = 2.065697 g / cm^3
# Si number density = 20.704095 Si / 1000 Ang^3
#
#
#
# Elastic Constant Matrix: (Units=GPa)
#
#
# Indices 1 2 3 4 5 6 
#
# 1 63.8736 6.0089 39.3007 1.6807 -2.8383 -8.0928
# 2 6.0089 41.2096 37.3956 2.9508 -1.4303 -4.7667
# 3 39.3007 37.3956 165.7458 -1.3810 -2.2119 -9.3175
# 4 1.6807 2.9508 -1.3810 29.8499 3.3321 -1.6803
# 5 -2.8383 -1.4303 -2.2119 3.3321 32.3454 -0.9380
# 6 -8.0928 -4.7667 -9.3175 -1.6803 -0.9380 24.1658
#
#
#
# Elastic Compliance Matrix: (Units=1/GPa)
#
#
# Indices 1 2 3 4 5 6 
#
# 1 0.019113 0.002264 -0.004751 -0.001434 0.001745 0.004983
# 2 0.002264 0.031425 -0.007416 -0.003531 0.001558 0.003913
# 3 -0.004751 -0.007416 0.008867 0.001467 -0.000276 0.000456
# 4 -0.001434 -0.003531 0.001467 0.034503 -0.003688 0.001645
# 5 0.001745 0.001558 -0.000276 -0.003688 0.031550 0.001753
# 6 0.004983 0.003913 0.000456 0.001645 0.001753 0.044180
#
#
# Mechanical properties :
#
#
# Convention : Reuss Voigt Hill
#
# Bulk Modulus (GPa) = 25.25267 48.47105 36.86186
# Shear Modulus (GPa) = 24.67389 29.81380 27.24384
#
# Velocity S-wave (km/s) = 3.45590 3.79884 3.63142
# Velocity P-wave (km/s) = 5.30545 6.53481 5.95196
#
# Compressibility (1/GPa) = 0.03959977
#
# Stress axis : x y z
#
# Youngs Moduli (GPa) = 52.32037 31.82195 112.77433
#
# Poissons Ratio (x) = -0.07206 0.53583
# Poissons Ratio (y) = -0.11847 0.83630
# Poissons Ratio (z) = 0.24859 0.23598
#
# Static dielectric constant tensor:
#      x y z
#    x 3.433200 0.330990 0.151610 
#    y 0.330990 3.205540 -0.442410 
#    z 0.151610 -0.442410 3.674410 
# 
# 
# High freq. dielectric constant tensor:
#      x y z
#    x 1.808280 0.003670 -0.001770 
#    y 0.003670 1.775290 -0.001450 
#    z -0.001770 -0.001450 1.822590 
# 
# From -- ./inp_files/398675.got.cif
#   From: 2010.06.25/outbox.cif.g09.slc.cpg/sg2_200_cif.got.tgz:398675.got - 2010.06.27 13:26:56.
