data_PCOD8008269
_publ_section_title
;
Structure prediction by ZEFSAII (Michael W. Deem and Ramdas Pophale) SiO2 
 PCOD8008269
Probable space group: P -1
;
_chemical_formula_sum "Si O2"
_cell_formula_units_Z 16
_cell_length_a 12.022753
_cell_length_b 11.382294
_cell_length_c 10.849233
_cell_angle_alpha 115.082986
_cell_angle_beta 50.050230
_cell_angle_gamma 76.641330
_cell_volume 710.168482
_symmetry_space_group_name_H-M "P -1"
_symmetry_group_IT_number 2
_symmetry_cell_setting 'triclinic'
loop_
_space_group_symop_operation_xyz
x,y,z
-x,-y,-z
loop_
_atom_site_type_symbol
_atom_site_label
_atom_site_fract_x
_atom_site_fract_y
_atom_site_fract_z
Si Si1 0.146024 0.437432 0.552247
Si Si2 0.042493 0.606744 0.945113
Si Si3 0.890746 0.360274 0.706486
Si Si4 0.591414 0.579519 0.242516
Si Si5 0.342836 0.994624 0.654737
Si Si6 0.310479 0.962165 0.198014
Si Si7 0.553219 0.035519 0.156800
Si Si8 0.593478 0.549000 0.793011
O O1 0.013744 0.604813 0.818699
O O2 0.337468 0.254612 0.413544
O O3 0.231359 0.471025 0.398201
O O4 0.001694 0.415142 0.591366
O O5 0.277104 0.508056 0.762836
O O6 0.000000 0.500000 0.000000
O O7 0.873159 0.831588 0.187321
O O8 0.704344 0.423249 0.781760
O O9 0.074442 0.133711 0.496086
O O10 0.778681 0.475180 0.963392
O O11 0.420802 0.804801 0.466486
O O12 0.462925 0.530731 0.293856
O O13 0.323165 0.017020 0.827693
O O14 0.500000 0.000000 0.500000
O O15 0.487998 0.927226 0.132979
O O16 0.304702 0.010339 0.080031
O O17 0.379543 0.767027 0.073127
#
# Coordination Sequence:
#
# PCOD8008269 Si02
#       8
#     2   2   2   2   2   2   2   2
#     4  10  20  42  69  97 129 169 222 276 312 388
#     4  12  23  42  68  97 126 171 223 269 319 390
#     4  11  23  42  70  93 134 173 230 267 313 400
#     4  12  27  45  61 102 140 172 213 272 336 390
#     4  12  24  39  70  94 131 174 217 274 321 393
#     4   9  22  39  66  96 128 171 214 275 321 379
#     4   9  19  40  64 100 130 158 223 278 320 370
#     4  11  26  42  66  98 138 173 213 272 340 382
#
# _framework density 22.529866999999999
#
# number of rings (size 3 to 8) (size 9 to 14) (size 15 to 20)
#    0.000    1.250    3.750    1.500    7.000    2.000 
#    0.000    0.625    0.000    0.000    0.000    0.000 
#    0.000    0.000    0.000    0.000    0.000    0.000 
#
# Total GULP energy -198336.118014 kJ/mol
# GULP energy per Si atom -12396.007376 kJ/mol
# Density = 2.247859 g / cm^3
# Si number density = 22.529867 Si / 1000 Ang^3
#
#
#
# Elastic Constant Matrix: (Units=GPa)
#
#
# Indices 1 2 3 4 5 6 
#
# 1 105.1980 29.2247 29.0968 21.4985 1.8133 5.5727
# 2 29.2247 58.1329 37.3397 32.2200 1.7786 3.2409
# 3 29.0968 37.3397 117.7757 32.0294 8.1683 -1.0070
# 4 21.4985 32.2200 32.0294 45.2272 -1.1583 2.7822
# 5 1.8133 1.7786 8.1683 -1.1583 36.8326 3.4321
# 6 5.5727 3.2409 -1.0070 2.7822 3.4321 31.2100
#
#
#
# Elastic Compliance Matrix: (Units=1/GPa)
#
#
# Indices 1 2 3 4 5 6 
#
# 1 0.011338 -0.003977 -0.001090 -0.001694 -0.000039 -0.001491
# 2 -0.003977 0.031848 -0.004235 -0.017756 -0.000863 -0.001056
# 3 -0.001090 -0.004235 0.011625 -0.004872 -0.002635 0.001733
# 4 -0.001694 -0.017756 -0.004872 0.039219 0.003430 -0.001884
# 5 -0.000039 -0.000863 -0.002635 0.003430 0.028202 -0.003396
# 6 -0.001491 -0.001056 0.001733 -0.001884 -0.003396 0.033014
#
#
# Mechanical properties :
#
#
# Convention : Reuss Voigt Hill
#
# Bulk Modulus (GPa) = 27.61806 52.49210 40.05508
# Shear Modulus (GPa) = 26.89351 35.01699 30.95525
#
# Velocity S-wave (km/s) = 3.45872 3.94667 3.71072
# Velocity P-wave (km/s) = 5.31369 6.64212 6.01469
#
# Compressibility (1/GPa) = 0.03620820
#
# Stress axis : x y z
#
# Youngs Moduli (GPa) = 88.19987 31.39922 86.02119
#
# Poissons Ratio (x) = 0.12487 0.09373
# Poissons Ratio (y) = 0.35074 0.36430
# Poissons Ratio (z) = 0.09611 0.13297
#
# Static dielectric constant tensor:
#      x y z
#    x 4.045720 -0.293530 -0.000010 
#    y -0.293530 5.716470 1.792330 
#    z -0.000010 1.792330 5.532260 
# 
# 
# High freq. dielectric constant tensor:
#      x y z
#    x 1.882300 -0.010830 0.009460 
#    y -0.010830 1.864590 0.015250 
#    z 0.009460 0.015250 1.899640 
# 
# From -- ./inp_files/428448.got.cif
#   From: 2010.06.25/outbox.cif.g09.slc.cpg/sg2_215_cif.got.tgz:428448.got - 2010.06.27 13:26:56.
