data_PCOD8008756
_publ_section_title
;
Structure prediction by ZEFSAII (Michael W. Deem and Ramdas Pophale) SiO2 
 PCOD8008756
Probable space group: P -1
;
_chemical_formula_sum "Si O2"
_cell_formula_units_Z 16
_cell_length_a 8.965853
_cell_length_b 17.618540
_cell_length_c 20.866913
_cell_angle_alpha 160.804098
_cell_angle_beta 46.746116
_cell_angle_gamma 123.394913
_cell_volume 722.103722
_symmetry_space_group_name_H-M "P -1"
_symmetry_group_IT_number 2
_symmetry_cell_setting 'triclinic'
loop_
_space_group_symop_operation_xyz
x,y,z
-x,-y,-z
loop_
_atom_site_type_symbol
_atom_site_label
_atom_site_fract_x
_atom_site_fract_y
_atom_site_fract_z
Si Si1 0.393415 0.831112 0.360556
Si Si2 0.505703 0.458517 0.778955
Si Si3 0.718597 0.800440 0.922479
Si Si4 0.958558 0.127831 0.779984
Si Si5 0.298705 0.103121 0.765727
Si Si6 0.251884 0.233470 0.390065
Si Si7 0.237213 0.145392 0.185242
Si Si8 0.002103 0.775500 0.933169
O O1 0.431323 0.591444 0.204029
O O2 0.500000 0.000000 0.500000
O O3 0.126041 0.999958 0.568613
O O4 0.525615 0.768682 0.203710
O O5 0.643136 0.603748 0.823228
O O6 0.569793 0.200039 0.514710
O O7 0.240145 0.616031 0.979198
O O8 0.814979 0.694518 0.738293
O O9 0.903876 0.846546 0.947147
O O10 0.517974 0.074934 0.189256
O O11 0.089528 0.195524 0.852473
O O12 0.869836 0.926413 0.670475
O O13 0.207110 0.197388 0.938285
O O14 0.158314 0.308241 0.403794
O O15 0.189696 0.490379 0.652476
O O16 0.500000 0.000000 0.000000
O O17 0.118620 0.951867 0.064016
#
# Coordination Sequence:
#
# PCOD8008756 Si02
#       8
#     2   2   2   2   2   2   2   2
#     4   8  17  31  54  89 119 153 206 242 291 359
#     4   9  18  36  60  84 123 157 200 251 290 355
#     4  10  23  40  61  93 119 157 206 250 300 358
#     4   9  16  35  61  83 118 165 197 243 302 344
#     4  10  21  34  56  91 120 158 201 243 302 358
#     4  10  22  42  63  88 124 162 201 246 303 359
#     4  10  23  44  64  91 118 160 209 242 306 364
#     4  12  23  41  63  89 128 156 199 256 300 358
#
# _framework density 22.157481000000001
#
# number of rings (size 3 to 8) (size 9 to 14) (size 15 to 20)
#    0.000    2.500    1.250    1.875    0.000    8.000 
#    2.250    2.500    0.000    3.000    0.000    0.000 
#    0.000    0.000    0.000    0.000    0.000    0.000 
#
# Total GULP energy -198294.626963 kJ/mol
# GULP energy per Si atom -12393.414185 kJ/mol
# Density = 2.210705 g / cm^3
# Si number density = 22.157481 Si / 1000 Ang^3
#
#
#
# Elastic Constant Matrix: (Units=GPa)
#
#
# Indices 1 2 3 4 5 6 
#
# 1 57.0889 13.1961 26.7224 -5.2415 -7.0832 -3.1997
# 2 13.1961 117.0262 44.6255 -8.1264 2.1979 -10.9984
# 3 26.7224 44.6255 97.6948 -3.1201 -14.8982 -9.9068
# 4 -5.2415 -8.1264 -3.1201 29.9148 -1.0919 -5.9118
# 5 -7.0832 2.1979 -14.8982 -1.0919 24.9388 -4.5419
# 6 -3.1997 -10.9984 -9.9068 -5.9118 -4.5419 24.9782
#
#
#
# Elastic Compliance Matrix: (Units=1/GPa)
#
#
# Indices 1 2 3 4 5 6 
#
# 1 0.020658 -0.000146 -0.004680 0.003672 0.003657 0.002260
# 2 -0.000146 0.011062 -0.005157 0.002881 -0.003450 0.002861
# 3 -0.004680 -0.005157 0.015920 0.000860 0.009657 0.005403
# 4 0.003672 0.002881 0.000860 0.037478 0.005107 0.011879
# 5 0.003657 -0.003450 0.009657 0.005107 0.049810 0.013046
# 6 0.002260 0.002861 0.005403 0.011879 0.013046 0.048911
#
#
# Mechanical properties :
#
#
# Convention : Reuss Voigt Hill
#
# Bulk Modulus (GPa) = 36.13467 48.98866 42.56166
# Shear Modulus (GPa) = 23.47104 28.45075 25.96090
#
# Velocity S-wave (km/s) = 3.25819 3.58722 3.42666
# Velocity P-wave (km/s) = 5.52249 6.27015 5.90816
#
# Compressibility (1/GPa) = 0.02767426
#
# Stress axis : x y z
#
# Youngs Moduli (GPa) = 48.40648 90.40154 62.81549
#
# Poissons Ratio (x) = 0.01322 0.29396
# Poissons Ratio (y) = 0.00708 0.32392
# Poissons Ratio (z) = 0.22653 0.46618
#
# Static dielectric constant tensor:
#      x y z
#    x 3.876540 -0.112100 -0.232550 
#    y -0.112100 4.858480 -0.475440 
#    z -0.232550 -0.475440 4.021240 
# 
# 
# High freq. dielectric constant tensor:
#      x y z
#    x 1.850880 0.005490 -0.016780 
#    y 0.005490 1.892280 -0.014130 
#    z -0.016780 -0.014130 1.864150 
# 
# From -- ./inp_files/591057.got.cif
#   From: 2010.06.25/outbox.cif.g09.slc.cpg/sg2_296_cif.got.tgz:591057.got - 2010.06.27 13:26:56.
