data_PCOD8008975
_publ_section_title
;
Structure prediction by ZEFSAII (Michael W. Deem and Ramdas Pophale) SiO2 
 PCOD8008975
Probable space group: P -1
;
_chemical_formula_sum "Si O2"
_cell_formula_units_Z 16
_cell_length_a 9.168376
_cell_length_b 20.811488
_cell_length_c 14.893144
_cell_angle_alpha 33.796264
_cell_angle_beta 38.495297
_cell_angle_gamma 31.410400
_cell_volume 796.938870
_symmetry_space_group_name_H-M "P -1"
_symmetry_group_IT_number 2
_symmetry_cell_setting 'triclinic'
loop_
_space_group_symop_operation_xyz
x,y,z
-x,-y,-z
loop_
_atom_site_type_symbol
_atom_site_label
_atom_site_fract_x
_atom_site_fract_y
_atom_site_fract_z
Si Si1 0.627393 0.833165 0.643424
Si Si2 0.768415 0.126298 0.060921
Si Si3 0.100778 0.810453 0.248023
Si Si4 0.729137 0.696238 0.571849
Si Si5 0.679042 0.897991 0.113822
Si Si6 0.762872 0.252862 0.545396
Si Si7 0.139560 0.419059 0.619239
Si Si8 0.270646 0.897383 0.426567
O O1 0.493037 0.800149 0.828070
O O2 0.567768 0.775086 0.650395
O O3 0.973855 0.733175 0.606772
O O4 0.500000 0.000000 0.500000
O O5 0.680989 0.224651 0.899491
O O6 0.831415 0.976461 0.176795
O O7 0.054305 0.096566 0.002314
O O8 0.254109 0.786431 0.297748
O O9 0.967758 0.723210 0.399650
O O10 0.486789 0.752303 0.546499
O O11 0.915011 0.523385 0.684874
O O12 0.799877 0.734469 0.224415
O O13 0.458041 0.955857 0.238717
O O14 0.500000 0.000000 0.000000
O O15 0.448350 0.396873 0.507603
O O16 0.836564 0.129185 0.583666
O O17 0.000000 0.500000 0.500000
O O18 0.000000 0.000000 0.500000
#
# Coordination Sequence:
#
# PCOD8008975 Si02
#       8
#     2   2   2   2   2   2   2   2
#     4  11  22  37  63  95 135 166 216 277 328 388
#     4  11  20  38  61  88 136 168 206 270 332 386
#     4  10  21  35  61  91 124 166 213 259 328 383
#     4  11  21  40  64  96 122 176 217 265 331 377
#     4  11  24  40  65 100 129 178 219 277 326 383
#     4  10  21  38  59  94 121 166 220 264 313 388
#     4  11  21  43  67  92 134 173 225 270 321 400
#     4  11  22  36  65  97 127 163 218 271 319 385
#
# _framework density 20.076820999999999
#
# number of rings (size 3 to 8) (size 9 to 14) (size 15 to 20)
#    0.000    1.250    6.250    2.250    1.750    2.000 
#    0.000    0.625    0.000    6.750    0.000    0.000 
#    0.000    0.000    0.000    0.000    0.000    0.000 
#
# Total GULP energy -198243.972008 kJ/mol
# GULP energy per Si atom -12390.248250 kJ/mol
# Density = 2.003113 g / cm^3
# Si number density = 20.076821 Si / 1000 Ang^3
#
#
#
# Elastic Constant Matrix: (Units=GPa)
#
#
# Indices 1 2 3 4 5 6 
#
# 1 120.6736 37.1249 43.7872 8.4925 22.6801 -8.0469
# 2 37.1249 122.5698 53.4306 9.0523 14.7865 2.4065
# 3 43.7872 53.4306 113.6750 26.3059 24.0025 2.5743
# 4 8.4925 9.0523 26.3059 40.7006 7.5843 -0.3736
# 5 22.6801 14.7865 24.0025 7.5843 35.5071 4.9906
# 6 -8.0469 2.4065 2.5743 -0.3736 4.9906 36.0805
#
#
#
# Elastic Compliance Matrix: (Units=1/GPa)
#
#
# Indices 1 2 3 4 5 6 
#
# 1 0.010881 -0.001678 -0.002565 0.000754 -0.005162 0.003443
# 2 -0.001678 0.010602 -0.004446 0.000942 -0.000442 -0.000693
# 3 -0.002565 -0.004446 0.014503 -0.006976 -0.004721 -0.000729
# 4 0.000754 0.000942 -0.006976 0.029203 -0.002573 0.001261
# 5 -0.005162 -0.000442 -0.004721 -0.002573 0.036204 -0.005819
# 6 0.003443 -0.000693 -0.000729 0.001261 -0.005819 0.029400
#
#
# Mechanical properties :
#
#
# Convention : Reuss Voigt Hill
#
# Bulk Modulus (GPa) = 53.74162 69.51154 61.62658
# Shear Modulus (GPa) = 32.38925 37.29603 34.84264
#
# Velocity S-wave (km/s) = 4.02091 4.31474 4.17041
# Velocity P-wave (km/s) = 6.95579 7.71496 7.34519
#
# Compressibility (1/GPa) = 0.01860755
#
# Stress axis : x y z
#
# Youngs Moduli (GPa) = 91.90729 94.31923 68.95353
#
# Poissons Ratio (x) = 0.15827 0.17686
# Poissons Ratio (y) = 0.15422 0.30656
# Poissons Ratio (z) = 0.23573 0.41934
#
# Static dielectric constant tensor:
#      x y z
#    x 3.975620 0.125880 0.103430 
#    y 0.125880 3.867810 0.155850 
#    z 0.103430 0.155850 3.637140 
# 
# 
# High freq. dielectric constant tensor:
#      x y z
#    x 1.804160 0.003880 0.009570 
#    y 0.003880 1.768080 0.016700 
#    z 0.009570 0.016700 1.758560 
# 
# From -- ./inp_files/416662.got.cif
#   From: 2010.06.25/outbox.cif.g09.slc.cpg/sg2_209_cif.got.tgz:416662.got - 2010.06.27 13:26:56.
