data_PCOD8008614
_publ_section_title
;
Structure prediction by ZEFSAII (Michael W. Deem and Ramdas Pophale) SiO2 
 PCOD8008614
Probable space group: P -1
;
_chemical_formula_sum "Si O2"
_cell_formula_units_Z 16
_cell_length_a 9.763178
_cell_length_b 5.124722
_cell_length_c 23.424567
_cell_angle_alpha 115.878539
_cell_angle_beta 48.255072
_cell_angle_gamma 106.135605
_cell_volume 786.629067
_symmetry_space_group_name_H-M "P -1"
_symmetry_group_IT_number 2
_symmetry_cell_setting 'triclinic'
loop_
_space_group_symop_operation_xyz
x,y,z
-x,-y,-z
loop_
_atom_site_type_symbol
_atom_site_label
_atom_site_fract_x
_atom_site_fract_y
_atom_site_fract_z
Si Si1 0.816562 0.200240 0.233105
Si Si2 0.030058 0.682404 0.174719
Si Si3 0.554416 0.293856 0.914412
Si Si4 0.940530 0.675992 0.478634
Si Si5 0.594406 0.854928 0.640452
Si Si6 0.537858 0.343500 0.132682
Si Si7 0.712265 0.502019 0.682860
Si Si8 0.105728 0.768745 0.909425
O O1 0.949035 0.997901 0.214343
O O2 0.900004 0.523022 0.241647
O O3 0.616940 0.213338 0.318272
O O4 0.811092 0.085244 0.157447
O O5 0.034549 0.483132 0.096290
O O6 0.226750 0.722001 0.151953
O O7 0.467784 0.416778 0.892028
O O8 0.470712 0.980844 0.921136
O O9 0.500000 0.500000 0.000000
O O10 0.716743 0.689666 0.540755
O O11 0.000000 0.500000 0.500000
O O12 0.062538 0.537119 0.379631
O O13 0.000000 0.000000 0.500000
O O14 0.657141 0.743193 0.674492
O O15 0.617848 0.200353 0.663585
O O16 0.360313 0.387617 0.226049
O O17 0.727570 0.385145 0.117541
O O18 0.000000 0.000000 0.000000
#
# Coordination Sequence:
#
# PCOD8008614 Si02
#       8
#     2   2   2   2   2   2   2   2
#     4  10  20  34  57  77 110 140 185 223 271 331
#     4  10  23  40  55  76 112 147 184 228 277 338
#     4  12  27  43  58  79 113 154 196 231 285 340
#     4   8  16  26  47  74 116 150 166 213 280 342
#     4  10  16  31  51  83 116 144 177 224 281 334
#     4  12  24  38  63  85 110 150 188 244 280 325
#     4  10  18  32  49  83 116 142 182 223 285 332
#     4  10  23  36  58  84 110 140 185 237 287 320
#
# _framework density 20.339953000000001
#
# number of rings (size 3 to 8) (size 9 to 14) (size 15 to 20)
#    0.750    1.000    1.250    4.125    3.500    0.500 
#    0.000    0.000    0.000    0.000    0.000    5.250 
#    0.000    0.000    0.000    0.000    0.000    0.000 
#
# Total GULP energy -198246.155978 kJ/mol
# GULP energy per Si atom -12390.384749 kJ/mol
# Density = 2.029366 g / cm^3
# Si number density = 20.339953 Si / 1000 Ang^3
#
#
#
# Elastic Constant Matrix: (Units=GPa)
#
#
# Indices 1 2 3 4 5 6 
#
# 1 65.6347 29.1940 5.0651 -0.0252 -19.5000 -13.9205
# 2 29.1940 79.3917 -7.7843 1.5340 -10.1707 -18.1978
# 3 5.0651 -7.7843 80.4846 -5.3249 -19.5330 -18.4185
# 4 -0.0252 1.5340 -5.3249 26.5302 4.3880 -3.8587
# 5 -19.5000 -10.1707 -19.5330 4.3880 26.3715 3.9545
# 6 -13.9205 -18.1978 -18.4185 -3.8587 3.9545 29.3563
#
#
#
# Elastic Compliance Matrix: (Units=1/GPa)
#
#
# Indices 1 2 3 4 5 6 
#
# 1 0.024078 -0.003848 0.004728 -0.000490 0.018487 0.009444
# 2 -0.003848 0.018632 0.006908 0.001018 0.007307 0.013209
# 3 0.004728 0.006908 0.021773 0.003462 0.019000 0.018081
# 4 -0.000490 0.001018 0.003462 0.040482 -0.005434 0.008624
# 5 0.018487 0.007307 0.019000 -0.005434 0.067066 0.015469
# 6 0.009444 0.013209 0.018081 0.008624 0.015469 0.057125
#
#
# Mechanical properties :
#
#
# Convention : Reuss Voigt Hill
#
# Bulk Modulus (GPa) = 12.49074 30.94007 21.71541
# Shear Modulus (GPa) = 20.81035 29.72069 25.26552
#
# Velocity S-wave (km/s) = 3.20211 3.82671 3.52826
# Velocity P-wave (km/s) = 4.45260 5.89656 5.22470
#
# Compressibility (1/GPa) = 0.08005932
#
# Stress axis : x y z
#
# Youngs Moduli (GPa) = 41.53204 53.67089 45.92805
#
# Poissons Ratio (x) = 0.20651 -0.21716
# Poissons Ratio (y) = 0.15980 -0.31726
# Poissons Ratio (z) = -0.19637 -0.37074
#
# Static dielectric constant tensor:
#      x y z
#    x 3.512720 -0.181860 -0.387630 
#    y -0.181860 3.832710 -0.115620 
#    z -0.387630 -0.115620 4.125040 
# 
# 
# High freq. dielectric constant tensor:
#      x y z
#    x 1.757000 -0.016530 -0.037230 
#    y -0.016530 1.810830 -0.004930 
#    z -0.037230 -0.004930 1.792010 
# 
# From -- ./inp_files/605901.got.cif
#   From: 2010.06.25/outbox.cif.g09.slc.cpg/sg2_303_cif.got.tgz:605901.got - 2010.06.27 13:26:56.
