data_PCOD8008919
_publ_section_title
;
Structure prediction by ZEFSAII (Michael W. Deem and Ramdas Pophale) SiO2 
 PCOD8008919
Probable space group: P -1
;
_chemical_formula_sum "Si O2"
_cell_formula_units_Z 16
_cell_length_a 19.889922
_cell_length_b 12.007302
_cell_length_c 9.526827
_cell_angle_alpha 47.116884
_cell_angle_beta 152.068619
_cell_angle_gamma 134.946887
_cell_volume 743.323769
_symmetry_space_group_name_H-M "P -1"
_symmetry_group_IT_number 2
_symmetry_cell_setting 'triclinic'
loop_
_space_group_symop_operation_xyz
x,y,z
-x,-y,-z
loop_
_atom_site_type_symbol
_atom_site_label
_atom_site_fract_x
_atom_site_fract_y
_atom_site_fract_z
Si Si1 0.875041 0.044464 0.455248
Si Si2 0.329728 0.968832 0.657354
Si Si3 0.221415 0.475393 0.055527
Si Si4 0.121566 0.141473 0.023075
Si Si5 0.881857 0.334319 0.067096
Si Si6 0.779853 0.507614 0.505261
Si Si7 0.646628 0.333822 0.136168
Si Si8 0.678387 0.695819 0.369280
O O1 0.779480 0.087029 0.366404
O O2 0.840374 0.143503 0.175632
O O3 0.823106 0.854554 0.498758
O O4 0.055871 0.116444 0.763874
O O5 0.290182 0.816843 0.610817
O O6 0.287596 0.114900 0.373415
O O7 0.500000 0.000000 0.000000
O O8 0.120042 0.313767 0.930059
O O9 0.320004 0.424027 0.398737
O O10 0.122666 0.569177 0.877551
O O11 0.328834 0.587498 0.040872
O O12 0.000000 0.000000 0.000000
O O13 0.048006 0.387273 0.265181
O O14 0.766675 0.359785 0.714441
O O15 0.728790 0.462204 0.292426
O O16 0.677299 0.609642 0.292085
O O17 0.471996 0.258567 0.920858
#
# Coordination Sequence:
#
# PCOD8008919 Si02
#       8
#     2   2   2   2   2   2   2   2
#     4  11  21  40  66  92 125 165 210 262 318 369
#     4  11  21  38  62  98 129 162 202 262 325 367
#     4  11  21  38  66  96 125 160 210 266 314 369
#     4  10  21  35  58  97 128 155 197 265 319 364
#     4  10  23  42  65  91 121 169 212 259 317 374
#     4  10  25  42  60  89 127 168 213 255 313 378
#     4  12  23  39  66  93 127 165 213 260 314 376
#     4  11  23  42  62  89 134 170 204 256 318 381
#
# _framework density 21.524940000000001
#
# number of rings (size 3 to 8) (size 9 to 14) (size 15 to 20)
#    0.000    1.250    5.000    1.500    3.500    2.500 
#    0.000    1.875    0.000    0.000    0.000    0.000 
#    0.000    0.000    0.000    0.000    0.000    0.000 
#
# Total GULP energy -198223.769854 kJ/mol
# GULP energy per Si atom -12388.985616 kJ/mol
# Density = 2.147595 g / cm^3
# Si number density = 21.524940 Si / 1000 Ang^3
#
#
#
# Elastic Constant Matrix: (Units=GPa)
#
#
# Indices 1 2 3 4 5 6 
#
# 1 93.2668 25.8406 22.8476 -13.4405 -3.5921 -10.4336
# 2 25.8406 68.2402 15.7737 -12.8167 -3.3221 -4.1172
# 3 22.8476 15.7737 82.6558 -7.9604 3.2104 3.9824
# 4 -13.4405 -12.8167 -7.9604 34.0914 2.0802 -2.3174
# 5 -3.5921 -3.3221 3.2104 2.0802 27.1954 -0.3378
# 6 -10.4336 -4.1172 3.9824 -2.3174 -0.3378 27.8839
#
#
#
# Elastic Compliance Matrix: (Units=1/GPa)
#
#
# Indices 1 2 3 4 5 6 
#
# 1 0.013589 -0.003350 -0.003083 0.003648 0.001537 0.005352
# 2 -0.003350 0.017518 -0.002115 0.004813 0.001604 0.002054
# 3 -0.003083 -0.002115 0.013717 0.001111 -0.002412 -0.003362
# 4 0.003648 0.004813 0.001111 0.033251 -0.001547 0.004662
# 5 0.001537 0.001604 -0.002412 -0.001547 0.037591 0.001483
# 6 0.005352 0.002054 -0.003362 0.004662 0.001483 0.039055
#
#
# Mechanical properties :
#
#
# Convention : Reuss Voigt Hill
#
# Bulk Modulus (GPa) = 36.06555 41.45406 38.75981
# Shear Modulus (GPa) = 27.61528 29.81421 28.71475
#
# Velocity S-wave (km/s) = 3.58571 3.72573 3.65639
# Velocity P-wave (km/s) = 5.82535 6.14886 5.98929
#
# Compressibility (1/GPa) = 0.02772729
#
# Stress axis : x y z
#
# Youngs Moduli (GPa) = 73.58847 57.08559 72.90325
#
# Poissons Ratio (x) = 0.19125 0.22477
# Poissons Ratio (y) = 0.24654 0.15417
# Poissons Ratio (z) = 0.22689 0.12072
#
# Static dielectric constant tensor:
#      x y z
#    x 3.904770 -0.100890 -0.112490 
#    y -0.100890 3.840460 -0.279430 
#    z -0.112490 -0.279430 4.821750 
# 
# 
# High freq. dielectric constant tensor:
#      x y z
#    x 1.834330 -0.008870 0.002810 
#    y -0.008870 1.841250 -0.016520 
#    z 0.002810 -0.016520 1.840780 
# 
# From -- ./inp_files/332995.got.cif
#   From: 2010.06.25/outbox.cif.g09.slc.cpg/sg2_167_cif.got.tgz:332995.got - 2010.06.27 13:26:56.
