data_PCOD8008102
_publ_section_title
;
Structure prediction by ZEFSAII (Michael W. Deem and Ramdas Pophale) SiO2 
 PCOD8008102
Probable space group: P -1
;
_chemical_formula_sum "Si O2"
_cell_formula_units_Z 16
_cell_length_a 11.584758
_cell_length_b 14.555823
_cell_length_c 11.696535
_cell_angle_alpha 117.952107
_cell_angle_beta 86.542212
_cell_angle_gamma 40.435707
_cell_volume 774.729794
_symmetry_space_group_name_H-M "P -1"
_symmetry_group_IT_number 2
_symmetry_cell_setting 'triclinic'
loop_
_space_group_symop_operation_xyz
x,y,z
-x,-y,-z
loop_
_atom_site_type_symbol
_atom_site_label
_atom_site_fract_x
_atom_site_fract_y
_atom_site_fract_z
Si Si1 0.099295 0.939283 0.288393
Si Si2 0.864605 0.738831 0.360180
Si Si3 0.555084 0.738819 0.906596
Si Si4 0.458062 0.191274 0.529723
Si Si5 0.140125 0.141591 0.340858
Si Si6 0.243801 0.781645 0.938652
Si Si7 0.762801 0.611442 0.583542
Si Si8 0.421613 0.682330 0.336593
O O1 0.337344 0.725913 0.236584
O O2 0.064572 0.089977 0.361359
O O3 0.154183 0.839181 0.107657
O O4 0.834971 0.103448 0.446244
O O5 0.766087 0.699258 0.335874
O O6 0.772923 0.856408 0.557637
O O7 0.172023 0.495458 0.181395
O O8 0.737265 0.912936 0.371868
O O9 0.443275 0.715158 0.875194
O O10 0.598353 0.762983 0.797779
O O11 0.367425 0.957208 0.125490
O O12 0.429679 0.222201 0.413403
O O13 0.435647 0.321610 0.666751
O O14 0.882011 0.398966 0.450513
O O15 0.386431 0.560082 0.766541
O O16 0.000000 0.000000 0.000000
O O17 0.000000 0.500000 0.500000
#
# Coordination Sequence:
#
# PCOD8008102 Si02
#       8
#     2   2   2   2   2   2   2   2
#     4  10  23  43  66  91 121 170 210 255 319 366
#     4  10  21  46  63  92 129 163 206 262 311 367
#     4  10  23  42  67  85 128 173 200 253 328 363
#     4  11  23  39  68  95 126 161 215 258 304 376
#     4  10  20  42  66  87 124 168 207 250 323 373
#     4  11  26  43  62  97 129 162 210 263 306 379
#     4  11  22  41  62  93 129 164 207 263 308 372
#     4  11  23  41  68  90 124 169 209 259 313 368
#
# _framework density 20.652362
#
# number of rings (size 3 to 8) (size 9 to 14) (size 15 to 20)
#    0.000    1.500    3.750    1.875    7.000    1.000 
#    0.000    5.000    0.000    0.000    0.000    0.000 
#    0.000    0.000    0.000    0.000    0.000    0.000 
#
# Total GULP energy -198438.120414 kJ/mol
# GULP energy per Si atom -12402.382526 kJ/mol
# Density = 2.060536 g / cm^3
# Si number density = 20.652362 Si / 1000 Ang^3
#
#
#
# Elastic Constant Matrix: (Units=GPa)
#
#
# Indices 1 2 3 4 5 6 
#
# 1 107.9135 25.0576 27.9077 5.2627 1.6095 -3.2890
# 2 25.0576 160.1798 38.2250 5.9633 -5.6591 -6.0877
# 3 27.9077 38.2250 94.2652 -9.8032 -3.9383 -4.1499
# 4 5.2627 5.9633 -9.8032 32.4799 5.2979 -0.1599
# 5 1.6095 -5.6591 -3.9383 5.2979 24.5573 1.3047
# 6 -3.2890 -6.0877 -4.1499 -0.1599 1.3047 32.6231
#
#
#
# Elastic Compliance Matrix: (Units=1/GPa)
#
#
# Indices 1 2 3 4 5 6 
#
# 1 0.010373 -0.000837 -0.002982 -0.002280 -0.000888 0.000535
# 2 -0.000837 0.007224 -0.002814 -0.002317 0.001724 0.000825
# 3 -0.002982 -0.002814 0.013203 0.004897 0.000562 0.000855
# 4 -0.002280 -0.002317 0.004897 0.034205 -0.007000 0.000408
# 5 -0.000888 0.001724 0.000562 -0.007000 0.042854 -0.001444
# 6 0.000535 0.000825 0.000855 0.000408 -0.001444 0.031030
#
#
# Mechanical properties :
#
#
# Convention : Reuss Voigt Hill
#
# Bulk Modulus (GPa) = 57.03550 60.52659 58.78105
# Shear Modulus (GPa) = 31.64567 36.00994 33.82781
#
# Velocity S-wave (km/s) = 3.91871 4.18020 4.05157
# Velocity P-wave (km/s) = 6.93916 7.25739 7.10006
#
# Compressibility (1/GPa) = 0.01753294
#
# Stress axis : x y z
#
# Youngs Moduli (GPa) = 96.40419 138.42599 75.74137
#
# Poissons Ratio (x) = 0.11589 0.22587
# Poissons Ratio (y) = 0.08071 0.21315
# Poissons Ratio (z) = 0.28749 0.38955
#
# Static dielectric constant tensor:
#      x y z
#    x 3.772170 0.087830 0.021840 
#    y 0.087830 4.066470 -0.003760 
#    z 0.021840 -0.003760 3.550150 
# 
# 
# High freq. dielectric constant tensor:
#      x y z
#    x 1.814800 0.005980 -0.000560 
#    y 0.005980 1.822150 0.001170 
#    z -0.000560 0.001170 1.789010 
# 
# From -- ./inp_files/434217.got.cif
#   From: 2010.06.25/outbox.cif.g09.slc.cpg/sg2_218_cif.got.tgz:434217.got - 2010.06.27 13:26:56.
