data_PCOD8008078
_publ_section_title
;
Structure prediction by ZEFSAII (Michael W. Deem and Ramdas Pophale) SiO2 
 PCOD8008078
Probable space group: P -1
;
_chemical_formula_sum "Si O2"
_cell_formula_units_Z 16
_cell_length_a 8.496386
_cell_length_b 23.180486
_cell_length_c 6.339503
_cell_angle_alpha 90.354121
_cell_angle_beta 58.701029
_cell_angle_gamma 128.477898
_cell_volume 735.410016
_symmetry_space_group_name_H-M "P -1"
_symmetry_group_IT_number 2
_symmetry_cell_setting 'triclinic'
loop_
_space_group_symop_operation_xyz
x,y,z
-x,-y,-z
loop_
_atom_site_type_symbol
_atom_site_label
_atom_site_fract_x
_atom_site_fract_y
_atom_site_fract_z
Si Si1 0.879554 0.380589 0.149171
Si Si2 0.778279 0.492938 0.734043
Si Si3 0.373350 0.748805 0.334232
Si Si4 0.218076 0.100559 0.678230
Si Si5 0.116988 0.375149 0.598202
Si Si6 0.785186 0.032146 0.309210
Si Si7 0.782469 0.815144 0.704839
Si Si8 0.440864 0.351153 0.245022
O O1 0.657682 0.304080 0.458176
O O2 0.729554 0.396748 0.128043
O O3 0.133193 0.460544 0.101982
O O4 0.975446 0.353919 0.917673
O O5 0.740560 0.534695 0.588775
O O6 0.000000 0.500000 0.500000
O O7 0.501744 0.396063 0.975498
O O8 0.543173 0.840728 0.313023
O O9 0.084393 0.698355 0.438664
O O10 0.532897 0.756107 0.033558
O O11 0.273780 0.151414 0.437072
O O12 0.223493 0.035268 0.597156
O O13 0.938536 0.059958 0.977238
O O14 0.334013 0.374685 0.483770
O O15 0.946402 0.108474 0.361573
O O16 0.500000 0.000000 0.500000
O O17 0.782645 0.750053 0.614078
#
# Coordination Sequence:
#
# PCOD8008078 Si02
#       8
#     2   2   2   2   2   2   2   2
#     4  11  22  45  62  92 130 170 211 263 318 369
#     4  11  23  44  67  88 131 173 211 266 319 370
#     4  10  20  42  65  90 133 166 212 261 319 370
#     4  10  21  43  66  94 129 168 207 257 318 383
#     4  11  24  40  62  95 126 173 214 266 314 368
#     4  10  24  42  67  99 126 164 210 260 316 380
#     4  11  22  44  67  92 132 170 208 261 322 376
#     4  12  23  41  64  95 127 167 218 262 315 377
#
# _framework density 21.756572999999999
#
# number of rings (size 3 to 8) (size 9 to 14) (size 15 to 20)
#    0.000    1.250    3.750    1.875    1.750    1.000 
#   13.500    0.000    0.000    0.000    0.000    0.000 
#    0.000    0.000    0.000    0.000    0.000    0.000 
#
# Total GULP energy -198322.639866 kJ/mol
# GULP energy per Si atom -12395.164992 kJ/mol
# Density = 2.170705 g / cm^3
# Si number density = 21.756573 Si / 1000 Ang^3
#
#
#
# Elastic Constant Matrix: (Units=GPa)
#
#
# Indices 1 2 3 4 5 6 
#
# 1 60.3137 42.3071 54.2896 10.9660 -11.9595 -24.7293
# 2 42.3071 100.0372 39.0743 -6.3203 3.2445 -18.0290
# 3 54.2896 39.0743 137.0213 1.8131 6.9925 -24.4127
# 4 10.9660 -6.3203 1.8131 35.0569 -7.2978 -1.3880
# 5 -11.9595 3.2445 6.9925 -7.2978 36.2742 2.2276
# 6 -24.7293 -18.0290 -24.4127 -1.3880 2.2276 39.0530
#
#
#
# Elastic Compliance Matrix: (Units=1/GPa)
#
#
# Indices 1 2 3 4 5 6 
#
# 1 0.053159 -0.015411 -0.014552 -0.014307 0.017854 0.015923
# 2 -0.015411 0.016391 0.001498 0.006530 -0.005479 -0.000710
# 3 -0.014552 0.001498 0.012965 0.002721 -0.006888 0.000071
# 4 -0.014307 0.006530 0.002721 0.034169 0.001245 -0.003201
# 5 0.017854 -0.005479 -0.006888 0.001245 0.035369 0.002497
# 6 0.015923 -0.000710 0.000071 -0.003201 0.002497 0.035149
#
#
# Mechanical properties :
#
#
# Convention : Reuss Voigt Hill
#
# Bulk Modulus (GPa) = 39.08542 63.19044 51.13793
# Shear Modulus (GPa) = 19.78942 32.85689 26.32316
#
# Velocity S-wave (km/s) = 3.01920 3.89035 3.48213
# Velocity P-wave (km/s) = 5.49163 7.02048 6.30258
#
# Compressibility (1/GPa) = 0.02558499
#
# Stress axis : x y z
#
# Youngs Moduli (GPa) = 18.81151 61.01055 77.13178
#
# Poissons Ratio (x) = 0.94022 1.12245
# Poissons Ratio (y) = 0.28990 -0.11558
# Poissons Ratio (z) = 0.27375 -0.09142
#
# Static dielectric constant tensor:
#      x y z
#    x 3.654390 0.037820 0.071350 
#    y 0.037820 4.235300 -0.107410 
#    z 0.071350 -0.107410 4.005700 
# 
# 
# High freq. dielectric constant tensor:
#      x y z
#    x 1.832820 -0.001950 0.004670 
#    y -0.001950 1.865750 -0.004740 
#    z 0.004670 -0.004740 1.862480 
# 
# From -- ./inp_files/55494.got.cif
#   From: 2010.06.25/outbox.cif.g09.slc.cpg/sg2_28_cif.got.tgz:55494.got - 2010.06.27 13:26:56.
