data_PCOD8008820
_publ_section_title
;
Structure prediction by ZEFSAII (Michael W. Deem and Ramdas Pophale) SiO2 
 PCOD8008820
Probable space group: P -1
;
_chemical_formula_sum "Si O2"
_cell_formula_units_Z 16
_cell_length_a 13.592350
_cell_length_b 13.751840
_cell_length_c 12.525794
_cell_angle_alpha 158.519497
_cell_angle_beta 90.307328
_cell_angle_gamma 96.051558
_cell_volume 817.438684
_symmetry_space_group_name_H-M "P -1"
_symmetry_group_IT_number 2
_symmetry_cell_setting 'triclinic'
loop_
_space_group_symop_operation_xyz
x,y,z
-x,-y,-z
loop_
_atom_site_type_symbol
_atom_site_label
_atom_site_fract_x
_atom_site_fract_y
_atom_site_fract_z
Si Si1 0.086126 0.885175 0.430146
Si Si2 0.690515 0.777360 0.226419
Si Si3 0.263072 0.550487 0.771225
Si Si4 0.936076 0.459936 0.124101
Si Si5 0.880296 0.707993 0.659861
Si Si6 0.566967 0.143161 0.546292
Si Si7 0.011731 0.716695 0.847656
Si Si8 0.365827 0.147818 0.459038
O O1 0.039141 0.715081 0.362538
O O2 0.189122 0.133522 0.712950
O O3 0.111111 0.687952 0.137710
O O4 0.000000 0.000000 0.500000
O O5 0.678039 0.882211 0.452467
O O6 0.634418 0.937398 0.307082
O O7 0.643180 0.446670 0.883717
O O8 0.155664 0.435714 0.719244
O O9 0.234489 0.464402 0.558598
O O10 0.349299 0.419381 0.681290
O O11 0.304382 0.882020 0.118226
O O12 0.976215 0.256457 0.996131
O O13 0.897920 0.701377 0.782597
O O14 0.964260 0.571670 0.472442
O O15 0.904142 0.023324 0.941173
O O16 0.487802 0.173569 0.484688
O O17 0.500000 0.000000 0.500000
#
# Coordination Sequence:
#
# PCOD8008820 Si02
#       8
#     2   2   2   2   2   2   2   2
#     4  11  24  34  51  72 103 143 183 212 235 288
#     4  11  21  35  49  68 100 135 172 210 246 292
#     4  11  19  30  51  75 102 130 164 203 250 298
#     4  10  22  34  48  73 104 143 177 205 246 289
#     4   9  18  30  49  73  98 131 167 203 254 306
#     4  10  21  35  50  70  94 132 171 209 257 304
#     4   9  18  33  48  68 100 136 168 204 247 300
#     4  11  19  31  50  72  97 128 164 205 256 300
#
# _framework density 19.573332000000001
#
# number of rings (size 3 to 8) (size 9 to 14) (size 15 to 20)
#    0.000    1.750    1.250    6.000    7.000    0.000 
#    0.000    0.000    0.000    0.000    0.000    0.000 
#    0.000    6.000    0.000    0.000    0.000    0.000 
#
# Total GULP energy -198247.996819 kJ/mol
# GULP energy per Si atom -12390.499801 kJ/mol
# Density = 1.952878 g / cm^3
# Si number density = 19.573332 Si / 1000 Ang^3
#
#
#
# Elastic Constant Matrix: (Units=GPa)
#
#
# Indices 1 2 3 4 5 6 
#
# 1 87.6605 23.3699 22.1203 13.1028 12.6724 -21.6564
# 2 23.3699 63.5431 13.2125 9.4929 5.7536 -25.5479
# 3 22.1203 13.2125 105.5229 14.1827 14.6952 -0.6587
# 4 13.1028 9.4929 14.1827 26.7578 -6.9598 0.8273
# 5 12.6724 5.7536 14.6952 -6.9598 35.3741 3.6754
# 6 -21.6564 -25.5479 -0.6587 0.8273 3.6754 26.6439
#
#
#
# Elastic Compliance Matrix: (Units=1/GPa)
#
#
# Indices 1 2 3 4 5 6 
#
# 1 0.020641 0.006538 -0.000833 -0.016410 -0.013986 0.025464
# 2 0.006538 0.034620 -0.000402 -0.020761 -0.016190 0.041379
# 3 -0.000833 -0.000402 0.011458 -0.007040 -0.005806 0.000240
# 4 -0.016410 -0.020761 -0.007040 0.065302 0.029129 -0.039466
# 5 -0.013986 -0.016190 -0.005806 0.029129 0.047642 -0.034512
# 6 0.025464 0.041379 0.000240 -0.039466 -0.034512 0.103898
#
#
# Mechanical properties :
#
#
# Convention : Reuss Voigt Hill
#
# Bulk Modulus (GPa) = 12.93245 41.57022 27.25134
# Shear Modulus (GPa) = 16.73751 30.95674 23.84713
#
# Velocity S-wave (km/s) = 2.92741 3.98122 3.49427
# Velocity P-wave (km/s) = 4.24828 6.51289 5.49844
#
# Compressibility (1/GPa) = 0.07732485
#
# Stress axis : x y z
#
# Youngs Moduli (GPa) = 48.44838 28.88466 87.27607
#
# Poissons Ratio (x) = -0.18885 0.07271
# Poissons Ratio (y) = -0.31676 0.03508
# Poissons Ratio (z) = 0.04036 0.01161
#
# Static dielectric constant tensor:
#      x y z
#    x 3.713170 -0.576170 0.105370 
#    y -0.576170 3.898230 -0.185150 
#    z 0.105370 -0.185150 3.939100 
# 
# 
# High freq. dielectric constant tensor:
#      x y z
#    x 1.734490 -0.056490 -0.002080 
#    y -0.056490 1.722610 0.005300 
#    z -0.002080 0.005300 1.779410 
# 
# From -- ./inp_files/482218.got.cif
#   From: 2010.06.25/outbox.cif.g09.slc.cpg/sg2_242_cif.got.tgz:482218.got - 2010.06.27 13:26:56.
