data_PCOD8008350
_publ_section_title
;
Structure prediction by ZEFSAII (Michael W. Deem and Ramdas Pophale) SiO2 
 PCOD8008350
Probable space group: P -1
;
_chemical_formula_sum "Si O2"
_cell_formula_units_Z 16
_cell_length_a 11.966029
_cell_length_b 17.758964
_cell_length_c 9.305275
_cell_angle_alpha 51.300329
_cell_angle_beta 98.864548
_cell_angle_gamma 139.651190
_cell_volume 769.327498
_symmetry_space_group_name_H-M "P -1"
_symmetry_group_IT_number 2
_symmetry_cell_setting 'triclinic'
loop_
_space_group_symop_operation_xyz
x,y,z
-x,-y,-z
loop_
_atom_site_type_symbol
_atom_site_label
_atom_site_fract_x
_atom_site_fract_y
_atom_site_fract_z
Si Si1 0.552163 0.821427 0.439714
Si Si2 0.238889 0.195003 0.650397
Si Si3 0.859043 0.491170 0.473834
Si Si4 0.449422 0.509221 0.130994
Si Si5 0.823135 0.214060 0.040713
Si Si6 0.339158 0.696919 0.062917
Si Si7 0.727917 0.844186 0.979306
Si Si8 0.784545 0.486176 0.019602
O O1 0.744450 0.890558 0.338667
O O2 0.369361 0.700897 0.424416
O O3 0.663637 0.005837 0.278430
O O4 0.432591 0.691370 0.711912
O O5 0.400768 0.392320 0.377738
O O6 0.325159 0.240256 0.774689
O O7 0.990904 0.056262 0.763946
O O8 0.000000 0.500000 0.500000
O O9 0.792483 0.469580 0.649486
O O10 0.015435 0.683396 0.190059
O O11 0.241893 0.429369 0.162892
O O12 0.500000 0.500000 0.000000
O O13 0.660172 0.722160 0.983310
O O14 0.669814 0.197493 0.017019
O O15 0.981491 0.344600 0.053949
O O16 0.595980 0.848530 0.927788
O O17 0.214963 0.594749 0.007549
#
# Coordination Sequence:
#
# PCOD8008350 Si02
#       8
#     2   2   2   2   2   2   2   2
#     4  11  22  40  63  91 128 161 205 254 302 375
#     4  11  23  43  63  91 128 161 208 256 305 369
#     4   9  20  40  62  88 121 159 207 251 302 359
#     4  11  23  41  66  88 124 166 205 254 308 363
#     4  10  23  40  67  91 123 169 202 248 320 361
#     4  10  20  43  63  91 130 156 208 260 298 375
#     4  10  24  42  63  93 124 163 204 259 308 359
#     4  10  23  41  61  93 122 164 207 253 312 361
#
# _framework density 20.797384999999998
#
# number of rings (size 3 to 8) (size 9 to 14) (size 15 to 20)
#    0.000    1.750    2.500    0.750    1.750    5.000 
#    9.000    6.250    0.000    0.000    0.000    0.000 
#    0.000    0.000    0.000    0.000    0.000    0.000 
#
# Total GULP energy -198340.423017 kJ/mol
# GULP energy per Si atom -12396.276439 kJ/mol
# Density = 2.075005 g / cm^3
# Si number density = 20.797385 Si / 1000 Ang^3
#
#
#
# Elastic Constant Matrix: (Units=GPa)
#
#
# Indices 1 2 3 4 5 6 
#
# 1 104.1503 33.5931 26.6789 -8.7732 -2.1711 -0.1142
# 2 33.5931 90.7513 40.5482 12.1904 -8.3350 1.2351
# 3 26.6789 40.5482 66.2635 1.5771 -1.0753 -3.4685
# 4 -8.7732 12.1904 1.5771 31.8175 -4.3147 -5.4349
# 5 -2.1711 -8.3350 -1.0753 -4.3147 30.8294 2.5813
# 6 -0.1142 1.2351 -3.4685 -5.4349 2.5813 36.0627
#
#
#
# Elastic Compliance Matrix: (Units=1/GPa)
#
#
# Indices 1 2 3 4 5 6 
#
# 1 0.011956 -0.003997 -0.002448 0.005112 0.000334 0.000686
# 2 -0.003997 0.018055 -0.009355 -0.007586 0.003456 -0.002921
# 3 -0.002448 -0.009355 0.021872 0.002058 -0.001890 0.002862
# 4 0.005112 -0.007586 0.002058 0.037058 0.003078 0.005838
# 5 0.000334 0.003456 -0.001890 0.003078 0.033949 -0.002265
# 6 0.000686 -0.002921 0.002862 0.005838 -0.002265 0.029149
#
#
# Mechanical properties :
#
#
# Convention : Reuss Voigt Hill
#
# Bulk Modulus (GPa) = 49.30536 51.42284 50.36410
# Shear Modulus (GPa) = 26.26038 30.43159 28.34598
#
# Velocity S-wave (km/s) = 3.55727 3.82938 3.69583
# Velocity P-wave (km/s) = 6.37426 6.65819 6.51777
#
# Compressibility (1/GPa) = 0.02028177
#
# Stress axis : x y z
#
# Youngs Moduli (GPa) = 83.63812 55.38637 45.72121
#
# Poissons Ratio (x) = 0.22140 0.11193
# Poissons Ratio (y) = 0.33433 0.42773
# Poissons Ratio (z) = 0.20476 0.51815
#
# Static dielectric constant tensor:
#      x y z
#    x 3.886550 0.036060 -0.201750 
#    y 0.036060 3.761100 0.402260 
#    z -0.201750 0.402260 3.976030 
# 
# 
# High freq. dielectric constant tensor:
#      x y z
#    x 1.820770 0.011190 -0.006790 
#    y 0.011190 1.814910 0.025330 
#    z -0.006790 0.025330 1.806460 
# 
# From -- ./inp_files/85357.got.cif
#   From: 2010.06.25/outbox.cif.g09.slc.cpg/sg2_43_cif.got.tgz:85357.got - 2010.06.27 13:26:56.
