data_PCOD8008198
_publ_section_title
;
Structure prediction by ZEFSAII (Michael W. Deem and Ramdas Pophale) SiO2 
 PCOD8008198
Probable space group: P -1
;
_chemical_formula_sum "Si O2"
_cell_formula_units_Z 16
_cell_length_a 9.238074
_cell_length_b 12.978882
_cell_length_c 8.054697
_cell_angle_alpha 111.243505
_cell_angle_beta 104.486109
_cell_angle_gamma 112.373086
_cell_volume 743.231748
_symmetry_space_group_name_H-M "P -1"
_symmetry_group_IT_number 2
_symmetry_cell_setting 'triclinic'
loop_
_space_group_symop_operation_xyz
x,y,z
-x,-y,-z
loop_
_atom_site_type_symbol
_atom_site_label
_atom_site_fract_x
_atom_site_fract_y
_atom_site_fract_z
Si Si1 0.179447 0.275527 0.732842
Si Si2 0.257554 0.019549 0.080928
Si Si3 0.587855 0.789496 0.046052
Si Si4 0.407749 0.892320 0.267990
Si Si5 0.586008 0.481017 0.264043
Si Si6 0.911889 0.863128 0.708241
Si Si7 0.764660 0.609399 0.707852
Si Si8 0.034371 0.642684 0.065289
O O1 0.238480 0.214224 0.858859
O O2 0.346875 0.402106 0.777660
O O3 0.088592 0.166769 0.502262
O O4 0.047984 0.316734 0.787235
O O5 0.164311 0.043661 0.225560
O O6 0.358431 0.952750 0.137782
O O7 0.391109 0.147838 0.092131
O O8 0.112388 0.926001 0.853295
O O9 0.551779 0.862581 0.224210
O O10 0.423308 0.642206 0.897569
O O11 0.238930 0.755208 0.194564
O O12 0.500000 0.000000 0.500000
O O13 0.710729 0.512457 0.478989
O O14 0.391384 0.447719 0.236987
O O15 0.789749 0.740343 0.716605
O O16 0.943385 0.636080 0.859215
O O17 0.000000 0.500000 0.000000
#
# Coordination Sequence:
#
# PCOD8008198 Si02
#       8
#     2   2   2   2   2   2   2   2
#     4  11  24  41  70  99 134 173 231 273 336 406
#     4  11  23  43  67  93 135 171 227 276 335 395
#     4  12  24  43  68  99 132 180 225 274 336 404
#     4  12  29  47  66 100 144 178 224 284 344 398
#     4  10  21  39  69 100 130 169 228 278 331 392
#     4  10  21  41  69  98 125 177 222 279 324 402
#     4  10  20  42  67  97 131 173 221 277 333 401
#     4  12  26  46  68 100 140 179 224 281 339 402
#
# _framework density 21.527604
#
# number of rings (size 3 to 8) (size 9 to 14) (size 15 to 20)
#    0.000    1.000    3.750    2.250    5.250    1.500 
#    2.250    1.875    0.000    0.000    0.000    0.000 
#    0.000    0.000    0.000    0.000    0.000    0.000 
#
# Total GULP energy -198411.616436 kJ/mol
# GULP energy per Si atom -12400.726027 kJ/mol
# Density = 2.147861 g / cm^3
# Si number density = 21.527604 Si / 1000 Ang^3
#
#
#
# Elastic Constant Matrix: (Units=GPa)
#
#
# Indices 1 2 3 4 5 6 
#
# 1 88.8547 25.3670 29.8957 4.9317 -11.2738 -7.9258
# 2 25.3670 95.8014 28.0669 2.0325 -0.9421 -7.4960
# 3 29.8957 28.0669 123.6432 21.7769 -9.9556 -12.8636
# 4 4.9317 2.0325 21.7769 30.4118 1.1846 -2.1392
# 5 -11.2738 -0.9421 -9.9556 1.1846 35.9780 7.8191
# 6 -7.9258 -7.4960 -12.8636 -2.1392 7.8191 23.9650
#
#
#
# Elastic Compliance Matrix: (Units=1/GPa)
#
#
# Indices 1 2 3 4 5 6 
#
# 1 0.013307 -0.002762 -0.002105 -0.000501 0.003248 0.001302
# 2 -0.002762 0.011948 -0.002195 0.001452 -0.001715 0.002335
# 3 -0.002105 -0.002195 0.010827 -0.007110 0.001817 0.003201
# 4 -0.000501 0.001452 -0.007110 0.038170 -0.003570 0.001044
# 5 0.003248 -0.001715 0.001817 -0.003570 0.031352 -0.009035
# 6 0.001302 0.002335 0.003201 0.001044 -0.009035 0.047647
#
#
# Mechanical properties :
#
#
# Convention : Reuss Voigt Hill
#
# Bulk Modulus (GPa) = 45.54531 52.77315 49.15923
# Shear Modulus (GPa) = 28.62118 33.06895 30.84506
#
# Velocity S-wave (km/s) = 3.65020 3.92359 3.78936
# Velocity P-wave (km/s) = 6.24243 6.71516 6.48311
#
# Compressibility (1/GPa) = 0.02195616
#
# Stress axis : x y z
#
# Youngs Moduli (GPa) = 75.14599 83.69720 92.36344
#
# Poissons Ratio (x) = 0.23120 0.19445
# Poissons Ratio (y) = 0.20758 0.20276
# Poissons Ratio (z) = 0.15820 0.18374
#
# Static dielectric constant tensor:
#      x y z
#    x 3.630780 -0.000760 -0.068520 
#    y -0.000760 3.957190 0.200780 
#    z -0.068520 0.200780 4.163460 
# 
# 
# High freq. dielectric constant tensor:
#      x y z
#    x 1.827400 0.004470 -0.007460 
#    y 0.004470 1.851500 0.009200 
#    z -0.007460 0.009200 1.861830 
# 
# From -- ./inp_files/189466.got.cif
#   From: 2010.06.25/outbox.cif.g09.slc.cpg/sg2_95_cif.got.tgz:189466.got - 2010.06.27 13:26:56.
