data_PCOD8008507
_publ_section_title
;
Structure prediction by ZEFSAII (Michael W. Deem and Ramdas Pophale) SiO2 
 PCOD8008507
Probable space group: P -1
;
_chemical_formula_sum "Si O2"
_cell_formula_units_Z 14
_cell_length_a 8.508560
_cell_length_b 9.734930
_cell_length_c 14.185857
_cell_angle_alpha 62.552921
_cell_angle_beta 37.413863
_cell_angle_gamma 53.779345
_cell_volume 575.855000
_symmetry_space_group_name_H-M "P -1"
_symmetry_group_IT_number 2
_symmetry_cell_setting 'triclinic'
loop_
_space_group_symop_operation_xyz
x,y,z
-x,-y,-z
loop_
_atom_site_type_symbol
_atom_site_label
_atom_site_fract_x
_atom_site_fract_y
_atom_site_fract_z
Si Si1 0.734834 0.667106 0.543175
Si Si2 0.547575 0.465751 0.144426
Si Si3 0.850672 0.264652 0.886951
Si Si4 0.411658 0.289049 0.804459
Si Si5 0.567321 0.755727 0.396210
Si Si6 0.231920 0.034133 0.051556
Si Si7 0.050906 0.046449 0.625505
O O1 0.503278 0.681358 0.728981
O O2 0.623963 0.641605 0.500126
O O3 0.000000 0.500000 0.500000
O O4 0.790231 0.834773 0.462962
O O5 0.259372 0.611900 0.191401
O O6 0.674563 0.557035 0.129803
O O7 0.767865 0.379104 0.983712
O O8 0.191155 0.170373 0.746816
O O9 0.715424 0.125863 0.992648
O O10 0.390881 0.353940 0.685412
O O11 0.192257 0.199121 0.955619
O O12 0.737265 0.151554 0.702409
O O13 0.251099 0.907596 0.499636
O O14 0.966502 0.054717 0.239050
O O15 0.500000 0.000000 0.000000
#
# Coordination Sequence:
#
# PCOD8008507 Si02
#       7
#     2   2   2   2   2   2   2
#     4  12  22  45  70  98 141 186 231 291 348 421
#     4  11  24  45  71  98 144 184 233 288 354 414
#     4  11  23  45  72 104 131 194 241 275 349 426
#     4  11  24  45  70 106 143 182 231 298 347 411
#     4  12  26  42  72 107 140 181 243 286 350 419
#     4  10  20  43  72 100 138 182 232 288 343 408
#     4  11  23  46  70 104 140 185 233 289 350 415
#
# _framework density 24.311678000000001
#
# number of rings (size 3 to 8) (size 9 to 14) (size 15 to 20)
#    0.000    0.857    7.143    0.857    2.000    2.857 
#    0.000    1.429    0.000    0.000    0.000    0.000 
#    0.000    0.000    0.000    0.000    0.000    0.000 
#
# Total GULP energy -173495.137601 kJ/mol
# GULP energy per Si atom -12392.509829 kJ/mol
# Density = 2.425634 g / cm^3
# Si number density = 24.311678 Si / 1000 Ang^3
#
#
#
# Elastic Constant Matrix: (Units=GPa)
#
#
# Indices 1 2 3 4 5 6 
#
# 1 92.6871 30.7144 41.5369 -3.3863 31.3407 20.5576
# 2 30.7144 89.9204 49.2393 -1.9716 3.7888 34.1159
# 3 41.5369 49.2393 142.9482 -18.2967 16.8242 17.4731
# 4 -3.3863 -1.9716 -18.2967 34.2717 2.2525 8.1335
# 5 31.3407 3.7888 16.8242 2.2525 49.9666 8.1864
# 6 20.5576 34.1159 17.4731 8.1335 8.1864 36.7323
#
#
#
# Elastic Compliance Matrix: (Units=1/GPa)
#
#
# Indices 1 2 3 4 5 6 
#
# 1 0.016617 -0.002340 -0.002162 0.002020 -0.008859 -0.004570
# 2 -0.002340 0.020897 -0.004581 0.002375 0.004165 -0.017374
# 3 -0.002162 -0.004581 0.010072 0.005029 -0.001912 -0.000014
# 4 0.002020 0.002375 0.005029 0.035456 -0.002609 -0.012998
# 5 -0.008859 0.004165 -0.001912 -0.002609 0.026563 -0.003343
# 6 -0.004570 -0.017374 -0.000014 -0.012998 -0.003343 0.049548
#
#
# Mechanical properties :
#
#
# Convention : Reuss Voigt Hill
#
# Bulk Modulus (GPa) = 33.99124 63.17076 48.58100
# Shear Modulus (GPa) = 26.72005 37.79845 32.25925
#
# Velocity S-wave (km/s) = 3.31881 3.94730 3.64662
# Velocity P-wave (km/s) = 5.35703 6.84215 6.14462
#
# Compressibility (1/GPa) = 0.02941935
#
# Stress axis : x y z
#
# Youngs Moduli (GPa) = 60.18080 47.85440 99.28361
#
# Poissons Ratio (x) = 0.11198 0.21469
# Poissons Ratio (y) = 0.14083 0.45478
# Poissons Ratio (z) = 0.13014 0.21920
#
# Static dielectric constant tensor:
#      x y z
#    x 4.581800 -0.147610 0.375920 
#    y -0.147610 4.364920 -0.429340 
#    z 0.375920 -0.429340 5.261170 
# 
# 
# High freq. dielectric constant tensor:
#      x y z
#    x 1.977260 0.001950 0.008230 
#    y 0.001950 1.934500 0.004590 
#    z 0.008230 0.004590 1.982420 
# 
# From -- ./inp_files/494560.got.cif
#   From: 2010.06.25/outbox.cif.g09.slc.cpg/sg2_248_cif.got.tgz:494560.got - 2010.06.27 13:26:56.
