data_PCOD8008165
_publ_section_title
;
Structure prediction by ZEFSAII (Michael W. Deem and Ramdas Pophale) SiO2 
 PCOD8008165
Probable space group: P -1
;
_chemical_formula_sum "Si O2"
_cell_formula_units_Z 16
_cell_length_a 10.332636
_cell_length_b 13.620045
_cell_length_c 12.173547
_cell_angle_alpha 144.993768
_cell_angle_beta 132.520754
_cell_angle_gamma 66.921470
_cell_volume 669.364896
_symmetry_space_group_name_H-M "P -1"
_symmetry_group_IT_number 2
_symmetry_cell_setting 'triclinic'
loop_
_space_group_symop_operation_xyz
x,y,z
-x,-y,-z
loop_
_atom_site_type_symbol
_atom_site_label
_atom_site_fract_x
_atom_site_fract_y
_atom_site_fract_z
Si Si1 0.778583 0.658557 0.439266
Si Si2 0.480589 0.795480 0.328409
Si Si3 0.191334 0.867657 0.888666
Si Si4 0.173926 0.184460 0.802039
Si Si5 0.271699 0.608239 0.518373
Si Si6 0.307732 0.243810 0.176891
Si Si7 0.450284 0.740614 0.023111
Si Si8 0.873539 0.545238 0.152081
O O1 0.644462 0.776374 0.481672
O O2 0.830575 0.633946 0.319938
O O3 0.975275 0.773563 0.718905
O O4 0.683465 0.469200 0.279694
O O5 0.516014 0.714371 0.158357
O O6 0.500000 0.000000 0.500000
O O7 0.269984 0.670532 0.137843
O O8 0.253770 0.733590 0.722438
O O9 0.330996 0.876736 0.079821
O O10 0.215844 0.061184 0.028380
O O11 0.370599 0.165838 0.866651
O O12 0.157982 0.355800 0.884680
O O13 0.188771 0.217019 0.970750
O O14 0.000000 0.000000 0.500000
O O15 0.281442 0.412426 0.381825
O O16 0.470143 0.720584 0.673968
O O17 0.092022 0.565165 0.294560
#
# Coordination Sequence:
#
# PCOD8008165 Si02
#       8
#     2   2   2   2   2   2   2   2
#     4  10  20  42  67  88 121 166 209 262 324 377
#     4  11  23  41  64  96 129 161 209 271 323 380
#     4  11  23  42  69  90 126 175 214 261 324 379
#     4  12  23  38  68  96 125 172 219 260 320 392
#     4  10  23  42  64  92 131 169 214 267 316 373
#     4  11  25  43  63  97 132 170 220 264 314 384
#     4  11  22  42  63  92 122 167 216 255 321 386
#     4  10  21  41  66  91 123 167 212 261 326 375
#
# _framework density 23.903255000000001
#
# number of rings (size 3 to 8) (size 9 to 14) (size 15 to 20)
#    0.000    1.250    3.750    3.000    3.500    0.500 
#    6.750    0.625    0.000    0.000    0.000    0.000 
#    0.000    0.000    0.000    0.000    0.000    0.000 
#
# Total GULP energy -198324.532522 kJ/mol
# GULP energy per Si atom -12395.283283 kJ/mol
# Density = 2.384885 g / cm^3
# Si number density = 23.903255 Si / 1000 Ang^3
#
#
#
# Elastic Constant Matrix: (Units=GPa)
#
#
# Indices 1 2 3 4 5 6 
#
# 1 36.4130 3.8667 27.4922 -1.2259 15.8436 -8.5280
# 2 3.8667 120.9526 33.4156 5.7857 19.1561 -10.0566
# 3 27.4922 33.4156 110.3618 18.6654 42.7289 -12.1557
# 4 -1.2259 5.7857 18.6654 50.4955 -7.1592 11.4612
# 5 15.8436 19.1561 42.7289 -7.1592 36.5597 -3.9045
# 6 -8.5280 -10.0566 -12.1557 11.4612 -3.9045 34.7532
#
#
#
# Elastic Compliance Matrix: (Units=1/GPa)
#
#
# Indices 1 2 3 4 5 6 
#
# 1 0.037403 0.002570 -0.004687 -0.000939 -0.011481 0.007302
# 2 0.002570 0.009626 -0.000684 -0.002317 -0.005456 0.003328
# 3 -0.004687 -0.000684 0.025690 -0.015914 -0.029733 0.009545
# 4 -0.000939 -0.002317 -0.015914 0.032767 0.025093 -0.014454
# 5 -0.011481 -0.005456 -0.029733 0.025093 0.073266 -0.014840
# 6 0.007302 0.003328 0.009545 -0.014454 -0.014840 0.037967
#
#
# Mechanical properties :
#
#
# Convention : Reuss Voigt Hill
#
# Bulk Modulus (GPa) = 14.89942 44.14184 29.52063
# Shear Modulus (GPa) = 20.43363 37.89187 29.16275
#
# Velocity S-wave (km/s) = 2.92695 3.98580 3.49669
# Velocity P-wave (km/s) = 4.20351 6.29993 5.35530
#
# Compressibility (1/GPa) = 0.06711672
#
# Stress axis : x y z
#
# Youngs Moduli (GPa) = 26.73591 103.88350 38.92527
#
# Poissons Ratio (x) = -0.26694 0.18245
# Poissons Ratio (y) = -0.06870 0.02662
# Poissons Ratio (z) = 0.12531 0.07103
#
# Static dielectric constant tensor:
#      x y z
#    x 4.132450 -0.095730 0.145510 
#    y -0.095730 4.463580 -0.279180 
#    z 0.145510 -0.279180 4.598280 
# 
# 
# High freq. dielectric constant tensor:
#      x y z
#    x 1.925430 -0.007950 0.016690 
#    y -0.007950 1.966000 -0.007810 
#    z 0.016690 -0.007810 1.954810 
# 
# From -- ./inp_files/244051.got.cif
#   From: 2010.06.25/outbox.cif.g09.slc.cpg/sg2_123_cif.got.tgz:244051.got - 2010.06.27 13:26:56.
