data_PCOD8008437
_publ_section_title
;
Structure prediction by ZEFSAII (Michael W. Deem and Ramdas Pophale) SiO2 
 PCOD8008437
Probable space group: P -1
;
_chemical_formula_sum "Si O2"
_cell_formula_units_Z 16
_cell_length_a 14.894068
_cell_length_b 23.880984
_cell_length_c 6.476738
_cell_angle_alpha 95.195559
_cell_angle_beta 84.879036
_cell_angle_gamma 162.014696
_cell_volume 708.354693
_symmetry_space_group_name_H-M "P -1"
_symmetry_group_IT_number 2
_symmetry_cell_setting 'triclinic'
loop_
_space_group_symop_operation_xyz
x,y,z
-x,-y,-z
loop_
_atom_site_type_symbol
_atom_site_label
_atom_site_fract_x
_atom_site_fract_y
_atom_site_fract_z
Si Si1 0.792035 0.367989 0.689799
Si Si2 0.359981 0.541110 0.788304
Si Si3 0.965989 0.390843 0.017141
Si Si4 0.130877 0.074456 0.221480
Si Si5 0.937626 0.234470 0.476617
Si Si6 0.531631 0.060408 0.204645
Si Si7 0.180180 0.019851 0.507023
Si Si8 0.730595 0.668460 0.646444
O O1 0.471844 0.167892 0.597353
O O2 0.000000 0.500000 0.500000
O O3 0.876078 0.362660 0.803383
O O4 0.819374 0.439120 0.853239
O O5 0.129454 0.427137 0.966794
O O6 0.558854 0.711772 0.751411
O O7 0.563727 0.607390 0.836472
O O8 0.202850 0.428958 0.572847
O O9 0.672681 0.203001 0.145063
O O10 0.194549 0.047390 0.271459
O O11 0.881677 0.957149 0.365119
O O12 0.000000 0.000000 0.000000
O O13 0.739772 0.158362 0.365858
O O14 0.048940 0.250644 0.302640
O O15 0.772862 0.109494 0.670244
O O16 0.500000 0.000000 0.000000
O O17 0.914738 0.820064 0.518360
O O18 0.500000 0.500000 0.500000
#
# Coordination Sequence:
#
# PCOD8008437 Si02
#       8
#     2   2   2   2   2   2   2   2
#     4  11  26  42  67 100 135 177 216 281 339 402
#     4  10  20  43  68  89 135 172 219 275 329 398
#     4  11  25  42  65 103 135 169 231 273 334 404
#     4  10  21  40  64  92 122 166 216 265 330 389
#     4  10  23  42  67  95 135 180 222 272 336 391
#     4  11  24  41  67  98 133 180 221 277 331 399
#     4  10  22  39  65  89 126 168 214 266 327 393
#     4   9  21  42  66  94 126 172 223 269 324 389
#
# _framework density 22.587554000000001
#
# number of rings (size 3 to 8) (size 9 to 14) (size 15 to 20)
#    0.000    1.750    1.250    1.500    7.000    1.000 
#    4.500    0.625    0.000    0.000    0.000    0.000 
#    0.000    0.000    0.000    0.000    0.000    0.000 
#
# Total GULP energy -198219.313340 kJ/mol
# GULP energy per Si atom -12388.707084 kJ/mol
# Density = 2.253614 g / cm^3
# Si number density = 22.587554 Si / 1000 Ang^3
#
#
#
# Elastic Constant Matrix: (Units=GPa)
#
#
# Indices 1 2 3 4 5 6 
#
# 1 110.7472 34.4857 33.8876 0.0712 -6.9753 6.6321
# 2 34.4857 139.1152 40.3462 1.3376 13.5595 -7.1845
# 3 33.8876 40.3462 95.7075 0.6885 14.5308 3.4025
# 4 0.0712 1.3376 0.6885 27.1634 -1.7315 0.6289
# 5 -6.9753 13.5595 14.5308 -1.7315 31.6020 -5.2768
# 6 6.6321 -7.1845 3.4025 0.6289 -5.2768 35.6943
#
#
#
# Elastic Compliance Matrix: (Units=1/GPa)
#
#
# Indices 1 2 3 4 5 6 
#
# 1 0.011285 -0.002278 -0.003742 0.000528 0.004972 -0.001473
# 2 -0.002278 0.008888 -0.002581 -0.000594 -0.002820 0.002052
# 3 -0.003742 -0.002581 0.013928 -0.000582 -0.006506 -0.002103
# 4 0.000528 -0.000594 -0.000582 0.037032 0.002596 -0.000431
# 5 0.004972 -0.002820 -0.006506 0.002596 0.037866 0.004681
# 6 -0.001473 0.002052 -0.002103 -0.000431 0.004681 0.029602
#
#
# Mechanical properties :
#
#
# Convention : Reuss Voigt Hill
#
# Bulk Modulus (GPa) = 59.17188 62.55656 60.86422
# Shear Modulus (GPa) = 30.97206 34.68196 32.82701
#
# Velocity S-wave (km/s) = 3.70699 3.92273 3.81638
# Velocity P-wave (km/s) = 6.67652 6.94783 6.81352
#
# Compressibility (1/GPa) = 0.01689992
#
# Stress axis : x y z
#
# Youngs Moduli (GPa) = 88.61446 112.51154 71.79787
#
# Poissons Ratio (x) = 0.25630 0.26864
# Poissons Ratio (y) = 0.20187 0.18530
# Poissons Ratio (z) = 0.33156 0.29037
#
# Static dielectric constant tensor:
#      x y z
#    x 4.403200 0.306340 -0.153270 
#    y 0.306340 4.407630 -0.138690 
#    z -0.153270 -0.138690 4.075960 
# 
# 
# High freq. dielectric constant tensor:
#      x y z
#    x 1.895930 0.001950 -0.006530 
#    y 0.001950 1.910820 -0.002610 
#    z -0.006530 -0.002610 1.860950 
# 
# From -- ./inp_files/72290.got.cif
#   From: 2010.06.25/outbox.cif.g09.slc.cpg/sg2_37_cif.got.tgz:72290.got - 2010.06.27 13:26:56.
