data_PCOD8008649
_publ_section_title
;
Structure prediction by ZEFSAII (Michael W. Deem and Ramdas Pophale) SiO2 
 PCOD8008649
Probable space group: P -1
;
_chemical_formula_sum "Si O2"
_cell_formula_units_Z 14
_cell_length_a 7.280439
_cell_length_b 8.123099
_cell_length_c 11.807818
_cell_angle_alpha 64.259774
_cell_angle_beta 111.108196
_cell_angle_gamma 70.189134
_cell_volume 474.038893
_symmetry_space_group_name_H-M "P -1"
_symmetry_group_IT_number 2
_symmetry_cell_setting 'triclinic'
loop_
_space_group_symop_operation_xyz
x,y,z
-x,-y,-z
loop_
_atom_site_type_symbol
_atom_site_label
_atom_site_fract_x
_atom_site_fract_y
_atom_site_fract_z
Si Si1 0.606197 0.614107 0.556548
Si Si2 0.740979 0.958953 0.280184
Si Si3 0.226278 0.109561 0.301685
Si Si4 0.120511 0.885280 0.934496
Si Si5 0.042415 0.620840 0.631496
Si Si6 0.599665 0.603299 0.807728
Si Si7 0.536681 0.251425 0.754290
O O1 0.890978 0.510716 0.633084
O O2 0.564735 0.529227 0.695060
O O3 0.484255 0.611391 0.408861
O O4 0.477363 0.882932 0.473129
O O5 0.792667 0.984949 0.154427
O O6 0.650539 0.192230 0.254027
O O7 0.981064 0.757443 0.458691
O O8 0.530300 0.918767 0.250877
O O9 0.023316 0.215005 0.325002
O O10 0.230501 0.314895 0.199769
O O11 0.148351 0.018560 0.204829
O O12 0.270517 0.617356 0.018501
O O13 0.189695 0.893046 0.081462
O O14 0.330503 0.416374 0.754831
#
# Coordination Sequence:
#
# PCOD8008649 Si02
#       7
#     2   2   2   2   2   2   2
#     4  10  20  46  74  96 129 183 231 281 331 393
#     4  11  22  46  71  98 137 180 227 280 332 405
#     4  11  22  45  72  99 137 177 230 280 332 399
#     4  12  29  40  64 110 143 180 215 277 347 416
#     4  10  21  42  77  99 126 183 234 280 328 395
#     4  11  22  45  73  98 133 181 233 276 332 397
#     4  11  25  45  70 102 141 174 225 281 347 394
#
# _framework density 29.533442000000001
#
# number of rings (size 3 to 8) (size 9 to 14) (size 15 to 20)
#    0.000    1.143    4.286    3.857    4.000    2.857 
#    0.000    4.286    0.000    0.000    0.000    0.000 
#    0.000    0.000    0.000    0.000    0.000    0.000 
#
# Total GULP energy -173602.659986 kJ/mol
# GULP energy per Si atom -12400.189999 kJ/mol
# Density = 2.946622 g / cm^3
# Si number density = 29.533442 Si / 1000 Ang^3
#
#
#
# Elastic Constant Matrix: (Units=GPa)
#
#
# Indices 1 2 3 4 5 6 
#
# 1 149.1736 24.1192 86.6789 5.0117 4.7231 10.9731
# 2 24.1192 117.9800 34.6965 15.7955 -8.7963 -4.0110
# 3 86.6789 34.6965 157.3574 3.2436 -10.2638 3.7020
# 4 5.0117 15.7955 3.2436 61.3937 -7.7399 -1.2188
# 5 4.7231 -8.7963 -10.2638 -7.7399 57.5200 -6.9567
# 6 10.9731 -4.0110 3.7020 -1.2188 -6.9567 29.2016
#
#
#
# Elastic Compliance Matrix: (Units=1/GPa)
#
#
# Indices 1 2 3 4 5 6 
#
# 1 0.010532 -0.000698 -0.005706 -0.000783 -0.002576 -0.003976
# 2 -0.000698 0.009542 -0.001646 -0.002124 0.001176 0.001973
# 3 -0.005706 -0.001646 0.009964 0.000668 0.002232 0.001215
# 4 -0.000783 -0.002124 0.000668 0.017178 0.002314 0.001186
# 5 -0.002576 0.001176 0.002232 0.002314 0.019152 0.005506
# 6 -0.003976 0.001973 0.001215 0.001186 0.005506 0.037217
#
#
# Mechanical properties :
#
#
# Convention : Reuss Voigt Hill
#
# Bulk Modulus (GPa) = 71.73833 79.50002 75.61918
# Shear Modulus (GPa) = 40.21523 48.22415 44.21969
#
# Velocity S-wave (km/s) = 3.69410 4.04526 3.87366
# Velocity P-wave (km/s) = 6.52215 6.98541 6.75775
#
# Compressibility (1/GPa) = 0.01393955
#
# Stress axis : x y z
#
# Youngs Moduli (GPa) = 94.94524 104.80414 100.35896
#
# Poissons Ratio (x) = 0.07310 0.57267
# Poissons Ratio (y) = 0.06623 0.16515
# Poissons Ratio (z) = 0.54178 0.17247
#
# Static dielectric constant tensor:
#      x y z
#    x 5.156120 0.167210 -0.133660 
#    y 0.167210 5.979840 0.181460 
#    z -0.133660 0.181460 5.269570 
# 
# 
# High freq. dielectric constant tensor:
#      x y z
#    x 2.219590 0.012280 -0.006540 
#    y 0.012280 2.266640 0.010610 
#    z -0.006540 0.010610 2.208150 
# 
# From -- ./inp_files/378484.got.cif
#   From: 2010.06.25/outbox.cif.g09.slc.cpg/sg2_190_cif.got.tgz:378484.got - 2010.06.27 13:26:56.
