data_PCOD8008092
_publ_section_title
;
Structure prediction by ZEFSAII (Michael W. Deem and Ramdas Pophale) SiO2 
 PCOD8008092
Probable space group: P -1
;
_chemical_formula_sum "Si O2"
_cell_formula_units_Z 16
_cell_length_a 9.880531
_cell_length_b 13.506062
_cell_length_c 11.685603
_cell_angle_alpha 55.681968
_cell_angle_beta 142.845101
_cell_angle_gamma 106.223554
_cell_volume 731.344375
_symmetry_space_group_name_H-M "P -1"
_symmetry_group_IT_number 2
_symmetry_cell_setting 'triclinic'
loop_
_space_group_symop_operation_xyz
x,y,z
-x,-y,-z
loop_
_atom_site_type_symbol
_atom_site_label
_atom_site_fract_x
_atom_site_fract_y
_atom_site_fract_z
Si Si1 0.592521 0.006572 0.931731
Si Si2 0.955352 0.638431 0.106369
Si Si3 0.664144 0.576851 0.394800
Si Si4 0.467217 0.426156 0.193690
Si Si5 0.075655 0.121602 0.449738
Si Si6 0.195371 0.787405 0.021037
Si Si7 0.279681 0.271554 0.872718
Si Si8 0.266823 0.684097 0.763304
O O1 0.359504 0.079447 0.651252
O O2 0.734163 0.866332 0.072664
O O3 0.500000 0.000000 0.000000
O O4 0.781832 0.079968 0.008348
O O5 0.151723 0.496035 0.334675
O O6 0.891627 0.670013 0.175479
O O7 0.061246 0.740278 0.060209
O O8 0.727316 0.643534 0.870956
O O9 0.555081 0.472990 0.337223
O O10 0.796219 0.633171 0.349997
O O11 0.459366 0.689561 0.243591
O O12 0.694561 0.330393 0.338922
O O13 0.316561 0.543188 0.935957
O O14 0.952213 0.196782 0.205138
O O15 0.994269 0.219198 0.440231
O O16 0.000000 0.000000 0.500000
O O17 0.551451 0.254931 0.096307
#
# Coordination Sequence:
#
# PCOD8008092 Si02
#       8
#     2   2   2   2   2   2   2   2
#     4  12  23  40  69  93 120 164 214 263 303 357
#     4  11  26  40  63  92 133 167 196 258 326 357
#     4  11  21  42  65  94 125 161 217 252 298 384
#     4   9  20  37  61  88 125 160 199 253 310 358
#     4  12  21  40  67  90 120 164 208 260 305 356
#     4  12  26  43  59  98 129 160 213 255 306 381
#     4  10  20  42  65  96 123 157 219 258 294 383
#     4   9  17  36  62  94 119 153 210 257 295 369
#
# _framework density 21.877517999999998
#
# number of rings (size 3 to 8) (size 9 to 14) (size 15 to 20)
#    0.000    1.250    6.250    1.500    1.750    3.000 
#    0.000    0.625    0.000    0.000    0.000    0.000 
#    0.000    0.000    0.000    0.000    0.000    0.000 
#
# Total GULP energy -198423.938658 kJ/mol
# GULP energy per Si atom -12401.496166 kJ/mol
# Density = 2.182772 g / cm^3
# Si number density = 21.877518 Si / 1000 Ang^3
#
#
#
# Elastic Constant Matrix: (Units=GPa)
#
#
# Indices 1 2 3 4 5 6 
#
# 1 80.8727 35.1485 13.5349 -8.5179 -0.3755 26.7911
# 2 35.1485 117.9130 10.9054 -10.6838 3.2230 8.2734
# 3 13.5349 10.9054 64.2427 -7.3853 5.2929 4.6660
# 4 -8.5179 -10.6838 -7.3853 27.5052 -1.6908 3.2040
# 5 -0.3755 3.2230 5.2929 -1.6908 15.6856 -3.4470
# 6 26.7911 8.2734 4.6660 3.2040 -3.4470 35.2269
#
#
#
# Elastic Compliance Matrix: (Units=1/GPa)
#
#
# Indices 1 2 3 4 5 6 
#
# 1 0.019881 -0.004217 -0.001711 0.005707 -0.000648 -0.014486
# 2 -0.004217 0.009993 -0.000450 0.002290 -0.001634 0.000551
# 3 -0.001711 -0.000450 0.017025 0.003720 -0.005675 -0.001742
# 4 0.005707 0.002290 0.003720 0.041117 0.000859 -0.009027
# 5 -0.000648 -0.001634 -0.005675 0.000859 0.067881 0.008193
# 6 -0.014486 0.000551 -0.001742 -0.009027 0.008193 0.041128
#
#
# Mechanical properties :
#
#
# Convention : Reuss Voigt Hill
#
# Bulk Modulus (GPa) = 29.28913 42.46732 35.87822
# Shear Modulus (GPa) = 22.60795 29.24618 25.92707
#
# Velocity S-wave (km/s) = 3.21812 3.66021 3.44626
# Velocity P-wave (km/s) = 5.21778 6.10872 5.68074
#
# Compressibility (1/GPa) = 0.03414236
#
# Stress axis : x y z
#
# Youngs Moduli (GPa) = 50.29935 100.07084 58.73848
#
# Poissons Ratio (x) = 0.42198 0.10051
# Poissons Ratio (y) = 0.21210 0.02643
# Poissons Ratio (z) = 0.08607 0.04504
#
# Static dielectric constant tensor:
#      x y z
#    x 3.758170 0.016470 0.172120 
#    y 0.016470 4.197090 0.075250 
#    z 0.172120 0.075250 3.952940 
# 
# 
# High freq. dielectric constant tensor:
#      x y z
#    x 1.831270 -0.004670 0.016260 
#    y -0.004670 1.872430 0.004590 
#    z 0.016260 0.004590 1.852180 
# 
# From -- ./inp_files/398694.got.cif
#   From: 2010.06.25/outbox.cif.g09.slc.cpg/sg2_200_cif.got.tgz:398694.got - 2010.06.27 13:26:56.
