data_PCOD8008439
_publ_section_title
;
Structure prediction by ZEFSAII (Michael W. Deem and Ramdas Pophale) SiO2 
 PCOD8008439
Probable space group: P -1
;
_chemical_formula_sum "Si O2"
_cell_formula_units_Z 14
_cell_length_a 9.236866
_cell_length_b 9.982763
_cell_length_c 14.310954
_cell_angle_alpha 124.644879
_cell_angle_beta 150.498249
_cell_angle_gamma 63.172792
_cell_volume 531.530129
_symmetry_space_group_name_H-M "P -1"
_symmetry_group_IT_number 2
_symmetry_cell_setting 'triclinic'
loop_
_space_group_symop_operation_xyz
x,y,z
-x,-y,-z
loop_
_atom_site_type_symbol
_atom_site_label
_atom_site_fract_x
_atom_site_fract_y
_atom_site_fract_z
Si Si1 0.818795 0.650918 0.620208
Si Si2 0.643286 0.076070 0.275069
Si Si3 0.134724 0.426938 0.922206
Si Si4 0.517582 0.291688 0.932259
Si Si5 0.211446 0.203033 0.535386
Si Si6 0.664592 0.134924 0.518922
Si Si7 0.652855 0.622461 0.781835
O O1 0.824750 0.675876 0.521865
O O2 0.649887 0.792187 0.630764
O O3 0.644125 0.470981 0.469342
O O4 0.137851 0.649292 0.843319
O O5 0.778369 0.096305 0.462882
O O6 0.364999 0.182995 0.152649
O O7 0.882879 0.145975 0.363060
O O8 0.535023 0.886753 0.119726
O O9 0.332220 0.417032 0.935784
O O10 0.912802 0.263661 0.754585
O O11 0.938058 0.580666 0.865191
O O12 0.337603 0.448931 0.136285
O O13 0.419859 0.292919 0.768977
O O14 0.357582 0.043442 0.514634
#
# Coordination Sequence:
#
# PCOD8008439 Si02
#       7
#     2   2   2   2   2   2   2
#     4  11  26  43  65 100 146 169 213 282 345 384
#     4  11  22  42  74  98 128 170 239 272 312 408
#     4  10  20  43  68  91 132 178 225 263 324 403
#     4  11  23  44  73  99 127 178 229 273 330 388
#     4  11  22  42  69 104 129 175 222 284 316 409
#     4  10  21  44  67  99 131 174 223 278 327 389
#     4  10  25  43  65 101 135 175 223 271 332 406
#
# _framework density 26.339051000000001
#
# number of rings (size 3 to 8) (size 9 to 14) (size 15 to 20)
#    0.000    1.429    2.857    2.143    2.000    8.000 
#   12.857    1.429    0.000    0.000    0.000    0.000 
#    0.000    0.000    0.000    0.000    0.000    0.000 
#
# Total GULP energy -173675.326577 kJ/mol
# GULP energy per Si atom -12405.380470 kJ/mol
# Density = 2.627910 g / cm^3
# Si number density = 26.339051 Si / 1000 Ang^3
#
#
#
# Elastic Constant Matrix: (Units=GPa)
#
#
# Indices 1 2 3 4 5 6 
#
# 1 125.1330 18.9049 33.3971 -7.0173 0.0700 -22.6520
# 2 18.9049 119.6363 18.2325 -4.3825 5.3474 -32.8386
# 3 33.3971 18.2325 117.8883 -11.1613 7.1730 -17.7057
# 4 -7.0173 -4.3825 -11.1613 21.5794 -9.8419 -0.1471
# 5 0.0700 5.3474 7.1730 -9.8419 19.5555 0.6092
# 6 -22.6520 -32.8386 -17.7057 -0.1471 0.6092 40.9494
#
#
#
# Elastic Compliance Matrix: (Units=1/GPa)
#
#
# Indices 1 2 3 4 5 6 
#
# 1 0.009456 0.000026 -0.001849 0.003091 0.002055 0.004432
# 2 0.000026 0.010941 -0.000122 0.000984 -0.002725 0.008779
# 3 -0.001849 -0.000122 0.009975 0.003710 -0.001852 0.003233
# 4 0.003091 0.000984 0.003710 0.063192 0.030041 0.003884
# 5 0.002055 -0.002725 -0.001852 0.030041 0.067759 -0.002750
# 6 0.004432 0.008779 0.003233 0.003884 -0.002750 0.035365
#
#
# Mechanical properties :
#
#
# Convention : Reuss Voigt Hill
#
# Bulk Modulus (GPa) = 37.76403 55.96963 46.86683
# Shear Modulus (GPa) = 23.87709 35.89174 29.88442
#
# Velocity S-wave (km/s) = 3.01413 3.69546 3.37204
# Velocity P-wave (km/s) = 5.14607 6.28525 5.74397
#
# Compressibility (1/GPa) = 0.02648022
#
# Stress axis : x y z
#
# Youngs Moduli (GPa) = 105.75597 91.40041 100.25109
#
# Poissons Ratio (x) = -0.00234 0.18541
# Poissons Ratio (y) = -0.00270 0.01221
# Poissons Ratio (z) = 0.19559 0.01113
#
# Static dielectric constant tensor:
#      x y z
#    x 4.657350 -0.203960 -0.038750 
#    y -0.203960 5.053080 0.094890 
#    z -0.038750 0.094890 4.509230 
# 
# 
# High freq. dielectric constant tensor:
#      x y z
#    x 2.064570 -0.005600 -0.000760 
#    y -0.005600 2.077630 0.000740 
#    z -0.000760 0.000740 2.045850 
# 
# From -- ./inp_files/157520.got.cif
#   From: 2010.06.25/outbox.cif.g09.slc.cpg/sg2_79_cif.got.tgz:157520.got - 2010.06.27 13:26:56.
