data_PCOD8008661
_publ_section_title
;
Structure prediction by ZEFSAII (Michael W. Deem and Ramdas Pophale) SiO2 
 PCOD8008661
Probable space group: P -1
;
_chemical_formula_sum "Si O2"
_cell_formula_units_Z 14
_cell_length_a 13.437871
_cell_length_b 14.545672
_cell_length_c 11.941075
_cell_angle_alpha 30.053221
_cell_angle_beta 67.001605
_cell_angle_gamma 87.742420
_cell_volume 819.395106
_symmetry_space_group_name_H-M "P -1"
_symmetry_group_IT_number 2
_symmetry_cell_setting 'triclinic'
loop_
_space_group_symop_operation_xyz
x,y,z
-x,-y,-z
loop_
_atom_site_type_symbol
_atom_site_label
_atom_site_fract_x
_atom_site_fract_y
_atom_site_fract_z
Si Si1 0.661980 0.308644 0.263873
Si Si2 0.058439 0.101528 0.711465
Si Si3 0.651789 0.020532 0.242944
Si Si4 0.348275 0.581742 0.101445
Si Si5 0.881379 0.838409 0.631343
Si Si6 0.662043 0.912232 0.608366
Si Si7 0.932981 0.225639 0.805278
O O1 0.508397 0.191232 0.507962
O O2 0.690806 0.123368 0.448761
O O3 0.654310 0.359378 0.086467
O O4 0.791772 0.558852 0.001349
O O5 0.222618 0.298163 0.474435
O O6 0.042214 0.097990 0.589229
O O7 0.968271 0.173479 0.724759
O O8 0.005178 0.845908 0.050950
O O9 0.679397 0.968739 0.409160
O O10 0.677094 0.267484 0.970776
O O11 0.762867 0.055293 0.070986
O O12 0.503129 0.662648 0.969501
O O13 0.774309 0.889111 0.623443
O O14 0.000000 0.000000 0.500000
O O15 0.000000 0.500000 0.500000
#
# Coordination Sequence:
#
# PCOD8008661 Si02
#       7
#     2   2   2   2   2   2   2
#     4   8  18  30  49  76  98 129 165 203 256 302
#     4  10  21  32  48  78 105 131 168 197 250 304
#     4   9  15  30  51  75 105 127 156 203 261 306
#     4   8  15  29  50  77 102 121 159 206 260 316
#     4  11  22  34  51  74 102 138 173 202 242 295
#     4   9  17  31  50  75 104 127 154 213 260 292
#     4  11  20  31  50  76 108 135 155 202 256 303
#
# _framework density 17.085775000000002
#
# number of rings (size 3 to 8) (size 9 to 14) (size 15 to 20)
#    0.000    2.571    2.857    1.714    2.000    2.286 
#    0.000    0.000    0.000    0.857    0.000    3.000 
#    0.000    0.000    0.000    0.000    0.000    0.000 
#
# Total GULP energy -173495.447031 kJ/mol
# GULP energy per Si atom -12392.531931 kJ/mol
# Density = 1.704689 g / cm^3
# Si number density = 17.085775 Si / 1000 Ang^3
#
#
#
# Elastic Constant Matrix: (Units=GPa)
#
#
# Indices 1 2 3 4 5 6 
#
# 1 72.0239 58.8317 32.8407 1.3641 -17.1349 -13.2391
# 2 58.8317 96.1157 58.6081 -2.5015 -19.3525 -11.8383
# 3 32.8407 58.6081 90.7993 -7.2036 -10.0782 -6.4762
# 4 1.3641 -2.5015 -7.2036 28.4099 -6.3781 -8.0442
# 5 -17.1349 -19.3525 -10.0782 -6.3781 27.6771 0.0361
# 6 -13.2391 -11.8383 -6.4762 -8.0442 0.0361 29.4880
#
#
#
# Elastic Compliance Matrix: (Units=1/GPa)
#
#
# Indices 1 2 3 4 5 6 
#
# 1 0.030156 -0.016843 0.001451 0.001271 0.007704 0.007433
# 2 -0.016843 0.029703 -0.011977 0.002545 0.006563 0.002418
# 3 0.001451 -0.011977 0.018626 0.003931 0.000210 0.001006
# 4 0.001271 0.002545 0.003931 0.043561 0.014018 0.014322
# 5 0.007704 0.006563 0.000210 0.014018 0.048784 0.009904
# 6 0.007433 0.002418 0.001006 0.014322 0.009904 0.042336
#
#
# Mechanical properties :
#
#
# Convention : Reuss Voigt Hill
#
# Bulk Modulus (GPa) = 42.11263 62.16665 52.13964
# Shear Modulus (GPa) = 18.12777 24.35890 21.24333
#
# Velocity S-wave (km/s) = 3.26081 3.77992 3.52992
# Velocity P-wave (km/s) = 6.23526 7.45080 6.86997
#
# Compressibility (1/GPa) = 0.02374584
#
# Stress axis : x y z
#
# Youngs Moduli (GPa) = 33.16107 33.66705 53.68715
#
# Poissons Ratio (x) = 0.56706 -0.07790
# Poissons Ratio (y) = 0.55854 0.64303
# Poissons Ratio (z) = -0.04811 0.40324
#
# Static dielectric constant tensor:
#      x y z
#    x 3.001600 -0.291120 -0.465420 
#    y -0.291120 3.469810 -1.136210 
#    z -0.465420 -1.136210 6.263910 
# 
# 
# High freq. dielectric constant tensor:
#      x y z
#    x 1.631810 -0.051210 -0.008200 
#    y -0.051210 1.630030 -0.009810 
#    z -0.008200 -0.009810 1.671260 
# 
# From -- ./inp_files/193040.got.cif
#   From: 2010.06.25/outbox.cif.g09.slc.cpg/sg2_97_cif.got.tgz:193040.got - 2010.06.27 13:26:56.
