data_PCOD8008076
_publ_section_title
;
Structure prediction by ZEFSAII (Michael W. Deem and Ramdas Pophale) SiO2 
 PCOD8008076
Probable space group: P -1
;
_chemical_formula_sum "Si O2"
_cell_formula_units_Z 14
_cell_length_a 14.382474
_cell_length_b 19.972551
_cell_length_c 5.109385
_cell_angle_alpha 86.996193
_cell_angle_beta 92.772541
_cell_angle_gamma 158.030151
_cell_volume 548.337451
_symmetry_space_group_name_H-M "P -1"
_symmetry_group_IT_number 2
_symmetry_cell_setting 'triclinic'
loop_
_space_group_symop_operation_xyz
x,y,z
-x,-y,-z
loop_
_atom_site_type_symbol
_atom_site_label
_atom_site_fract_x
_atom_site_fract_y
_atom_site_fract_z
Si Si1 0.630199 0.977779 0.914675
Si Si2 0.156466 0.306364 0.978959
Si Si3 0.509410 0.644869 0.201493
Si Si4 0.664343 0.852793 0.821902
Si Si5 0.209743 0.548899 0.474530
Si Si6 0.870690 0.800670 0.498722
Si Si7 0.321412 0.775407 0.395632
O O1 0.449841 0.889383 0.126696
O O2 0.667321 0.922795 0.976765
O O3 0.520554 0.917953 0.625132
O O4 0.913156 0.192841 0.948441
O O5 0.398029 0.510263 0.041506
O O6 0.119687 0.222377 0.204696
O O7 0.199985 0.304144 0.699296
O O8 0.285211 0.544367 0.271540
O O9 0.656762 0.714658 0.460395
O O10 0.714298 0.822548 0.022672
O O11 0.383626 0.655218 0.725346
O O12 0.860638 0.988199 0.582451
O O13 0.242491 0.646295 0.352150
O O14 0.923113 0.344407 0.554235
#
# Coordination Sequence:
#
# PCOD8008076 Si02
#       7
#     2   2   2   2   2   2   2
#     4  10  20  42  65  90 124 176 214 253 323 391
#     4  11  25  45  67  93 133 178 215 259 326 393
#     4  12  25  41  66 100 133 166 220 276 316 377
#     4  10  23  40  67  96 132 166 221 269 320 377
#     4  10  23  37  64  98 130 163 216 272 324 370
#     4  11  26  45  67  92 133 182 213 256 328 395
#     4  10  21  40  67  91 128 171 211 262 326 389
#
# _framework density 25.531724000000001
#
# number of rings (size 3 to 8) (size 9 to 14) (size 15 to 20)
#    0.000    1.429    1.429    3.857    8.000    2.286 
#    0.000    1.429    0.000    0.000    0.000    0.000 
#    0.000    0.000    0.000    0.000    0.000    0.000 
#
# Total GULP energy -173594.602158 kJ/mol
# GULP energy per Si atom -12399.614440 kJ/mol
# Density = 2.547361 g / cm^3
# Si number density = 25.531724 Si / 1000 Ang^3
#
#
#
# Elastic Constant Matrix: (Units=GPa)
#
#
# Indices 1 2 3 4 5 6 
#
# 1 61.1828 16.5626 4.6673 -4.2630 4.0605 19.3593
# 2 16.5626 81.7073 0.2523 11.6007 7.3536 26.0520
# 3 4.6673 0.2523 68.1799 3.1173 2.4805 -5.9155
# 4 -4.2630 11.6007 3.1173 39.2963 11.3326 1.0027
# 5 4.0605 7.3536 2.4805 11.3326 16.2677 -0.1668
# 6 19.3593 26.0520 -5.9155 1.0027 -0.1668 30.5811
#
#
#
# Elastic Compliance Matrix: (Units=1/GPa)
#
#
# Indices 1 2 3 4 5 6 
#
# 1 0.022273 0.000387 -0.002760 0.005614 -0.009380 -0.015199
# 2 0.000387 0.018235 -0.001110 -0.003058 -0.006203 -0.015927
# 3 -0.002760 -0.001110 0.015422 -0.001280 -0.000210 0.005717
# 4 0.005614 -0.003058 -0.001280 0.033888 -0.023456 -0.002436
# 5 -0.009380 -0.006203 -0.000210 -0.023456 0.083116 0.012404
# 6 -0.015199 -0.015927 0.005717 -0.002436 0.012404 0.057143
#
#
# Mechanical properties :
#
#
# Convention : Reuss Voigt Hill
#
# Bulk Modulus (GPa) = 20.42381 28.22604 24.32492
# Shear Modulus (GPa) = 19.73431 29.86819 24.80125
#
# Velocity S-wave (km/s) = 2.78318 3.42401 3.12009
# Velocity P-wave (km/s) = 4.28309 5.16828 4.74637
#
# Compressibility (1/GPa) = 0.04896246
#
# Stress axis : x y z
#
# Youngs Moduli (GPa) = 44.89710 54.84082 64.84079
#
# Poissons Ratio (x) = -0.02121 0.17898
# Poissons Ratio (y) = -0.01737 0.07200
# Poissons Ratio (z) = 0.12393 0.06089
#
# Static dielectric constant tensor:
#      x y z
#    x 4.535050 0.193640 0.018080 
#    y 0.193640 4.734060 0.060340 
#    z 0.018080 0.060340 4.224120 
# 
# 
# High freq. dielectric constant tensor:
#      x y z
#    x 2.006690 0.016910 -0.002820 
#    y 0.016910 2.025360 0.007520 
#    z -0.002820 0.007520 2.013440 
# 
# From -- ./inp_files/88937.got.cif
#   From: 2010.06.25/outbox.cif.g09.slc.cpg/sg2_45_cif.got.tgz:88937.got - 2010.06.27 13:26:56.
