data_PCOD8008245
_publ_section_title
;
Structure prediction by ZEFSAII (Michael W. Deem and Ramdas Pophale) SiO2 
 PCOD8008245
Probable space group: P -1
;
_chemical_formula_sum "Si O2"
_cell_formula_units_Z 16
_cell_length_a 8.443920
_cell_length_b 21.497206
_cell_length_c 9.585012
_cell_angle_alpha 144.483595
_cell_angle_beta 51.302170
_cell_angle_gamma 138.231561
_cell_volume 672.548013
_symmetry_space_group_name_H-M "P -1"
_symmetry_group_IT_number 2
_symmetry_cell_setting 'triclinic'
loop_
_space_group_symop_operation_xyz
x,y,z
-x,-y,-z
loop_
_atom_site_type_symbol
_atom_site_label
_atom_site_fract_x
_atom_site_fract_y
_atom_site_fract_z
Si Si1 0.306663 0.477213 0.451576
Si Si2 0.106855 0.543992 0.175461
Si Si3 0.649261 0.709234 0.122877
Si Si4 0.266399 0.919564 0.568462
Si Si5 0.994520 0.288737 0.869893
Si Si6 0.330835 0.997933 0.973982
Si Si7 0.537617 0.251123 0.183467
Si Si8 0.816154 0.877949 0.096847
O O1 0.500000 0.500000 0.500000
O O2 0.297067 0.379832 0.166295
O O3 0.379494 0.605746 0.559455
O O4 0.056551 0.425377 0.579035
O O5 0.379012 0.657365 0.223379
O O6 0.129048 0.435812 0.039737
O O7 0.000000 0.500000 0.000000
O O8 0.819957 0.744968 0.228429
O O9 0.718174 0.835676 0.230594
O O10 0.352548 0.933445 0.704352
O O11 0.102456 0.776531 0.347479
O O12 0.500000 0.000000 0.500000
O O13 0.116956 0.984842 0.739288
O O14 0.767564 0.241272 0.008228
O O15 0.070363 0.892938 0.977324
O O16 0.500000 0.000000 0.000000
O O17 0.386377 0.140761 0.178161
O O18 0.380060 0.227932 0.089925
#
# Coordination Sequence:
#
# PCOD8008245 Si02
#       8
#     2   2   2   2   2   2   2   2
#     4  11  22  43  73 101 132 189 230 286 360 408
#     4  11  24  43  70 102 140 183 242 285 348 433
#     4  12  25  45  68 104 147 181 235 300 345 422
#     4  11  23  44  74  93 133 191 225 286 366 408
#     4  11  24  44  67 101 139 180 233 296 350 419
#     4  11  24  44  67 104 138 176 238 298 346 421
#     4  10  20  42  68  98 135 180 235 286 350 427
#     4  11  23  42  68  99 137 179 233 282 350 429
#
# _framework density 23.790122
#
# number of rings (size 3 to 8) (size 9 to 14) (size 15 to 20)
#    0.000    1.000    5.000    3.375    0.000    5.500 
#    0.000    3.750    0.000    0.000    0.000    0.000 
#    0.000    0.000    0.000    0.000    0.000    0.000 
#
# Total GULP energy -198277.143713 kJ/mol
# GULP energy per Si atom -12392.321482 kJ/mol
# Density = 2.373597 g / cm^3
# Si number density = 23.790122 Si / 1000 Ang^3
#
#
#
# Elastic Constant Matrix: (Units=GPa)
#
#
# Indices 1 2 3 4 5 6 
#
# 1 154.2190 43.4775 11.0430 -17.9104 11.8909 12.1258
# 2 43.4775 129.8266 12.7666 -22.3207 -1.8493 13.1131
# 3 11.0430 12.7666 78.0334 -6.1520 1.5494 6.4635
# 4 -17.9104 -22.3207 -6.1520 28.0547 1.1344 -9.7725
# 5 11.8909 -1.8493 1.5494 1.1344 28.6044 -5.7285
# 6 12.1258 13.1131 6.4635 -9.7725 -5.7285 46.5805
#
#
#
# Elastic Compliance Matrix: (Units=1/GPa)
#
#
# Indices 1 2 3 4 5 6 
#
# 1 0.007808 -0.001983 -0.000364 0.003045 -0.003724 -0.001243
# 2 -0.001983 0.009538 -0.000782 0.005864 0.001112 -0.000693
# 3 -0.000364 -0.000782 0.013250 0.001638 -0.000942 -0.001296
# 4 0.003045 0.005864 0.001638 0.044966 -0.001440 0.006586
# 5 -0.003724 0.001112 -0.000942 -0.001440 0.037714 0.005123
# 6 -0.001243 -0.000693 -0.001296 0.006586 0.005123 0.024179
#
#
# Mechanical properties :
#
#
# Convention : Reuss Voigt Hill
#
# Bulk Modulus (GPa) = 41.08845 55.18367 48.13606
# Shear Modulus (GPa) = 32.93305 40.30070 36.61687
#
# Velocity S-wave (km/s) = 3.72468 4.12030 3.92747
# Velocity P-wave (km/s) = 5.98384 6.77364 6.39095
#
# Compressibility (1/GPa) = 0.02433774
#
# Stress axis : x y z
#
# Youngs Moduli (GPa) = 128.07626 104.84716 75.47406
#
# Poissons Ratio (x) = 0.20791 0.02744
# Poissons Ratio (y) = 0.25398 0.05903
# Poissons Ratio (z) = 0.04656 0.08200
#
# Static dielectric constant tensor:
#      x y z
#    x 4.202340 -0.043990 -0.000120 
#    y -0.043990 4.526150 0.008960 
#    z -0.000120 0.008960 4.000950 
# 
# 
# High freq. dielectric constant tensor:
#      x y z
#    x 1.952100 0.006000 -0.008580 
#    y 0.006000 1.955970 0.000740 
#    z -0.008580 0.000740 1.918220 
# 
# From -- ./inp_files/222572.got.cif
#   From: 2010.06.25/outbox.cif.g09.slc.cpg/sg2_112_cif.got.tgz:222572.got - 2010.06.27 13:26:56.
