data_PCOD8008012
_publ_section_title
;
Structure prediction by ZEFSAII (Michael W. Deem and Ramdas Pophale) SiO2 
 PCOD8008012
Probable space group: P -1
;
_chemical_formula_sum "Si O2"
_cell_formula_units_Z 16
_cell_length_a 27.215222
_cell_length_b 12.180869
_cell_length_c 8.126559
_cell_angle_alpha 56.093786
_cell_angle_beta 53.901454
_cell_angle_gamma 21.180378
_cell_volume 786.145036
_symmetry_space_group_name_H-M "P -1"
_symmetry_group_IT_number 2
_symmetry_cell_setting 'triclinic'
loop_
_space_group_symop_operation_xyz
x,y,z
-x,-y,-z
loop_
_atom_site_type_symbol
_atom_site_label
_atom_site_fract_x
_atom_site_fract_y
_atom_site_fract_z
Si Si1 0.372532 0.663332 0.670976
Si Si2 0.097213 0.419172 0.959777
Si Si3 0.644652 0.271454 0.970998
Si Si4 0.384762 0.355749 0.756740
Si Si5 0.074068 0.354840 0.641081
Si Si6 0.937917 0.331732 0.450854
Si Si7 0.253188 0.655776 0.416223
Si Si8 0.684938 0.642868 0.769360
O O1 0.500000 0.500000 0.500000
O O2 0.373137 0.636782 0.887030
O O3 0.381397 0.514588 0.673526
O O4 0.235619 0.008687 0.598945
O O5 0.096710 0.567092 0.757269
O O6 0.252973 0.055265 0.964723
O O7 0.000000 0.500000 0.000000
O O8 0.015254 0.591293 0.148025
O O9 0.500000 0.500000 0.000000
O O10 0.700814 0.280587 0.738439
O O11 0.308643 0.483347 0.622783
O O12 0.544317 0.999965 0.720731
O O13 0.311008 0.425667 0.997069
O O14 0.056363 0.534074 0.599362
O O15 0.000000 0.500000 0.500000
O O16 0.817843 0.478367 0.642557
O O17 0.085452 0.969610 0.484155
O O18 0.310080 0.470931 0.295566
#
# Coordination Sequence:
#
# PCOD8008012 Si02
#       8
#     2   2   2   2   2   2   2   2
#     4  12  23  40  65  96 133 170 210 275 333 382
#     4  10  20  42  63  91 133 167 205 265 332 378
#     4  12  24  40  68 101 131 172 217 270 335 400
#     4  11  26  45  66  92 135 170 222 276 319 390
#     4  11  22  39  64  97 133 166 207 270 332 388
#     4  11  22  43  68  94 130 170 219 264 323 399
#     4  12  23  46  69  94 128 173 224 270 325 391
#     4  11  26  47  65  91 132 179 220 270 325 378
#
# _framework density 20.352481000000001
#
# number of rings (size 3 to 8) (size 9 to 14) (size 15 to 20)
#    0.000    0.750    6.250    3.000    3.500    0.500 
#    2.250    0.000    0.000    0.000    0.000    0.000 
#    0.000    0.000    0.000    0.000    0.000    0.000 
#
# Total GULP energy -198264.363077 kJ/mol
# GULP energy per Si atom -12391.522692 kJ/mol
# Density = 2.030616 g / cm^3
# Si number density = 20.352481 Si / 1000 Ang^3
#
#
#
# Elastic Constant Matrix: (Units=GPa)
#
#
# Indices 1 2 3 4 5 6 
#
# 1 79.4194 66.6140 63.1871 -4.6724 -1.9389 -11.6891
# 2 66.6140 213.0601 103.9942 -7.3899 -18.9716 -15.3094
# 3 63.1871 103.9942 188.2770 -2.6270 -12.5011 -22.7463
# 4 -4.6724 -7.3899 -2.6270 40.3981 -0.0574 -0.8646
# 5 -1.9389 -18.9716 -12.5011 -0.0574 52.8818 -1.8075
# 6 -11.6891 -15.3094 -22.7463 -0.8646 -1.8075 35.4183
#
#
#
# Elastic Compliance Matrix: (Units=1/GPa)
#
#
# Indices 1 2 3 4 5 6 
#
# 1 0.019673 -0.004053 -0.004217 0.001300 -0.001661 0.001980
# 2 -0.004053 0.007435 -0.002567 0.000734 0.001925 0.000344
# 3 -0.004217 -0.002567 0.008579 -0.000333 0.001057 0.003054
# 4 0.001300 0.000734 -0.000333 0.025042 0.000299 0.001159
# 5 -0.001661 0.001925 0.001057 0.000299 0.019858 0.001983
# 6 0.001980 0.000344 0.003054 0.001159 0.001983 0.031127
#
#
# Mechanical properties :
#
#
# Convention : Reuss Voigt Hill
#
# Bulk Modulus (GPa) = 71.35955 105.37189 88.36572
# Shear Modulus (GPa) = 36.21655 42.20373 39.21014
#
# Velocity S-wave (km/s) = 4.22295 4.55866 4.39401
# Velocity P-wave (km/s) = 7.67566 8.92157 8.32196
#
# Compressibility (1/GPa) = 0.01401354
#
# Stress axis : x y z
#
# Youngs Moduli (GPa) = 50.83052 134.49411 116.56675
#
# Poissons Ratio (x) = 0.54515 0.49151
# Poissons Ratio (y) = 0.20603 0.29922
# Poissons Ratio (z) = 0.21433 0.34524
#
# Static dielectric constant tensor:
#      x y z
#    x 3.658980 0.053960 0.351520 
#    y 0.053960 3.866430 -0.054780 
#    z 0.351520 -0.054780 4.356480 
# 
# 
# High freq. dielectric constant tensor:
#      x y z
#    x 1.780870 -0.002140 0.010360 
#    y -0.002140 1.813130 0.004640 
#    z 0.010360 0.004640 1.813150 
# 
# From -- ./inp_files/282799.got.cif
#   From: 2010.06.25/outbox.cif.g09.slc.cpg/sg2_142_cif.got.tgz:282799.got - 2010.06.27 13:26:56.
