data_PCOD8008647
_publ_section_title
;
Structure prediction by ZEFSAII (Michael W. Deem and Ramdas Pophale) SiO2 
 PCOD8008647
Probable space group: P -1
;
_chemical_formula_sum "Si O2"
_cell_formula_units_Z 12
_cell_length_a 13.608829
_cell_length_b 8.443224
_cell_length_c 10.505241
_cell_angle_alpha 97.138554
_cell_angle_beta 145.922504
_cell_angle_gamma 105.674411
_cell_volume 497.543441
_symmetry_space_group_name_H-M "P -1"
_symmetry_group_IT_number 2
_symmetry_cell_setting 'triclinic'
loop_
_space_group_symop_operation_xyz
x,y,z
-x,-y,-z
loop_
_atom_site_type_symbol
_atom_site_label
_atom_site_fract_x
_atom_site_fract_y
_atom_site_fract_z
Si Si1 0.921255 0.101260 0.648665
Si Si2 0.560747 0.632711 0.704223
Si Si3 0.105380 0.621550 0.760113
Si Si4 0.051112 0.210885 0.535166
Si Si5 0.493621 0.618423 0.143291
Si Si6 0.170373 0.638282 0.313117
O O1 0.800001 0.150795 0.621079
O O2 0.989451 0.253191 0.613411
O O3 0.754155 0.845865 0.403226
O O4 0.157490 0.167989 0.967810
O O5 0.500000 0.500000 0.500000
O O6 0.465667 0.475297 0.706342
O O7 0.428005 0.721649 0.570815
O O8 0.000000 0.500000 0.500000
O O9 0.115311 0.820877 0.759083
O O10 0.941591 0.505941 0.695559
O O11 0.362613 0.699641 0.061412
O O12 0.330900 0.432345 0.838270
O O13 0.000000 0.000000 0.500000
O O14 0.000000 0.500000 0.000000
#
# Coordination Sequence:
#
# PCOD8008647 Si02
#       6
#     2   2   2   2   2   2
#     4  11  24  46  67 105 145 185 237 299 359 424
#     4  11  23  46  70 100 146 186 245 294 349 436
#     4  10  20  46  71 103 145 187 239 297 357 431
#     4  10  23  44  71 104 144 185 241 296 358 425
#     4  10  23  43  68 102 144 180 240 296 357 423
#     4  12  23  46  77 102 142 196 237 299 363 423
#
# _framework density 24.118494999999999
#
# number of rings (size 3 to 8) (size 9 to 14) (size 15 to 20)
#    0.000    1.333    6.667    0.000    2.333    4.667 
#    9.000    1.667    0.000    0.000    0.000    0.000 
#    0.000    0.000    0.000    0.000    0.000    0.000 
#
# Total GULP energy -148695.115453 kJ/mol
# GULP energy per Si atom -12391.259621 kJ/mol
# Density = 2.406360 g / cm^3
# Si number density = 24.118495 Si / 1000 Ang^3
#
#
#
# Elastic Constant Matrix: (Units=GPa)
#
#
# Indices 1 2 3 4 5 6 
#
# 1 80.8609 38.0726 58.5718 1.0791 1.5347 -14.7500
# 2 38.0726 122.7896 76.2136 -3.5177 6.7259 -25.1214
# 3 58.5718 76.2136 158.6436 2.4920 17.7811 -19.5854
# 4 1.0791 -3.5177 2.4920 47.0165 -3.4334 5.5734
# 5 1.5347 6.7259 17.7811 -3.4334 53.7381 -11.6233
# 6 -14.7500 -25.1214 -19.5854 5.5734 -11.6233 41.4651
#
#
#
# Elastic Compliance Matrix: (Units=1/GPa)
#
#
# Indices 1 2 3 4 5 6 
#
# 1 0.017751 -0.001389 -0.005705 -0.000455 0.002278 0.003478
# 2 -0.001389 0.012756 -0.005146 0.000753 0.001289 0.005063
# 3 -0.005705 -0.005146 0.011169 -0.001000 -0.003083 -0.000601
# 4 -0.000455 0.000753 -0.001000 0.021798 0.001033 -0.002818
# 5 0.002278 0.001289 -0.003083 0.001033 0.020724 0.005806
# 6 0.003478 0.005063 -0.000601 -0.002818 0.005806 0.030144
#
#
# Mechanical properties :
#
#
# Convention : Reuss Voigt Hill
#
# Bulk Modulus (GPa) = 58.15827 78.66777 68.41302
# Shear Modulus (GPa) = 34.58909 41.07302 37.83105
#
# Velocity S-wave (km/s) = 3.79110 4.13118 3.96479
# Velocity P-wave (km/s) = 6.58249 7.44604 7.02754
#
# Compressibility (1/GPa) = 0.01719446
#
# Stress axis : x y z
#
# Youngs Moduli (GPa) = 56.33594 78.39545 89.53270
#
# Poissons Ratio (x) = 0.10890 0.51079
# Poissons Ratio (y) = 0.07825 0.46077
# Poissons Ratio (z) = 0.32140 0.40345
#
# Static dielectric constant tensor:
#      x y z
#    x 5.564610 -0.497990 0.071510 
#    y -0.497990 5.135640 -0.475200 
#    z 0.071510 -0.475200 4.368200 
# 
# 
# High freq. dielectric constant tensor:
#      x y z
#    x 1.985190 -0.025200 0.011270 
#    y -0.025200 1.970550 -0.011910 
#    z 0.011270 -0.011910 1.948070 
# 
# From -- ./inp_files/443262.got.cif
#   From: 2010.06.25/outbox.cif.g09.slc.cpg/sg2_222_cif.got.tgz:443262.got - 2010.06.27 13:26:56.
