data_PCOD8008805
_publ_section_title
;
Structure prediction by ZEFSAII (Michael W. Deem and Ramdas Pophale) SiO2 
 PCOD8008805
Probable space group: P -1
;
_chemical_formula_sum "Si O2"
_cell_formula_units_Z 16
_cell_length_a 7.890556
_cell_length_b 11.359315
_cell_length_c 21.413625
_cell_angle_alpha 49.804933
_cell_angle_beta 76.759225
_cell_angle_gamma 37.593707
_cell_volume 711.541865
_symmetry_space_group_name_H-M "P -1"
_symmetry_group_IT_number 2
_symmetry_cell_setting 'triclinic'
loop_
_space_group_symop_operation_xyz
x,y,z
-x,-y,-z
loop_
_atom_site_type_symbol
_atom_site_label
_atom_site_fract_x
_atom_site_fract_y
_atom_site_fract_z
Si Si1 0.948813 0.680387 0.609191
Si Si2 0.853981 0.803949 0.225599
Si Si3 0.190562 0.343909 0.886897
Si Si4 0.088235 0.290495 0.108006
Si Si5 0.567958 0.190896 0.226170
Si Si6 0.254132 0.184169 0.554383
Si Si7 0.207353 0.734402 0.122590
Si Si8 0.550253 0.245047 0.791739
O O1 0.924665 0.749914 0.515240
O O2 0.898793 0.530320 0.665234
O O3 0.310220 0.482700 0.672162
O O4 0.616378 0.993377 0.570646
O O5 0.939640 0.811688 0.147660
O O6 0.482038 0.008631 0.193589
O O7 0.851821 0.942056 0.231982
O O8 0.272747 0.334665 0.813500
O O9 0.176427 0.502937 0.881318
O O10 0.822105 0.543840 0.856607
O O11 0.500000 0.000000 0.000000
O O12 0.090210 0.120536 0.132640
O O13 0.000000 0.500000 0.000000
O O14 0.535160 0.397078 0.177088
O O15 0.673576 0.011348 0.338254
O O16 0.000000 0.500000 0.500000
O O17 0.356112 0.703611 0.181812
O O18 0.000000 0.000000 0.000000
#
# Coordination Sequence:
#
# PCOD8008805 Si02
#       8
#     2   2   2   2   2   2   2   2
#     4  10  21  39  68  96 121 151 209 271 313 366
#     4  10  22  41  61  89 126 163 210 256 310 365
#     4  11  20  36  63  87 117 159 214 262 309 353
#     4  10  21  34  62  85 112 155 212 271 300 349
#     4  11  22  42  64  93 125 161 209 263 308 373
#     4  11  20  37  72 103 116 151 206 271 328 359
#     4  12  27  41  59  86 136 179 207 243 307 382
#     4  11  23  39  57  89 125 164 206 254 310 369
#
# _framework density 22.486377999999998
#
# number of rings (size 3 to 8) (size 9 to 14) (size 15 to 20)
#    0.000    1.250    5.000    1.500    3.500    1.500 
#    0.000    0.625    0.000    1.500    0.000    0.000 
#    0.000    0.000    0.000    0.000    0.000    0.000 
#
# Total GULP energy -198238.093721 kJ/mol
# GULP energy per Si atom -12389.880858 kJ/mol
# Density = 2.243520 g / cm^3
# Si number density = 22.486378 Si / 1000 Ang^3
#
#
#
# Elastic Constant Matrix: (Units=GPa)
#
#
# Indices 1 2 3 4 5 6 
#
# 1 44.1552 1.1023 17.4542 -11.6318 5.4022 25.2253
# 2 1.1023 145.4351 33.8414 -16.5287 -4.8073 26.9601
# 3 17.4542 33.8414 129.6653 0.7324 8.4451 11.7884
# 4 -11.6318 -16.5287 0.7324 42.7400 5.5850 -9.0756
# 5 5.4022 -4.8073 8.4451 5.5850 28.2903 0.7743
# 6 25.2253 26.9601 11.7884 -9.0756 0.7743 36.5347
#
#
#
# Elastic Compliance Matrix: (Units=1/GPa)
#
#
# Indices 1 2 3 4 5 6 
#
# 1 0.047715 0.008106 -0.004964 0.009773 -0.007231 -0.034743
# 2 0.008106 0.009953 -0.002730 0.003661 0.000541 -0.011162
# 3 -0.004964 -0.002730 0.009036 -0.001866 -0.001902 0.002103
# 4 0.009773 0.003661 -0.001866 0.027931 -0.006152 -0.001778
# 5 -0.007231 0.000541 -0.001902 -0.006152 0.038525 0.002862
# 6 -0.034743 -0.011162 0.002103 -0.001778 0.002862 0.058416
#
#
# Mechanical properties :
#
#
# Convention : Reuss Voigt Hill
#
# Bulk Modulus (GPa) = 14.80878 47.11681 30.96279
# Shear Modulus (GPa) = 23.44549 39.30352 31.37450
#
# Velocity S-wave (km/s) = 3.23252 4.18530 3.73938
# Velocity P-wave (km/s) = 4.53125 6.65993 5.69591
#
# Compressibility (1/GPa) = 0.06752751
#
# Stress axis : x y z
#
# Youngs Moduli (GPa) = 20.95788 100.47379 110.66743
#
# Poissons Ratio (x) = -0.81441 0.54935
# Poissons Ratio (y) = -0.16988 0.30210
# Poissons Ratio (z) = 0.10403 0.27427
#
# Static dielectric constant tensor:
#      x y z
#    x 3.892120 0.361540 -0.287830 
#    y 0.361540 5.818980 -0.655180 
#    z -0.287830 -0.655180 5.368420 
# 
# 
# High freq. dielectric constant tensor:
#      x y z
#    x 1.839910 0.026220 0.009550 
#    y 0.026220 1.921930 -0.006020 
#    z 0.009550 -0.006020 1.886280 
# 
# From -- ./inp_files/607562.got.cif
#   From: 2010.06.25/outbox.cif.g09.slc.cpg/sg2_304_cif.got.tgz:607562.got - 2010.06.27 13:26:56.
