data_PCOD8008981
_publ_section_title
;
Structure prediction by ZEFSAII (Michael W. Deem and Ramdas Pophale) SiO2 
 PCOD8008981
Probable space group: P -1
;
_chemical_formula_sum "Si O2"
_cell_formula_units_Z 14
_cell_length_a 14.282966
_cell_length_b 9.585764
_cell_length_c 9.724070
_cell_angle_alpha 148.348365
_cell_angle_beta 72.838412
_cell_angle_gamma 109.414338
_cell_volume 658.709895
_symmetry_space_group_name_H-M "P -1"
_symmetry_group_IT_number 2
_symmetry_cell_setting 'triclinic'
loop_
_space_group_symop_operation_xyz
x,y,z
-x,-y,-z
loop_
_atom_site_type_symbol
_atom_site_label
_atom_site_fract_x
_atom_site_fract_y
_atom_site_fract_z
Si Si1 0.223781 0.963098 0.559402
Si Si2 0.881349 0.367856 0.869546
Si Si3 0.261469 0.398372 0.698998
Si Si4 0.005236 0.086078 0.755378
Si Si5 0.817055 0.781888 0.700858
Si Si6 0.264783 0.818405 0.719942
Si Si7 0.565518 0.274122 0.249232
O O1 0.283241 0.223615 0.675783
O O2 0.218145 0.705587 0.244570
O O3 0.272592 0.932844 0.658465
O O4 0.104221 0.955103 0.605264
O O5 0.959554 0.599075 0.955282
O O6 0.837177 0.468514 0.116322
O O7 0.940580 0.115962 0.667068
O O8 0.239194 0.210808 0.415317
O O9 0.356782 0.624737 0.821203
O O10 0.932276 0.916582 0.754715
O O11 0.808909 0.468170 0.485903
O O12 0.767792 0.955743 0.978389
O O13 0.374699 0.774974 0.679451
O O14 0.500000 0.500000 0.500000
O O15 0.500000 0.000000 0.000000
#
# Coordination Sequence:
#
# PCOD8008981 Si02
#       7
#     2   2   2   2   2   2   2
#     4  11  24  39  63  95 137 173 213 268 319 369
#     4  10  21  36  64  93 133 174 227 262 298 373
#     4  10  23  41  69  95 123 175 215 263 322 388
#     4  10  21  35  61  93 127 186 229 257 288 370
#     4  11  23  42  65  93 136 180 221 257 306 382
#     4  11  27  44  65  98 136 165 208 278 337 368
#     4  11  24  46  75  96 119 161 216 266 328 411
#
# _framework density 21.253667
#
# number of rings (size 3 to 8) (size 9 to 14) (size 15 to 20)
#    0.000    1.429    1.429    3.857   12.000    1.143 
#    0.000    1.429    0.000    0.000    0.000    0.000 
#    0.000    0.000    0.000    0.000    0.000    0.000 
#
# Total GULP energy -173439.648497 kJ/mol
# GULP energy per Si atom -12388.546321 kJ/mol
# Density = 2.120529 g / cm^3
# Si number density = 21.253667 Si / 1000 Ang^3
#
#
#
# Elastic Constant Matrix: (Units=GPa)
#
#
# Indices 1 2 3 4 5 6 
#
# 1 89.5565 61.3603 40.0757 0.3816 13.0880 -2.9823
# 2 61.3603 157.5992 52.8221 5.5398 18.2745 -11.3189
# 3 40.0757 52.8221 119.6890 6.8470 1.9841 -1.7844
# 4 0.3816 5.5398 6.8470 33.8481 -1.4658 13.1417
# 5 13.0880 18.2745 1.9841 -1.4658 27.4172 2.4635
# 6 -2.9823 -11.3189 -1.7844 13.1417 2.4635 41.5447
#
#
#
# Elastic Compliance Matrix: (Units=1/GPa)
#
#
# Indices 1 2 3 4 5 6 
#
# 1 0.016683 -0.004925 -0.003422 0.001295 -0.004325 -0.000444
# 2 -0.004925 0.009945 -0.002469 -0.002562 -0.004535 0.003329
# 3 -0.003422 -0.002469 0.010637 -0.001560 0.002436 -0.000112
# 4 0.001295 -0.002562 -0.001560 0.035113 0.004160 -0.012026
# 5 -0.004325 -0.004535 0.002436 0.004160 0.042079 -0.005253
# 6 -0.000444 0.003329 -0.000112 -0.012026 -0.005253 0.029056
#
#
# Mechanical properties :
#
#
# Convention : Reuss Voigt Hill
#
# Bulk Modulus (GPa) = 63.95711 75.04011 69.49861
# Shear Modulus (GPa) = 29.35026 34.73444 32.04235
#
# Velocity S-wave (km/s) = 3.72015 4.04701 3.88701
# Velocity P-wave (km/s) = 6.97210 7.56447 7.27432
#
# Compressibility (1/GPa) = 0.01563548
#
# Stress axis : x y z
#
# Youngs Moduli (GPa) = 59.94069 100.55218 94.00780
#
# Poissons Ratio (x) = 0.49518 0.32167
# Poissons Ratio (y) = 0.29518 0.23208
# Poissons Ratio (z) = 0.20510 0.24824
#
# Static dielectric constant tensor:
#      x y z
#    x 3.672550 0.121420 0.011010 
#    y 0.121420 3.900740 0.186750 
#    z 0.011010 0.186750 4.060670 
# 
# 
# High freq. dielectric constant tensor:
#      x y z
#    x 1.802210 0.007180 -0.002980 
#    y 0.007180 1.826600 0.018660 
#    z -0.002980 0.018660 1.851700 
# 
# From -- ./inp_files/299830.got.cif
#   From: 2010.06.25/outbox.cif.g09.slc.cpg/sg2_150_cif.got.tgz:299830.got - 2010.06.27 13:26:56.
