data_PCOD8008178
_publ_section_title
;
Structure prediction by ZEFSAII (Michael W. Deem and Ramdas Pophale) SiO2 
 PCOD8008178
Probable space group: P -1
;
_chemical_formula_sum "Si O2"
_cell_formula_units_Z 16
_cell_length_a 11.219385
_cell_length_b 20.344869
_cell_length_c 6.642658
_cell_angle_alpha 86.391509
_cell_angle_beta 98.138798
_cell_angle_gamma 151.273313
_cell_volume 715.415421
_symmetry_space_group_name_H-M "P -1"
_symmetry_group_IT_number 2
_symmetry_cell_setting 'triclinic'
loop_
_space_group_symop_operation_xyz
x,y,z
-x,-y,-z
loop_
_atom_site_type_symbol
_atom_site_label
_atom_site_fract_x
_atom_site_fract_y
_atom_site_fract_z
Si Si1 0.758930 0.850135 0.277082
Si Si2 0.459156 0.026373 0.296918
Si Si3 0.542918 0.409935 0.577932
Si Si4 0.560938 0.549493 0.779875
Si Si5 0.327242 0.107593 0.393391
Si Si6 0.895057 0.209911 0.051941
Si Si7 0.965978 0.583092 0.954811
Si Si8 0.363978 0.678329 0.886119
O O1 0.679846 0.750149 0.417288
O O2 0.695129 0.887385 0.375283
O O3 0.610355 0.778298 0.049812
O O4 0.050367 0.985857 0.258127
O O5 0.500000 0.000000 0.500000
O O6 0.421346 0.080256 0.369286
O O7 0.702959 0.137545 0.194858
O O8 0.217962 0.889654 0.131905
O O9 0.458131 0.437366 0.655012
O O10 0.567986 0.444707 0.340142
O O11 0.799744 0.506260 0.723315
O O12 0.862738 0.708189 0.805176
O O13 0.500000 0.500000 0.000000
O O14 0.534897 0.258889 0.325724
O O15 0.990712 0.324721 0.955198
O O16 0.234358 0.681118 0.944819
O O17 0.833033 0.476420 0.119345
#
# Coordination Sequence:
#
# PCOD8008178 Si02
#       8
#     2   2   2   2   2   2   2   2
#     4  10  24  40  65  96 129 169 218 269 314 394
#     4  11  26  42  67  93 130 173 214 269 324 380
#     4   9  21  41  61  95 134 161 217 269 315 383
#     4  10  22  39  67  94 130 173 211 266 326 382
#     4  11  24  43  63  97 125 175 219 261 331 375
#     4  10  23  43  62  99 123 167 222 261 319 392
#     4   9  19  40  68  93 128 164 214 266 322 385
#     4  10  20  42  67  92 130 168 207 273 323 379
#
# _framework density 22.364626999999999
#
# number of rings (size 3 to 8) (size 9 to 14) (size 15 to 20)
#    0.000    2.000    1.250    0.375    5.250    5.000 
#    2.250    6.875    0.000    0.000    0.000    0.000 
#    0.000    0.000    0.000    0.000    0.000    0.000 
#
# Total GULP energy -198295.398315 kJ/mol
# GULP energy per Si atom -12393.462395 kJ/mol
# Density = 2.231372 g / cm^3
# Si number density = 22.364627 Si / 1000 Ang^3
#
#
#
# Elastic Constant Matrix: (Units=GPa)
#
#
# Indices 1 2 3 4 5 6 
#
# 1 79.1484 22.1518 28.5923 -15.6196 7.3181 -4.4862
# 2 22.1518 96.1583 18.9588 -12.0392 1.7638 0.2335
# 3 28.5923 18.9588 67.0530 -16.5049 5.1547 -8.4050
# 4 -15.6196 -12.0392 -16.5049 29.7013 -4.5933 0.6575
# 5 7.3181 1.7638 5.1547 -4.5933 29.7034 -2.0531
# 6 -4.4862 0.2335 -8.4050 0.6575 -2.0531 32.4582
#
#
#
# Elastic Compliance Matrix: (Units=1/GPa)
#
#
# Indices 1 2 3 4 5 6 
#
# 1 0.016150 -0.002148 -0.004896 0.004538 -0.002248 0.000746
# 2 -0.002148 0.011583 -0.001862 0.002630 0.000510 -0.000883
# 3 -0.004896 -0.001862 0.019986 0.007576 -0.000682 0.004315
# 4 0.004538 0.002630 0.007576 0.041910 0.004029 0.001976
# 5 -0.002248 0.000510 -0.000682 0.004029 0.035045 0.001644
# 6 0.000746 -0.000883 0.004315 0.001976 0.001644 0.032100
#
#
# Mechanical properties :
#
#
# Convention : Reuss Voigt Hill
#
# Bulk Modulus (GPa) = 33.43619 42.41839 37.92729
# Shear Modulus (GPa) = 27.09235 29.88304 28.48769
#
# Velocity S-wave (km/s) = 3.48428 3.65934 3.57288
# Velocity P-wave (km/s) = 5.58300 6.07143 5.83233
#
# Compressibility (1/GPa) = 0.02990771
#
# Stress axis : x y z
#
# Youngs Moduli (GPa) = 61.91995 86.33055 50.03536
#
# Poissons Ratio (x) = 0.18540 0.24498
# Poissons Ratio (y) = 0.13298 0.09317
# Poissons Ratio (z) = 0.30317 0.16075
#
# Static dielectric constant tensor:
#      x y z
#    x 4.234430 0.060820 0.248660 
#    y 0.060820 4.376520 -0.074890 
#    z 0.248660 -0.074890 4.138600 
# 
# 
# High freq. dielectric constant tensor:
#      x y z
#    x 1.883480 -0.002460 0.004900 
#    y -0.002460 1.891170 -0.004810 
#    z 0.004900 -0.004810 1.866390 
# 
# From -- ./inp_files/83177.got.cif
#   From: 2010.06.25/outbox.cif.g09.slc.cpg/sg2_42_cif.got.tgz:83177.got - 2010.06.27 13:26:56.
