data_PCOD8008946
_publ_section_title
;
Structure prediction by ZEFSAII (Michael W. Deem and Ramdas Pophale) SiO2 
 PCOD8008946
Probable space group: P -1
;
_chemical_formula_sum "Si O2"
_cell_formula_units_Z 16
_cell_length_a 24.067200
_cell_length_b 11.832104
_cell_length_c 11.738335
_cell_angle_alpha 140.455424
_cell_angle_beta 38.814995
_cell_angle_gamma 158.200258
_cell_volume 761.590996
_symmetry_space_group_name_H-M "P -1"
_symmetry_group_IT_number 2
_symmetry_cell_setting 'triclinic'
loop_
_space_group_symop_operation_xyz
x,y,z
-x,-y,-z
loop_
_atom_site_type_symbol
_atom_site_label
_atom_site_fract_x
_atom_site_fract_y
_atom_site_fract_z
Si Si1 0.676473 0.303294 0.489855
Si Si2 0.596070 0.455255 0.040067
Si Si3 0.238552 0.192162 0.178566
Si Si4 0.741340 0.331858 0.665233
Si Si5 0.243605 0.909961 0.140992
Si Si6 0.923073 0.554602 0.126721
Si Si7 0.931133 0.228529 0.472286
Si Si8 0.662465 0.795716 0.412424
O O1 0.731823 0.596529 0.619671
O O2 0.694480 0.260090 0.553660
O O3 0.780892 0.359166 0.284445
O O4 0.500000 0.000000 0.500000
O O5 0.665950 0.710403 0.216838
O O6 0.410384 0.136381 0.102044
O O7 0.640216 0.603323 0.960529
O O8 0.658704 0.357783 0.884828
O O9 0.265004 0.063217 0.112454
O O10 0.063975 0.927426 0.199196
O O11 0.926222 0.668553 0.648331
O O12 0.690339 0.053513 0.571688
O O13 0.138277 0.826795 0.339277
O O14 0.149177 0.580571 0.990771
O O15 0.000000 0.500000 0.000000
O O16 0.000000 0.500000 0.500000
O O17 0.794882 0.916465 0.371403
O O18 0.500000 0.500000 0.500000
#
# Coordination Sequence:
#
# PCOD8008946 Si02
#       8
#     2   2   2   2   2   2   2   2
#     4  11  23  40  63  98 136 174 212 266 340 398
#     4  11  24  42  67 102 129 172 221 274 336 397
#     4  10  23  38  64  98 134 168 218 270 330 410
#     4  10  24  43  66  95 136 168 221 278 324 395
#     4  11  22  41  66  95 132 172 220 272 333 394
#     4  10  21  35  60  90 126 172 207 263 324 392
#     4  10  23  44  67  91 129 177 221 274 327 385
#     4  11  24  44  70  95 128 178 226 273 332 384
#
# _framework density 21.008652000000001
#
# number of rings (size 3 to 8) (size 9 to 14) (size 15 to 20)
#    0.000    1.500    1.250    3.750    8.750    2.000 
#    0.000    2.500    0.000    0.000    0.000    0.000 
#    0.000    0.000    0.000    0.000    0.000    0.000 
#
# Total GULP energy -198328.554154 kJ/mol
# GULP energy per Si atom -12395.534635 kJ/mol
# Density = 2.096083 g / cm^3
# Si number density = 21.008652 Si / 1000 Ang^3
#
#
#
# Elastic Constant Matrix: (Units=GPa)
#
#
# Indices 1 2 3 4 5 6 
#
# 1 81.4508 40.7590 33.4961 1.6213 1.1125 23.5655
# 2 40.7590 130.3835 44.7551 1.9269 -8.3018 40.9944
# 3 33.4961 44.7551 127.6795 -0.8882 -2.7807 11.5462
# 4 1.6213 1.9269 -0.8882 41.1733 7.2357 3.8186
# 5 1.1125 -8.3018 -2.7807 7.2357 31.5359 -0.6718
# 6 23.5655 40.9944 11.5462 3.8186 -0.6718 43.0705
#
#
#
# Elastic Compliance Matrix: (Units=1/GPa)
#
#
# Indices 1 2 3 4 5 6 
#
# 1 0.016428 -0.002326 -0.002984 0.000244 -0.001639 -0.006022
# 2 -0.002326 0.012725 -0.002881 -0.000166 0.003003 -0.010005
# 3 -0.002984 -0.002881 0.009466 0.000260 0.000161 0.001817
# 4 0.000244 -0.000166 0.000260 0.025559 -0.005945 -0.002404
# 5 -0.001639 0.003003 0.000161 -0.005945 0.033916 -0.000948
# 6 -0.006022 -0.010005 0.001817 -0.002404 -0.000948 0.035747
#
#
# Mechanical properties :
#
#
# Convention : Reuss Voigt Hill
#
# Bulk Modulus (GPa) = 44.97010 64.17045 54.57027
# Shear Modulus (GPa) = 31.71853 37.85618 34.78736
#
# Velocity S-wave (km/s) = 3.88981 4.24952 4.07364
# Velocity P-wave (km/s) = 6.45183 7.39520 6.93957
#
# Compressibility (1/GPa) = 0.02223700
#
# Stress axis : x y z
#
# Youngs Moduli (GPa) = 60.87073 78.58360 105.64213
#
# Poissons Ratio (x) = 0.18278 0.31524
# Poissons Ratio (y) = 0.14158 0.30439
# Poissons Ratio (z) = 0.18164 0.22642
#
# Static dielectric constant tensor:
#      x y z
#    x 2.725250 -0.411540 -1.419000 
#    y -0.411540 3.764380 -0.864430 
#    z -1.419000 -0.864430 2.177470 
# 
# 
# High freq. dielectric constant tensor:
#      x y z
#    x 1.812820 0.021840 0.010900 
#    y 0.021840 1.842390 -0.002370 
#    z 0.010900 -0.002370 1.825660 
# 
# From -- ./inp_files/178070.got.cif
#   From: 2010.06.25/outbox.cif.g09.slc.cpg/sg2_90_cif.got.tgz:178070.got - 2010.06.27 13:26:56.
