data_PCOD8008552
_publ_section_title
;
Structure prediction by ZEFSAII (Michael W. Deem and Ramdas Pophale) SiO2 
 PCOD8008552
Probable space group: P -1
;
_chemical_formula_sum "Si O2"
_cell_formula_units_Z 16
_cell_length_a 19.514449
_cell_length_b 8.857017
_cell_length_c 16.359960
_cell_angle_alpha 117.969479
_cell_angle_beta 20.382302
_cell_angle_gamma 128.925540
_cell_volume 686.960186
_symmetry_space_group_name_H-M "P -1"
_symmetry_group_IT_number 2
_symmetry_cell_setting 'triclinic'
loop_
_space_group_symop_operation_xyz
x,y,z
-x,-y,-z
loop_
_atom_site_type_symbol
_atom_site_label
_atom_site_fract_x
_atom_site_fract_y
_atom_site_fract_z
Si Si1 0.320457 0.545130 0.623097
Si Si2 0.624586 0.387237 0.236164
Si Si3 0.822930 0.089448 0.407057
Si Si4 0.979101 0.333942 0.739941
Si Si5 0.344200 0.760236 0.493687
Si Si6 0.099599 0.918032 0.083647
Si Si7 0.769846 0.257700 0.670283
Si Si8 0.217551 0.977887 0.259949
O O1 0.564339 0.556886 0.334226
O O2 0.336133 0.633550 0.717564
O O3 0.303515 0.696649 0.618794
O O4 0.076806 0.295115 0.828603
O O5 0.403409 0.159451 0.387535
O O6 0.864095 0.449222 0.934990
O O7 0.820424 0.168322 0.338737
O O8 0.804586 0.232925 0.529843
O O9 0.066146 0.102545 0.151599
O O10 0.938554 0.146717 0.794559
O O11 0.866347 0.232351 0.752395
O O12 0.270828 0.547062 0.469726
O O13 0.619540 0.971822 0.224277
O O14 0.773756 0.082056 0.671908
O O15 0.000000 0.500000 0.500000
O O16 0.492560 0.193314 0.979476
O O17 0.000000 0.000000 0.500000
#
# Coordination Sequence:
#
# PCOD8008552 Si02
#       8
#     2   2   2   2   2   2   2   2
#     4   9  23  41  62  95 122 168 213 257 311 359
#     4  10  20  44  66  85 131 166 207 263 308 372
#     4  11  22  42  66  89 130 169 203 264 317 366
#     4  11  22  42  65  90 128 170 205 257 321 371
#     4  11  23  39  63  97 123 166 214 252 311 379
#     4  10  22  41  61  94 129 165 209 259 307 371
#     4  11  24  42  65  96 129 165 212 267 322 379
#     4  11  24  42  67  97 126 167 215 263 319 388
#
# _framework density 23.291015999999999
#
# number of rings (size 3 to 8) (size 9 to 14) (size 15 to 20)
#    0.000    1.500    2.500    1.500    1.750    4.000 
#    2.250    1.875    0.000    0.000    0.000    0.000 
#    0.000    0.000    0.000    0.000    0.000    0.000 
#
# Total GULP energy -198295.624218 kJ/mol
# GULP energy per Si atom -12393.476514 kJ/mol
# Density = 2.323801 g / cm^3
# Si number density = 23.291016 Si / 1000 Ang^3
#
#
#
# Elastic Constant Matrix: (Units=GPa)
#
#
# Indices 1 2 3 4 5 6 
#
# 1 86.8019 13.6106 28.5326 13.5348 -10.5848 0.6906
# 2 13.6106 65.6644 41.9156 1.0765 -1.9405 0.9469
# 3 28.5326 41.9156 83.0329 4.7059 -22.8575 -7.7148
# 4 13.5348 1.0765 4.7059 42.5936 0.8303 -9.0341
# 5 -10.5848 -1.9405 -22.8575 0.8303 26.0763 3.3772
# 6 0.6906 0.9469 -7.7148 -9.0341 3.3772 46.6228
#
#
#
# Elastic Compliance Matrix: (Units=1/GPa)
#
#
# Indices 1 2 3 4 5 6 
#
# 1 0.013844 -0.000243 -0.003837 -0.004419 0.002623 -0.001881
# 2 -0.000243 0.025385 -0.016380 0.001034 -0.012325 -0.002129
# 3 -0.003837 -0.016380 0.027848 -0.001173 0.021253 0.003231
# 4 -0.004419 0.001034 -0.001173 0.026178 -0.004256 0.005231
# 5 0.002623 -0.012325 0.021253 -0.004256 0.057424 -0.001256
# 6 -0.001881 -0.002129 0.003231 0.005231 -0.001256 0.023159
#
#
# Mechanical properties :
#
#
# Convention : Reuss Voigt Hill
#
# Bulk Modulus (GPa) = 38.23210 44.84630 41.53920
# Shear Modulus (GPa) = 22.37377 33.15457 27.76417
#
# Velocity S-wave (km/s) = 3.10275 3.77701 3.45636
# Velocity P-wave (km/s) = 5.41171 6.19013 5.81396
#
# Compressibility (1/GPa) = 0.02615603
#
# Stress axis : x y z
#
# Youngs Moduli (GPa) = 72.23552 39.39354 35.90949
#
# Poissons Ratio (x) = 0.00958 0.13777
# Poissons Ratio (y) = 0.01757 0.58820
# Poissons Ratio (z) = 0.27714 0.64527
#
# Static dielectric constant tensor:
#      x y z
#    x 4.429600 -0.101540 -0.449630 
#    y -0.101540 4.052940 -0.014300 
#    z -0.449630 -0.014300 4.376550 
# 
# 
# High freq. dielectric constant tensor:
#      x y z
#    x 1.931410 -0.003680 -0.023390 
#    y -0.003680 1.911930 -0.015600 
#    z -0.023390 -0.015600 1.912890 
# 
# From -- ./inp_files/577359.got.cif
#   From: 2010.06.25/outbox.cif.g09.slc.cpg/sg2_289_cif.got.tgz:577359.got - 2010.06.27 13:26:56.
