data_PCOD8008453
_publ_section_title
;
Structure prediction by ZEFSAII (Michael W. Deem and Ramdas Pophale) SiO2 
 PCOD8008453
Probable space group: P -1
;
_chemical_formula_sum "Si O2"
_cell_formula_units_Z 16
_cell_length_a 10.849675
_cell_length_b 12.321751
_cell_length_c 9.608750
_cell_angle_alpha 47.266916
_cell_angle_beta 121.690081
_cell_angle_gamma 94.161297
_cell_volume 715.247410
_symmetry_space_group_name_H-M "P -1"
_symmetry_group_IT_number 2
_symmetry_cell_setting 'triclinic'
loop_
_space_group_symop_operation_xyz
x,y,z
-x,-y,-z
loop_
_atom_site_type_symbol
_atom_site_label
_atom_site_fract_x
_atom_site_fract_y
_atom_site_fract_z
Si Si1 0.729337 0.307677 0.764778
Si Si2 0.592420 0.595745 0.640333
Si Si3 0.802419 0.032605 0.242864
Si Si4 0.831750 0.115765 0.475937
Si Si5 0.672757 0.492607 0.083140
Si Si6 0.819775 0.650086 0.250575
Si Si7 0.069709 0.108030 0.028396
Si Si8 0.350503 0.177647 0.727330
O O1 0.706053 0.435849 0.760074
O O2 0.595198 0.377182 0.500905
O O3 0.908784 0.262468 0.856461
O O4 0.701782 0.160388 0.949414
O O5 0.604114 0.749081 0.443523
O O6 0.663740 0.572231 0.857449
O O7 0.797499 0.859145 0.374502
O O8 0.984416 0.001011 0.356107
O O9 0.729251 0.116957 0.276890
O O10 0.803238 0.299525 0.339217
O O11 0.802269 0.016987 0.673315
O O12 0.718550 0.600814 0.122638
O O13 0.500000 0.500000 0.000000
O O14 0.832010 0.817371 0.068155
O O15 0.714018 0.694257 0.291947
O O16 0.000000 0.500000 0.500000
O O17 0.000000 0.000000 0.000000
O O18 0.500000 0.000000 0.000000
#
# Coordination Sequence:
#
# PCOD8008453 Si02
#       8
#     2   2   2   2   2   2   2   2
#     4  10  21  42  71  99 130 192 237 285 345 438
#     4  11  25  42  71 101 140 182 237 287 366 423
#     4  10  20  43  68  97 136 175 243 286 349 408
#     4  10  23  42  68  98 132 190 229 293 344 426
#     4  12  29  46  70 105 151 186 232 300 365 420
#     4  12  28  50  72 109 145 193 241 294 361 432
#     4  11  24  43  73 100 141 186 245 286 360 421
#     4  12  26  43  72 101 140 183 237 297 348 427
#
# _framework density 22.369882
#
# number of rings (size 3 to 8) (size 9 to 14) (size 15 to 20)
#    0.000    1.000    2.500    3.750   10.500    0.000 
#    0.000    3.125    0.000    0.000    0.000    0.000 
#    0.000    0.000    0.000    0.000    0.000    0.000 
#
# Total GULP energy -198331.008731 kJ/mol
# GULP energy per Si atom -12395.688046 kJ/mol
# Density = 2.231897 g / cm^3
# Si number density = 22.369882 Si / 1000 Ang^3
#
#
#
# Elastic Constant Matrix: (Units=GPa)
#
#
# Indices 1 2 3 4 5 6 
#
# 1 62.1017 12.1577 27.8928 -2.8386 -12.8199 5.8857
# 2 12.1577 116.1684 18.1232 3.1680 -0.8192 9.6728
# 3 27.8928 18.1232 95.0236 -4.9321 -11.2738 -5.8266
# 4 -2.8386 3.1680 -4.9321 37.3932 1.3188 2.0834
# 5 -12.8199 -0.8192 -11.2738 1.3188 35.9335 -7.6499
# 6 5.8857 9.6728 -5.8266 2.0834 -7.6499 35.6485
#
#
#
# Elastic Compliance Matrix: (Units=1/GPa)
#
#
# Indices 1 2 3 4 5 6 
#
# 1 0.019957 -0.001024 -0.005223 0.000904 0.004809 -0.002892
# 2 -0.001024 0.009257 -0.001843 -0.000899 -0.001311 -0.002873
# 3 -0.005223 -0.001843 0.013077 0.001151 0.003024 0.004082
# 4 0.000904 -0.000899 0.001151 0.027142 -0.000640 -0.001441
# 5 0.004809 -0.001311 0.003024 -0.000640 0.031968 0.006954
# 6 -0.002892 -0.002873 0.004082 -0.001441 0.006954 0.031552
#
#
# Mechanical properties :
#
#
# Convention : Reuss Voigt Hill
#
# Bulk Modulus (GPa) = 38.29697 43.29347 40.79522
# Shear Modulus (GPa) = 31.67819 36.13636 33.90728
#
# Velocity S-wave (km/s) = 3.76720 4.02357 3.89749
# Velocity P-wave (km/s) = 6.00662 6.40164 6.20727
#
# Compressibility (1/GPa) = 0.02611173
#
# Stress axis : x y z
#
# Youngs Moduli (GPa) = 50.10779 108.02144 76.46955
#
# Poissons Ratio (x) = 0.11060 0.39937
# Poissons Ratio (y) = 0.05130 0.14097
# Poissons Ratio (z) = 0.26169 0.19913
#
# Static dielectric constant tensor:
#      x y z
#    x 4.146100 -0.074840 -0.410400 
#    y -0.074840 4.235340 0.074080 
#    z -0.410400 0.074080 5.078740 
# 
# 
# High freq. dielectric constant tensor:
#      x y z
#    x 1.873810 -0.006450 -0.008380 
#    y -0.006450 1.885800 -0.005130 
#    z -0.008380 -0.005130 1.892270 
# 
# From -- ./inp_files/261708.got.cif
#   From: 2010.06.25/outbox.cif.g09.slc.cpg/sg2_131_cif.got.tgz:261708.got - 2010.06.27 13:26:56.
