data_PCOD8008899
_publ_section_title
;
Structure prediction by ZEFSAII (Michael W. Deem and Ramdas Pophale) SiO2 
 PCOD8008899
Probable space group: P -1
;
_chemical_formula_sum "Si O2"
_cell_formula_units_Z 14
_cell_length_a 14.074585
_cell_length_b 15.912712
_cell_length_c 11.936033
_cell_angle_alpha 145.679146
_cell_angle_beta 31.357798
_cell_angle_gamma 151.687207
_cell_volume 629.331827
_symmetry_space_group_name_H-M "P -1"
_symmetry_group_IT_number 2
_symmetry_cell_setting 'triclinic'
loop_
_space_group_symop_operation_xyz
x,y,z
-x,-y,-z
loop_
_atom_site_type_symbol
_atom_site_label
_atom_site_fract_x
_atom_site_fract_y
_atom_site_fract_z
Si Si1 0.421971 0.626532 0.693783
Si Si2 0.676942 0.365880 0.958849
Si Si3 0.918158 0.055468 0.470900
Si Si4 0.537333 0.054270 0.268441
Si Si5 0.895500 0.437294 0.414707
Si Si6 0.191995 0.953370 0.195525
Si Si7 0.702342 0.578242 0.620776
O O1 0.500000 0.500000 0.500000
O O2 0.648556 0.834168 0.690626
O O3 0.305658 0.561055 0.616504
O O4 0.266344 0.604381 0.931679
O O5 0.909295 0.490610 0.794907
O O6 0.543666 0.146168 0.824758
O O7 0.524452 0.433679 0.152419
O O8 0.997594 0.925499 0.277812
O O9 0.093510 0.211073 0.379801
O O10 0.673115 0.935320 0.525028
O O11 0.913560 0.155380 0.700164
O O12 0.717968 0.212918 0.347251
O O13 0.662868 0.102397 0.073572
O O14 0.758136 0.522590 0.619819
O O15 0.000000 0.500000 0.500000
#
# Coordination Sequence:
#
# PCOD8008899 Si02
#       7
#     2   2   2   2   2   2   2
#     4   9  17  35  61  98 135 167 198 253 321 394
#     4  10  23  45  68  98 135 166 217 266 325 401
#     4  11  20  35  64  96 139 169 202 259 319 399
#     4  11  23  43  65  96 126 173 218 268 325 379
#     4  12  29  47  68  92 124 176 232 279 323 372
#     4  10  21  35  58 101 137 170 213 242 326 402
#     4  11  22  43  66 100 137 173 209 265 333 381
#
# _framework density 22.245816999999999
#
# number of rings (size 3 to 8) (size 9 to 14) (size 15 to 20)
#    0.000    1.429    5.714    1.286    2.000    5.143 
#    0.000    0.714    0.000    0.000    0.000    0.000 
#    0.000    0.000    0.000    0.000    0.000    0.000 
#
# Total GULP energy -173528.124664 kJ/mol
# GULP energy per Si atom -12394.866047 kJ/mol
# Density = 2.219518 g / cm^3
# Si number density = 22.245817 Si / 1000 Ang^3
#
#
#
# Elastic Constant Matrix: (Units=GPa)
#
#
# Indices 1 2 3 4 5 6 
#
# 1 114.2142 28.0202 22.0465 9.3470 -6.8861 13.5388
# 2 28.0202 81.4151 29.5421 5.7069 -1.5615 17.0403
# 3 22.0465 29.5421 51.5786 -5.8875 -15.7273 10.4539
# 4 9.3470 5.7069 -5.8875 33.0187 6.7972 -1.6096
# 5 -6.8861 -1.5615 -15.7273 6.7972 29.2829 1.2537
# 6 13.5388 17.0403 10.4539 -1.6096 1.2537 31.2058
#
#
#
# Elastic Compliance Matrix: (Units=1/GPa)
#
#
# Indices 1 2 3 4 5 6 
#
# 1 0.010468 -0.001687 -0.002758 -0.003694 0.001875 -0.002962
# 2 -0.001687 0.017863 -0.009884 -0.003913 -0.003598 -0.005768
# 3 -0.002758 -0.009884 0.032380 0.004893 0.015277 -0.004615
# 4 -0.003694 -0.003913 0.004893 0.034445 -0.006622 0.004143
# 5 0.001875 -0.003598 0.015277 -0.006622 0.044402 -0.006092
# 6 -0.002962 -0.005768 -0.004615 0.004143 -0.006092 0.038485
#
#
# Mechanical properties :
#
#
# Convention : Reuss Voigt Hill
#
# Bulk Modulus (GPa) = 31.19895 45.15837 38.17866
# Shear Modulus (GPa) = 23.00068 29.87476 26.43772
#
# Velocity S-wave (km/s) = 3.21897 3.66859 3.45111
# Velocity P-wave (km/s) = 5.27928 6.18777 5.75149
#
# Compressibility (1/GPa) = 0.03205236
#
# Stress axis : x y z
#
# Youngs Moduli (GPa) = 95.52750 55.98306 30.88336
#
# Poissons Ratio (x) = 0.09446 0.08516
# Poissons Ratio (y) = 0.16118 0.30526
# Poissons Ratio (z) = 0.26343 0.55335
#
# Static dielectric constant tensor:
#      x y z
#    x 3.865290 -0.164350 -0.247190 
#    y -0.164350 3.889350 -0.175050 
#    z -0.247190 -0.175050 3.921740 
# 
# 
# High freq. dielectric constant tensor:
#      x y z
#    x 1.853040 -0.000480 -0.033110 
#    y -0.000480 1.886120 -0.008050 
#    z -0.033110 -0.008050 1.853250 
# 
# From -- ./inp_files/456820.got.cif
#   From: 2010.06.25/outbox.cif.g09.slc.cpg/sg2_229_cif.got.tgz:456820.got - 2010.06.27 13:26:56.
