data_PCOD8008359
_publ_section_title
;
Structure prediction by ZEFSAII (Michael W. Deem and Ramdas Pophale) SiO2 
 PCOD8008359
Probable space group: P -1
;
_chemical_formula_sum "Si O2"
_cell_formula_units_Z 14
_cell_length_a 8.729060
_cell_length_b 14.986286
_cell_length_c 14.133499
_cell_angle_alpha 148.497168
_cell_angle_beta 136.350058
_cell_angle_gamma 45.982608
_cell_volume 651.105410
_symmetry_space_group_name_H-M "P -1"
_symmetry_group_IT_number 2
_symmetry_cell_setting 'triclinic'
loop_
_space_group_symop_operation_xyz
x,y,z
-x,-y,-z
loop_
_atom_site_type_symbol
_atom_site_label
_atom_site_fract_x
_atom_site_fract_y
_atom_site_fract_z
Si Si1 0.059947 0.690186 0.490478
Si Si2 0.353009 0.023687 0.655137
Si Si3 0.724062 0.380049 0.289339
Si Si4 0.781895 0.743438 0.588960
Si Si5 0.127561 0.611903 0.949057
Si Si6 0.479603 0.358124 0.986537
Si Si7 0.974092 0.947839 0.297080
O O1 0.825955 0.741762 0.493460
O O2 0.045773 0.515452 0.266761
O O3 0.277255 0.647465 0.622196
O O4 0.091882 0.852336 0.588057
O O5 0.605811 0.918024 0.697482
O O6 0.216142 0.914163 0.428994
O O7 0.377694 0.193905 0.759046
O O8 0.220829 0.079797 0.743893
O O9 0.673029 0.584636 0.428108
O O10 0.973160 0.278165 0.268864
O O11 0.527505 0.320257 0.086678
O O12 0.290716 0.531895 0.037085
O O13 0.282037 0.632885 0.947139
O O14 0.987900 0.804224 0.090551
#
# Coordination Sequence:
#
# PCOD8008359 Si02
#       7
#     2   2   2   2   2   2   2
#     4  10  20  43  64  93 122 160 203 262 301 362
#     4  11  24  40  60  90 130 167 204 249 310 370
#     4   9  19  38  64  93 122 154 204 258 312 354
#     4   9  18  38  66  84 121 159 204 251 307 357
#     4  11  22  38  69  95 121 154 212 262 304 354
#     4  11  21  38  65  98 118 157 209 260 306 356
#     4  11  25  42  58  91 133 166 201 252 307 371
#
# _framework density 21.501894
#
# number of rings (size 3 to 8) (size 9 to 14) (size 15 to 20)
#    0.857    0.857    2.857    1.714    2.000    2.286 
#    5.143    1.429    0.000    0.000    0.000    0.000 
#    0.000    0.000    0.000    0.000    0.000    0.000 
#
# Total GULP energy -173471.975583 kJ/mol
# GULP energy per Si atom -12390.855399 kJ/mol
# Density = 2.145295 g / cm^3
# Si number density = 21.501894 Si / 1000 Ang^3
#
#
#
# Elastic Constant Matrix: (Units=GPa)
#
#
# Indices 1 2 3 4 5 6 
#
# 1 26.6773 24.6450 24.1905 4.8296 2.3553 10.1542
# 2 24.6450 78.0973 35.0362 -3.7947 4.5545 21.3247
# 3 24.1905 35.0362 110.6174 4.1055 -3.5572 5.1233
# 4 4.8296 -3.7947 4.1055 41.1987 10.3775 2.2037
# 5 2.3553 4.5545 -3.5572 10.3775 23.0638 1.5837
# 6 10.1542 21.3247 5.1233 2.2037 1.5837 17.3303
#
#
#
# Elastic Compliance Matrix: (Units=1/GPa)
#
#
# Indices 1 2 3 4 5 6 
#
# 1 0.065688 -0.010599 -0.009845 -0.006055 -0.001927 -0.021590
# 2 -0.010599 0.025852 -0.005206 0.007038 -0.006318 -0.024379
# 3 -0.009845 -0.005206 0.012678 -0.002136 0.004380 0.008297
# 4 -0.006055 0.007038 -0.002136 0.029745 -0.014005 -0.006983
# 5 -0.001927 -0.006318 0.004380 -0.014005 0.051458 0.004687
# 6 -0.021590 -0.024379 0.008297 -0.006983 0.004687 0.098357
#
#
# Mechanical properties :
#
#
# Convention : Reuss Voigt Hill
#
# Bulk Modulus (GPa) = 18.89717 42.57062 30.73389
# Shear Modulus (GPa) = 14.17573 25.08659 19.63116
#
# Velocity S-wave (km/s) = 2.57043 3.41943 3.02486
# Velocity P-wave (km/s) = 4.19728 5.95244 5.15018
#
# Compressibility (1/GPa) = 0.05291799
#
# Stress axis : x y z
#
# Youngs Moduli (GPa) = 15.22344 38.68230 78.87808
#
# Poissons Ratio (x) = 0.40999 0.77658
# Poissons Ratio (y) = 0.16135 0.41060
# Poissons Ratio (z) = 0.14988 0.20136
#
# Static dielectric constant tensor:
#      x y z
#    x 3.448100 0.174440 0.086880 
#    y 0.174440 3.779010 -0.058060 
#    z 0.086880 -0.058060 3.863670 
# 
# 
# High freq. dielectric constant tensor:
#      x y z
#    x 1.808190 0.013960 0.009340 
#    y 0.013960 1.846150 0.003570 
#    z 0.009340 0.003570 1.839190 
# 
# From -- ./inp_files/282420.got.cif
#   From: 2010.06.25/outbox.cif.g09.slc.cpg/sg2_142_cif.got.tgz:282420.got - 2010.06.27 13:26:56.
