data_PCOD8008701
_publ_section_title
;
Structure prediction by ZEFSAII (Michael W. Deem and Ramdas Pophale) SiO2 
 PCOD8008701
Probable space group: P -1
;
_chemical_formula_sum "Si O2"
_cell_formula_units_Z 14
_cell_length_a 15.094443
_cell_length_b 5.229312
_cell_length_c 15.338497
_cell_angle_alpha 121.500632
_cell_angle_beta 43.985180
_cell_angle_gamma 106.146282
_cell_volume 707.046866
_symmetry_space_group_name_H-M "P -1"
_symmetry_group_IT_number 2
_symmetry_cell_setting 'triclinic'
loop_
_space_group_symop_operation_xyz
x,y,z
-x,-y,-z
loop_
_atom_site_type_symbol
_atom_site_label
_atom_site_fract_x
_atom_site_fract_y
_atom_site_fract_z
Si Si1 0.446385 0.599569 0.686684
Si Si2 0.325822 0.290808 0.866189
Si Si3 0.160055 0.637134 0.183298
Si Si4 0.070818 0.164230 0.727621
Si Si5 0.699237 0.533919 0.399040
Si Si6 0.888457 0.918043 0.125262
Si Si7 0.933787 0.707260 0.660183
O O1 0.425684 0.451145 0.768243
O O2 0.599846 0.554629 0.553488
O O3 0.379648 0.420973 0.627892
O O4 0.387593 0.954101 0.790966
O O5 0.195753 0.297822 0.903106
O O6 0.289247 0.483539 0.014365
O O7 0.152755 0.481089 0.254143
O O8 0.033640 0.593133 0.207654
O O9 0.160712 0.998562 0.260190
O O10 0.216459 0.196493 0.603097
O O11 0.048711 0.244749 0.860421
O O12 0.045086 0.824201 0.661374
O O13 0.793805 0.215969 0.278004
O O14 0.000000 0.000000 0.000000
O O15 0.000000 0.500000 0.500000
#
# Coordination Sequence:
#
# PCOD8008701 Si02
#       7
#     2   2   2   2   2   2   2
#     4  10  23  34  54  71 113 155 194 218 259 300
#     4  11  21  37  53  80 111 155 182 220 266 316
#     4  10  22  36  58  85 113 137 184 221 280 340
#     4  10  21  33  57  79 117 139 187 219 276 325
#     4  10  21  35  48  78 109 154 193 225 250 321
#     4  11  22  32  54  79 121 149 184 217 280 317
#     4  10  21  38  58  84 112 139 172 228 290 335
#
# _framework density 19.800667000000001
#
# number of rings (size 3 to 8) (size 9 to 14) (size 15 to 20)
#    0.857    0.857    1.429    3.857    6.000    2.857 
#    0.000    0.000    0.000    0.000    0.000    6.000 
#    0.000    0.000    0.000    0.000    0.000    0.000 
#
# Total GULP energy -173570.343161 kJ/mol
# GULP energy per Si atom -12397.881654 kJ/mol
# Density = 1.975560 g / cm^3
# Si number density = 19.800667 Si / 1000 Ang^3
#
#
#
# Elastic Constant Matrix: (Units=GPa)
#
#
# Indices 1 2 3 4 5 6 
#
# 1 13.3330 2.0836 12.1604 -3.9936 -7.6409 2.3113
# 2 2.0836 110.9341 49.7045 -18.1111 3.3407 2.4195
# 3 12.1604 49.7045 156.0846 -16.8546 -2.4352 11.7200
# 4 -3.9936 -18.1111 -16.8546 44.4173 3.3917 -0.5755
# 5 -7.6409 3.3407 -2.4352 3.3917 28.2273 -1.9223
# 6 2.3113 2.4195 11.7200 -0.5755 -1.9223 14.4779
#
#
#
# Elastic Compliance Matrix: (Units=1/GPa)
#
#
# Indices 1 2 3 4 5 6 
#
# 1 0.097586 0.001321 -0.006591 0.004840 0.024632 -0.007002
# 2 0.001321 0.011088 -0.003321 0.003511 -0.001626 0.000548
# 3 -0.006591 -0.003321 0.008504 0.001300 -0.001180 -0.005382
# 4 0.004840 0.003511 0.001300 0.025013 -0.002114 -0.001699
# 5 0.024632 -0.001626 -0.001180 -0.002114 0.042635 0.002871
# 6 -0.007002 0.000548 -0.005382 -0.001699 0.002871 0.074767
#
#
# Mechanical properties :
#
#
# Convention : Reuss Voigt Hill
#
# Bulk Modulus (GPa) = 10.00034 45.36095 27.68065
# Shear Modulus (GPa) = 16.12346 31.85140 23.98743
#
# Velocity S-wave (km/s) = 2.85667 4.01509 3.48436
# Velocity P-wave (km/s) = 3.99277 6.66732 5.49524
#
# Compressibility (1/GPa) = 0.09999658
#
# Stress axis : x y z
#
# Youngs Moduli (GPa) = 10.24733 90.18915 117.59130
#
# Poissons Ratio (x) = -0.11917 0.77503
# Poissons Ratio (y) = -0.01354 0.39055
# Poissons Ratio (z) = 0.06754 0.29954
#
# Static dielectric constant tensor:
#      x y z
#    x 3.196020 -0.007410 -0.123380 
#    y -0.007410 3.609270 -0.081930 
#    z -0.123380 -0.081930 3.580650 
# 
# 
# High freq. dielectric constant tensor:
#      x y z
#    x 1.713570 -0.003790 -0.011090 
#    y -0.003790 1.782450 -0.007490 
#    z -0.011090 -0.007490 1.777240 
# 
# From -- ./inp_files/74656.got.cif
#   From: 2010.06.25/outbox.cif.g09.slc.cpg/sg2_38_cif.got.tgz:74656.got - 2010.06.27 13:26:56.
