data_PCOD8008145
_publ_section_title
;
Structure prediction by ZEFSAII (Michael W. Deem and Ramdas Pophale) SiO2 
 PCOD8008145
Probable space group: P -1
;
_chemical_formula_sum "Si O2"
_cell_formula_units_Z 14
_cell_length_a 8.045096
_cell_length_b 9.131312
_cell_length_c 11.888053
_cell_angle_alpha 124.621423
_cell_angle_beta 59.712714
_cell_angle_gamma 111.532512
_cell_volume 616.590635
_symmetry_space_group_name_H-M "P -1"
_symmetry_group_IT_number 2
_symmetry_cell_setting 'triclinic'
loop_
_space_group_symop_operation_xyz
x,y,z
-x,-y,-z
loop_
_atom_site_type_symbol
_atom_site_label
_atom_site_fract_x
_atom_site_fract_y
_atom_site_fract_z
Si Si1 0.952319 0.974295 0.375150
Si Si2 0.028883 0.343352 0.139391
Si Si3 0.884521 0.313079 0.413718
Si Si4 0.369883 0.223167 0.075993
Si Si5 0.384549 0.424790 0.375986
Si Si6 0.775107 0.148515 0.952085
Si Si7 0.230813 0.372789 0.639431
O O1 0.788747 0.800501 0.348730
O O2 0.137238 0.932703 0.223217
O O3 0.872743 0.151641 0.434641
O O4 0.000000 0.000000 0.500000
O O5 0.945164 0.244091 0.239625
O O6 0.979927 0.549105 0.256401
O O7 0.260274 0.316245 0.051433
O O8 0.939119 0.265364 0.019250
O O9 0.667850 0.370644 0.506323
O O10 0.000000 0.500000 0.500000
O O11 0.289181 0.310147 0.254978
O O12 0.315050 0.009250 0.002544
O O13 0.604274 0.261286 0.012370
O O14 0.299392 0.315159 0.466868
O O15 0.618077 0.457240 0.297525
#
# Coordination Sequence:
#
# PCOD8008145 Si02
#       7
#     2   2   2   2   2   2   2
#     4  12  25  43  64  97 137 172 215 281 336 386
#     4  11  21  41  68  98 129 178 222 267 326 397
#     4  11  21  39  71  97 129 176 224 265 324 397
#     4  11  21  39  70  97 127 167 228 273 319 389
#     4  10  20  42  66  98 124 176 229 266 318 402
#     4  11  24  41  66 102 129 170 224 278 327 388
#     4  10  23  39  67  95 134 173 218 274 331 384
#
# _framework density 22.705503
#
# number of rings (size 3 to 8) (size 9 to 14) (size 15 to 20)
#    0.000    1.143    4.286    3.000    0.000    1.143 
#    0.000    2.143    0.000    0.000    0.000    0.000 
#    0.000    0.000    0.000    0.000    0.000    0.000 
#
# Total GULP energy -173452.306766 kJ/mol
# GULP energy per Si atom -12389.450483 kJ/mol
# Density = 2.265382 g / cm^3
# Si number density = 22.705503 Si / 1000 Ang^3
#
#
#
# Elastic Constant Matrix: (Units=GPa)
#
#
# Indices 1 2 3 4 5 6 
#
# 1 132.0723 27.0241 37.0042 6.4653 -5.5795 -12.7305
# 2 27.0241 124.9326 4.4634 1.3806 -7.2507 -21.2167
# 3 37.0042 4.4634 86.8402 2.6009 3.9984 -5.9427
# 4 6.4653 1.3806 2.6009 21.3090 -2.4223 1.5984
# 5 -5.5795 -7.2507 3.9984 -2.4223 36.4544 6.9070
# 6 -12.7305 -21.2167 -5.9427 1.5984 6.9070 27.0000
#
#
#
# Elastic Compliance Matrix: (Units=1/GPa)
#
#
# Indices 1 2 3 4 5 6 
#
# 1 0.009273 -0.001392 -0.003691 -0.002343 0.000944 0.002363
# 2 -0.001392 0.009480 0.000589 -0.000753 0.000250 0.006903
# 3 -0.003691 0.000589 0.013360 -0.001000 -0.002423 0.002342
# 4 -0.002343 -0.000753 -0.001000 0.048693 0.003937 -0.005806
# 5 0.000944 0.000250 -0.002423 0.003937 0.029612 -0.007700
# 6 0.002363 0.006903 0.002342 -0.005806 -0.007700 0.046405
#
#
# Mechanical properties :
#
#
# Convention : Reuss Voigt Hill
#
# Bulk Modulus (GPa) = 43.24439 53.42538 48.33488
# Shear Modulus (GPa) = 28.81530 35.30957 32.06243
#
# Velocity S-wave (km/s) = 3.56629 3.94777 3.76187
# Velocity P-wave (km/s) = 6.00375 6.66038 6.34057
#
# Compressibility (1/GPa) = 0.02312439
#
# Stress axis : x y z
#
# Youngs Moduli (GPa) = 107.83941 105.49074 74.85075
#
# Poissons Ratio (x) = 0.14684 0.27631
# Poissons Ratio (y) = 0.15011 -0.04412
# Poissons Ratio (z) = 0.39808 -0.06217
#
# Static dielectric constant tensor:
#      x y z
#    x 4.555330 -0.260330 -0.266170 
#    y -0.260330 3.965730 0.198140 
#    z -0.266170 0.198140 4.062120 
# 
# 
# High freq. dielectric constant tensor:
#      x y z
#    x 1.903870 -0.012370 -0.005720 
#    y -0.012370 1.859860 0.020050 
#    z -0.005720 0.020050 1.897940 
# 
# From -- ./inp_files/243173.got.cif
#   From: 2010.06.25/outbox.cif.g09.slc.cpg/sg2_122_cif.got.tgz:243173.got - 2010.06.27 13:26:56.
