data_PCOD8008413
_publ_section_title
;
Structure prediction by ZEFSAII (Michael W. Deem and Ramdas Pophale) SiO2 
 PCOD8008413
Probable space group: P -1
;
_chemical_formula_sum "Si O2"
_cell_formula_units_Z 14
_cell_length_a 16.709945
_cell_length_b 9.042497
_cell_length_c 17.237064
_cell_angle_alpha 35.837624
_cell_angle_beta 29.229507
_cell_angle_gamma 56.016766
_cell_volume 636.295543
_symmetry_space_group_name_H-M "P -1"
_symmetry_group_IT_number 2
_symmetry_cell_setting 'triclinic'
loop_
_space_group_symop_operation_xyz
x,y,z
-x,-y,-z
loop_
_atom_site_type_symbol
_atom_site_label
_atom_site_fract_x
_atom_site_fract_y
_atom_site_fract_z
Si Si1 0.084841 0.717535 0.123735
Si Si2 0.205529 0.765457 0.689012
Si Si3 0.537115 0.667385 0.478047
Si Si4 0.751326 0.553120 0.799891
Si Si5 0.334642 0.569930 0.395678
Si Si6 0.388113 0.419032 0.254197
Si Si7 0.150637 0.808391 0.543858
O O1 0.122996 0.590846 0.224840
O O2 0.885871 0.714823 0.302174
O O3 0.054929 0.482022 0.180729
O O4 0.254851 0.039817 0.823168
O O5 0.369257 0.733943 0.606274
O O6 0.225635 0.756567 0.583273
O O7 0.232978 0.081395 0.554196
O O8 0.000000 0.500000 0.000000
O O9 0.500000 0.500000 0.500000
O O10 0.534606 0.477473 0.633961
O O11 0.685196 0.466693 0.803578
O O12 0.870998 0.908005 0.557649
O O13 0.573737 0.415977 0.068226
O O14 0.428908 0.627334 0.206053
O O15 0.311122 0.842594 0.329897
#
# Coordination Sequence:
#
# PCOD8008413 Si02
#       7
#     2   2   2   2   2   2   2
#     4  10  22  40  67  92 126 173 207 259 317 377
#     4  11  24  40  64  94 129 167 214 256 321 376
#     4  12  23  41  65  93 132 172 202 265 325 373
#     4  10  20  43  67  88 133 166 218 251 324 369
#     4  10  24  39  64  95 129 162 218 255 319 372
#     4  10  23  39  63  96 123 172 208 271 304 379
#     4   9  22  41  64  94 127 168 208 266 308 376
#
# _framework density 22.002355000000001
#
# number of rings (size 3 to 8) (size 9 to 14) (size 15 to 20)
#    0.857    0.857    2.857    0.857    4.000    2.857 
#    0.000    0.000    0.000    0.000    0.000    0.000 
#    0.000    0.000    0.000    0.000    0.000    0.000 
#
# Total GULP energy -173493.360238 kJ/mol
# GULP energy per Si atom -12392.382874 kJ/mol
# Density = 2.195228 g / cm^3
# Si number density = 22.002355 Si / 1000 Ang^3
#
#
#
# Elastic Constant Matrix: (Units=GPa)
#
#
# Indices 1 2 3 4 5 6 
#
# 1 123.4828 34.1968 -1.2694 10.4917 -3.3683 7.4165
# 2 34.1968 50.7737 -7.4240 6.5769 14.6286 20.4941
# 3 -1.2694 -7.4240 60.7379 1.6112 -3.5530 5.2716
# 4 10.4917 6.5769 1.6112 28.2109 0.7683 -3.1686
# 5 -3.3683 14.6286 -3.5530 0.7683 28.4514 6.4497
# 6 7.4165 20.4941 5.2716 -3.1686 6.4497 42.8543
#
#
#
# Elastic Compliance Matrix: (Units=1/GPa)
#
#
# Indices 1 2 3 4 5 6 
#
# 1 0.010968 -0.009677 -0.000725 -0.001736 0.005819 0.001815
# 2 -0.009677 0.039036 0.005127 -0.007089 -0.016846 -0.015613
# 3 -0.000725 0.005127 0.017592 -0.002483 0.000623 -0.004768
# 4 -0.001736 -0.007089 -0.002483 0.038633 0.000552 0.006770
# 5 0.005819 -0.016846 0.000623 0.000552 0.044489 0.000317
# 6 0.001815 -0.015613 -0.004768 0.006770 0.000317 0.031527
#
#
# Mechanical properties :
#
#
# Convention : Reuss Voigt Hill
#
# Bulk Modulus (GPa) = 17.52967 31.77791 24.65379
# Shear Modulus (GPa) = 23.60598 33.86938 28.73768
#
# Velocity S-wave (km/s) = 3.27904 3.92771 3.61795
# Velocity P-wave (km/s) = 4.72447 5.91976 5.35557
#
# Compressibility (1/GPa) = 0.05704615
#
# Stress axis : x y z
#
# Youngs Moduli (GPa) = 91.17345 25.61705 56.84464
#
# Poissons Ratio (x) = 0.24790 0.04119
# Poissons Ratio (y) = 0.88232 -0.29144
# Poissons Ratio (z) = 0.06607 -0.13134
#
# Static dielectric constant tensor:
#      x y z
#    x 4.139540 0.092860 -0.142280 
#    y 0.092860 3.785070 -0.206610 
#    z -0.142280 -0.206610 3.762900 
# 
# 
# High freq. dielectric constant tensor:
#      x y z
#    x 1.879580 0.001870 -0.008170 
#    y 0.001870 1.847950 -0.014950 
#    z -0.008170 -0.014950 1.845550 
# 
# From -- ./inp_files/575216.got.cif
#   From: 2010.06.25/outbox.cif.g09.slc.cpg/sg2_288_cif.got.tgz:575216.got - 2010.06.27 13:26:56.
