data_PCOD8008018
_publ_section_title
;
Structure prediction by ZEFSAII (Michael W. Deem and Ramdas Pophale) SiO2 
 PCOD8008018
Probable space group: P -1
;
_chemical_formula_sum "Si O2"
_cell_formula_units_Z 16
_cell_length_a 17.607662
_cell_length_b 14.407826
_cell_length_c 23.178356
_cell_angle_alpha 29.479325
_cell_angle_beta 158.902687
_cell_angle_gamma 158.257056
_cell_volume 783.719271
_symmetry_space_group_name_H-M "P -1"
_symmetry_group_IT_number 2
_symmetry_cell_setting 'triclinic'
loop_
_space_group_symop_operation_xyz
x,y,z
-x,-y,-z
loop_
_atom_site_type_symbol
_atom_site_label
_atom_site_fract_x
_atom_site_fract_y
_atom_site_fract_z
Si Si1 0.893321 0.897499 0.791180
Si Si2 0.579504 0.579653 0.348010
Si Si3 0.659929 0.469476 0.675203
Si Si4 0.291695 0.955471 0.327814
Si Si5 0.185239 0.768077 0.516508
Si Si6 0.482289 0.039728 0.134611
Si Si7 0.933703 0.396839 0.350478
Si Si8 0.720469 0.083780 0.159244
O O1 0.642815 0.602726 0.760630
O O2 0.845227 0.934315 0.803600
O O3 0.883740 0.068148 0.647878
O O4 0.188243 0.969240 0.955880
O O5 0.399994 0.476056 0.334893
O O6 0.822096 0.567021 0.530545
O O7 0.735807 0.868251 0.292903
O O8 0.500000 0.500000 0.500000
O O9 0.988014 0.662501 0.792393
O O10 0.553772 0.194746 0.743395
O O11 0.033588 0.666482 0.288339
O O12 0.500000 0.000000 0.500000
O O13 0.486988 0.097901 0.332825
O O14 0.000000 0.500000 0.500000
O O15 0.130623 0.747840 0.556894
O O16 0.642144 0.139490 0.133140
O O17 0.661765 0.251675 0.195892
O O18 0.500000 0.000000 0.000000
#
# Coordination Sequence:
#
# PCOD8008018 Si02
#       8
#     2   2   2   2   2   2   2   2
#     4  11  22  43  65  92 133 165 213 271 316 373
#     4  11  23  39  68  93 120 172 222 261 308 387
#     4  11  24  44  63  91 132 169 213 264 321 384
#     4  10  20  42  63  94 127 161 217 267 303 381
#     4  11  21  40  68  92 120 171 223 252 308 388
#     4  11  27  42  61 102 135 162 212 275 326 372
#     4  12  23  40  67  95 127 166 217 264 319 379
#     4  11  24  43  65  92 130 170 214 264 322 383
#
# _framework density 20.415474
#
# number of rings (size 3 to 8) (size 9 to 14) (size 15 to 20)
#    0.000    1.000    5.000    3.000    5.250    5.500 
#    2.250    0.625    0.000    0.000    0.000    0.000 
#    0.000    0.000    0.000    0.000    0.000    0.000 
#
# Total GULP energy -198441.877987 kJ/mol
# GULP energy per Si atom -12402.617374 kJ/mol
# Density = 2.036901 g / cm^3
# Si number density = 20.415474 Si / 1000 Ang^3
#
#
#
# Elastic Constant Matrix: (Units=GPa)
#
#
# Indices 1 2 3 4 5 6 
#
# 1 108.0530 43.0048 31.4731 -0.3864 11.0201 2.6175
# 2 43.0048 73.7671 9.5271 15.5932 -0.9248 -0.3384
# 3 31.4731 9.5271 59.2779 9.8123 0.9151 2.2008
# 4 -0.3864 15.5932 9.8123 30.3651 -3.5445 2.4032
# 5 11.0201 -0.9248 0.9151 -3.5445 37.1371 5.5629
# 6 2.6175 -0.3384 2.2008 2.4032 5.5629 39.8298
#
#
#
# Elastic Compliance Matrix: (Units=1/GPa)
#
#
# Indices 1 2 3 4 5 6 
#
# 1 0.015997 -0.009920 -0.008054 0.007480 -0.003994 -0.000584
# 2 -0.009920 0.021465 0.003766 -0.012211 0.002059 0.001075
# 3 -0.008054 0.003766 0.022023 -0.009001 0.001122 -0.000269
# 4 0.007480 -0.012211 -0.009001 0.042702 0.002221 -0.002985
# 5 -0.003994 0.002059 0.001122 0.002221 0.028941 -0.003958
# 6 -0.000584 0.001075 -0.000269 -0.002985 -0.003958 0.025902
#
#
# Mechanical properties :
#
#
# Convention : Reuss Voigt Hill
#
# Bulk Modulus (GPa) = 32.18498 45.45644 38.82071
# Shear Modulus (GPa) = 25.53617 31.93926 28.73772
#
# Velocity S-wave (km/s) = 3.54054 3.95962 3.75593
# Velocity P-wave (km/s) = 5.70202 6.57410 6.15353
#
# Compressibility (1/GPa) = 0.03107039
#
# Stress axis : x y z
#
# Youngs Moduli (GPa) = 62.51234 46.58850 45.40678
#
# Poissons Ratio (x) = 0.46214 0.36570
# Poissons Ratio (y) = 0.62010 -0.17102
# Poissons Ratio (z) = 0.50347 -0.17547
#
# Static dielectric constant tensor:
#      x y z
#    x 4.054290 -0.038520 0.284000 
#    y -0.038520 3.911890 0.085210 
#    z 0.284000 0.085210 3.522200 
# 
# 
# High freq. dielectric constant tensor:
#      x y z
#    x 1.813550 -0.003420 0.015890 
#    y -0.003420 1.811060 0.011690 
#    z 0.015890 0.011690 1.780230 
# 
# From -- ./inp_files/214957.got.cif
#   From: 2010.06.25/outbox.cif.g09.slc.cpg/sg2_108_cif.got.tgz:214957.got - 2010.06.27 13:26:56.
