data_PCOD8008789
_publ_section_title
;
Structure prediction by ZEFSAII (Michael W. Deem and Ramdas Pophale) SiO2 
 PCOD8008789
Probable space group: P -1
;
_chemical_formula_sum "Si O2"
_cell_formula_units_Z 14
_cell_length_a 9.202643
_cell_length_b 9.188392
_cell_length_c 14.373351
_cell_angle_alpha 50.083353
_cell_angle_beta 85.188942
_cell_angle_gamma 114.347962
_cell_volume 736.154422
_symmetry_space_group_name_H-M "P -1"
_symmetry_group_IT_number 2
_symmetry_cell_setting 'triclinic'
loop_
_space_group_symop_operation_xyz
x,y,z
-x,-y,-z
loop_
_atom_site_type_symbol
_atom_site_label
_atom_site_fract_x
_atom_site_fract_y
_atom_site_fract_z
Si Si1 0.220095 0.405211 0.577901
Si Si2 0.620579 0.215952 0.835458
Si Si3 0.521125 0.504310 0.634621
Si Si4 0.904379 0.017786 0.636337
Si Si5 0.032701 0.312437 0.322637
Si Si6 0.359496 0.888722 0.331768
Si Si7 0.366912 0.991612 0.582752
O O1 0.305554 0.384179 0.676654
O O2 0.385915 0.523707 0.446282
O O3 0.202923 0.621535 0.494148
O O4 0.033293 0.151202 0.665768
O O5 0.534402 0.360999 0.775178
O O6 0.825833 0.400798 0.791269
O O7 0.625748 0.109163 0.781063
O O8 0.500000 0.000000 0.000000
O O9 0.637310 0.787374 0.532815
O O10 0.706714 0.954246 0.696639
O O11 0.008244 0.200699 0.470819
O O12 0.883291 0.777788 0.716011
O O13 0.842336 0.245733 0.319221
O O14 0.558523 0.996627 0.322672
O O15 0.500000 0.000000 0.500000
#
# Coordination Sequence:
#
# PCOD8008789 Si02
#       7
#     2   2   2   2   2   2   2
#     4   9  16  28  54  86 115 134 177 238 300 343
#     4  11  24  41  58  77 117 169 204 226 267 349
#     4   9  17  32  53  83 113 145 181 234 294 341
#     4  11  18  32  59  93 118 138 182 252 309 337
#     4  11  21  34  56  89 122 144 186 242 299 339
#     4  10  21  34  59  90 117 150 189 233 296 353
#     4  11  20  33  60  97 121 138 175 254 314 341
#
# _framework density 19.017748999999998
#
# number of rings (size 3 to 8) (size 9 to 14) (size 15 to 20)
#    0.000    1.714    5.714    2.143    0.000    0.000 
#    0.000    1.429    0.000    1.714    0.000    0.000 
#    0.000    0.000    0.000    0.000    0.000    0.000 
#
# Total GULP energy -173524.998737 kJ/mol
# GULP energy per Si atom -12394.642767 kJ/mol
# Density = 1.897446 g / cm^3
# Si number density = 19.017749 Si / 1000 Ang^3
#
#
#
# Elastic Constant Matrix: (Units=GPa)
#
#
# Indices 1 2 3 4 5 6 
#
# 1 111.2591 50.4422 38.1307 -1.8635 -2.3440 10.5293
# 2 50.4422 100.2290 33.5946 -3.8021 -9.7716 17.1514
# 3 38.1307 33.5946 74.1641 -6.6056 -1.1884 10.0456
# 4 -1.8635 -3.8021 -6.6056 13.3347 2.9304 -7.1870
# 5 -2.3440 -9.7716 -1.1884 2.9304 11.7656 -0.2229
# 6 10.5293 17.1514 10.0456 -7.1870 -0.2229 41.3728
#
#
#
# Elastic Compliance Matrix: (Units=1/GPa)
#
#
# Indices 1 2 3 4 5 6 
#
# 1 0.012787 -0.005143 -0.004371 -0.001650 -0.001761 -0.000357
# 2 -0.005143 0.015808 -0.003977 -0.003526 0.012489 -0.004824
# 3 -0.004371 -0.003977 0.018221 0.008086 -0.004353 -0.000282
# 4 -0.001650 -0.003526 0.008086 0.091724 -0.024988 0.015717
# 5 -0.001761 0.012489 -0.004353 -0.024988 0.100658 -0.007471
# 6 -0.000357 -0.004824 -0.000282 0.015717 -0.007471 0.029020
#
#
# Mechanical properties :
#
#
# Convention : Reuss Voigt Hill
#
# Bulk Modulus (GPa) = 50.42075 58.88746 54.65411
# Shear Modulus (GPa) = 16.56662 24.19360 20.38011
#
# Velocity S-wave (km/s) = 2.95467 3.57060 3.27714
# Velocity P-wave (km/s) = 6.18143 6.93041 6.56661
#
# Compressibility (1/GPa) = 0.01983310
#
# Stress axis : x y z
#
# Youngs Moduli (GPa) = 78.20367 63.25931 54.88149
#
# Poissons Ratio (x) = 0.32537 0.23991
# Poissons Ratio (y) = 0.40224 0.21825
# Poissons Ratio (z) = 0.34186 0.25156
#
# Static dielectric constant tensor:
#      x y z
#    x 4.049020 -0.084610 0.217530 
#    y -0.084610 3.870820 -0.048290 
#    z 0.217530 -0.048290 2.756810 
# 
# 
# High freq. dielectric constant tensor:
#      x y z
#    x 1.755870 0.006290 0.006760 
#    y 0.006290 1.762030 -0.005580 
#    z 0.006760 -0.005580 1.642490 
# 
# From -- ./inp_files/158886.got.cif
#   From: 2010.06.25/outbox.cif.g09.slc.cpg/sg2_80_cif.got.tgz:158886.got - 2010.06.27 13:26:56.
