data_PCOD8008277
_publ_section_title
;
Structure prediction by ZEFSAII (Michael W. Deem and Ramdas Pophale) SiO2 
 PCOD8008277
Probable space group: P -1
;
_chemical_formula_sum "Si O2"
_cell_formula_units_Z 16
_cell_length_a 28.453813
_cell_length_b 13.021332
_cell_length_c 9.980446
_cell_angle_alpha 36.908935
_cell_angle_beta 26.936741
_cell_angle_gamma 25.360296
_cell_volume 717.132648
_symmetry_space_group_name_H-M "P -1"
_symmetry_group_IT_number 2
_symmetry_cell_setting 'triclinic'
loop_
_space_group_symop_operation_xyz
x,y,z
-x,-y,-z
loop_
_atom_site_type_symbol
_atom_site_label
_atom_site_fract_x
_atom_site_fract_y
_atom_site_fract_z
Si Si1 0.195936 0.090375 0.925432
Si Si2 0.338795 0.036000 0.083902
Si Si3 0.952471 0.097903 0.165867
Si Si4 0.073167 0.638759 0.501065
Si Si5 0.312315 0.405920 0.622675
Si Si6 0.602014 0.225318 0.049280
Si Si7 0.676093 0.691943 0.602916
Si Si8 0.867805 0.789287 0.329190
O O1 0.285171 0.155687 0.664806
O O2 0.205309 0.044759 0.791396
O O3 0.283673 0.853630 0.041993
O O4 0.028957 0.292356 0.185733
O O5 0.250896 0.072907 0.396632
O O6 0.315423 0.926283 0.137993
O O7 0.506259 0.856378 0.891583
O O8 0.268079 0.293530 0.941358
O O9 0.776191 0.321975 0.386131
O O10 0.015082 0.876112 0.331032
O O11 0.003874 0.229598 0.938566
O O12 0.000000 0.000000 0.000000
O O13 0.231667 0.495246 0.311890
O O14 0.076518 0.469448 0.570238
O O15 0.487407 0.210217 0.400549
O O16 0.274086 0.441861 0.525488
O O17 0.500000 0.500000 0.000000
#
# Coordination Sequence:
#
# PCOD8008277 Si02
#       8
#     2   2   2   2   2   2   2   2
#     4  11  21  43  69 101 135 175 232 276 335 415
#     4  11  23  43  68  98 138 180 225 279 337 405
#     4  12  28  45  67 101 139 176 230 282 343 405
#     4  11  25  44  71 100 137 182 225 283 339 404
#     4  11  21  42  69  95 131 181 226 277 328 405
#     4  11  23  39  67  99 131 178 227 274 333 402
#     4  10  20  42  70 100 132 177 232 273 337 406
#     4  11  27  44  68 103 135 184 223 282 348 393
#
# _framework density 22.311074000000001
#
# number of rings (size 3 to 8) (size 9 to 14) (size 15 to 20)
#    0.000    1.000    2.500    5.250    3.500    7.000 
#    2.250    1.250    0.000    0.000    0.000    0.000 
#    0.000    0.000    0.000    0.000    0.000    0.000 
#
# Total GULP energy -198326.409147 kJ/mol
# GULP energy per Si atom -12395.400572 kJ/mol
# Density = 2.226029 g / cm^3
# Si number density = 22.311074 Si / 1000 Ang^3
#
#
#
# Elastic Constant Matrix: (Units=GPa)
#
#
# Indices 1 2 3 4 5 6 
#
# 1 100.6165 60.6814 40.4443 3.4189 15.2568 -0.3751
# 2 60.6814 116.8496 26.1000 1.3828 26.1555 -9.8580
# 3 40.4443 26.1000 85.3861 11.4780 27.2500 3.7091
# 4 3.4189 1.3828 11.4780 33.2709 5.5196 3.6514
# 5 15.2568 26.1555 27.2500 5.5196 36.8599 3.5930
# 6 -0.3751 -9.8580 3.7091 3.6514 3.5930 35.5721
#
#
#
# Elastic Compliance Matrix: (Units=1/GPa)
#
#
# Indices 1 2 3 4 5 6 
#
# 1 0.017134 -0.008451 -0.006807 0.000476 0.004052 -0.001910
# 2 -0.008451 0.014924 0.002095 0.000532 -0.009178 0.004701
# 3 -0.006807 0.002095 0.018588 -0.003852 -0.011850 0.000163
# 4 0.000476 0.000532 -0.003852 0.031965 -0.002270 -0.002498
# 5 0.004052 -0.009178 -0.011850 -0.002270 0.041576 -0.005232
# 6 -0.001910 0.004701 0.000163 -0.002498 -0.005232 0.030162
#
#
# Mechanical properties :
#
#
# Convention : Reuss Voigt Hill
#
# Bulk Modulus (GPa) = 41.12012 61.92261 51.52136
# Shear Modulus (GPa) = 26.48577 32.84900 29.66738
#
# Velocity S-wave (km/s) = 3.44919 3.84124 3.65048
# Velocity P-wave (km/s) = 5.85943 6.89115 6.39613
#
# Compressibility (1/GPa) = 0.02431900
#
# Stress axis : x y z
#
# Youngs Moduli (GPa) = 58.36372 67.00778 53.79905
#
# Poissons Ratio (x) = 0.56630 0.36619
# Poissons Ratio (y) = 0.49324 -0.11269
# Poissons Ratio (z) = 0.39726 -0.14036
#
# Static dielectric constant tensor:
#      x y z
#    x -9.856750 5.484880 9.785660 
#    y 5.484880 1.766030 -3.889200 
#    z 9.785660 -3.889200 -2.306830 
# 
# 
# High freq. dielectric constant tensor:
#      x y z
#    x 1.881240 -0.011750 -0.004180 
#    y -0.011750 1.885060 -0.000440 
#    z -0.004180 -0.000440 1.881950 
# 
# From -- ./inp_files/357027.got.cif
#   From: 2010.06.25/outbox.cif.g09.slc.cpg/sg2_179_cif.got.tgz:357027.got - 2010.06.27 13:26:56.
