data_PCOD8008276
_publ_section_title
;
Structure prediction by ZEFSAII (Michael W. Deem and Ramdas Pophale) SiO2 
 PCOD8008276
Probable space group: P -1
;
_chemical_formula_sum "Si O2"
_cell_formula_units_Z 16
_cell_length_a 12.655391
_cell_length_b 9.317139
_cell_length_c 19.605903
_cell_angle_alpha 134.171685
_cell_angle_beta 153.934189
_cell_angle_gamma 44.345717
_cell_volume 698.799103
_symmetry_space_group_name_H-M "P -1"
_symmetry_group_IT_number 2
_symmetry_cell_setting 'triclinic'
loop_
_space_group_symop_operation_xyz
x,y,z
-x,-y,-z
loop_
_atom_site_type_symbol
_atom_site_label
_atom_site_fract_x
_atom_site_fract_y
_atom_site_fract_z
Si Si1 0.811152 0.308529 0.885519
Si Si2 0.584672 0.520311 0.481077
Si Si3 0.511730 0.397801 0.873876
Si Si4 0.835300 0.609911 0.215886
Si Si5 0.634151 0.011236 0.153006
Si Si6 0.269453 0.930448 0.363596
Si Si7 0.104879 0.691059 0.651597
Si Si8 0.340663 0.311674 0.174056
O O1 0.656528 0.265666 0.848509
O O2 0.861002 0.118794 0.797616
O O3 0.661800 0.520907 0.831957
O O4 0.079673 0.338463 0.071695
O O5 0.500000 0.500000 0.500000
O O6 0.374973 0.724550 0.401291
O O7 0.549618 0.323698 0.353884
O O8 0.876636 0.512374 0.639738
O O9 0.327579 0.297332 0.779076
O O10 0.326412 0.610327 0.807733
O O11 0.720007 0.439264 0.058316
O O12 0.820991 0.790593 0.211540
O O13 0.786681 0.186432 0.302870
O O14 0.417091 0.084484 0.107987
O O15 0.500000 0.000000 0.000000
O O16 0.500000 0.000000 0.500000
O O17 0.101116 0.124457 0.371080
O O18 0.000000 0.500000 0.500000
#
# Coordination Sequence:
#
# PCOD8008276 Si02
#       8
#     2   2   2   2   2   2   2   2
#     4  10  20  42  69  99 138 179 236 294 342 418
#     4  11  24  46  67  98 145 186 231 294 359 414
#     4  11  23  44  69 103 146 190 228 298 368 409
#     4  11  25  42  71 103 149 188 234 296 359 436
#     4  12  23  45  72 104 133 185 247 289 356 425
#     4  11  24  42  70 102 134 185 237 279 348 425
#     4  12  25  43  76 104 141 184 237 301 351 422
#     4  10  22  39  69 101 135 182 239 289 345 419
#
# _framework density 22.896422000000001
#
# number of rings (size 3 to 8) (size 9 to 14) (size 15 to 20)
#    0.000    1.000    2.500    3.750    3.500    2.500 
#    4.500    0.625    0.000    0.000    0.000    0.000 
#    0.000    0.000    0.000    0.000    0.000    0.000 
#
# Total GULP energy -198226.621000 kJ/mol
# GULP energy per Si atom -12389.163813 kJ/mol
# Density = 2.284431 g / cm^3
# Si number density = 22.896422 Si / 1000 Ang^3
#
#
#
# Elastic Constant Matrix: (Units=GPa)
#
#
# Indices 1 2 3 4 5 6 
#
# 1 159.1005 38.0440 56.6514 -0.2985 -1.5724 -16.7187
# 2 38.0440 77.6100 30.7214 7.4727 -8.8770 -20.9205
# 3 56.6514 30.7214 135.8269 -2.4992 0.1029 -16.8544
# 4 -0.2985 7.4727 -2.4992 30.5462 0.8220 3.4575
# 5 -1.5724 -8.8770 0.1029 0.8220 35.0336 3.9254
# 6 -16.7187 -20.9205 -16.8544 3.4575 3.9254 44.0568
#
#
#
# Elastic Compliance Matrix: (Units=1/GPa)
#
#
# Indices 1 2 3 4 5 6 
#
# 1 0.007941 -0.002772 -0.002588 0.000475 -0.000429 0.000708
# 2 -0.002772 0.017856 -0.002155 -0.005431 0.003784 0.006692
# 3 -0.002588 -0.002155 0.009134 0.001105 -0.000881 0.001481
# 4 0.000475 -0.005431 0.001105 0.034721 -0.001663 -0.004552
# 5 -0.000429 0.003784 -0.000881 -0.001663 0.029661 -0.001215
# 6 0.000708 0.006692 0.001481 -0.004552 -0.001215 0.027176
#
#
# Mechanical properties :
#
#
# Convention : Reuss Voigt Hill
#
# Bulk Modulus (GPa) = 50.24920 69.26347 59.75633
# Shear Modulus (GPa) = 33.74873 38.40202 36.07537
#
# Velocity S-wave (km/s) = 3.84340 4.09981 3.97368
# Velocity P-wave (km/s) = 6.45675 7.26139 6.87086
#
# Compressibility (1/GPa) = 0.01990081
#
# Stress axis : x y z
#
# Youngs Moduli (GPa) = 125.93231 56.00217 109.48215
#
# Poissons Ratio (x) = 0.15524 0.28335
# Poissons Ratio (y) = 0.34909 0.23593
# Poissons Ratio (z) = 0.32592 0.12068
#
# Static dielectric constant tensor:
#      x y z
#    x 3.749990 -0.287330 1.311160 
#    y -0.287330 3.658320 0.940350 
#    z 1.311160 0.940350 1.286440 
# 
# 
# High freq. dielectric constant tensor:
#      x y z
#    x 1.919160 -0.009430 0.007000 
#    y -0.009430 1.884590 -0.004900 
#    z 0.007000 -0.004900 1.909450 
# 
# From -- ./inp_files/314471.got.cif
#   From: 2010.06.25/outbox.cif.g09.slc.cpg/sg2_158_cif.got.tgz:314471.got - 2010.06.27 13:26:56.
