data_PCOD8008421
_publ_section_title
;
Structure prediction by ZEFSAII (Michael W. Deem and Ramdas Pophale) SiO2 
 PCOD8008421
Probable space group: P -1
;
_chemical_formula_sum "Si O2"
_cell_formula_units_Z 14
_cell_length_a 11.008655
_cell_length_b 8.773653
_cell_length_c 12.672534
_cell_angle_alpha 83.125256
_cell_angle_beta 103.881592
_cell_angle_gamma 39.869355
_cell_volume 664.753668
_symmetry_space_group_name_H-M "P -1"
_symmetry_group_IT_number 2
_symmetry_cell_setting 'triclinic'
loop_
_space_group_symop_operation_xyz
x,y,z
-x,-y,-z
loop_
_atom_site_type_symbol
_atom_site_label
_atom_site_fract_x
_atom_site_fract_y
_atom_site_fract_z
Si Si1 0.785039 0.943713 0.394492
Si Si2 0.097435 0.558564 0.056623
Si Si3 0.068331 0.622026 0.285668
Si Si4 0.170522 0.046398 0.209544
Si Si5 0.040172 0.598041 0.672829
Si Si6 0.431269 0.498638 0.375652
Si Si7 0.490660 0.024869 0.755567
O O1 0.992348 0.709697 0.536296
O O2 0.637775 0.936198 0.367724
O O3 0.871580 0.885328 0.297992
O O4 0.648615 0.231549 0.377287
O O5 0.009508 0.695100 0.143064
O O6 0.364188 0.258811 0.134675
O O7 0.000000 0.500000 0.000000
O O8 0.004789 0.779912 0.938206
O O9 0.108237 0.402822 0.337548
O O10 0.290259 0.489472 0.369481
O O11 0.028691 0.202876 0.274266
O O12 0.294912 0.758205 0.256067
O O13 0.347740 0.005558 0.248593
O O14 0.301753 0.292547 0.768388
O O15 0.500000 0.500000 0.500000
#
# Coordination Sequence:
#
# PCOD8008421 Si02
#       7
#     2   2   2   2   2   2   2
#     4  11  24  41  65  97 125 165 212 263 319 369
#     4  10  20  43  67  91 126 164 213 268 304 368
#     4  11  23  43  64  93 130 160 216 262 311 372
#     4  11  24  41  62  96 127 165 216 249 318 376
#     4  11  22  39  68  96 123 162 210 272 316 362
#     4  12  26  41  65  91 133 177 198 257 323 380
#     4  10  21  40  66  92 121 163 209 268 311 361
#
# _framework density 21.060433
#
# number of rings (size 3 to 8) (size 9 to 14) (size 15 to 20)
#    0.000    1.143    5.714    1.714    4.000    4.000 
#    2.571    0.714    0.000    0.000    0.000    0.000 
#    0.000    0.000    0.000    0.000    0.000    0.000 
#
# Total GULP energy -173504.006400 kJ/mol
# GULP energy per Si atom -12393.143314 kJ/mol
# Density = 2.101250 g / cm^3
# Si number density = 21.060433 Si / 1000 Ang^3
#
#
#
# Elastic Constant Matrix: (Units=GPa)
#
#
# Indices 1 2 3 4 5 6 
#
# 1 46.3047 31.0994 24.3805 0.9182 0.9223 -13.6967
# 2 31.0994 171.6837 67.7642 -1.6270 -11.4722 -11.3222
# 3 24.3805 67.7642 132.9350 1.1961 -8.0549 -14.1736
# 4 0.9182 -1.6270 1.1961 47.8377 8.6857 0.0032
# 5 0.9223 -11.4722 -8.0549 8.6857 21.1706 -7.1320
# 6 -13.6967 -11.3222 -14.1736 0.0032 -7.1320 22.5436
#
#
#
# Elastic Compliance Matrix: (Units=1/GPa)
#
#
# Indices 1 2 3 4 5 6 
#
# 1 0.029497 -0.003472 -0.001865 -0.000958 0.001759 0.015561
# 2 -0.003472 0.008001 -0.003081 -0.000279 0.003827 0.001182
# 3 -0.001865 -0.003081 0.010278 -0.001153 0.004555 0.005223
# 4 -0.000958 -0.000279 -0.001153 0.023077 -0.011758 -0.005171
# 5 0.001759 0.003827 0.004555 -0.011758 0.064653 0.026310
# 6 0.015561 0.001182 0.005223 -0.005171 0.026310 0.066015
#
#
# Mechanical properties :
#
#
# Convention : Reuss Voigt Hill
#
# Bulk Modulus (GPa) = 32.32186 66.37907 49.35046
# Shear Modulus (GPa) = 21.86534 33.48899 27.67717
#
# Velocity S-wave (km/s) = 3.22564 3.99198 3.62909
# Velocity P-wave (km/s) = 5.40865 7.26875 6.40657
#
# Compressibility (1/GPa) = 0.03093882
#
# Stress axis : x y z
#
# Youngs Moduli (GPa) = 33.90146 124.98626 97.29092
#
# Poissons Ratio (x) = 0.43398 0.18150
# Poissons Ratio (y) = 0.11771 0.29977
# Poissons Ratio (z) = 0.06324 0.38510
#
# Static dielectric constant tensor:
#      x y z
#    x 3.587060 -0.070740 0.076190 
#    y -0.070740 4.190520 -0.326300 
#    z 0.076190 -0.326300 4.202480 
# 
# 
# High freq. dielectric constant tensor:
#      x y z
#    x 1.794660 -0.002410 0.011520 
#    y -0.002410 1.842660 0.001700 
#    z 0.011520 0.001700 1.820930 
# 
# From -- ./inp_files/279875.got.cif
#   From: 2010.06.25/outbox.cif.g09.slc.cpg/sg2_140_cif.got.tgz:279875.got - 2010.06.27 13:26:56.
