data_PCOD8008634
_publ_section_title
;
Structure prediction by ZEFSAII (Michael W. Deem and Ramdas Pophale) SiO2 
 PCOD8008634
Probable space group: P -1
;
_chemical_formula_sum "Si O2"
_cell_formula_units_Z 14
_cell_length_a 10.453704
_cell_length_b 13.932070
_cell_length_c 11.283831
_cell_angle_alpha 123.106534
_cell_angle_beta 39.984550
_cell_angle_gamma 148.234176
_cell_volume 528.347992
_symmetry_space_group_name_H-M "P -1"
_symmetry_group_IT_number 2
_symmetry_cell_setting 'triclinic'
loop_
_space_group_symop_operation_xyz
x,y,z
-x,-y,-z
loop_
_atom_site_type_symbol
_atom_site_label
_atom_site_fract_x
_atom_site_fract_y
_atom_site_fract_z
Si Si1 0.689385 0.202913 0.972812
Si Si2 0.312188 0.218351 0.390410
Si Si3 0.271837 0.052659 0.685386
Si Si4 0.713677 0.971560 0.070397
Si Si5 0.777925 0.405920 0.395970
Si Si6 0.131959 0.382716 0.985193
Si Si7 0.142280 0.318903 0.391236
O O1 0.530530 0.244698 0.164210
O O2 0.053134 0.361585 0.884037
O O3 0.648202 0.193884 0.852876
O O4 0.500000 0.000000 0.000000
O O5 0.516317 0.342145 0.447340
O O6 0.182902 0.274437 0.458607
O O7 0.000000 0.000000 0.500000
O O8 0.371703 0.097909 0.781972
O O9 0.587848 0.237888 0.510785
O O10 0.161511 0.875937 0.599107
O O11 0.955037 0.990196 0.849147
O O12 0.897592 0.178161 0.070540
O O13 0.056811 0.463789 0.165707
O O14 0.947710 0.589422 0.468350
O O15 0.517923 0.531772 0.826550
#
# Coordination Sequence:
#
# PCOD8008634 Si02
#       7
#     2   2   2   2   2   2   2
#     4   9  19  38  67 102 132 179 226 284 348 406
#     4  11  21  40  67  98 138 175 228 286 344 413
#     4  11  23  43  75  99 138 197 231 281 350 418
#     4  10  20  45  71 100 139 192 235 281 346 420
#     4  11  24  46  66 106 142 183 235 289 345 420
#     4  10  24  43  72 106 143 177 234 296 351 413
#     4  12  24  45  70 106 142 183 232 286 360 414
#
# _framework density 26.497688
#
# number of rings (size 3 to 8) (size 9 to 14) (size 15 to 20)
#    0.000    1.429    4.286    0.429    2.000    3.429 
#    5.143    0.714    0.000    0.000    0.000    0.000 
#    0.000    0.000    0.000    0.000    0.000    0.000 
#
# Total GULP energy -173606.050463 kJ/mol
# GULP energy per Si atom -12400.432176 kJ/mol
# Density = 2.643738 g / cm^3
# Si number density = 26.497688 Si / 1000 Ang^3
#
#
#
# Elastic Constant Matrix: (Units=GPa)
#
#
# Indices 1 2 3 4 5 6 
#
# 1 84.2790 12.8917 26.7031 4.8897 25.0185 1.2222
# 2 12.8917 121.5319 54.4213 31.8763 -2.6975 -11.9952
# 3 26.7031 54.4213 85.4443 5.5773 6.1175 -3.3505
# 4 4.8897 31.8763 5.5773 44.8891 -7.2395 0.2206
# 5 25.0185 -2.6975 6.1175 -7.2395 37.0236 1.8960
# 6 1.2222 -11.9952 -3.3505 0.2206 1.8960 27.0936
#
#
#
# Elastic Compliance Matrix: (Units=1/GPa)
#
#
# Indices 1 2 3 4 5 6 
#
# 1 0.016806 0.001208 -0.004967 -0.003878 -0.011205 -0.000022
# 2 0.001208 0.015468 -0.009318 -0.010052 -0.000410 0.005752
# 3 -0.004967 -0.009318 0.018758 0.004937 0.000629 -0.001666
# 4 -0.003878 -0.010052 0.004937 0.030415 0.007246 -0.004420
# 5 -0.011205 -0.000410 0.000629 0.007246 0.035976 -0.002175
# 6 -0.000022 0.005752 -0.001666 -0.004420 -0.002175 0.039439
#
#
# Mechanical properties :
#
#
# Convention : Reuss Voigt Hill
#
# Bulk Modulus (GPa) = 40.19746 53.25416 46.72581
# Shear Modulus (GPa) = 26.13569 34.95053 30.54311
#
# Velocity S-wave (km/s) = 3.14401 3.63575 3.39878
# Velocity P-wave (km/s) = 5.32755 6.14542 5.75104
#
# Compressibility (1/GPa) = 0.02487719
#
# Stress axis : x y z
#
# Youngs Moduli (GPa) = 59.50289 64.64920 53.30978
#
# Poissons Ratio (x) = -0.07808 0.26479
# Poissons Ratio (y) = -0.07187 0.49676
# Poissons Ratio (z) = 0.29555 0.60243
#
# Static dielectric constant tensor:
#      x y z
#    x 4.995080 -0.022760 0.018820 
#    y -0.022760 4.866930 0.147850 
#    z 0.018820 0.147850 4.735640 
# 
# 
# High freq. dielectric constant tensor:
#      x y z
#    x 2.061200 -0.007020 0.001420 
#    y -0.007020 2.080190 0.007900 
#    z 0.001420 0.007900 2.060100 
# 
# From -- ./inp_files/433180.got.cif
#   From: 2010.06.25/outbox.cif.g09.slc.cpg/sg2_217_cif.got.tgz:433180.got - 2010.06.27 13:26:56.
