data_PCOD8008462
_publ_section_title
;
Structure prediction by ZEFSAII (Michael W. Deem and Ramdas Pophale) SiO2 
 PCOD8008462
Probable space group: P -1
;
_chemical_formula_sum "Si O2"
_cell_formula_units_Z 16
_cell_length_a 17.939313
_cell_length_b 9.733680
_cell_length_c 7.131633
_cell_angle_alpha 48.571817
_cell_angle_beta 127.905488
_cell_angle_gamma 127.662951
_cell_volume 691.298791
_symmetry_space_group_name_H-M "P -1"
_symmetry_group_IT_number 2
_symmetry_cell_setting 'triclinic'
loop_
_space_group_symop_operation_xyz
x,y,z
-x,-y,-z
loop_
_atom_site_type_symbol
_atom_site_label
_atom_site_fract_x
_atom_site_fract_y
_atom_site_fract_z
Si Si1 0.794231 0.155575 0.258221
Si Si2 0.298816 0.640121 0.829681
Si Si3 0.905518 0.553553 0.867852
Si Si4 0.032684 0.026311 0.311509
Si Si5 0.588459 0.454999 0.576260
Si Si6 0.674650 0.808317 0.156309
Si Si7 0.832863 0.719807 0.247123
Si Si8 0.472617 0.774778 0.683678
O O1 0.751613 0.193263 0.361481
O O2 0.831606 0.367374 0.028298
O O3 0.877137 0.055113 0.511885
O O4 0.705068 0.018204 0.113168
O O5 0.214073 0.427557 0.862043
O O6 0.368190 0.685487 0.713138
O O7 0.361716 0.648214 0.107171
O O8 0.935633 0.741487 0.886697
O O9 0.855128 0.597201 0.562861
O O10 0.000000 0.500000 0.000000
O O11 0.933268 0.890757 0.166728
O O12 0.000000 0.000000 0.500000
O O13 0.500000 0.500000 0.500000
O O14 0.674971 0.649706 0.457600
O O15 0.538430 0.310528 0.462069
O O16 0.754712 0.821471 0.104594
O O17 0.562187 0.731869 0.968846
O O18 0.500000 0.000000 0.500000
#
# Coordination Sequence:
#
# PCOD8008462 Si02
#       8
#     2   2   2   2   2   2   2   2
#     4  12  25  42  73 108 146 191 243 301 368 437
#     4  12  28  46  70 110 149 193 250 303 366 443
#     4  11  20  43  76 104 144 193 239 304 372 426
#     4  10  20  43  69 105 145 186 241 303 358 438
#     4  12  25  48  76 101 148 193 245 313 367 428
#     4  12  23  45  76 104 143 195 248 294 368 440
#     4  11  22  44  72 105 145 190 247 296 364 439
#     4  12  28  48  70 108 151 192 243 306 369 438
#
# _framework density 23.144842000000001
#
# number of rings (size 3 to 8) (size 9 to 14) (size 15 to 20)
#    0.000    0.500    7.500    2.625    3.500    1.500 
#    0.000    0.625    0.000    0.000    0.000    0.000 
#    0.000    0.000    0.000    0.000    0.000    0.000 
#
# Total GULP energy -198425.085164 kJ/mol
# GULP energy per Si atom -12401.567823 kJ/mol
# Density = 2.309216 g / cm^3
# Si number density = 23.144842 Si / 1000 Ang^3
#
#
#
# Elastic Constant Matrix: (Units=GPa)
#
#
# Indices 1 2 3 4 5 6 
#
# 1 128.6525 55.3742 26.3736 19.2182 14.9549 -23.4012
# 2 55.3742 201.5516 40.4885 19.3764 -0.1010 -8.6686
# 3 26.3736 40.4885 52.4271 6.7552 2.9779 -5.3332
# 4 19.2182 19.3764 6.7552 47.2757 -1.1462 -2.3792
# 5 14.9549 -0.1010 2.9779 -1.1462 26.4775 0.0126
# 6 -23.4012 -8.6686 -5.3332 -2.3792 0.0126 47.9031
#
#
#
# Elastic Compliance Matrix: (Units=1/GPa)
#
#
# Indices 1 2 3 4 5 6 
#
# 1 0.011287 -0.002011 -0.002876 -0.003268 -0.006203 0.004669
# 2 -0.002011 0.006401 -0.003894 -0.001228 0.001545 -0.000319
# 3 -0.002876 -0.003894 0.023721 -0.000626 -0.001086 0.000501
# 4 -0.003268 -0.001228 -0.000626 0.023107 0.002912 -0.000742
# 5 -0.006203 0.001545 -0.001086 0.002912 0.041527 -0.002738
# 6 0.004669 -0.000319 0.000501 -0.000742 -0.002738 0.023118
#
#
# Mechanical properties :
#
#
# Convention : Reuss Voigt Hill
#
# Bulk Modulus (GPa) = 41.93432 69.67820 55.80626
# Shear Modulus (GPa) = 32.32626 41.69090 37.00858
#
# Velocity S-wave (km/s) = 3.74129 4.24878 4.00309
# Velocity P-wave (km/s) = 6.06799 7.36479 6.74762
#
# Compressibility (1/GPa) = 0.02384681
#
# Stress axis : x y z
#
# Youngs Moduli (GPa) = 88.60048 156.21496 42.15607
#
# Poissons Ratio (x) = 0.31418 0.12125
# Poissons Ratio (y) = 0.17819 0.16415
# Poissons Ratio (z) = 0.25483 0.60829
#
# Static dielectric constant tensor:
#      x y z
#    x 4.929880 0.316540 0.441600 
#    y 0.316540 4.936130 0.221640 
#    z 0.441600 0.221640 4.101590 
# 
# 
# High freq. dielectric constant tensor:
#      x y z
#    x 1.933740 -0.002390 0.009620 
#    y -0.002390 1.936780 0.004560 
#    z 0.009620 0.004560 1.892550 
# 
# From -- ./inp_files/106566.got.cif
#   From: 2010.06.25/outbox.cif.g09.slc.cpg/sg2_54_cif.got.tgz:106566.got - 2010.06.27 13:26:56.
