data_PCOD8008666
_publ_section_title
;
Structure prediction by ZEFSAII (Michael W. Deem and Ramdas Pophale) SiO2 
 PCOD8008666
Probable space group: P -1
;
_chemical_formula_sum "Si O2"
_cell_formula_units_Z 16
_cell_length_a 27.484632
_cell_length_b 27.425377
_cell_length_c 15.196437
_cell_angle_alpha 21.684898
_cell_angle_beta 21.292126
_cell_angle_gamma 10.695078
_cell_volume 755.865070
_symmetry_space_group_name_H-M "P -1"
_symmetry_group_IT_number 2
_symmetry_cell_setting 'triclinic'
loop_
_space_group_symop_operation_xyz
x,y,z
-x,-y,-z
loop_
_atom_site_type_symbol
_atom_site_label
_atom_site_fract_x
_atom_site_fract_y
_atom_site_fract_z
Si Si1 0.637357 0.195811 0.248958
Si Si2 0.688538 0.275110 0.671656
Si Si3 0.882576 0.720534 0.098474
Si Si4 0.713970 0.850391 0.650062
Si Si5 0.872848 0.281030 0.185103
Si Si6 0.841915 0.288059 0.701771
Si Si7 0.731400 0.740040 0.991512
Si Si8 0.826983 0.390589 0.362465
O O1 0.343428 0.447314 0.373907
O O2 0.678097 0.037673 0.377117
O O3 0.659914 0.310727 0.961189
O O4 0.875526 0.989664 0.264300
O O5 0.768191 0.269995 0.453315
O O6 0.397838 0.449234 0.865966
O O7 0.670300 0.402370 0.563939
O O8 0.919953 0.967165 0.816286
O O9 0.028029 0.452312 0.315021
O O10 0.557773 0.987823 0.198216
O O11 0.978711 0.720785 0.020270
O O12 0.946744 0.744045 0.860133
O O13 0.768522 0.806387 0.736462
O O14 0.934807 0.258778 0.498102
O O15 0.629822 0.684959 0.217913
O O16 0.000000 0.500000 0.000000
O O17 0.500000 0.000000 0.000000
#
# Coordination Sequence:
#
# PCOD8008666 Si02
#       8
#     2   2   2   2   2   2   2   2
#     4  10  21  37  53  72  98 138 177 208 249 286
#     4   9  18  29  49  69 100 130 159 201 241 303
#     4  10  21  32  52  77 106 131 161 206 252 308
#     4  11  20  33  50  74 100 133 173 204 239 303
#     4   9  17  32  46  71 100 131 158 191 254 303
#     4  10  21  36  54  72 101 134 172 218 246 286
#     4  11  21  31  45  67 101 133 155 195 246 291
#     4  10  21  34  51  79 103 131 171 207 252 296
#
# _framework density 21.167798999999999
#
# number of rings (size 3 to 8) (size 9 to 14) (size 15 to 20)
#    0.000    2.000    0.000    4.500    0.000   10.000 
#    0.000    0.000    0.000    0.000    0.000    5.250 
#    0.000    0.000    0.000    0.000    0.000    0.000 
#
# Total GULP energy -198217.220247 kJ/mol
# GULP energy per Si atom -12388.576265 kJ/mol
# Density = 2.111962 g / cm^3
# Si number density = 21.167799 Si / 1000 Ang^3
#
#
#
# Elastic Constant Matrix: (Units=GPa)
#
#
# Indices 1 2 3 4 5 6 
#
# 1 43.9608 17.8808 15.2563 -6.9041 -22.2812 11.1954
# 2 17.8808 117.6191 5.0273 -15.5801 -12.5275 0.1703
# 3 15.2563 5.0273 67.2313 -15.4641 -16.2117 9.4577
# 4 -6.9041 -15.5801 -15.4641 24.9817 3.7278 -11.7590
# 5 -22.2812 -12.5275 -16.2117 3.7278 29.2106 -5.7536
# 6 11.1954 0.1703 9.4577 -11.7590 -5.7536 26.9579
#
#
#
# Elastic Compliance Matrix: (Units=1/GPa)
#
#
# Indices 1 2 3 4 5 6 
#
# 1 0.040947 -0.003381 -0.001123 -0.000775 0.027063 -0.011152
# 2 -0.003381 0.010383 0.001972 0.008717 0.002852 0.005058
# 3 -0.001123 0.001972 0.020023 0.012267 0.009704 0.000851
# 4 -0.000775 0.008717 0.012267 0.063690 0.006790 0.025194
# 5 0.027063 0.002852 0.009704 0.006790 0.060874 0.001292
# 6 -0.011152 0.005058 0.000851 0.025194 0.001292 0.052661
#
#
# Mechanical properties :
#
#
# Convention : Reuss Voigt Hill
#
# Bulk Modulus (GPa) = 15.08520 33.90443 24.49481
# Shear Modulus (GPa) = 18.13312 28.93983 23.53647
#
# Velocity S-wave (km/s) = 2.93001 3.70153 3.33813
# Velocity P-wave (km/s) = 4.31145 5.85834 5.14338
#
# Compressibility (1/GPa) = 0.06629015
#
# Stress axis : x y z
#
# Youngs Moduli (GPa) = 24.42166 96.31306 49.94222
#
# Poissons Ratio (x) = 0.32563 0.05607
# Poissons Ratio (y) = 0.08257 -0.09849
# Poissons Ratio (z) = 0.02742 -0.18994
#
# Static dielectric constant tensor:
#      x y z
#    x 3.579750 0.033530 -0.274130 
#    y 0.033530 3.908950 -0.207390 
#    z -0.274130 -0.207390 3.986450 
# 
# 
# High freq. dielectric constant tensor:
#      x y z
#    x 1.794200 -0.004280 -0.038920 
#    y -0.004280 1.840150 -0.016290 
#    z -0.038920 -0.016290 1.813350 
# 
# From -- ./inp_files/580231.got.cif
#   From: 2010.06.25/outbox.cif.g09.slc.cpg/sg2_291_cif.got.tgz:580231.got - 2010.06.27 13:26:56.
