data_PCOD8008536
_publ_section_title
;
Structure prediction by ZEFSAII (Michael W. Deem and Ramdas Pophale) SiO2 
 PCOD8008536
Probable space group: P -1
;
_chemical_formula_sum "Si O2"
_cell_formula_units_Z 16
_cell_length_a 14.842189
_cell_length_b 15.415233
_cell_length_c 9.034844
_cell_angle_alpha 69.622942
_cell_angle_beta 60.182456
_cell_angle_gamma 26.551882
_cell_volume 776.430591
_symmetry_space_group_name_H-M "P -1"
_symmetry_group_IT_number 2
_symmetry_cell_setting 'triclinic'
loop_
_space_group_symop_operation_xyz
x,y,z
-x,-y,-z
loop_
_atom_site_type_symbol
_atom_site_label
_atom_site_fract_x
_atom_site_fract_y
_atom_site_fract_z
Si Si1 0.434198 0.007260 0.704826
Si Si2 0.017000 0.578974 0.255107
Si Si3 0.046395 0.016960 0.600881
Si Si4 0.568981 0.377641 0.890321
Si Si5 0.518819 0.207967 0.047024
Si Si6 0.886479 0.875136 0.709685
Si Si7 0.288967 0.653540 0.684792
Si Si8 0.112384 0.296973 0.386024
O O1 0.174434 0.236653 0.814700
O O2 0.500000 0.000000 0.500000
O O3 0.458867 0.875436 0.775837
O O4 0.615778 0.906919 0.729196
O O5 0.968456 0.665927 0.403340
O O6 0.256788 0.420643 0.089045
O O7 0.990290 0.489869 0.337011
O O8 0.169634 0.014034 0.451835
O O9 0.807477 0.230918 0.737048
O O10 0.194783 0.831741 0.693862
O O11 0.000000 0.000000 0.500000
O O12 0.375379 0.533907 0.831444
O O13 0.500000 0.500000 0.000000
O O14 0.603344 0.244401 0.993815
O O15 0.664755 0.047406 0.890791
O O16 0.954723 0.723170 0.672945
O O17 0.098263 0.741824 0.712040
O O18 0.500000 0.500000 0.500000
#
# Coordination Sequence:
#
# PCOD8008536 Si02
#       8
#     2   2   2   2   2   2   2   2
#     4   9  20  43  64  90 126 166 208 266 331 384
#     4   9  20  39  64  89 127 159 210 266 326 378
#     4  10  20  44  63  90 137 168 214 271 318 392
#     4  12  26  43  65 101 135 171 222 278 324 386
#     4  11  23  40  65  91 132 164 208 280 316 379
#     4  11  22  41  65  95 129 173 221 260 326 393
#     4  11  21  43  69  87 133 182 216 264 331 386
#     4   9  20  41  63  90 124 162 208 271 316 387
#
# _framework density 20.607120999999999
#
# number of rings (size 3 to 8) (size 9 to 14) (size 15 to 20)
#    0.000    1.750    5.000    0.750    3.500    2.500 
#    9.000    1.250    0.000    0.000    0.000    0.000 
#    0.000    0.000    0.000    0.000    0.000    0.000 
#
# Total GULP energy -198256.971144 kJ/mol
# GULP energy per Si atom -12391.060697 kJ/mol
# Density = 2.056022 g / cm^3
# Si number density = 20.607121 Si / 1000 Ang^3
#
#
#
# Elastic Constant Matrix: (Units=GPa)
#
#
# Indices 1 2 3 4 5 6 
#
# 1 84.7292 41.1929 42.4228 5.4498 7.1052 12.2505
# 2 41.1929 131.2265 45.8532 7.2620 2.1001 -10.1246
# 3 42.4228 45.8532 98.8093 10.5302 -9.8221 8.2781
# 4 5.4498 7.2620 10.5302 49.4290 5.1630 -6.9480
# 5 7.1052 2.1001 -9.8221 5.1630 25.9289 8.5664
# 6 12.2505 -10.1246 8.2781 -6.9480 8.5664 41.3486
#
#
#
# Elastic Compliance Matrix: (Units=1/GPa)
#
#
# Indices 1 2 3 4 5 6 
#
# 1 0.017637 -0.003578 -0.006158 -0.000038 -0.005644 -0.003706
# 2 -0.003578 0.010673 -0.004306 0.000866 -0.003472 0.005400
# 3 -0.006158 -0.004306 0.016781 -0.004206 0.011078 -0.005591
# 4 -0.000038 0.000866 -0.004206 0.022813 -0.008388 0.006637
# 5 -0.005644 -0.003472 0.011078 -0.008388 0.050655 -0.013300
# 6 -0.003706 0.005400 -0.005591 0.006637 -0.013300 0.031595
#
#
# Mechanical properties :
#
#
# Convention : Reuss Voigt Hill
#
# Bulk Modulus (GPa) = 58.80625 63.74475 61.27550
# Shear Modulus (GPa) = 27.18767 35.69437 31.44102
#
# Velocity S-wave (km/s) = 3.63620 4.16641 3.91030
# Velocity P-wave (km/s) = 6.79913 7.35838 7.08428
#
# Compressibility (1/GPa) = 0.01700500
#
# Stress axis : x y z
#
# Youngs Moduli (GPa) = 56.70000 93.69831 59.59188
#
# Poissons Ratio (x) = 0.33524 0.36699
# Poissons Ratio (y) = 0.20287 0.25662
# Poissons Ratio (z) = 0.34918 0.40349
#
# Static dielectric constant tensor:
#      x y z
#    x 3.568690 0.154410 -0.373570 
#    y 0.154410 4.287480 -0.048150 
#    z -0.373570 -0.048150 3.748250 
# 
# 
# High freq. dielectric constant tensor:
#      x y z
#    x 1.773060 0.002670 -0.026370 
#    y 0.002670 1.825910 0.004430 
#    z -0.026370 0.004430 1.801360 
# 
# From -- ./inp_files/312939.got.cif
#   From: 2010.06.25/outbox.cif.g09.slc.cpg/sg2_157_cif.got.tgz:312939.got - 2010.06.27 13:26:56.
