data_PCOD8008637
_publ_section_title
;
Structure prediction by ZEFSAII (Michael W. Deem and Ramdas Pophale) SiO2 
 PCOD8008637
Probable space group: P -1
;
_chemical_formula_sum "Si O2"
_cell_formula_units_Z 14
_cell_length_a 11.432526
_cell_length_b 19.255050
_cell_length_c 7.380899
_cell_angle_alpha 118.876061
_cell_angle_beta 42.209009
_cell_angle_gamma 144.814891
_cell_volume 596.700854
_symmetry_space_group_name_H-M "P -1"
_symmetry_group_IT_number 2
_symmetry_cell_setting 'triclinic'
loop_
_space_group_symop_operation_xyz
x,y,z
-x,-y,-z
loop_
_atom_site_type_symbol
_atom_site_label
_atom_site_fract_x
_atom_site_fract_y
_atom_site_fract_z
Si Si1 0.904084 0.388652 0.700786
Si Si2 0.232663 0.654805 0.605885
Si Si3 0.447556 0.489233 0.335611
Si Si4 0.925929 0.062871 0.634956
Si Si5 0.787130 0.747273 0.134217
Si Si6 0.094177 0.229970 0.358282
Si Si7 0.680681 0.203025 0.994682
O O1 0.816585 0.333736 0.528517
O O2 0.971856 0.506587 0.780725
O O3 0.173252 0.439457 0.531603
O O4 0.655156 0.271252 0.974708
O O5 0.524064 0.711758 0.361940
O O6 0.226634 0.731141 0.832449
O O7 0.500000 0.500000 0.500000
O O8 0.703322 0.626063 0.120860
O O9 0.403274 0.381953 0.183460
O O10 0.085284 0.145230 0.372233
O O11 0.020279 0.152811 0.801625
O O12 0.593665 0.947195 0.854655
O O13 0.000000 0.000000 0.500000
O O14 0.984686 0.816823 0.817450
O O15 0.897978 0.219596 0.680437
#
# Coordination Sequence:
#
# PCOD8008637 Si02
#       7
#     2   2   2   2   2   2   2
#     4   9  22  40  67 103 132 182 228 282 342 407
#     4  10  21  43  68  99 141 176 229 282 344 412
#     4  10  20  45  72 102 138 177 223 289 351 407
#     4  12  26  45  70 100 139 190 234 276 342 411
#     4  11  24  43  73 104 137 181 229 287 344 410
#     4  11  26  44  68 103 140 177 230 288 349 405
#     4  11  24  44  68  98 139 182 231 281 342 405
#
# _framework density 23.462344000000002
#
# number of rings (size 3 to 8) (size 9 to 14) (size 15 to 20)
#    0.000    1.429    2.857    1.286    2.000    4.571 
#   15.429    0.000    0.000    0.000    0.000    0.000 
#    0.000    0.000    0.000    0.000    0.000    0.000 
#
# Total GULP energy -173486.022775 kJ/mol
# GULP energy per Si atom -12391.858770 kJ/mol
# Density = 2.340894 g / cm^3
# Si number density = 23.462344 Si / 1000 Ang^3
#
#
#
# Elastic Constant Matrix: (Units=GPa)
#
#
# Indices 1 2 3 4 5 6 
#
# 1 80.5638 42.6540 42.8229 -9.0993 38.6769 1.2693
# 2 42.6540 154.3724 62.3840 -13.9685 31.9940 -12.6449
# 3 42.8229 62.3840 121.2439 11.1511 36.4942 -1.2615
# 4 -9.0993 -13.9685 11.1511 8.4741 1.5261 11.1720
# 5 38.6769 31.9940 36.4942 1.5261 51.2447 1.1635
# 6 1.2693 -12.6449 -1.2615 11.1720 1.1635 38.3540
#
#
#
# Elastic Compliance Matrix: (Units=1/GPa)
#
#
# Indices 1 2 3 4 5 6 
#
# 1 -0.110812 -0.069425 0.113776 -0.602593 0.060307 0.158218
# 2 -0.069425 -0.025156 0.055862 -0.306861 0.035550 0.084147
# 3 0.113776 0.055862 -0.090194 0.531216 -0.069136 -0.140953
# 4 -0.602593 -0.306861 0.531216 -2.754268 0.333567 0.728407
# 5 0.060307 0.035550 -0.069136 0.333567 -0.006863 -0.089505
# 6 0.158218 0.084147 -0.140953 0.728407 -0.089505 -0.165517
#
#
# Mechanical properties :
#
#
# Convention : Reuss Voigt Hill
#
# Bulk Modulus (GPa) = -38.85512 72.43355 16.78921
# Shear Modulus (GPa) = -1.48729 33.50251 16.00761
#
# Velocity S-wave (km/s) = -0.79705 3.78289 2.61486
# Velocity P-wave (km/s) = 4.17656 7.07246 4.03584
#
# Compressibility (1/GPa) = -0.02573663
#
# Stress axis : x y z
#
# Youngs Moduli (GPa) = -9.02430 -39.75217 -11.08719
#
# Poissons Ratio (x) = -2.75981 1.26145
# Poissons Ratio (y) = -0.62651 0.61935
# Poissons Ratio (z) = 1.02675 2.22064
#
# Static dielectric constant tensor:
#      x y z
#    x 4.442070 -0.427730 0.535960 
#    y -0.427730 5.098460 -0.717310 
#    z 0.535960 -0.717310 4.617850 
# 
# 
# High freq. dielectric constant tensor:
#      x y z
#    x 1.932870 -0.009280 0.023310 
#    y -0.009280 1.939160 -0.000540 
#    z 0.023310 -0.000540 1.920350 
# 
# From -- ./inp_files/83324.got.cif
#   From: 2010.06.25/outbox.cif.g09.slc.cpg/sg2_42_cif.got.tgz:83324.got - 2010.06.27 13:26:56.
