data_PCOD8008309
_publ_section_title
;
Structure prediction by ZEFSAII (Michael W. Deem and Ramdas Pophale) SiO2 
 PCOD8008309
Probable space group: P -1
;
_chemical_formula_sum "Si O2"
_cell_formula_units_Z 14
_cell_length_a 11.729567
_cell_length_b 11.327314
_cell_length_c 7.792132
_cell_angle_alpha 79.704316
_cell_angle_beta 96.882239
_cell_angle_gamma 145.590827
_cell_volume 574.914667
_symmetry_space_group_name_H-M "P -1"
_symmetry_group_IT_number 2
_symmetry_cell_setting 'triclinic'
loop_
_space_group_symop_operation_xyz
x,y,z
-x,-y,-z
loop_
_atom_site_type_symbol
_atom_site_label
_atom_site_fract_x
_atom_site_fract_y
_atom_site_fract_z
Si Si1 0.880527 0.397501 0.236155
Si Si2 0.162684 0.243837 0.972573
Si Si3 0.154028 0.022367 0.520567
Si Si4 0.456789 0.378548 0.229820
Si Si5 0.521177 0.847216 0.878431
Si Si6 0.171604 0.799041 0.394988
Si Si7 0.131973 0.846304 0.891067
O O1 0.710639 0.314592 0.111320
O O2 0.801670 0.274973 0.432362
O O3 0.965205 0.359382 0.148904
O O4 0.046407 0.639273 0.251615
O O5 0.306274 0.351136 0.137812
O O6 0.030925 0.250816 0.971956
O O7 0.306698 0.374065 0.792448
O O8 0.000000 0.000000 0.000000
O O9 0.373763 0.260934 0.429970
O O10 0.078594 0.847970 0.428351
O O11 0.174213 0.986630 0.722916
O O12 0.000000 0.000000 0.500000
O O13 0.453630 0.272879 0.111437
O O14 0.604923 0.986848 0.689338
O O15 0.647370 0.991981 0.032391
#
# Coordination Sequence:
#
# PCOD8008309 Si02
#       7
#     2   2   2   2   2   2   2
#     4  10  22  43  65  99 135 177 232 269 342 402
#     4  11  22  43  67  94 138 176 229 278 341 402
#     4  10  20  42  72 102 138 173 230 285 336 403
#     4  10  23  40  70  95 130 185 222 275 345 405
#     4  11  22  40  66  98 135 178 223 278 340 404
#     4   9  22  42  69  95 132 186 217 278 341 401
#     4  11  23  40  69 102 140 176 223 293 329 394
#
# _framework density 24.35144
#
# number of rings (size 3 to 8) (size 9 to 14) (size 15 to 20)
#    0.000    1.714    2.857    0.857    2.000    0.571 
#    2.571    0.714   15.714    0.000    0.000    0.000 
#    0.000    0.000    0.000    0.000    0.000    0.000 
#
# Total GULP energy -173501.541660 kJ/mol
# GULP energy per Si atom -12392.967261 kJ/mol
# Density = 2.429602 g / cm^3
# Si number density = 24.351440 Si / 1000 Ang^3
#
#
#
# Elastic Constant Matrix: (Units=GPa)
#
#
# Indices 1 2 3 4 5 6 
#
# 1 98.8964 48.0351 42.1816 6.4481 3.2098 7.3167
# 2 48.0351 138.1960 33.6929 -13.5833 -2.7877 8.0788
# 3 42.1816 33.6929 50.9270 -3.0229 -0.5547 13.1116
# 4 6.4481 -13.5833 -3.0229 44.0319 2.4373 -0.4174
# 5 3.2098 -2.7877 -0.5547 2.4373 33.5312 1.8086
# 6 7.3167 8.0788 13.1116 -0.4174 1.8086 36.0151
#
#
#
# Elastic Compliance Matrix: (Units=1/GPa)
#
#
# Indices 1 2 3 4 5 6 
#
# 1 0.017591 -0.003529 -0.013038 -0.004431 -0.001979 0.002013
# 2 -0.003529 0.009577 -0.003138 0.003205 0.000865 -0.000295
# 3 -0.013038 -0.003138 0.035167 0.003163 0.001852 -0.009506
# 4 -0.004431 0.003205 0.003163 0.024616 -0.001012 -0.000634
# 5 -0.001979 0.000865 0.001852 -0.001012 0.030296 -0.001999
# 6 0.002013 -0.000295 -0.009506 -0.000634 -0.001999 0.030977
#
#
# Mechanical properties :
#
#
# Convention : Reuss Voigt Hill
#
# Bulk Modulus (GPa) = 43.62003 59.53762 51.57883
# Shear Modulus (GPa) = 25.60477 33.65628 29.63052
#
# Velocity S-wave (km/s) = 3.24615 3.72170 3.49203
# Velocity P-wave (km/s) = 5.65700 6.55519 6.12259
#
# Compressibility (1/GPa) = 0.02292525
#
# Stress axis : x y z
#
# Youngs Moduli (GPa) = 56.84748 104.41249 28.43597
#
# Poissons Ratio (x) = 0.36844 0.37076
# Poissons Ratio (y) = 0.20060 0.08923
# Poissons Ratio (z) = 0.74120 0.32763
#
# Static dielectric constant tensor:
#      x y z
#    x 4.510150 -0.144970 -0.020740 
#    y -0.144970 4.534380 -0.269450 
#    z -0.020740 -0.269450 4.384130 
# 
# 
# High freq. dielectric constant tensor:
#      x y z
#    x 1.970380 -0.015060 0.010110 
#    y -0.015060 1.964560 -0.025810 
#    z 0.010110 -0.025810 1.964150 
# 
# From -- ./inp_files/262398.got.cif
#   From: 2010.06.25/outbox.cif.g09.slc.cpg/sg2_132_cif.got.tgz:262398.got - 2010.06.27 13:26:56.
