data_PCOD8008515
_publ_section_title
;
Structure prediction by ZEFSAII (Michael W. Deem and Ramdas Pophale) SiO2 
 PCOD8008515
Probable space group: P -1
;
_chemical_formula_sum "Si O2"
_cell_formula_units_Z 14
_cell_length_a 17.970259
_cell_length_b 23.461177
_cell_length_c 8.962160
_cell_angle_alpha 149.885381
_cell_angle_beta 149.210213
_cell_angle_gamma 21.014860
_cell_volume 651.331507
_symmetry_space_group_name_H-M "P -1"
_symmetry_group_IT_number 2
_symmetry_cell_setting 'triclinic'
loop_
_space_group_symop_operation_xyz
x,y,z
-x,-y,-z
loop_
_atom_site_type_symbol
_atom_site_label
_atom_site_fract_x
_atom_site_fract_y
_atom_site_fract_z
Si Si1 0.727833 0.594715 0.394837
Si Si2 0.482175 0.511628 0.173124
Si Si3 0.535759 0.099401 0.716225
Si Si4 0.886075 0.258929 0.509550
Si Si5 0.612249 0.037803 0.365525
Si Si6 0.797876 0.144497 0.376593
Si Si7 0.143106 0.462864 0.842200
O O1 0.501811 0.781143 0.483191
O O2 0.799999 0.602052 0.376656
O O3 0.930115 0.522986 0.679907
O O4 0.701557 0.474910 0.074240
O O5 0.710544 0.345673 0.270075
O O6 0.392536 0.684037 0.467875
O O7 0.500000 0.500000 0.000000
O O8 0.549540 0.062588 0.483999
O O9 0.345313 0.291168 0.886152
O O10 0.500000 0.000000 0.500000
O O11 0.744956 0.047902 0.012020
O O12 0.840591 0.197347 0.424536
O O13 0.868190 0.396336 0.847684
O O14 0.130477 0.098254 0.512433
O O15 0.500000 0.000000 0.000000
O O16 0.000000 0.000000 0.500000
#
# Coordination Sequence:
#
# PCOD8008515 Si02
#       7
#     2   2   2   2   2   2   2
#     4  10  22  40  69 100 136 180 235 284 353 419
#     4  12  28  46  71 106 143 186 244 296 358 428
#     4  11  27  45  70 103 147 188 242 292 362 430
#     4  12  24  49  75  98 149 189 242 293 360 428
#     4  11  25  42  71 109 139 187 240 298 356 418
#     4  12  29  47  74 106 145 193 239 299 366 428
#     4  10  20  43  72  96 131 194 233 283 348 425
#
# _framework density 21.494430999999999
#
# number of rings (size 3 to 8) (size 9 to 14) (size 15 to 20)
#    0.000    0.857    4.286    2.143    8.000    1.143 
#    0.000    1.429    0.000    0.000    0.000    0.000 
#    0.000    0.000    0.000    0.000    0.000    0.000 
#
# Total GULP energy -173451.191322 kJ/mol
# GULP energy per Si atom -12389.370809 kJ/mol
# Density = 2.144551 g / cm^3
# Si number density = 21.494431 Si / 1000 Ang^3
#
#
#
# Elastic Constant Matrix: (Units=GPa)
#
#
# Indices 1 2 3 4 5 6 
#
# 1 95.2437 63.8384 57.0882 -9.8595 -1.5401 -5.6226
# 2 63.8384 147.3874 50.4404 -10.8113 -1.7115 -3.4105
# 3 57.0882 50.4404 161.8158 -11.7827 15.8061 2.4338
# 4 -9.8595 -10.8113 -11.7827 44.6205 -0.5358 -4.1040
# 5 -1.5401 -1.7115 15.8061 -0.5358 39.6644 -3.5272
# 6 -5.6226 -3.4105 2.4338 -4.1040 -3.5272 26.9147
#
#
#
# Elastic Compliance Matrix: (Units=1/GPa)
#
#
# Indices 1 2 3 4 5 6 
#
# 1 0.017590 -0.005803 -0.004593 0.001663 0.002637 0.003954
# 2 -0.005803 0.009712 -0.000984 0.000848 0.000626 0.000319
# 3 -0.004593 -0.000984 0.008570 0.000757 -0.003825 -0.002245
# 4 0.001663 0.000848 0.000757 0.023562 0.000477 0.004042
# 5 0.002637 0.000626 -0.003825 0.000477 0.027283 0.004624
# 6 0.003954 0.000319 -0.002245 0.004042 0.004624 0.039446
#
#
# Mechanical properties :
#
#
# Convention : Reuss Voigt Hill
#
# Bulk Modulus (GPa) = 76.26880 83.02009 79.64445
# Shear Modulus (GPa) = 32.61743 37.77858 35.19801
#
# Velocity S-wave (km/s) = 3.89971 4.19692 4.05104
# Velocity P-wave (km/s) = 7.47242 7.88628 7.68214
#
# Compressibility (1/GPa) = 0.01311152
#
# Stress axis : x y z
#
# Youngs Moduli (GPa) = 56.85078 102.96587 116.69249
#
# Poissons Ratio (x) = 0.59750 0.53594
# Poissons Ratio (y) = 0.32990 0.11486
# Poissons Ratio (z) = 0.26110 0.10135
#
# Static dielectric constant tensor:
#      x y z
#    x 3.699220 -0.195400 -0.018500 
#    y -0.195400 5.736480 0.086950 
#    z -0.018500 0.086950 4.013470 
# 
# 
# High freq. dielectric constant tensor:
#      x y z
#    x 1.822650 -0.004810 0.007300 
#    y -0.004810 1.861180 -0.002160 
#    z 0.007300 -0.002160 1.863190 
# 
# From -- ./inp_files/156589.got.cif
#   From: 2010.06.25/outbox.cif.g09.slc.cpg/sg2_79_cif.got.tgz:156589.got - 2010.06.27 13:26:56.
