data_PCOD8008224
_publ_section_title
;
Structure prediction by ZEFSAII (Michael W. Deem and Ramdas Pophale) SiO2 
 PCOD8008224
Probable space group: P -1
;
_chemical_formula_sum "Si O2"
_cell_formula_units_Z 16
_cell_length_a 11.333665
_cell_length_b 13.950673
_cell_length_c 11.538807
_cell_angle_alpha 63.110973
_cell_angle_beta 82.649369
_cell_angle_gamma 32.924472
_cell_volume 755.884894
_symmetry_space_group_name_H-M "P -1"
_symmetry_group_IT_number 2
_symmetry_cell_setting 'triclinic'
loop_
_space_group_symop_operation_xyz
x,y,z
-x,-y,-z
loop_
_atom_site_type_symbol
_atom_site_label
_atom_site_fract_x
_atom_site_fract_y
_atom_site_fract_z
Si Si1 0.735748 0.792863 0.167271
Si Si2 0.940387 0.120664 0.148484
Si Si3 0.607682 0.394771 0.670968
Si Si4 0.402021 0.794461 0.912328
Si Si5 0.809844 0.359273 0.240808
Si Si6 0.554930 0.015628 0.308294
Si Si7 0.034317 0.763892 0.135723
Si Si8 0.906115 0.684952 0.657201
O O1 0.620918 0.893526 0.254381
O O2 0.969714 0.689260 0.175414
O O3 0.847214 0.585843 0.245316
O O4 0.500000 0.000000 0.000000
O O5 0.709708 0.220244 0.130376
O O6 0.967241 0.149799 0.256822
O O7 0.202949 0.856889 0.222243
O O8 0.867686 0.269550 0.981311
O O9 0.500000 0.500000 0.500000
O O10 0.383494 0.549292 0.703140
O O11 0.757417 0.379685 0.710678
O O12 0.419796 0.877248 0.773737
O O13 0.223139 0.968325 0.946973
O O14 0.673762 0.551011 0.065876
O O15 0.006155 0.266000 0.346950
O O16 0.750556 0.818204 0.486590
O O17 0.266422 0.224197 0.267829
#
# Coordination Sequence:
#
# PCOD8008224 Si02
#       8
#     2   2   2   2   2   2   2   2
#     4  11  25  42  72  98 126 175 229 268 325 385
#     4  11  23  42  65  98 131 164 216 264 322 391
#     4  11  25  44  65  97 137 168 209 268 331 390
#     4  10  20  42  68  93 131 165 219 270 320 384
#     4  12  25  39  68  98 126 175 215 268 321 388
#     4  10  25  46  65  93 130 179 213 275 330 384
#     4  10  21  43  67  98 126 172 214 268 326 382
#     4  11  26  45  63  95 139 170 222 270 327 390
#
# _framework density 21.167244
#
# number of rings (size 3 to 8) (size 9 to 14) (size 15 to 20)
#    0.000    1.250    2.500    3.000    8.750    1.500 
#    4.500    0.000    0.000    0.000    0.000    0.000 
#    0.000    0.000    0.000    0.000    0.000    0.000 
#
# Total GULP energy -198455.608993 kJ/mol
# GULP energy per Si atom -12403.475562 kJ/mol
# Density = 2.111907 g / cm^3
# Si number density = 21.167244 Si / 1000 Ang^3
#
#
#
# Elastic Constant Matrix: (Units=GPa)
#
#
# Indices 1 2 3 4 5 6 
#
# 1 103.3220 33.0369 14.0629 15.3605 15.1823 -1.8137
# 2 33.0369 92.7986 17.8757 24.1035 4.3323 -6.0698
# 3 14.0629 17.8757 72.6760 11.3102 9.1663 -9.4296
# 4 15.3605 24.1035 11.3102 25.9633 -0.4928 2.2019
# 5 15.1823 4.3323 9.1663 -0.4928 35.0948 5.4229
# 6 -1.8137 -6.0698 -9.4296 2.2019 5.4229 33.0570
#
#
#
# Elastic Compliance Matrix: (Units=1/GPa)
#
#
# Indices 1 2 3 4 5 6 
#
# 1 0.012041 -0.002703 -0.000110 -0.004773 -0.005113 0.001290
# 2 -0.002703 0.015491 -0.000664 -0.012821 -0.001302 0.003574
# 3 -0.000110 -0.000664 0.016465 -0.007089 -0.005181 0.005891
# 4 -0.004773 -0.012821 -0.007089 0.057304 0.007808 -0.009736
# 5 -0.005113 -0.001302 -0.005181 0.007808 0.033570 -0.008025
# 6 0.001290 0.003574 0.005891 -0.009736 -0.008025 0.034623
#
#
# Mechanical properties :
#
#
# Convention : Reuss Voigt Hill
#
# Bulk Modulus (GPa) = 26.99529 44.30529 35.65029
# Shear Modulus (GPa) = 26.48365 32.41109 29.44737
#
# Velocity S-wave (km/s) = 3.54101 3.91729 3.73389
# Velocity P-wave (km/s) = 5.43133 6.43713 5.95551
#
# Compressibility (1/GPa) = 0.03704349
#
# Stress axis : x y z
#
# Youngs Moduli (GPa) = 83.04801 64.55491 60.73376
#
# Poissons Ratio (x) = 0.17447 0.00669
# Poissons Ratio (y) = 0.22445 0.04033
# Poissons Ratio (z) = 0.00915 0.04287
#
# Static dielectric constant tensor:
#      x y z
#    x 3.969550 -0.020130 0.072860 
#    y -0.020130 3.892100 0.097100 
#    z 0.072860 0.097100 3.749570 
# 
# 
# High freq. dielectric constant tensor:
#      x y z
#    x 1.833690 -0.001120 0.006810 
#    y -0.001120 1.840290 0.007240 
#    z 0.006810 0.007240 1.821190 
# 
# From -- ./inp_files/283006.got.cif
#   From: 2010.06.25/outbox.cif.g09.slc.cpg/sg2_142_cif.got.tgz:283006.got - 2010.06.27 13:26:56.
