data_PCOD8008044
_publ_section_title
;
Structure prediction by ZEFSAII (Michael W. Deem and Ramdas Pophale) SiO2 
 PCOD8008044
Probable space group: P -1
;
_chemical_formula_sum "Si O2"
_cell_formula_units_Z 16
_cell_length_a 6.410516
_cell_length_b 22.244588
_cell_length_c 6.254109
_cell_angle_alpha 52.971716
_cell_angle_beta 103.461197
_cell_angle_gamma 99.489545
_cell_volume 692.073555
_symmetry_space_group_name_H-M "P -1"
_symmetry_group_IT_number 2
_symmetry_cell_setting 'triclinic'
loop_
_space_group_symop_operation_xyz
x,y,z
-x,-y,-z
loop_
_atom_site_type_symbol
_atom_site_label
_atom_site_fract_x
_atom_site_fract_y
_atom_site_fract_z
Si Si1 0.541880 0.901476 0.112147
Si Si2 0.716906 0.582524 0.947489
Si Si3 0.909539 0.860068 0.594056
Si Si4 0.997196 0.281185 0.340791
Si Si5 0.580988 0.449210 0.440464
Si Si6 0.733214 0.789885 0.088215
Si Si7 0.788863 0.041273 0.793743
Si Si8 0.561762 0.322194 0.007687
O O1 0.712662 0.900333 0.348947
O O2 0.563687 0.828523 0.123824
O O3 0.303960 0.906088 0.148916
O O4 0.602984 0.978335 0.827570
O O5 0.935261 0.631920 0.879709
O O6 0.620526 0.573432 0.708207
O O7 0.756676 0.499175 0.237293
O O8 0.550036 0.625336 0.962198
O O9 0.915459 0.774308 0.697662
O O10 0.137310 0.904723 0.503240
O O11 0.865774 0.855175 0.848231
O O12 0.090880 0.257388 0.643002
O O13 0.739661 0.278084 0.277770
O O14 0.500000 0.500000 0.500000
O O15 0.668244 0.372658 0.730614
O O16 0.603205 0.738454 0.001209
O O17 0.000000 0.000000 0.000000
#
# Coordination Sequence:
#
# PCOD8008044 Si02
#       8
#     2   2   2   2   2   2   2   2
#     4   9  21  42  67  94 133 175 219 281 330 390
#     4  10  20  42  64  92 136 168 224 283 325 394
#     4  10  22  40  63  96 136 172 217 277 331 397
#     4  11  24  40  64  98 133 176 219 274 332 400
#     4   9  20  40  68  92 128 176 218 280 331 388
#     4  11  23  43  65 100 137 175 225 278 333 400
#     4   9  19  42  67  95 135 171 222 279 327 393
#     4  11  23  41  65  95 132 177 222 274 338 394
#
# _framework density 23.118929999999999
#
# number of rings (size 3 to 8) (size 9 to 14) (size 15 to 20)
#    0.000    2.000    2.500    0.000    1.750    2.000 
#    6.750   11.250    0.000    0.000    0.000    0.000 
#    0.000    0.000    0.000    0.000    0.000    0.000 
#
# Total GULP energy -198270.866972 kJ/mol
# GULP energy per Si atom -12391.929186 kJ/mol
# Density = 2.306631 g / cm^3
# Si number density = 23.118930 Si / 1000 Ang^3
#
#
#
# Elastic Constant Matrix: (Units=GPa)
#
#
# Indices 1 2 3 4 5 6 
#
# 1 107.4427 25.3928 58.4497 1.5245 -1.6249 -6.3267
# 2 25.3928 69.6676 36.9172 -0.4930 6.4499 -1.5163
# 3 58.4497 36.9172 109.0370 -5.2947 -14.2351 9.8550
# 4 1.5245 -0.4930 -5.2947 34.0677 9.3778 -6.4880
# 5 -1.6249 6.4499 -14.2351 9.3778 30.1623 1.9926
# 6 -6.3267 -1.5163 9.8550 -6.4880 1.9926 25.6546
#
#
#
# Elastic Compliance Matrix: (Units=1/GPa)
#
#
# Indices 1 2 3 4 5 6 
#
# 1 0.014579 0.000010 -0.009011 0.000512 -0.004125 0.007507
# 2 0.000010 0.019765 -0.008310 0.002668 -0.009358 0.005764
# 3 -0.009011 -0.008310 0.019304 -0.002188 0.011849 -0.011603
# 4 0.000512 0.002668 -0.002188 0.034712 -0.013089 0.010920
# 5 -0.004125 -0.009358 0.011849 -0.013089 0.045451 -0.012963
# 6 0.007507 0.005764 -0.011603 0.010920 -0.012963 0.049397
#
#
# Mechanical properties :
#
#
# Convention : Reuss Voigt Hill
#
# Bulk Modulus (GPa) = 52.55968 58.62964 55.59466
# Shear Modulus (GPa) = 22.30427 29.00276 25.65351
#
# Velocity S-wave (km/s) = 3.10943 3.54574 3.33473
# Velocity P-wave (km/s) = 5.97288 6.49447 6.23912
#
# Compressibility (1/GPa) = 0.01902599
#
# Stress axis : x y z
#
# Youngs Moduli (GPa) = 68.59047 50.59525 51.80160
#
# Poissons Ratio (x) = -0.00049 0.46677
# Poissons Ratio (y) = -0.00067 0.43048
# Poissons Ratio (z) = 0.61805 0.42046
#
# Static dielectric constant tensor:
#      x y z
#    x 3.957330 0.128890 -0.350750 
#    y 0.128890 4.282970 -0.440580 
#    z -0.350750 -0.440580 4.688210 
# 
# 
# High freq. dielectric constant tensor:
#      x y z
#    x 1.887850 0.002080 -0.015390 
#    y 0.002080 1.917840 -0.016880 
#    z -0.015390 -0.016880 1.918420 
# 
# From -- ./inp_files/12823.got.cif
#   From: 2010.06.25/outbox.cif.g09.slc.cpg/sg2_7_cif.got.tgz:12823.got - 2010.06.27 13:26:56.
