data_PCOD8008982
_publ_section_title
;
Structure prediction by ZEFSAII (Michael W. Deem and Ramdas Pophale) SiO2 
 PCOD8008982
Probable space group: P -1
;
_chemical_formula_sum "Si O2"
_cell_formula_units_Z 16
_cell_length_a 14.713474
_cell_length_b 14.596999
_cell_length_c 14.760227
_cell_angle_alpha 46.405826
_cell_angle_beta 20.759070
_cell_angle_gamma 43.526143
_cell_volume 772.942200
_symmetry_space_group_name_H-M "P -1"
_symmetry_group_IT_number 2
_symmetry_cell_setting 'triclinic'
loop_
_space_group_symop_operation_xyz
x,y,z
-x,-y,-z
loop_
_atom_site_type_symbol
_atom_site_label
_atom_site_fract_x
_atom_site_fract_y
_atom_site_fract_z
Si Si1 0.489041 0.644409 0.589387
Si Si2 0.535819 0.200751 0.041950
Si Si3 0.602071 0.943382 0.041802
Si Si4 0.141206 0.540593 0.756805
Si Si5 0.005293 0.694802 0.407532
Si Si6 0.875262 0.580504 0.429107
Si Si7 0.774004 0.212688 0.418673
Si Si8 0.730874 0.567355 0.984535
O O1 0.708503 0.599773 0.335517
O O2 0.617654 0.666474 0.550671
O O3 0.273925 0.775781 0.655256
O O4 0.380934 0.519406 0.784010
O O5 0.268464 0.237752 0.327738
O O6 0.500680 0.302984 0.921718
O O7 0.589280 0.055156 0.052042
O O8 0.801966 0.211449 0.838551
O O9 0.406999 0.863174 0.312446
O O10 0.911551 0.853662 0.808379
O O11 0.500000 0.000000 0.000000
O O12 0.314261 0.636051 0.561557
O O13 0.935305 0.621925 0.815027
O O14 0.000000 0.500000 0.000000
O O15 0.924526 0.680472 0.389068
O O16 0.174197 0.548925 0.389443
O O17 0.136546 0.527051 0.159200
#
# Coordination Sequence:
#
# PCOD8008982 Si02
#       8
#     2   2   2   2   2   2   2   2
#     4  11  22  37  63  94 133 156 203 258 331 378
#     4  11  23  41  63  89 126 166 216 257 311 359
#     4  12  28  46  66  89 125 174 224 258 296 364
#     4  11  22  37  57  94 132 165 201 251 324 388
#     4  10  21  38  65  94 129 165 200 261 314 390
#     4   9  21  35  60 100 130 156 200 253 335 378
#     4  12  26  42  66  91 127 172 213 261 311 373
#     4  10  21  35  61  94 128 161 197 263 317 388
#
# _framework density 20.700125
#
# number of rings (size 3 to 8) (size 9 to 14) (size 15 to 20)
#    0.000    1.250    2.500    3.000    7.000    1.500 
#    0.000    0.000    0.000    4.500    0.000    0.000 
#    0.000    0.000    0.000    0.000    0.000    0.000 
#
# Total GULP energy -198314.778803 kJ/mol
# GULP energy per Si atom -12394.673675 kJ/mol
# Density = 2.065301 g / cm^3
# Si number density = 20.700125 Si / 1000 Ang^3
#
#
#
# Elastic Constant Matrix: (Units=GPa)
#
#
# Indices 1 2 3 4 5 6 
#
# 1 156.5482 42.1919 38.3756 -5.1173 -13.0629 -1.9073
# 2 42.1919 62.7207 27.0755 -10.9968 -4.9148 1.5977
# 3 38.3756 27.0755 109.5223 -14.5333 -12.9778 1.7692
# 4 -5.1173 -10.9968 -14.5333 31.0783 -0.1046 -6.2954
# 5 -13.0629 -4.9148 -12.9778 -0.1046 34.1714 -1.6259
# 6 -1.9073 1.5977 1.7692 -6.2954 -1.6259 40.2686
#
#
#
# Elastic Compliance Matrix: (Units=1/GPa)
#
#
# Indices 1 2 3 4 5 6 
#
# 1 0.008226 -0.004889 -0.001595 -0.000999 0.001860 0.000573
# 2 -0.004889 0.021426 -0.002845 0.005426 0.000144 -0.000103
# 3 -0.001595 -0.002845 0.011324 0.004101 0.003309 0.000315
# 4 -0.000999 0.005426 0.004101 0.036957 0.002327 0.005429
# 5 0.001860 0.000144 0.003309 0.002327 0.031334 0.001566
# 6 0.000573 -0.000103 0.000315 0.005429 0.001566 0.025763
#
#
# Mechanical properties :
#
#
# Convention : Reuss Voigt Hill
#
# Bulk Modulus (GPa) = 44.80787 60.45301 52.63044
# Shear Modulus (GPa) = 31.03128 35.84689 33.43908
#
# Velocity S-wave (km/s) = 3.87600 4.16591 4.02357
# Velocity P-wave (km/s) = 6.45944 7.23929 6.86046
#
# Compressibility (1/GPa) = 0.02231751
#
# Stress axis : x y z
#
# Youngs Moduli (GPa) = 121.56581 46.67267 88.30757
#
# Poissons Ratio (x) = 0.22818 0.14086
# Poissons Ratio (y) = 0.59434 0.25124
# Poissons Ratio (z) = 0.19391 0.13278
#
# Static dielectric constant tensor:
#      x y z
#    x 4.085390 -0.154120 -0.134630 
#    y -0.154120 3.751110 0.028340 
#    z -0.134630 0.028340 3.802080 
# 
# 
# High freq. dielectric constant tensor:
#      x y z
#    x 1.829350 -0.008040 -0.009150 
#    y -0.008040 1.773170 0.003580 
#    z -0.009150 0.003580 1.817230 
# 
# From -- ./inp_files/83131.got.cif
#   From: 2010.06.25/outbox.cif.g09.slc.cpg/sg2_42_cif.got.tgz:83131.got - 2010.06.27 13:26:56.
