data_PCOD8008156
_publ_section_title
;
Structure prediction by ZEFSAII (Michael W. Deem and Ramdas Pophale) SiO2 
 PCOD8008156
Probable space group: P -1
;
_chemical_formula_sum "Si O2"
_cell_formula_units_Z 16
_cell_length_a 19.340818
_cell_length_b 10.668908
_cell_length_c 8.352294
_cell_angle_alpha 48.611614
_cell_angle_beta 99.892496
_cell_angle_gamma 136.924572
_cell_volume 701.615463
_symmetry_space_group_name_H-M "P -1"
_symmetry_group_IT_number 2
_symmetry_cell_setting 'triclinic'
loop_
_space_group_symop_operation_xyz
x,y,z
-x,-y,-z
loop_
_atom_site_type_symbol
_atom_site_label
_atom_site_fract_x
_atom_site_fract_y
_atom_site_fract_z
Si Si1 0.131422 0.182986 0.950309
Si Si2 0.762293 0.136043 0.005383
Si Si3 0.747069 0.981422 0.468149
Si Si4 0.342118 0.835293 0.620464
Si Si5 0.029268 0.674363 0.516226
Si Si6 0.446092 0.575534 0.943866
Si Si7 0.325800 0.356783 0.750642
Si Si8 0.445849 0.024811 0.832908
O O1 0.215622 0.497062 0.794901
O O2 0.203116 0.236511 0.781625
O O3 0.102520 0.987122 0.236327
O O4 0.000000 0.000000 0.000000
O O5 0.774868 0.033183 0.246976
O O6 0.706977 0.904940 0.040998
O O7 0.671797 0.114552 0.011972
O O8 0.900272 0.474731 0.722086
O O9 0.682807 0.030599 0.434996
O O10 0.879521 0.240933 0.396626
O O11 0.648711 0.632304 0.765445
O O12 0.439607 0.057916 0.319057
O O13 0.401874 0.858851 0.782220
O O14 0.000000 0.500000 0.500000
O O15 0.363422 0.476452 0.845801
O O16 0.500000 0.500000 0.000000
O O17 0.439313 0.616727 0.453011
O O18 0.500000 0.000000 0.000000
#
# Coordination Sequence:
#
# PCOD8008156 Si02
#       8
#     2   2   2   2   2   2   2   2
#     4  12  26  43  67 100 137 176 228 278 335 394
#     4  11  24  43  68  97 135 176 226 281 328 402
#     4  10  20  42  67 102 129 175 225 279 335 396
#     4   9  22  42  68  98 137 176 221 276 335 403
#     4  12  23  43  69  97 131 180 232 271 332 405
#     4   9  18  39  68  96 127 169 225 275 326 392
#     4  11  23  45  65  99 132 177 233 272 331 401
#     4  10  24  45  66 100 140 175 219 276 351 394
#
# _framework density 22.804516
#
# number of rings (size 3 to 8) (size 9 to 14) (size 15 to 20)
#    0.000    1.500    2.500    2.250    1.750    4.000 
#    4.500    2.500    0.000    0.000    0.000    0.000 
#    0.000    0.000    0.000    0.000    0.000    0.000 
#
# Total GULP energy -198285.427114 kJ/mol
# GULP energy per Si atom -12392.839195 kJ/mol
# Density = 2.275261 g / cm^3
# Si number density = 22.804516 Si / 1000 Ang^3
#
#
#
# Elastic Constant Matrix: (Units=GPa)
#
#
# Indices 1 2 3 4 5 6 
#
# 1 88.5571 21.2816 32.6326 1.3549 -23.3831 24.2903
# 2 21.2816 93.2282 49.8869 -13.7366 1.3583 19.4010
# 3 32.6326 49.8869 158.6432 -19.2665 -17.2184 7.1463
# 4 1.3549 -13.7366 -19.2665 38.6153 5.7123 4.7982
# 5 -23.3831 1.3583 -17.2184 5.7123 40.3331 -2.6297
# 6 24.2903 19.4010 7.1463 4.7982 -2.6297 35.8033
#
#
#
# Elastic Compliance Matrix: (Units=1/GPa)
#
#
# Indices 1 2 3 4 5 6 
#
# 1 0.017431 -0.001321 -0.002026 -0.002206 0.008962 -0.009752
# 2 -0.001321 0.015694 -0.004153 0.005162 -0.004306 -0.007787
# 3 -0.002026 -0.004153 0.008476 0.002246 0.002384 0.001807
# 4 -0.002206 0.005162 0.002246 0.030474 -0.005216 -0.006215
# 5 0.008962 -0.004306 0.002384 -0.005216 0.031813 -0.001187
# 6 -0.009752 -0.007787 0.001807 -0.006215 -0.001187 0.039151
#
#
# Mechanical properties :
#
#
# Convention : Reuss Voigt Hill
#
# Bulk Modulus (GPa) = 37.59327 60.89229 49.24278
# Shear Modulus (GPa) = 29.95673 38.72551 34.34112
#
# Velocity S-wave (km/s) = 3.62834 4.12533 3.88479
# Velocity P-wave (km/s) = 5.83729 7.03214 6.46239
#
# Compressibility (1/GPa) = 0.02660051
#
# Stress axis : x y z
#
# Youngs Moduli (GPa) = 57.36863 63.71822 117.97730
#
# Poissons Ratio (x) = 0.08419 0.23903
# Poissons Ratio (y) = 0.07580 0.48997
# Poissons Ratio (z) = 0.11623 0.26463
#
# Static dielectric constant tensor:
#      x y z
#    x 4.162990 0.258730 -0.148170 
#    y 0.258730 4.296310 0.077250 
#    z -0.148170 0.077250 4.597360 
# 
# 
# High freq. dielectric constant tensor:
#      x y z
#    x 1.903070 0.019460 -0.006250 
#    y 0.019460 1.886270 -0.007010 
#    z -0.006250 -0.007010 1.914110 
# 
# From -- ./inp_files/345872.got.cif
#   From: 2010.06.25/outbox.cif.g09.slc.cpg/sg2_173_cif.got.tgz:345872.got - 2010.06.27 13:26:56.
