data_PCOD8008195
_publ_section_title
;
Structure prediction by ZEFSAII (Michael W. Deem and Ramdas Pophale) SiO2 
 PCOD8008195
Probable space group: P -1
;
_chemical_formula_sum "Si O2"
_cell_formula_units_Z 16
_cell_length_a 14.885808
_cell_length_b 9.436732
_cell_length_c 8.682414
_cell_angle_alpha 86.548127
_cell_angle_beta 79.836404
_cell_angle_gamma 138.969918
_cell_volume 751.980557
_symmetry_space_group_name_H-M "P -1"
_symmetry_group_IT_number 2
_symmetry_cell_setting 'triclinic'
loop_
_space_group_symop_operation_xyz
x,y,z
-x,-y,-z
loop_
_atom_site_type_symbol
_atom_site_label
_atom_site_fract_x
_atom_site_fract_y
_atom_site_fract_z
Si Si1 0.923892 0.788438 0.439125
Si Si2 0.859852 0.746131 0.109709
Si Si3 0.120965 0.551884 0.873011
Si Si4 0.582920 0.456924 0.024611
Si Si5 0.363189 0.976212 0.272303
Si Si6 0.058012 0.680438 0.351252
Si Si7 0.367627 0.653207 0.288822
Si Si8 0.602905 0.000756 0.401141
O O1 0.860397 0.758309 0.294232
O O2 0.791163 0.551704 0.580003
O O3 0.059233 0.843410 0.397434
O O4 0.000000 0.000000 0.500000
O O5 0.862122 0.586347 0.052549
O O6 0.721056 0.656608 0.080187
O O7 0.000000 0.000000 0.000000
O O8 0.279557 0.814306 0.779114
O O9 0.064537 0.461201 0.728007
O O10 0.000000 0.500000 0.000000
O O11 0.486075 0.230310 0.163251
O O12 0.500000 0.500000 0.000000
O O13 0.632466 0.441931 0.855116
O O14 0.216435 0.830293 0.230303
O O15 0.405656 0.865172 0.231149
O O16 0.325867 0.971281 0.463958
O O17 0.000000 0.500000 0.500000
O O18 0.494594 0.757825 0.364090
O O19 0.500000 0.000000 0.500000
#
# Coordination Sequence:
#
# PCOD8008195 Si02
#       8
#     2   2   2   2   2   2   2   2
#     4  11  24  44  70  96 134 176 224 272 343 404
#     4  11  25  47  66  94 140 182 220 277 341 406
#     4  11  25  39  69 103 135 168 229 282 342 399
#     4  12  29  45  65 100 139 181 227 280 340 404
#     4  11  22  42  71  92 136 169 224 277 340 393
#     4  11  21  41  66 103 128 168 216 280 332 406
#     4  11  23  42  70  95 127 175 226 276 339 401
#     4  10  20  42  67  96 129 175 221 281 337 403
#
# _framework density 21.277145000000001
#
# number of rings (size 3 to 8) (size 9 to 14) (size 15 to 20)
#    0.000    1.000    2.500    5.625    8.750    1.000 
#    2.250    1.250    0.000    0.000    0.000    0.000 
#    0.000    0.000    0.000    0.000    0.000    0.000 
#
# Total GULP energy -198222.499108 kJ/mol
# GULP energy per Si atom -12388.906194 kJ/mol
# Density = 2.122872 g / cm^3
# Si number density = 21.277145 Si / 1000 Ang^3
#
#
#
# Elastic Constant Matrix: (Units=GPa)
#
#
# Indices 1 2 3 4 5 6 
#
# 1 122.6372 40.6697 38.3245 5.5458 4.1376 3.9630
# 2 40.6697 102.2279 28.5772 -5.4798 1.1141 7.9065
# 3 38.3245 28.5772 99.0775 -6.1809 -7.5660 -6.8364
# 4 5.5458 -5.4798 -6.1809 45.4828 4.9905 -2.3893
# 5 4.1376 1.1141 -7.5660 4.9905 33.7660 -2.2247
# 6 3.9630 7.9065 -6.8364 -2.3893 -2.2247 39.3775
#
#
#
# Elastic Compliance Matrix: (Units=1/GPa)
#
#
# Indices 1 2 3 4 5 6 
#
# 1 0.010491 -0.003193 -0.003481 -0.002011 -0.001745 -0.001240
# 2 -0.003193 0.011995 -0.002372 0.001484 -0.000917 -0.002461
# 3 -0.003481 -0.002372 0.012711 0.001676 0.003324 0.003323
# 4 -0.002011 0.001484 0.001676 0.023013 -0.002734 0.001437
# 5 -0.001745 -0.000917 0.003324 -0.002734 0.031175 0.002532
# 6 -0.001240 -0.002461 0.003323 0.001437 0.002532 0.026821
#
#
# Mechanical properties :
#
#
# Convention : Reuss Voigt Hill
#
# Bulk Modulus (GPa) = 58.46275 59.89837 59.18056
# Shear Modulus (GPa) = 35.71372 38.15002 36.93187
#
# Velocity S-wave (km/s) = 4.10140 4.23898 4.17076
# Velocity P-wave (km/s) = 7.06859 7.22297 7.14620
#
# Compressibility (1/GPa) = 0.01710491
#
# Stress axis : x y z
#
# Youngs Moduli (GPa) = 95.32122 83.36533 78.66895
#
# Poissons Ratio (x) = 0.26622 0.27386
# Poissons Ratio (y) = 0.30440 0.18660
# Poissons Ratio (z) = 0.33182 0.19774
#
# Static dielectric constant tensor:
#      x y z
#    x 3.932650 0.148470 0.289550 
#    y 0.148470 4.092570 0.310120 
#    z 0.289550 0.310120 4.236190 
# 
# 
# High freq. dielectric constant tensor:
#      x y z
#    x 1.833060 0.020660 0.005700 
#    y 0.020660 1.846120 -0.001930 
#    z 0.005700 -0.001930 1.836270 
# 
# From -- ./inp_files/298550.got.cif
#   From: 2010.06.25/outbox.cif.g09.slc.cpg/sg2_150_cif.got.tgz:298550.got - 2010.06.27 13:26:56.
