data_PCOD8008085
_publ_section_title
;
Structure prediction by ZEFSAII (Michael W. Deem and Ramdas Pophale) SiO2 
 PCOD8008085
Probable space group: P -1
;
_chemical_formula_sum "Si O2"
_cell_formula_units_Z 16
_cell_length_a 17.063135
_cell_length_b 11.038599
_cell_length_c 8.634779
_cell_angle_alpha 40.566206
_cell_angle_beta 47.904768
_cell_angle_gamma 58.536281
_cell_volume 784.561472
_symmetry_space_group_name_H-M "P -1"
_symmetry_group_IT_number 2
_symmetry_cell_setting 'triclinic'
loop_
_space_group_symop_operation_xyz
x,y,z
-x,-y,-z
loop_
_atom_site_type_symbol
_atom_site_label
_atom_site_fract_x
_atom_site_fract_y
_atom_site_fract_z
Si Si1 0.930809 0.903202 0.053993
Si Si2 0.881608 0.026197 0.682351
Si Si3 0.112197 0.682225 0.860602
Si Si4 0.269574 0.173464 0.418934
Si Si5 0.596461 0.412548 0.548625
Si Si6 0.315292 0.768351 0.664066
Si Si7 0.554780 0.557220 0.024523
Si Si8 0.215490 0.320444 0.008787
O O1 0.836087 0.802885 0.362584
O O2 0.881527 0.049432 0.848371
O O3 0.998788 0.751069 0.010885
O O4 0.000000 0.000000 0.000000
O O5 0.813232 0.846684 0.904371
O O6 0.844273 0.206900 0.457086
O O7 0.000000 0.000000 0.500000
O O8 0.193742 0.706821 0.871500
O O9 0.113647 0.463283 0.024775
O O10 0.246796 0.238439 0.212819
O O11 0.317268 0.964525 0.555235
O O12 0.359056 0.289287 0.270570
O O13 0.500000 0.500000 0.500000
O O14 0.640288 0.231279 0.572389
O O15 0.545009 0.353571 0.835195
O O16 0.687086 0.565990 0.299385
O O17 0.386021 0.621242 0.807344
O O18 0.500000 0.500000 0.000000
#
# Coordination Sequence:
#
# PCOD8008085 Si02
#       8
#     2   2   2   2   2   2   2   2
#     4  11  23  40  63  96 135 166 201 255 324 376
#     4  10  22  40  62  90 124 163 212 264 295 373
#     4  10  20  42  65  93 127 167 212 261 302 376
#     4  12  22  40  67  93 130 170 203 263 318 373
#     4   9  19  41  63  89 118 160 211 261 303 369
#     4  10  20  42  66  93 121 166 218 253 313 377
#     4  11  25  44  61  95 135 161 210 266 315 375
#     4  11  21  40  67  92 120 166 221 255 307 367
#
# _framework density 20.393557000000001
#
# number of rings (size 3 to 8) (size 9 to 14) (size 15 to 20)
#    0.000    1.500    6.250    0.750    1.750    3.500 
#    4.500    1.250    0.000    0.000    0.000    0.000 
#    0.000    0.000    0.000    0.000    0.000    0.000 
#
# Total GULP energy -198229.939506 kJ/mol
# GULP energy per Si atom -12389.371219 kJ/mol
# Density = 2.034714 g / cm^3
# Si number density = 20.393557 Si / 1000 Ang^3
#
#
#
# Elastic Constant Matrix: (Units=GPa)
#
#
# Indices 1 2 3 4 5 6 
#
# 1 105.0691 23.3990 42.4875 8.5465 -3.1937 18.5460
# 2 23.3990 92.9724 35.5379 0.2991 -8.7124 -0.6427
# 3 42.4875 35.5379 96.7008 15.2168 -19.9075 7.0377
# 4 8.5465 0.2991 15.2168 39.6867 -6.6154 -1.3770
# 5 -3.1937 -8.7124 -19.9075 -6.6154 31.8440 2.6479
# 6 18.5460 -0.6427 7.0377 -1.3770 2.6479 34.7984
#
#
#
# Elastic Compliance Matrix: (Units=1/GPa)
#
#
# Indices 1 2 3 4 5 6 
#
# 1 0.012925 -0.001626 -0.004837 -0.001451 -0.001988 -0.005847
# 2 -0.001626 0.012911 -0.004316 0.002135 0.000949 0.001990
# 3 -0.004837 -0.004316 0.016418 -0.003958 0.007907 -0.001581
# 4 -0.001451 0.002135 -0.003958 0.027681 0.003512 0.002441
# 5 -0.001988 0.000949 0.007907 0.003512 0.037405 -0.003230
# 6 -0.005847 0.001990 -0.001581 0.002441 -0.003230 0.032552
#
#
# Mechanical properties :
#
#
# Convention : Reuss Voigt Hill
#
# Bulk Modulus (GPa) = 48.31658 55.28791 51.80224
# Shear Modulus (GPa) = 29.70051 34.15367 31.92709
#
# Velocity S-wave (km/s) = 3.82038 4.09678 3.96099
# Velocity P-wave (km/s) = 6.57297 7.03900 6.80997
#
# Compressibility (1/GPa) = 0.02069683
#
# Stress axis : x y z
#
# Youngs Moduli (GPa) = 77.36873 77.45582 60.90916
#
# Poissons Ratio (x) = 0.12596 0.29460
# Poissons Ratio (y) = 0.12582 0.26286
# Poissons Ratio (z) = 0.37421 0.33426
#
# Static dielectric constant tensor:
#      x y z
#    x 4.114880 0.209970 0.495510 
#    y 0.209970 2.863870 -0.556260 
#    z 0.495510 -0.556260 3.961620 
# 
# 
# High freq. dielectric constant tensor:
#      x y z
#    x 1.808300 -0.006370 -0.002400 
#    y -0.006370 1.789700 0.006420 
#    z -0.002400 0.006420 1.784620 
# 
# From -- ./inp_files/330583.got.cif
#   From: 2010.06.25/outbox.cif.g09.slc.cpg/sg2_166_cif.got.tgz:330583.got - 2010.06.27 13:26:56.
