data_PCOD8008247
_publ_section_title
;
Structure prediction by ZEFSAII (Michael W. Deem and Ramdas Pophale) SiO2 
 PCOD8008247
Probable space group: P -1
;
_chemical_formula_sum "Si O2"
_cell_formula_units_Z 16
_cell_length_a 12.885395
_cell_length_b 11.335015
_cell_length_c 9.042309
_cell_angle_alpha 84.347128
_cell_angle_beta 126.054085
_cell_angle_gamma 130.174575
_cell_volume 726.410840
_symmetry_space_group_name_H-M "P -1"
_symmetry_group_IT_number 2
_symmetry_cell_setting 'triclinic'
loop_
_space_group_symop_operation_xyz
x,y,z
-x,-y,-z
loop_
_atom_site_type_symbol
_atom_site_label
_atom_site_fract_x
_atom_site_fract_y
_atom_site_fract_z
Si Si1 0.993652 0.264855 0.215151
Si Si2 0.298779 0.901126 0.479640
Si Si3 0.335960 0.528156 0.264458
Si Si4 0.292830 0.773625 0.195668
Si Si5 0.281530 0.150405 0.317237
Si Si6 0.113362 0.055892 0.875964
Si Si7 0.030499 0.381358 0.551077
Si Si8 0.314333 0.414720 0.937026
O O1 0.171987 0.359411 0.246729
O O2 0.063938 0.356791 0.418902
O O3 0.868718 0.062534 0.165356
O O4 0.868023 0.279960 0.032267
O O5 0.254735 0.767777 0.340256
O O6 0.150831 0.798626 0.500691
O O7 0.508186 0.031687 0.706304
O O8 0.294454 0.019223 0.369031
O O9 0.288270 0.631739 0.174971
O O10 0.533745 0.654180 0.500883
O O11 0.350439 0.462341 0.134512
O O12 0.249877 0.152120 0.118864
O O13 0.106673 0.081730 0.267403
O O14 0.176005 0.210215 0.812043
O O15 0.219085 0.470144 0.785596
O O16 0.000000 0.500000 0.500000
O O17 0.500000 0.500000 0.000000
#
# Coordination Sequence:
#
# PCOD8008247 Si02
#       8
#     2   2   2   2   2   2   2   2
#     4  12  25  41  71 106 136 186 233 284 349 419
#     4  10  20  42  69 100 139 176 231 284 349 408
#     4  11  24  43  73  99 141 180 239 281 346 419
#     4  10  21  40  72 102 130 181 236 288 338 414
#     4  10  21  41  71 101 130 184 224 288 337 409
#     4  11  24  42  69  96 141 175 232 282 345 411
#     4  12  27  46  70 101 147 185 230 294 353 409
#     4  12  29  48  69 103 146 186 228 294 353 415
#
# _framework density 22.026102999999999
#
# number of rings (size 3 to 8) (size 9 to 14) (size 15 to 20)
#    0.000    1.000    2.500    4.125    3.500    5.000 
#    0.000    0.000    0.000    0.000    0.000    0.000 
#    0.000    0.000    0.000    0.000    0.000    0.000 
#
# Total GULP energy -198393.817402 kJ/mol
# GULP energy per Si atom -12399.613588 kJ/mol
# Density = 2.197597 g / cm^3
# Si number density = 22.026103 Si / 1000 Ang^3
#
#
#
# Elastic Constant Matrix: (Units=GPa)
#
#
# Indices 1 2 3 4 5 6 
#
# 1 119.8475 45.2931 41.0346 6.7542 -3.1971 14.0005
# 2 45.2931 96.0971 29.7750 9.1039 5.0988 -11.9254
# 3 41.0346 29.7750 141.1857 -0.1844 -2.1742 -6.4944
# 4 6.7542 9.1039 -0.1844 24.7194 5.8547 -1.2575
# 5 -3.1971 5.0988 -2.1742 5.8547 59.5312 15.9296
# 6 14.0005 -11.9254 -6.4944 -1.2575 15.9296 48.6629
#
#
#
# Elastic Compliance Matrix: (Units=1/GPa)
#
#
# Indices 1 2 3 4 5 6 
#
# 1 0.012368 -0.005741 -0.002633 -0.002315 0.002988 -0.006354
# 2 -0.005741 0.014647 -0.001195 -0.002839 -0.002923 0.005965
# 3 -0.002633 -0.001195 0.008175 0.001385 -0.000332 0.001700
# 4 -0.002315 -0.002839 0.001385 0.043443 -0.004872 0.002873
# 5 0.002988 -0.002923 -0.000332 -0.004872 0.019885 -0.008255
# 6 -0.006354 0.005965 0.001700 0.002873 -0.008255 0.026843
#
#
# Mechanical properties :
#
#
# Convention : Reuss Voigt Hill
#
# Bulk Modulus (GPa) = 62.29906 65.48174 63.89040
# Shear Modulus (GPa) = 33.36718 42.65119 38.00919
#
# Velocity S-wave (km/s) = 3.89638 4.40522 4.15859
# Velocity P-wave (km/s) = 6.97051 7.46112 7.21998
#
# Compressibility (1/GPa) = 0.01605161
#
# Stress axis : x y z
#
# Youngs Moduli (GPa) = 80.85563 68.27566 122.32401
#
# Poissons Ratio (x) = 0.39198 0.32210
# Poissons Ratio (y) = 0.46420 0.14612
# Poissons Ratio (z) = 0.21290 0.08156
#
# Static dielectric constant tensor:
#      x y z
#    x 4.089960 -0.222450 0.217380 
#    y -0.222450 4.153780 0.011010 
#    z 0.217380 0.011010 3.993660 
# 
# 
# High freq. dielectric constant tensor:
#      x y z
#    x 1.873260 -0.019130 0.014680 
#    y -0.019130 1.870680 0.006210 
#    z 0.014680 0.006210 1.869090 
# 
# From -- ./inp_files/262581.got.cif
#   From: 2010.06.25/outbox.cif.g09.slc.cpg/sg2_132_cif.got.tgz:262581.got - 2010.06.27 13:26:56.
