data_PCOD8008755
_publ_section_title
;
Structure prediction by ZEFSAII (Michael W. Deem and Ramdas Pophale) SiO2 
 PCOD8008755
Probable space group: P -1
;
_chemical_formula_sum "Si O2"
_cell_formula_units_Z 12
_cell_length_a 10.460039
_cell_length_b 15.154613
_cell_length_c 14.716567
_cell_angle_alpha 160.367527
_cell_angle_beta 131.647428
_cell_angle_gamma 51.008490
_cell_volume 585.642639
_symmetry_space_group_name_H-M "P -1"
_symmetry_group_IT_number 2
_symmetry_cell_setting 'triclinic'
loop_
_space_group_symop_operation_xyz
x,y,z
-x,-y,-z
loop_
_atom_site_type_symbol
_atom_site_label
_atom_site_fract_x
_atom_site_fract_y
_atom_site_fract_z
Si Si1 0.015465 0.820794 0.100811
Si Si2 0.306172 0.236186 0.206178
Si Si3 0.602712 0.255481 0.772935
Si Si4 0.987429 0.302722 0.689035
Si Si5 0.517652 0.278807 0.165844
Si Si6 0.712818 0.471206 0.850130
O O1 0.211988 0.771283 0.116979
O O2 0.992053 0.089968 0.406058
O O3 0.896270 0.823849 0.957564
O O4 0.950042 0.588242 0.907280
O O5 0.380770 0.248812 0.152005
O O6 0.336713 0.511721 0.537116
O O7 0.392700 0.004214 0.081631
O O8 0.623364 0.292041 0.710048
O O9 0.500000 0.000000 0.500000
O O10 0.500000 0.500000 0.000000
O O11 0.827778 0.263562 0.644059
O O12 0.167100 0.307941 0.832739
O O13 0.428335 0.371279 0.120998
#
# Coordination Sequence:
#
# PCOD8008755 Si02
#       6
#     2   2   2   2   2   2
#     4  11  21  40  61  87 126 152 194 242 299 362
#     4  10  21  35  55  88 124 157 186 229 294 362
#     4  11  25  42  61  85 114 160 205 249 292 340
#     4  10  22  34  61  94 117 153 185 244 321 354
#     4  10  21  34  56  87 126 154 188 230 291 367
#     4  10  22  39  60  89 125 152 196 247 299 361
#
# _framework density 20.490311999999999
#
# number of rings (size 3 to 8) (size 9 to 14) (size 15 to 20)
#    0.000    1.667    1.667    3.000    4.667   11.333 
#    0.000    0.000    0.000    6.000    0.000    0.000 
#    0.000    0.000    0.000    0.000    0.000    0.000 
#
# Total GULP energy -148799.012754 kJ/mol
# GULP energy per Si atom -12399.917729 kJ/mol
# Density = 2.044368 g / cm^3
# Si number density = 20.490312 Si / 1000 Ang^3
#
#
#
# Elastic Constant Matrix: (Units=GPa)
#
#
# Indices 1 2 3 4 5 6 
#
# 1 102.9483 38.6024 31.1006 6.2955 18.4405 -11.1370
# 2 38.6024 146.7959 29.0253 -11.5507 25.3373 -12.1488
# 3 31.1006 29.0253 97.6328 4.4753 14.8894 -13.1592
# 4 6.2955 -11.5507 4.4753 27.3231 3.5796 7.0445
# 5 18.4405 25.3373 14.8894 3.5796 20.3738 3.9913
# 6 -11.1370 -12.1488 -13.1592 7.0445 3.9913 26.4772
#
#
#
# Elastic Compliance Matrix: (Units=1/GPa)
#
#
# Indices 1 2 3 4 5 6 
#
# 1 0.013404 -0.001194 -0.001177 -0.003859 -0.010503 0.007115
# 2 -0.001194 0.010281 -0.000237 0.005192 -0.013371 0.004731
# 3 -0.001177 -0.000237 0.013388 -0.002902 -0.009531 0.008259
# 4 -0.003859 0.005192 -0.002902 0.043931 -0.006325 -0.011418
# 5 -0.010503 -0.013371 -0.009531 -0.006325 0.088575 -0.026959
# 6 0.007115 0.004731 0.008259 -0.011418 -0.026959 0.054138
#
#
# Mechanical properties :
#
#
# Convention : Reuss Voigt Hill
#
# Bulk Modulus (GPa) = 31.39184 60.53706 45.96445
# Shear Modulus (GPa) = 20.87227 31.41139 26.14183
#
# Velocity S-wave (km/s) = 3.19508 3.91959 3.57573
# Velocity P-wave (km/s) = 5.38191 7.07761 6.28719
#
# Compressibility (1/GPa) = 0.03185541
#
# Stress axis : x y z
#
# Youngs Moduli (GPa) = 74.60505 97.26684 74.69522
#
# Poissons Ratio (x) = 0.11614 0.08794
# Poissons Ratio (y) = 0.08908 0.01773
# Poissons Ratio (z) = 0.08783 0.02308
#
# Static dielectric constant tensor:
#      x y z
#    x 3.639650 -0.373950 0.259370 
#    y -0.373950 4.239030 -0.183540 
#    z 0.259370 -0.183540 3.814690 
# 
# 
# High freq. dielectric constant tensor:
#      x y z
#    x 1.755200 -0.015110 0.011370 
#    y -0.015110 1.814480 0.007460 
#    z 0.011370 0.007460 1.810190 
# 
# From -- ./inp_files/90003.got.cif
#   From: 2010.06.25/outbox.cif.g09.slc.cpg/sg2_46_cif.got.tgz:90003.got - 2010.06.27 13:26:56.
