data_PCOD8008048
_publ_section_title
;
Structure prediction by ZEFSAII (Michael W. Deem and Ramdas Pophale) SiO2 
 PCOD8008048
Probable space group: P -1
;
_chemical_formula_sum "Si O2"
_cell_formula_units_Z 14
_cell_length_a 20.778270
_cell_length_b 23.809866
_cell_length_c 11.837641
_cell_angle_alpha 151.693218
_cell_angle_beta 21.241893
_cell_angle_gamma 162.016310
_cell_volume 654.126676
_symmetry_space_group_name_H-M "P -1"
_symmetry_group_IT_number 2
_symmetry_cell_setting 'triclinic'
loop_
_space_group_symop_operation_xyz
x,y,z
-x,-y,-z
loop_
_atom_site_type_symbol
_atom_site_label
_atom_site_fract_x
_atom_site_fract_y
_atom_site_fract_z
Si Si1 0.461396 0.713463 0.600319
Si Si2 0.016017 0.634199 0.100806
Si Si3 0.149919 0.600920 0.600780
Si Si4 0.280770 0.293584 0.297255
Si Si5 0.109089 0.364213 0.091205
Si Si6 0.024455 0.049190 0.677348
Si Si7 0.304044 0.199372 0.863387
O O1 0.221840 0.507237 0.669903
O O2 0.683644 0.847635 0.571136
O O3 0.599030 0.716769 0.273058
O O4 0.317242 0.766208 0.896377
O O5 0.966815 0.742934 0.329471
O O6 0.982091 0.527361 0.861556
O O7 0.087047 0.437810 0.367243
O O8 0.474151 0.781671 0.415700
O O9 0.073044 0.668760 0.765121
O O10 0.575809 0.485914 0.200701
O O11 0.295518 0.299776 0.147210
O O12 0.212798 0.133267 0.183276
O O13 0.993712 0.174824 0.968057
O O14 0.000000 0.000000 0.500000
O O15 0.000000 0.000000 0.000000
#
# Coordination Sequence:
#
# PCOD8008048 Si02
#       7
#     2   2   2   2   2   2   2
#     4  10  22  42  63  94 133 164 219 263 322 384
#     4  10  21  41  67 100 124 172 215 269 330 376
#     4   9  21  41  70  90 130 178 211 265 327 380
#     4  11  23  40  72  95 128 177 213 265 329 380
#     4  10  22  45  65  94 133 174 219 260 320 394
#     4  12  25  40  65 100 129 169 217 266 324 388
#     4  10  20  42  64  93 131 165 219 264 314 389
#
# _framework density 21.402581000000001
#
# number of rings (size 3 to 8) (size 9 to 14) (size 15 to 20)
#    0.000    1.714    2.857    0.857    2.000    2.286 
#    7.714    6.429    3.143    0.000    0.000    0.000 
#    0.000    0.000    0.000    0.000    0.000    0.000 
#
# Total GULP energy -173469.200801 kJ/mol
# GULP energy per Si atom -12390.657200 kJ/mol
# Density = 2.135387 g / cm^3
# Si number density = 21.402581 Si / 1000 Ang^3
#
#
#
# Elastic Constant Matrix: (Units=GPa)
#
#
# Indices 1 2 3 4 5 6 
#
# 1 140.9425 50.8049 72.5647 2.1569 2.4375 17.4117
# 2 50.8049 93.3530 49.8748 8.8572 -3.3124 -8.5836
# 3 72.5647 49.8748 130.4176 9.6440 0.2024 0.5280
# 4 2.1569 8.8572 9.6440 29.6071 -8.4508 -7.5374
# 5 2.4375 -3.3124 0.2024 -8.4508 44.6519 -6.5039
# 6 17.4117 -8.5836 0.5280 -7.5374 -6.5039 34.8971
#
#
#
# Elastic Compliance Matrix: (Units=1/GPa)
#
#
# Indices 1 2 3 4 5 6 
#
# 1 0.012428 -0.004854 -0.004989 -0.000464 -0.002245 -0.007838
# 2 -0.004854 0.015920 -0.003343 -0.001007 0.002230 0.006587
# 3 -0.004989 -0.003343 0.011895 -0.002379 -0.000348 0.000908
# 4 -0.000464 -0.001007 -0.002379 0.040114 0.009064 0.010374
# 5 -0.002245 0.002230 -0.000348 0.009064 0.025625 0.008408
# 6 -0.007838 0.006587 0.000908 0.010374 0.008408 0.037980
#
#
# Mechanical properties :
#
#
# Convention : Reuss Voigt Hill
#
# Bulk Modulus (GPa) = 72.09681 79.02244 75.55962
# Shear Modulus (GPa) = 28.57838 34.59581 31.58709
#
# Velocity S-wave (km/s) = 3.65811 4.02485 3.84585
# Velocity P-wave (km/s) = 7.18342 7.65515 7.42303
#
# Compressibility (1/GPa) = 0.01387024
#
# Stress axis : x y z
#
# Youngs Moduli (GPa) = 80.46557 62.81328 84.07142
#
# Poissons Ratio (x) = 0.30492 0.41941
# Poissons Ratio (y) = 0.39061 0.28104
# Poissons Ratio (z) = 0.40143 0.20998
#
# Static dielectric constant tensor:
#      x y z
#    x 4.289040 0.163900 -0.102270 
#    y 0.163900 3.545830 -0.104660 
#    z -0.102270 -0.104660 4.157090 
# 
# 
# High freq. dielectric constant tensor:
#      x y z
#    x 1.856870 0.012140 -0.004560 
#    y 0.012140 1.805240 -0.009910 
#    z -0.004560 -0.009910 1.850870 
# 
# From -- ./inp_files/213080.got.cif
#   From: 2010.06.25/outbox.cif.g09.slc.cpg/sg2_107_cif.got.tgz:213080.got - 2010.06.27 13:26:56.
