data_PCOD8008683
_publ_section_title
;
Structure prediction by ZEFSAII (Michael W. Deem and Ramdas Pophale) SiO2 
 PCOD8008683
Probable space group: P -1
;
_chemical_formula_sum "Si O2"
_cell_formula_units_Z 14
_cell_length_a 15.470611
_cell_length_b 5.351282
_cell_length_c 32.070350
_cell_angle_alpha 130.137342
_cell_angle_beta 160.461675
_cell_angle_gamma 50.421072
_cell_volume 674.255582
_symmetry_space_group_name_H-M "P -1"
_symmetry_group_IT_number 2
_symmetry_cell_setting 'triclinic'
loop_
_space_group_symop_operation_xyz
x,y,z
-x,-y,-z
loop_
_atom_site_type_symbol
_atom_site_label
_atom_site_fract_x
_atom_site_fract_y
_atom_site_fract_z
Si Si1 0.197061 0.159358 0.762942
Si Si2 0.355272 0.235318 0.129314
Si Si3 0.142074 0.233434 0.480461
Si Si4 0.421540 0.370333 0.263129
Si Si5 0.230069 0.171661 0.605175
Si Si6 0.840598 0.400098 0.999901
Si Si7 0.607080 0.202381 0.107250
O O1 0.203073 0.549128 0.799813
O O2 0.423041 0.980078 0.818101
O O3 0.234451 0.056970 0.817243
O O4 0.917103 0.048686 0.609547
O O5 0.461661 0.445359 0.239234
O O6 0.185391 0.478204 0.046740
O O7 0.180294 0.990450 0.047850
O O8 0.381841 0.438578 0.598422
O O9 0.244522 0.072342 0.552780
O O10 0.858375 0.446668 0.382009
O O11 0.125449 0.470507 0.153017
O O12 0.505340 0.977391 0.266669
O O13 0.000000 0.000000 0.500000
O O14 0.633444 0.602198 0.957147
O O15 0.500000 0.000000 0.000000
#
# Coordination Sequence:
#
# PCOD8008683 Si02
#       7
#     2   2   2   2   2   2   2
#     4  10  21  36  62  84 110 139 187 232 282 338
#     4  10  21  35  53  81 117 153 189 222 266 329
#     4  10  21  33  51  81 114 152 189 225 273 321
#     4  11  22  32  54  78 124 156 187 221 268 333
#     4   9  19  31  48  75 114 157 191 212 256 317
#     4  10  23  37  55  83 112 153 191 230 279 331
#     4  10  22  41  64  84 104 138 187 246 291 329
#
# _framework density 20.763638
#
# number of rings (size 3 to 8) (size 9 to 14) (size 15 to 20)
#    0.000    2.000    0.000    3.857   14.000    0.000 
#    0.000    0.000    0.000    1.714    0.000    0.000 
#    0.000    0.000    0.000    0.000    0.000    0.000 
#
# Total GULP energy -173489.524308 kJ/mol
# GULP energy per Si atom -12392.108879 kJ/mol
# Density = 2.071638 g / cm^3
# Si number density = 20.763638 Si / 1000 Ang^3
#
#
#
# Elastic Constant Matrix: (Units=GPa)
#
#
# Indices 1 2 3 4 5 6 
#
# 1 77.2487 40.8594 41.2591 7.8913 -23.4888 31.0796
# 2 40.8594 77.5655 52.0137 8.8383 -14.0143 31.8614
# 3 41.2591 52.0137 125.2868 23.6414 -18.3721 14.6803
# 4 7.8913 8.8383 23.6414 40.1637 -1.4982 -1.9955
# 5 -23.4888 -14.0143 -18.3721 -1.4982 33.1064 -1.3100
# 6 31.0796 31.8614 14.6803 -1.9955 -1.3100 30.2687
#
#
#
# Elastic Compliance Matrix: (Units=1/GPa)
#
#
# Indices 1 2 3 4 5 6 
#
# 1 0.037188 0.005920 -0.005030 -0.006804 0.024154 -0.041380
# 2 0.005920 0.033607 -0.008969 -0.004674 0.011778 -0.036902
# 3 -0.005030 -0.008969 0.013303 -0.004473 0.000125 0.007864
# 4 -0.006804 -0.004674 -0.004473 0.030408 -0.007288 0.015764
# 5 0.024154 0.011778 0.000125 -0.007288 0.050662 -0.035547
# 6 -0.041380 -0.036902 0.007864 0.015764 -0.035547 0.110056
#
#
# Mechanical properties :
#
#
# Convention : Reuss Voigt Hill
#
# Bulk Modulus (GPa) = 14.71882 60.92950 37.82416
# Shear Modulus (GPa) = 15.92214 30.43900 23.18057
#
# Velocity S-wave (km/s) = 2.77217 3.83296 3.34489
# Velocity P-wave (km/s) = 4.16542 6.99977 5.75967
#
# Compressibility (1/GPa) = 0.06794022
#
# Stress axis : x y z
#
# Youngs Moduli (GPa) = 26.89004 29.75591 75.17343
#
# Poissons Ratio (x) = -0.17616 0.37813
# Poissons Ratio (y) = -0.15919 0.67421
# Poissons Ratio (z) = 0.13526 0.26687
#
# Static dielectric constant tensor:
#      x y z
#    x 3.596620 0.534110 -0.079330 
#    y 0.534110 4.199950 -0.238700 
#    z -0.079330 -0.238700 3.983790 
# 
# 
# High freq. dielectric constant tensor:
#      x y z
#    x 1.790740 0.052860 0.001470 
#    y 0.052860 1.792330 0.010130 
#    z 0.001470 0.010130 1.827490 
# 
# From -- ./inp_files/39355.got.cif
#   From: 2010.06.25/outbox.cif.g09.slc.cpg/sg2_20_cif.got.tgz:39355.got - 2010.06.27 13:26:56.
