data_PCOD8008539
_publ_section_title
;
Structure prediction by ZEFSAII (Michael W. Deem and Ramdas Pophale) SiO2 
 PCOD8008539
Probable space group: P -1
;
_chemical_formula_sum "Si O2"
_cell_formula_units_Z 12
_cell_length_a 14.757070
_cell_length_b 14.933366
_cell_length_c 11.594512
_cell_angle_alpha 143.478781
_cell_angle_beta 152.126588
_cell_angle_gamma 29.834129
_cell_volume 586.796308
_symmetry_space_group_name_H-M "P -1"
_symmetry_group_IT_number 2
_symmetry_cell_setting 'triclinic'
loop_
_space_group_symop_operation_xyz
x,y,z
-x,-y,-z
loop_
_atom_site_type_symbol
_atom_site_label
_atom_site_fract_x
_atom_site_fract_y
_atom_site_fract_z
Si Si1 0.550540 0.129614 0.547635
Si Si2 0.133693 0.582047 0.182797
Si Si3 0.552234 0.344103 0.240355
Si Si4 0.242145 0.057125 0.997781
Si Si5 0.855652 0.831115 0.751182
Si Si6 0.622650 0.435080 0.949427
O O1 0.471444 0.065020 0.280798
O O2 0.341520 0.213100 0.496131
O O3 0.596249 0.277178 0.708185
O O4 0.787508 0.962384 0.700054
O O5 0.308068 0.446021 0.139678
O O6 0.278224 0.600591 0.464802
O O7 0.000000 0.500000 0.000000
O O8 0.949748 0.779175 0.127490
O O9 0.499250 0.397481 0.102142
O O10 0.680744 0.127922 0.171074
O O11 0.132026 0.073685 0.018537
O O12 0.103468 0.644191 0.811513
O O13 0.500000 0.500000 0.000000
#
# Coordination Sequence:
#
# PCOD8008539 Si02
#       6
#     2   2   2   2   2   2
#     4   9  20  39  60  89 128 169 206 252 313 372
#     4  11  24  45  66  90 126 164 214 262 311 372
#     4  11  24  42  65  95 125 164 211 261 310 377
#     4  10  20  44  64  89 129 163 204 265 317 359
#     4   9  20  40  61  89 134 164 205 260 305 373
#     4  12  23  38  64  98 129 168 209 254 321 378
#
# _framework density 20.450026000000001
#
# number of rings (size 3 to 8) (size 9 to 14) (size 15 to 20)
#    1.000    0.667    1.667    3.000    0.000    1.333 
#    9.000    0.000    0.000    0.000    0.000    0.000 
#    0.000    0.000    0.000    0.000    0.000    0.000 
#
# Total GULP energy -148781.778454 kJ/mol
# GULP energy per Si atom -12398.481538 kJ/mol
# Density = 2.040348 g / cm^3
# Si number density = 20.450026 Si / 1000 Ang^3
#
#
#
# Elastic Constant Matrix: (Units=GPa)
#
#
# Indices 1 2 3 4 5 6 
#
# 1 85.3144 49.8787 40.0278 -15.1665 -3.1841 -2.3665
# 2 49.8787 140.2270 36.9214 -24.0153 0.0496 1.0599
# 3 40.0278 36.9214 76.6854 -16.7915 5.2666 0.4001
# 4 -15.1665 -24.0153 -16.7915 32.8313 6.6009 -2.3330
# 5 -3.1841 0.0496 5.2666 6.6009 29.6261 3.4754
# 6 -2.3665 1.0599 0.4001 -2.3330 3.4754 19.3857
#
#
#
# Elastic Compliance Matrix: (Units=1/GPa)
#
#
# Indices 1 2 3 4 5 6 
#
# 1 0.018025 -0.004331 -0.007298 0.001030 0.002752 0.002218
# 2 -0.004331 0.009843 -0.001350 0.004747 -0.001271 -0.000240
# 3 -0.007298 -0.001350 0.019377 0.006764 -0.005809 0.000638
# 4 0.001030 0.004747 0.006764 0.040523 -0.010898 0.006557
# 5 0.002752 -0.001271 -0.005809 -0.010898 0.038413 -0.007673
# 6 0.002218 -0.000240 0.000638 0.006557 -0.007673 0.054020
#
#
# Mechanical properties :
#
#
# Convention : Reuss Voigt Hill
#
# Bulk Modulus (GPa) = 46.98137 61.76472 54.37305
# Shear Modulus (GPa) = 23.44613 28.06188 25.75401
#
# Velocity S-wave (km/s) = 3.38969 3.70836 3.55260
# Velocity P-wave (km/s) = 6.19222 6.97168 6.59348
#
# Compressibility (1/GPa) = 0.02128503
#
# Stress axis : x y z
#
# Youngs Moduli (GPa) = 55.47787 101.59906 51.60858
#
# Poissons Ratio (x) = 0.44005 0.37666
# Poissons Ratio (y) = 0.24029 0.06968
# Poissons Ratio (z) = 0.40490 0.13717
#
# Static dielectric constant tensor:
#      x y z
#    x 3.510690 0.005100 0.057470 
#    y 0.005100 3.652720 -0.136610 
#    z 0.057470 -0.136610 3.712860 
# 
# 
# High freq. dielectric constant tensor:
#      x y z
#    x 1.783920 0.007730 0.001100 
#    y 0.007730 1.800980 -0.016050 
#    z 0.001100 -0.016050 1.802020 
# 
# From -- ./inp_files/454125.got.cif
#   From: 2010.06.25/outbox.cif.g09.slc.cpg/sg2_228_cif.got.tgz:454125.got - 2010.06.27 13:26:56.
