data_PCOD8008613
_publ_section_title
;
Structure prediction by ZEFSAII (Michael W. Deem and Ramdas Pophale) SiO2 
 PCOD8008613
Probable space group: P -1
;
_chemical_formula_sum "Si O2"
_cell_formula_units_Z 16
_cell_length_a 16.510697
_cell_length_b 8.199601
_cell_length_c 8.685941
_cell_angle_alpha 88.184209
_cell_angle_beta 136.447997
_cell_angle_gamma 112.910239
_cell_volume 685.738013
_symmetry_space_group_name_H-M "P -1"
_symmetry_group_IT_number 2
_symmetry_cell_setting 'triclinic'
loop_
_space_group_symop_operation_xyz
x,y,z
-x,-y,-z
loop_
_atom_site_type_symbol
_atom_site_label
_atom_site_fract_x
_atom_site_fract_y
_atom_site_fract_z
Si Si1 0.717152 0.780800 0.494830
Si Si2 0.098423 0.288006 0.439975
Si Si3 0.651339 0.179379 0.806121
Si Si4 0.366481 0.502697 0.360005
Si Si5 0.866072 0.584142 0.168467
Si Si6 0.845611 0.110701 0.904530
Si Si7 0.572392 0.984282 0.247948
Si Si8 0.880679 0.350411 0.682259
O O1 0.798521 0.785589 0.453739
O O2 0.669556 0.577261 0.514589
O O3 0.584459 0.794478 0.265783
O O4 0.819080 0.949775 0.749258
O O5 0.099148 0.316237 0.621343
O O6 0.139217 0.476570 0.391220
O O7 0.946172 0.121256 0.177345
O O8 0.781922 0.349451 0.079491
O O9 0.602549 0.280881 0.611545
O O10 0.699981 0.055799 0.783366
O O11 0.521402 0.033081 0.735660
O O12 0.500000 0.500000 0.500000
O O13 0.234263 0.367424 0.067892
O O14 0.010964 0.658219 0.281033
O O15 0.915756 0.325897 0.910946
O O16 0.728963 0.159271 0.463443
O O17 0.500000 0.000000 0.000000
#
# Coordination Sequence:
#
# PCOD8008613 Si02
#       8
#     2   2   2   2   2   2   2   2
#     4  11  24  44  64 101 138 180 223 286 340 405
#     4  12  22  42  69 102 139 176 229 285 343 401
#     4  10  22  45  72  98 135 179 234 270 341 408
#     4  10  20  44  73  98 137 177 231 278 338 409
#     4  10  23  40  72 102 130 181 233 276 338 403
#     4  11  24  41  69 101 136 182 230 280 341 404
#     4  11  25  45  67 100 143 176 223 284 344 405
#     4  11  23  41  70 102 134 182 233 278 335 411
#
# _framework density 23.332528
#
# number of rings (size 3 to 8) (size 9 to 14) (size 15 to 20)
#    0.750    0.500    2.500    3.375    1.750    3.000 
#    4.500    7.500    0.000    0.000    0.000    0.000 
#    0.000    0.000    0.000    0.000    0.000    0.000 
#
# Total GULP energy -198277.778134 kJ/mol
# GULP energy per Si atom -12392.361133 kJ/mol
# Density = 2.327942 g / cm^3
# Si number density = 23.332528 Si / 1000 Ang^3
#
#
#
# Elastic Constant Matrix: (Units=GPa)
#
#
# Indices 1 2 3 4 5 6 
#
# 1 184.2055 32.6700 60.4859 4.3099 25.9599 -5.7481
# 2 32.6700 42.2196 19.2352 -4.2872 5.9958 14.3789
# 3 60.4859 19.2352 112.4634 -9.7700 4.7161 11.2051
# 4 4.3099 -4.2872 -9.7700 36.2054 4.9532 3.2936
# 5 25.9599 5.9958 4.7161 4.9532 38.8229 5.7710
# 6 -5.7481 14.3789 11.2051 3.2936 5.7710 32.2979
#
#
#
# Elastic Compliance Matrix: (Units=1/GPa)
#
#
# Indices 1 2 3 4 5 6 
#
# 1 0.009290 -0.007327 -0.004574 -0.003193 -0.005273 0.007770
# 2 -0.007327 0.036032 0.000129 0.006675 0.001185 -0.018283
# 3 -0.004574 0.000129 0.012192 0.004123 0.001903 -0.005862
# 4 -0.003193 0.006675 0.004123 0.030906 -0.002190 -0.007731
# 5 -0.005273 0.001185 0.001903 -0.002190 0.030235 -0.007305
# 6 0.007770 -0.018283 -0.005862 -0.007731 -0.007305 0.044611
#
#
# Mechanical properties :
#
#
# Convention : Reuss Voigt Hill
#
# Bulk Modulus (GPa) = 29.43563 62.63005 46.03284
# Shear Modulus (GPa) = 25.23552 36.56506 30.90029
#
# Velocity S-wave (km/s) = 3.29228 3.96299 3.64310
# Velocity P-wave (km/s) = 5.20530 6.91672 6.12112
#
# Compressibility (1/GPa) = 0.03397243
#
# Stress axis : x y z
#
# Youngs Moduli (GPa) = 107.63944 27.75278 82.02102
#
# Poissons Ratio (x) = 0.20334 0.37515
# Poissons Ratio (y) = 0.78865 -0.01062
# Poissons Ratio (z) = 0.49233 -0.00359
#
# Static dielectric constant tensor:
#      x y z
#    x 4.198500 0.154680 0.191630 
#    y 0.154680 4.562230 -0.544880 
#    z 0.191630 -0.544880 4.858340 
# 
# 
# High freq. dielectric constant tensor:
#      x y z
#    x 1.926490 0.006580 0.018390 
#    y 0.006580 1.911830 -0.003350 
#    z 0.018390 -0.003350 1.925620 
# 
# From -- ./inp_files/295358.got.cif
#   From: 2010.06.25/outbox.cif.g09.slc.cpg/sg2_148_cif.got.tgz:295358.got - 2010.06.27 13:26:56.
