data_PCOD8008041
_publ_section_title
;
Structure prediction by ZEFSAII (Michael W. Deem and Ramdas Pophale) SiO2 
 PCOD8008041
Probable space group: P -1
;
_chemical_formula_sum "Si O2"
_cell_formula_units_Z 16
_cell_length_a 7.948037
_cell_length_b 22.325039
_cell_length_c 12.329499
_cell_angle_alpha 30.427383
_cell_angle_beta 98.438462
_cell_angle_gamma 121.784597
_cell_volume 659.274888
_symmetry_space_group_name_H-M "P -1"
_symmetry_group_IT_number 2
_symmetry_cell_setting 'triclinic'
loop_
_space_group_symop_operation_xyz
x,y,z
-x,-y,-z
loop_
_atom_site_type_symbol
_atom_site_label
_atom_site_fract_x
_atom_site_fract_y
_atom_site_fract_z
Si Si1 0.147636 0.048106 0.108666
Si Si2 0.135091 0.646478 0.546817
Si Si3 0.975871 0.813924 0.258754
Si Si4 0.509131 0.768513 0.826040
Si Si5 0.103447 0.857798 0.582963
Si Si6 0.665361 0.593368 0.132707
Si Si7 0.719779 0.269174 0.336357
Si Si8 0.248811 0.571412 0.472551
O O1 0.999969 0.909074 0.416767
O O2 0.993798 0.083133 0.002765
O O3 0.474757 0.259665 0.839604
O O4 0.157683 0.961696 0.145168
O O5 0.086573 0.749114 0.331138
O O6 0.337437 0.773325 0.473763
O O7 0.305265 0.661922 0.453891
O O8 0.826149 0.416315 0.893469
O O9 0.654808 0.628951 0.562627
O O10 0.527057 0.800395 0.646695
O O11 0.652770 0.959740 0.598721
O O12 0.670311 0.738059 0.924815
O O13 0.231709 0.830869 0.558298
O O14 0.838395 0.660626 0.933973
O O15 0.803765 0.598118 0.240815
O O16 0.000000 0.500000 0.000000
O O17 0.000000 0.500000 0.500000
#
# Coordination Sequence:
#
# PCOD8008041 Si02
#       8
#     2   2   2   2   2   2   2   2
#     4  10  22  40  63  97 129 166 215 265 319 374
#     4  10  20  42  64  92 128 176 214 258 321 386
#     4   9  20  43  62  91 133 168 212 265 315 381
#     4  10  22  39  63  95 134 166 213 269 318 379
#     4  12  22  40  66  97 129 167 218 266 318 379
#     4  10  23  42  65  92 129 170 217 258 324 383
#     4  10  21  39  60  93 129 170 209 260 324 376
#     4  11  24  43  67  95 130 171 213 262 326 386
#
# _framework density 24.269086000000001
#
# number of rings (size 3 to 8) (size 9 to 14) (size 15 to 20)
#    0.000    1.750    1.250    3.000    0.000    3.000 
#    6.750    3.750    0.000    0.000    0.000    0.000 
#    0.000    0.000    0.000    0.000    0.000    0.000 
#
# Total GULP energy -198299.816597 kJ/mol
# GULP energy per Si atom -12393.738537 kJ/mol
# Density = 2.421385 g / cm^3
# Si number density = 24.269086 Si / 1000 Ang^3
#
#
#
# Elastic Constant Matrix: (Units=GPa)
#
#
# Indices 1 2 3 4 5 6 
#
# 1 74.6687 25.7112 22.3386 5.4008 23.2061 6.3139
# 2 25.7112 121.7433 30.4315 6.2150 25.4835 11.8929
# 3 22.3386 30.4315 97.1920 19.0533 22.4574 17.1828
# 4 5.4008 6.2150 19.0533 36.1616 1.0118 12.4994
# 5 23.2061 25.4835 22.4574 1.0118 33.0413 4.8644
# 6 6.3139 11.8929 17.1828 12.4994 4.8644 36.7593
#
#
#
# Elastic Compliance Matrix: (Units=1/GPa)
#
#
# Indices 1 2 3 4 5 6 
#
# 1 0.017517 -0.001128 -0.000818 -0.001588 -0.010786 -0.000295
# 2 -0.001128 0.010181 -0.001211 -0.000197 -0.005985 -0.001675
# 3 -0.000818 -0.001211 0.014325 -0.005917 -0.007583 -0.003148
# 4 -0.001588 -0.000197 -0.005917 0.034074 0.005604 -0.009226
# 5 -0.010786 -0.005985 -0.007583 0.005604 0.047566 -0.000866
# 6 -0.000295 -0.001675 -0.003148 -0.009226 -0.000866 0.032520
#
#
# Mechanical properties :
#
#
# Convention : Reuss Voigt Hill
#
# Bulk Modulus (GPa) = 28.00272 50.06295 39.03284
# Shear Modulus (GPa) = 28.66974 35.53393 32.10184
#
# Velocity S-wave (km/s) = 3.44077 3.83059 3.64090
# Velocity P-wave (km/s) = 5.22960 6.34331 5.81319
#
# Compressibility (1/GPa) = 0.03571081
#
# Stress axis : x y z
#
# Youngs Moduli (GPa) = 57.08678 98.21931 69.80912
#
# Poissons Ratio (x) = 0.11075 0.05707
# Poissons Ratio (y) = 0.06437 0.08454
# Poissons Ratio (z) = 0.04667 0.11895
#
# Static dielectric constant tensor:
#      x y z
#    x 4.146120 0.113400 0.341300 
#    y 0.113400 4.676470 0.345630 
#    z 0.341300 0.345630 4.606960 
# 
# 
# High freq. dielectric constant tensor:
#      x y z
#    x 1.950290 0.010220 0.026260 
#    y 0.010220 1.958640 0.009140 
#    z 0.026260 0.009140 1.969900 
# 
# From -- ./inp_files/406545.got.cif
#   From: 2010.06.25/outbox.cif.g09.slc.cpg/sg2_204_cif.got.tgz:406545.got - 2010.06.27 13:26:56.
