data_PCOD8008590
_publ_section_title
;
Structure prediction by ZEFSAII (Michael W. Deem and Ramdas Pophale) SiO2 
 PCOD8008590
Probable space group: P -1
;
_chemical_formula_sum "Si O2"
_cell_formula_units_Z 12
_cell_length_a 8.421623
_cell_length_b 11.873574
_cell_length_c 8.447172
_cell_angle_alpha 67.531118
_cell_angle_beta 116.420460
_cell_angle_gamma 141.452714
_cell_volume 470.504004
_symmetry_space_group_name_H-M "P -1"
_symmetry_group_IT_number 2
_symmetry_cell_setting 'triclinic'
loop_
_space_group_symop_operation_xyz
x,y,z
-x,-y,-z
loop_
_atom_site_type_symbol
_atom_site_label
_atom_site_fract_x
_atom_site_fract_y
_atom_site_fract_z
Si Si1 0.216200 0.191533 0.084298
Si Si2 0.901954 0.193447 0.186657
Si Si3 0.703709 0.012496 0.666839
Si Si4 0.717255 0.465805 0.610149
Si Si5 0.352531 0.828844 0.197346
Si Si6 0.714796 0.672076 0.282403
O O1 0.111901 0.223101 0.162723
O O2 0.406058 0.181700 0.250601
O O3 0.355179 0.343400 0.926488
O O4 0.000000 0.000000 0.000000
O O5 0.042091 0.338706 0.309792
O O6 0.672411 0.990230 0.266217
O O7 0.749226 0.218741 0.002146
O O8 0.768514 0.110407 0.810803
O O9 0.984765 0.144373 0.632917
O O10 0.500000 0.000000 0.500000
O O11 0.771547 0.350432 0.668950
O O12 0.651711 0.499039 0.396398
O O13 0.467677 0.335075 0.687706
#
# Coordination Sequence:
#
# PCOD8008590 Si02
#       6
#     2   2   2   2   2   2
#     4  10  20  44  69  94 136 177 227 275 331 405
#     4  11  23  43  72 101 131 190 224 275 349 399
#     4  11  23  42  72 105 133 180 228 282 348 397
#     4  11  25  43  68 100 141 179 231 272 342 410
#     4  11  23  42  70 102 142 170 227 293 333 401
#     4  10  23  45  63  96 141 179 222 284 327 402
#
# _framework density 25.504566000000001
#
# number of rings (size 3 to 8) (size 9 to 14) (size 15 to 20)
#    0.000    1.333    3.333    3.500    2.333    4.000 
#    3.000    8.333    0.000    0.000    0.000    0.000 
#    0.000    0.000    0.000    0.000    0.000    0.000 
#
# Total GULP energy -148705.623844 kJ/mol
# GULP energy per Si atom -12392.135320 kJ/mol
# Density = 2.544652 g / cm^3
# Si number density = 25.504566 Si / 1000 Ang^3
#
#
#
# Elastic Constant Matrix: (Units=GPa)
#
#
# Indices 1 2 3 4 5 6 
#
# 1 83.5512 38.6804 32.0888 -17.5561 8.6988 -5.1160
# 2 38.6804 91.9001 58.9195 -21.1813 7.8908 -11.4632
# 3 32.0888 58.9195 106.1710 -33.4752 25.8116 -2.3407
# 4 -17.5561 -21.1813 -33.4752 38.8880 2.8019 12.1332
# 5 8.6988 7.8908 25.8116 2.8019 39.4214 -5.1531
# 6 -5.1160 -11.4632 -2.3407 12.1332 -5.1531 40.5761
#
#
#
# Elastic Compliance Matrix: (Units=1/GPa)
#
#
# Indices 1 2 3 4 5 6 
#
# 1 0.015762 -0.006029 0.001277 0.005779 -0.003760 -0.001848
# 2 -0.006029 0.020680 -0.012717 -0.004979 0.006746 0.006694
# 3 0.001277 -0.012717 0.027206 0.021745 -0.018496 -0.010713
# 4 0.005779 -0.004979 0.021745 0.051208 -0.020421 -0.017329
# 5 -0.003760 0.006746 -0.018496 -0.020421 0.039916 0.011540
# 6 -0.001848 0.006694 -0.010713 -0.017329 0.011540 0.032333
#
#
# Mechanical properties :
#
#
# Convention : Reuss Voigt Hill
#
# Bulk Modulus (GPa) = 34.82904 60.11106 47.47005
# Shear Modulus (GPa) = 21.58788 33.90603 27.74695
#
# Velocity S-wave (km/s) = 2.91251 3.65006 3.30194
# Velocity P-wave (km/s) = 4.99959 6.43303 5.76107
#
# Compressibility (1/GPa) = 0.02871167
#
# Stress axis : x y z
#
# Youngs Moduli (GPa) = 63.44485 48.35617 36.75633
#
# Poissons Ratio (x) = 0.29152 -0.04694
# Poissons Ratio (y) = 0.38248 0.46741
# Poissons Ratio (z) = -0.08102 0.61492
#
# Static dielectric constant tensor:
#      x y z
#    x 4.579590 -0.048670 0.130450 
#    y -0.048670 4.367730 -0.338690 
#    z 0.130450 -0.338690 5.211990 
# 
# 
# High freq. dielectric constant tensor:
#      x y z
#    x 2.009370 -0.000440 0.009100 
#    y -0.000440 1.997380 -0.013130 
#    z 0.009100 -0.013130 2.037840 
# 
# From -- ./inp_files/168145.got.cif
#   From: 2010.06.25/outbox.cif.g09.slc.cpg/sg2_85_cif.got.tgz:168145.got - 2010.06.27 13:26:56.
