data_PCOD8008908
_publ_section_title
;
Structure prediction by ZEFSAII (Michael W. Deem and Ramdas Pophale) SiO2 
 PCOD8008908
Probable space group: P -1
;
_chemical_formula_sum "Si O2"
_cell_formula_units_Z 14
_cell_length_a 29.909520
_cell_length_b 24.618394
_cell_length_c 15.112525
_cell_angle_alpha 20.066543
_cell_angle_beta 161.231792
_cell_angle_gamma 168.199708
_cell_volume 718.877900
_symmetry_space_group_name_H-M "P -1"
_symmetry_group_IT_number 2
_symmetry_cell_setting 'triclinic'
loop_
_space_group_symop_operation_xyz
x,y,z
-x,-y,-z
loop_
_atom_site_type_symbol
_atom_site_label
_atom_site_fract_x
_atom_site_fract_y
_atom_site_fract_z
Si Si1 0.960642 0.847585 0.077561
Si Si2 0.490942 0.759467 0.785396
Si Si3 0.724291 0.151224 0.089111
Si Si4 0.206419 0.807860 0.158372
Si Si5 0.724274 0.752304 0.095026
Si Si6 0.769101 0.200490 0.295808
Si Si7 0.999794 0.730835 0.718705
O O1 0.692563 0.533778 0.064139
O O2 0.140194 0.866866 0.379545
O O3 0.000000 0.000000 0.000000
O O4 0.035812 0.998572 0.894789
O O5 0.357212 0.788027 0.448722
O O6 0.671315 0.977644 0.865141
O O7 0.643455 0.824991 0.891900
O O8 0.706720 0.075673 0.272174
O O9 0.837280 0.113686 0.301602
O O10 0.880234 0.450937 0.924531
O O11 0.469715 0.955132 0.869065
O O12 0.950442 0.513732 0.161834
O O13 0.168604 0.891377 0.876332
O O14 0.800604 0.683375 0.411924
O O15 0.500000 0.500000 0.000000
#
# Coordination Sequence:
#
# PCOD8008908 Si02
#       7
#     2   2   2   2   2   2   2
#     4  11  21  36  59  88 121 152 195 243 300 351
#     4  10  23  43  62  86 122 157 200 245 292 355
#     4   9  18  32  57  86 116 146 198 246 288 343
#     4   9  21  43  62  82 118 161 197 244 291 349
#     4  12  24  37  62  92 120 157 193 246 305 349
#     4   9  18  34  57  85 112 154 195 242 291 343
#     4  10  21  35  58  88 118 154 194 244 296 349
#
# _framework density 19.474796000000001
#
# number of rings (size 3 to 8) (size 9 to 14) (size 15 to 20)
#    0.000    2.000    1.429    1.714    8.000    0.571 
#    5.143    2.857    0.000    0.000    0.000    0.000 
#    0.000    0.000    0.000    0.000    0.000    0.000 
#
# Total GULP energy -173505.914737 kJ/mol
# GULP energy per Si atom -12393.279624 kJ/mol
# Density = 1.943047 g / cm^3
# Si number density = 19.474796 Si / 1000 Ang^3
#
#
#
# Elastic Constant Matrix: (Units=GPa)
#
#
# Indices 1 2 3 4 5 6 
#
# 1 95.0691 35.8729 30.9529 4.3232 11.9272 -3.5230
# 2 35.8729 74.6122 4.8925 14.4854 6.8215 -16.7812
# 3 30.9529 4.8925 74.7082 18.1325 -2.8337 -14.6758
# 4 4.3232 14.4854 18.1325 27.9421 -0.4470 0.0329
# 5 11.9272 6.8215 -2.8337 -0.4470 31.3461 2.5813
# 6 -3.5230 -16.7812 -14.6758 0.0329 2.5813 29.0755
#
#
#
# Elastic Compliance Matrix: (Units=1/GPa)
#
#
# Indices 1 2 3 4 5 6 
#
# 1 0.018695 -0.012308 -0.011861 0.011126 -0.004489 -0.010439
# 2 -0.012308 0.027274 0.012184 -0.020200 -0.002136 0.020613
# 3 -0.011861 0.012184 0.026554 -0.021696 0.002404 0.018809
# 4 0.011126 -0.020200 -0.021696 0.058656 0.000800 -0.021399
# 5 -0.004489 -0.002136 0.002404 0.000800 0.034603 -0.003636
# 6 -0.010439 0.020613 0.018809 -0.021399 -0.003636 0.054866
#
#
# Mechanical properties :
#
#
# Convention : Reuss Voigt Hill
#
# Bulk Modulus (GPa) = 20.59575 43.09179 31.84377
# Shear Modulus (GPa) = 19.17157 29.18415 24.17786
#
# Velocity S-wave (km/s) = 3.14097 3.87532 3.52731
# Velocity P-wave (km/s) = 4.87368 6.49609 5.74247
#
# Compressibility (1/GPa) = 0.04855371
#
# Stress axis : x y z
#
# Youngs Moduli (GPa) = 53.49007 36.66435 37.65954
#
# Poissons Ratio (x) = 0.45127 0.44668
# Poissons Ratio (y) = 0.65836 -0.45886
# Poissons Ratio (z) = 0.63444 -0.44673
#
# Static dielectric constant tensor:
#      x y z
#    x 3.685280 0.135150 -0.096790 
#    y 0.135150 3.603380 0.131830 
#    z -0.096790 0.131830 3.613360 
# 
# 
# High freq. dielectric constant tensor:
#      x y z
#    x 1.747490 0.012310 0.000320 
#    y 0.012310 1.750980 0.011960 
#    z 0.000320 0.011960 1.761200 
# 
# From -- ./inp_files/168587.got.cif
#   From: 2010.06.25/outbox.cif.g09.slc.cpg/sg2_85_cif.got.tgz:168587.got - 2010.06.27 13:26:56.
