data_PCOD8008148
_publ_section_title
;
Structure prediction by ZEFSAII (Michael W. Deem and Ramdas Pophale) SiO2 
 PCOD8008148
Probable space group: P -1
;
_chemical_formula_sum "Si O2"
_cell_formula_units_Z 16
_cell_length_a 15.991398
_cell_length_b 11.427441
_cell_length_c 8.699008
_cell_angle_alpha 83.915813
_cell_angle_beta 126.875631
_cell_angle_gamma 135.925304
_cell_volume 717.837012
_symmetry_space_group_name_H-M "P -1"
_symmetry_group_IT_number 2
_symmetry_cell_setting 'triclinic'
loop_
_space_group_symop_operation_xyz
x,y,z
-x,-y,-z
loop_
_atom_site_type_symbol
_atom_site_label
_atom_site_fract_x
_atom_site_fract_y
_atom_site_fract_z
Si Si1 0.957980 0.743406 0.340694
Si Si2 0.308455 0.146027 0.519480
Si Si3 0.743948 0.923995 0.879320
Si Si4 0.092042 0.552627 0.754411
Si Si5 0.399000 0.432038 0.056082
Si Si6 0.404597 0.769562 0.534489
Si Si7 0.471759 0.883363 0.252752
Si Si8 0.045050 0.342894 0.306152
O O1 0.962020 0.633578 0.245676
O O2 0.994110 0.737792 0.555049
O O3 0.759658 0.618963 0.130996
O O4 0.121317 0.982261 0.435725
O O5 0.257647 0.120355 0.290718
O O6 0.447207 0.378552 0.683480
O O7 0.400416 0.105119 0.661739
O O8 0.694607 0.771888 0.956946
O O9 0.605787 0.902739 0.759702
O O10 0.945087 0.161523 0.105142
O O11 0.000000 0.500000 0.500000
O O12 0.022090 0.582977 0.798325
O O13 0.316233 0.765339 0.968774
O O14 0.500000 0.500000 0.000000
O O15 0.365839 0.757125 0.313608
O O16 0.259726 0.540656 0.471455
O O17 0.395864 0.881293 0.609063
#
# Coordination Sequence:
#
# PCOD8008148 Si02
#       8
#     2   2   2   2   2   2   2   2
#     4  11  25  44  65  97 130 173 219 264 326 385
#     4  11  25  44  69  96 130 169 217 274 323 383
#     4  11  25  42  66 100 128 171 222 264 321 384
#     4  10  21  40  63  98 134 167 212 261 317 391
#     4  12  26  46  69  92 129 174 219 273 325 383
#     4  10  22  39  67  97 136 170 208 267 319 386
#     4  10  20  42  66  99 133 170 213 261 329 385
#     4  11  23  41  65  98 134 170 213 265 323 387
#
# _framework density 22.289183000000001
#
# number of rings (size 3 to 8) (size 9 to 14) (size 15 to 20)
#    0.000    1.250    2.500    2.625    1.750    4.000 
#    0.000    2.500    0.000    0.000    0.000    0.000 
#    0.000    0.000    0.000    0.000    0.000    0.000 
#
# Total GULP energy -198436.709921 kJ/mol
# GULP energy per Si atom -12402.294370 kJ/mol
# Density = 2.223845 g / cm^3
# Si number density = 22.289183 Si / 1000 Ang^3
#
#
#
# Elastic Constant Matrix: (Units=GPa)
#
#
# Indices 1 2 3 4 5 6 
#
# 1 59.2540 27.5600 24.0348 0.8951 -11.7456 3.6798
# 2 27.5600 99.7605 39.4253 14.7620 -2.2888 2.1085
# 3 24.0348 39.4253 119.3623 15.6039 -14.1011 3.2329
# 4 0.8951 14.7620 15.6039 42.1481 -4.7147 2.2165
# 5 -11.7456 -2.2888 -14.1011 -4.7147 30.1438 8.8654
# 6 3.6798 2.1085 3.2329 2.2165 8.8654 35.3734
#
#
#
# Elastic Compliance Matrix: (Units=1/GPa)
#
#
# Indices 1 2 3 4 5 6 
#
# 1 0.022294 -0.005624 -0.001879 0.003448 0.009195 -0.004333
# 2 -0.005624 0.013309 -0.003229 -0.003821 -0.003655 0.001242
# 3 -0.001879 -0.003229 0.010637 -0.002233 0.004081 -0.001467
# 4 0.003448 -0.003821 -0.002233 0.026525 0.004993 -0.002840
# 5 0.009195 -0.003655 0.004081 0.004993 0.042739 -0.012136
# 6 -0.004333 0.001242 -0.001467 -0.002840 -0.012136 0.032000
#
#
# Mechanical properties :
#
#
# Convention : Reuss Voigt Hill
#
# Bulk Modulus (GPa) = 40.36309 51.15747 45.76028
# Shear Modulus (GPa) = 28.21238 34.02350 31.11794
#
# Velocity S-wave (km/s) = 3.56159 3.91123 3.74050
# Velocity P-wave (km/s) = 5.92126 6.58775 6.26338
#
# Compressibility (1/GPa) = 0.02477511
#
# Stress axis : x y z
#
# Youngs Moduli (GPa) = 44.85504 75.13534 94.01507
#
# Poissons Ratio (x) = 0.42258 0.17662
# Poissons Ratio (y) = 0.25228 0.30362
# Poissons Ratio (z) = 0.08427 0.24265
#
# Static dielectric constant tensor:
#      x y z
#    x 4.020870 -0.246310 0.003000 
#    y -0.246310 3.949290 0.073100 
#    z 0.003000 0.073100 4.103460 
# 
# 
# High freq. dielectric constant tensor:
#      x y z
#    x 1.873040 -0.010890 0.000480 
#    y -0.010890 1.871960 0.011130 
#    z 0.000480 0.011130 1.889310 
# 
# From -- ./inp_files/273510.got.cif
#   From: 2010.06.25/outbox.cif.g09.slc.cpg/sg2_137_cif.got.tgz:273510.got - 2010.06.27 13:26:56.
