data_PCOD8008399
_publ_section_title
;
Structure prediction by ZEFSAII (Michael W. Deem and Ramdas Pophale) SiO2 
 PCOD8008399
Probable space group: P -1
;
_chemical_formula_sum "Si O2"
_cell_formula_units_Z 16
_cell_length_a 14.418900
_cell_length_b 12.524918
_cell_length_c 9.493312
_cell_angle_alpha 105.453256
_cell_angle_beta 44.353151
_cell_angle_gamma 137.623939
_cell_volume 671.657778
_symmetry_space_group_name_H-M "P -1"
_symmetry_group_IT_number 2
_symmetry_cell_setting 'triclinic'
loop_
_space_group_symop_operation_xyz
x,y,z
-x,-y,-z
loop_
_atom_site_type_symbol
_atom_site_label
_atom_site_fract_x
_atom_site_fract_y
_atom_site_fract_z
Si Si1 0.063355 0.167601 0.463898
Si Si2 0.164111 0.565271 0.514419
Si Si3 0.916554 0.124916 0.300342
Si Si4 0.212551 0.528890 0.153346
Si Si5 0.431831 0.361114 0.327922
Si Si6 0.166929 0.246059 0.820007
Si Si7 0.037888 0.731364 0.173385
Si Si8 0.525374 0.012672 0.641477
O O1 0.319925 0.351453 0.314235
O O2 0.030350 0.161477 0.332657
O O3 0.907791 0.146886 0.714567
O O4 0.000000 0.000000 0.500000
O O5 0.227551 0.522283 0.304569
O O6 0.346273 0.787162 0.384987
O O7 0.901545 0.429059 0.731901
O O8 0.150966 0.488090 0.647583
O O9 0.654073 0.986990 0.542777
O O10 0.053629 0.329731 0.181990
O O11 0.974479 0.080797 0.088823
O O12 0.460063 0.680628 0.862386
O O13 0.243599 0.204771 0.603579
O O14 0.607729 0.567657 0.273792
O O15 0.066237 0.280926 0.854165
O O16 0.277330 0.836401 0.917226
O O17 0.500000 0.000000 0.500000
#
# Coordination Sequence:
#
# PCOD8008399 Si02
#       8
#     2   2   2   2   2   2   2   2
#     4  11  25  42  63  98 133 179 230 284 330 398
#     4  10  22  41  68 101 135 174 226 281 339 405
#     4  10  20  43  66  93 137 174 223 287 334 395
#     4   9  19  39  65  98 130 171 229 280 334 407
#     4   9  20  39  62  90 126 174 223 267 332 396
#     4   9  19  40  65  91 130 176 223 276 331 406
#     4  11  23  45  69  99 138 174 228 279 337 409
#     4  11  24  43  70 102 139 178 217 279 350 405
#
# _framework density 23.821656000000001
#
# number of rings (size 3 to 8) (size 9 to 14) (size 15 to 20)
#    0.000    2.000    2.500    0.000    1.750    4.000 
#    4.500    2.500    0.000    0.000    0.000    0.000 
#    0.000    0.000    0.000    0.000    0.000    0.000 
#
# Total GULP energy -198208.933362 kJ/mol
# GULP energy per Si atom -12388.058335 kJ/mol
# Density = 2.376744 g / cm^3
# Si number density = 23.821656 Si / 1000 Ang^3
#
#
#
# Elastic Constant Matrix: (Units=GPa)
#
#
# Indices 1 2 3 4 5 6 
#
# 1 113.7182 10.4027 60.5759 16.7963 1.1400 35.1392
# 2 10.4027 46.0124 26.7500 20.0993 -8.5175 16.9186
# 3 60.5759 26.7500 164.0166 37.6640 -13.4043 8.6625
# 4 16.7963 20.0993 37.6640 39.3906 -1.0954 -0.3844
# 5 1.1400 -8.5175 -13.4043 -1.0954 39.3774 3.5192
# 6 35.1392 16.9186 8.6625 -0.3844 3.5192 32.9300
#
#
#
# Elastic Compliance Matrix: (Units=1/GPa)
#
#
# Indices 1 2 3 4 5 6 
#
# 1 0.021165 0.014672 -0.005904 -0.011070 0.002835 -0.029002
# 2 0.014672 0.051149 -0.003922 -0.028678 0.012309 -0.042553
# 3 -0.005904 -0.003922 0.009914 -0.004850 0.002077 0.005429
# 4 -0.011070 -0.028678 -0.004850 0.049420 -0.008781 0.029338
# 5 0.002835 0.012309 0.002077 -0.008781 0.029615 -0.013163
# 6 -0.029002 -0.042553 0.005429 0.029338 -0.013163 0.083499
#
#
# Mechanical properties :
#
#
# Convention : Reuss Voigt Hill
#
# Bulk Modulus (GPa) = 10.87916 57.68936 34.28426
# Shear Modulus (GPa) = 18.81757 37.40749 28.11253
#
# Velocity S-wave (km/s) = 2.81363 3.96702 3.43902
# Velocity P-wave (km/s) = 3.89001 6.72702 5.49477
#
# Compressibility (1/GPa) = 0.09191888
#
# Stress axis : x y z
#
# Youngs Moduli (GPa) = 47.24832 19.55081 100.86833
#
# Poissons Ratio (x) = -0.28684 0.59554
# Poissons Ratio (y) = -0.69320 0.39557
# Poissons Ratio (z) = 0.27896 0.07667
#
# Static dielectric constant tensor:
#      x y z
#    x -206.234430 -28.301800 1.584060 
#    y -28.301800 0.949020 0.545650 
#    z 1.584060 0.545650 4.984850 
# 
# 
# High freq. dielectric constant tensor:
#      x y z
#    x 1.941860 0.012660 -0.005640 
#    y 0.012660 1.931150 0.027640 
#    z -0.005640 0.027640 1.956060 
# 
# From -- ./inp_files/315382.got.cif
#   From: 2010.06.25/outbox.cif.g09.slc.cpg/sg2_158_cif.got.tgz:315382.got - 2010.06.27 13:26:56.
