data_PCOD8008139
_publ_section_title
;
Structure prediction by ZEFSAII (Michael W. Deem and Ramdas Pophale) SiO2 
 PCOD8008139
Probable space group: P -1
;
_chemical_formula_sum "Si O2"
_cell_formula_units_Z 16
_cell_length_a 14.182585
_cell_length_b 15.555077
_cell_length_c 11.186945
_cell_angle_alpha 118.455479
_cell_angle_beta 137.509057
_cell_angle_gamma 29.731278
_cell_volume 721.112723
_symmetry_space_group_name_H-M "P -1"
_symmetry_group_IT_number 2
_symmetry_cell_setting 'triclinic'
loop_
_space_group_symop_operation_xyz
x,y,z
-x,-y,-z
loop_
_atom_site_type_symbol
_atom_site_label
_atom_site_fract_x
_atom_site_fract_y
_atom_site_fract_z
Si Si1 0.319775 0.137904 0.762950
Si Si2 0.138097 0.308971 0.964714
Si Si3 0.441746 0.428615 0.028406
Si Si4 0.312999 0.724350 0.355267
Si Si5 0.071937 0.734470 0.693484
Si Si6 0.238338 0.917778 0.233502
Si Si7 0.382351 0.465766 0.261637
Si Si8 0.664747 0.095827 0.932224
O O1 0.153121 0.279478 0.817487
O O2 0.484136 0.130259 0.860230
O O3 0.080996 0.251390 0.522152
O O4 0.538993 0.912523 0.836635
O O5 0.934346 0.352658 0.862411
O O6 0.000000 0.500000 0.000000
O O7 0.650764 0.394619 0.201487
O O8 0.395158 0.411548 0.105744
O O9 0.149333 0.640660 0.833089
O O10 0.559228 0.270558 0.954186
O O11 0.432291 0.721896 0.359148
O O12 0.471877 0.523970 0.364048
O O13 0.392417 0.720716 0.558579
O O14 0.982351 0.903052 0.151147
O O15 0.868849 0.949180 0.671485
O O16 0.376673 0.900026 0.246710
O O17 0.000000 0.000000 0.000000
#
# Coordination Sequence:
#
# PCOD8008139 Si02
#       8
#     2   2   2   2   2   2   2   2
#     4  11  27  47  69 104 143 180 236 281 343 416
#     4  11  26  48  70  99 146 187 223 284 348 415
#     4  11  24  41  67  97 136 173 235 284 339 400
#     4  10  22  39  66 101 126 176 229 280 343 407
#     4  11  25  42  66 103 134 179 227 291 336 404
#     4  10  20  42  66  96 137 176 223 277 346 397
#     4  11  24  40  68  97 132 177 229 284 340 410
#     4  11  22  44  69  96 136 184 222 287 341 415
#
# _framework density 22.187930999999999
#
# number of rings (size 3 to 8) (size 9 to 14) (size 15 to 20)
#    0.000    1.250    3.750    2.250    7.000    1.500 
#    0.000    0.000    0.000    0.000    0.000    0.000 
#    0.000    0.000    0.000    0.000    0.000    0.000 
#
# Total GULP energy -198215.405022 kJ/mol
# GULP energy per Si atom -12388.462814 kJ/mol
# Density = 2.213743 g / cm^3
# Si number density = 22.187931 Si / 1000 Ang^3
#
#
#
# Elastic Constant Matrix: (Units=GPa)
#
#
# Indices 1 2 3 4 5 6 
#
# 1 120.9913 24.1140 54.0421 0.0618 -31.9433 -18.8915
# 2 24.1140 83.3353 34.6976 3.1103 -16.6037 -0.5955
# 3 54.0421 34.6976 124.4313 3.0652 -19.0052 -8.1868
# 4 0.0618 3.1103 3.0652 24.6653 3.3291 -6.6993
# 5 -31.9433 -16.6037 -19.0052 3.3291 35.4735 0.2875
# 6 -18.8915 -0.5955 -8.1868 -6.6993 0.2875 33.2988
#
#
#
# Elastic Compliance Matrix: (Units=1/GPa)
#
#
# Indices 1 2 3 4 5 6 
#
# 1 0.013837 -0.000353 -0.003945 0.001048 0.010026 0.006998
# 2 -0.000353 0.014494 -0.003143 -0.002454 0.005023 -0.001251
# 3 -0.003945 -0.003143 0.010791 -0.001009 0.000851 0.000148
# 4 0.001048 -0.002454 -0.001009 0.044151 -0.004964 0.009228
# 5 0.010026 0.005023 0.000851 -0.004964 0.040454 0.004639
# 6 0.006998 -0.001251 0.000148 0.009228 0.004639 0.035832
#
#
# Mechanical properties :
#
#
# Convention : Reuss Voigt Hill
#
# Bulk Modulus (GPa) = 41.25469 61.60725 51.43097
# Shear Modulus (GPa) = 27.39427 33.08114 30.23770
#
# Velocity S-wave (km/s) = 3.51757 3.86547 3.69562
# Velocity P-wave (km/s) = 5.92717 6.91006 6.43740
#
# Compressibility (1/GPa) = 0.02423967
#
# Stress axis : x y z
#
# Youngs Moduli (GPa) = 72.27241 68.99488 92.66934
#
# Poissons Ratio (x) = 0.02433 0.36559
# Poissons Ratio (y) = 0.02549 0.29127
# Poissons Ratio (z) = 0.28512 0.21686
#
# Static dielectric constant tensor:
#      x y z
#    x 4.464140 0.152660 -0.440150 
#    y 0.152660 4.124900 -0.074720 
#    z -0.440150 -0.074720 3.991530 
# 
# 
# High freq. dielectric constant tensor:
#      x y z
#    x 1.883950 0.005930 -0.023290 
#    y 0.005930 1.868140 0.000730 
#    z -0.023290 0.000730 1.862130 
# 
# From -- ./inp_files/455833.got.cif
#   From: 2010.06.25/outbox.cif.g09.slc.cpg/sg2_228_cif.got.tgz:455833.got - 2010.06.27 13:26:56.
