data_PCOD8008749
_publ_section_title
;
Structure prediction by ZEFSAII (Michael W. Deem and Ramdas Pophale) SiO2 
 PCOD8008749
Probable space group: P -1
;
_chemical_formula_sum "Si O2"
_cell_formula_units_Z 16
_cell_length_a 13.054369
_cell_length_b 25.716213
_cell_length_c 26.780083
_cell_angle_alpha 169.363325
_cell_angle_beta 30.350047
_cell_angle_gamma 148.859999
_cell_volume 835.560598
_symmetry_space_group_name_H-M "P -1"
_symmetry_group_IT_number 2
_symmetry_cell_setting 'triclinic'
loop_
_space_group_symop_operation_xyz
x,y,z
-x,-y,-z
loop_
_atom_site_type_symbol
_atom_site_label
_atom_site_fract_x
_atom_site_fract_y
_atom_site_fract_z
Si Si1 0.365232 0.345053 0.203441
Si Si2 0.772355 0.497542 0.426641
Si Si3 0.950702 0.854125 0.307625
Si Si4 0.670871 0.030560 0.227454
Si Si5 0.085956 0.101569 0.174931
Si Si6 0.754334 0.155085 0.911219
Si Si7 0.749212 0.257499 0.837502
Si Si8 0.316316 0.470350 0.615705
O O1 0.377936 0.650676 0.461330
O O2 0.210774 0.319362 0.290489
O O3 0.593644 0.299701 0.080833
O O4 0.277879 0.111169 0.980142
O O5 0.927403 0.726494 0.605361
O O6 0.547879 0.591352 0.622381
O O7 0.813888 0.526347 0.377222
O O8 0.797837 0.179505 0.133166
O O9 0.034015 0.857841 0.219670
O O10 0.140428 0.845909 0.257334
O O11 0.842742 0.135847 0.632573
O O12 0.779273 0.595426 0.141968
O O13 0.859438 0.020125 0.175155
O O14 0.486390 0.847483 0.158925
O O15 0.669657 0.840756 0.662881
O O16 0.791607 0.335534 0.116256
#
# Coordination Sequence:
#
# PCOD8008749 Si02
#       8
#     2   2   2   2   2   2   2   2
#     4  12  22  36  53  85 119 152 191 214 262 341
#     4  11  22  39  57  83 111 148 188 239 273 326
#     4  10  21  34  56  79 113 143 184 230 278 325
#     4  12  24  37  56  80 117 160 190 219 266 328
#     4  12  23  39  56  81 116 156 191 223 269 326
#     4  12  21  36  59  86 113 152 177 226 291 339
#     4  10  21  36  52  81 110 149 186 229 266 324
#     4  11  22  37  59  83 114 143 187 233 289 330
#
# _framework density 19.148821000000002
#
# number of rings (size 3 to 8) (size 9 to 14) (size 15 to 20)
#    0.000    0.750    3.750    5.250    3.500    2.000 
#    0.000    0.000    0.000    0.000    0.000   17.500 
#    0.000    0.000    0.000    0.000    0.000    0.000 
#
# Total GULP energy -198483.224194 kJ/mol
# GULP energy per Si atom -12405.201512 kJ/mol
# Density = 1.910524 g / cm^3
# Si number density = 19.148821 Si / 1000 Ang^3
#
#
#
# Elastic Constant Matrix: (Units=GPa)
#
#
# Indices 1 2 3 4 5 6 
#
# 1 -112.9117 14.4574 -214.7353 -162.2343 17.0433 -53.3135
# 2 14.4574 83.1375 -6.8111 -15.7413 8.6252 0.1989
# 3 -214.7353 -6.8111 -177.3672 -159.6673 21.8166 -64.3874
# 4 -162.2343 -15.7413 -159.6673 -57.9450 -1.7803 -25.0097
# 5 17.0433 8.6252 21.8166 -1.7803 41.4548 -0.9992
# 6 -53.3135 0.1989 -64.3874 -25.0097 -0.9992 8.1786
#
#
#
# Elastic Compliance Matrix: (Units=1/GPa)
#
#
# Indices 1 2 3 4 5 6 
#
# 1 0.008258 -0.002297 -0.006962 -0.001277 0.000577 -0.004758
# 2 -0.002297 0.013239 0.000442 0.002966 -0.001988 -0.002987
# 3 -0.006962 0.000442 0.010141 -0.009999 -0.002911 0.003513
# 4 -0.001277 0.002966 -0.009999 0.021635 0.005610 -0.020264
# 5 0.000577 -0.001988 -0.002911 0.005610 0.026102 0.001236
# 6 -0.004758 -0.002987 0.003513 -0.020264 0.001236 0.057174
#
#
# Mechanical properties :
#
#
# Convention : Reuss Voigt Hill
#
# Bulk Modulus (GPa) = 71.40614 -69.03551 1.18532
# Shear Modulus (GPa) = 31.47616 -1.66580 14.90518
#
# Velocity S-wave (km/s) = 4.05874 -0.93371 2.79298
# Velocity P-wave (km/s) = 7.70295 6.10678 3.31984
#
# Compressibility (1/GPa) = 0.01400440
#
# Stress axis : x y z
#
# Youngs Moduli (GPa) = 121.09627 75.53591 98.60715
#
# Poissons Ratio (x) = 0.17348 0.68652
# Poissons Ratio (y) = 0.27811 -0.04359
# Poissons Ratio (z) = 0.84309 -0.03339
#
# Static dielectric constant tensor:
#      x y z
#    x 3.474820 -0.072630 0.240810 
#    y -0.072630 3.308360 0.106680 
#    z 0.240810 0.106680 3.365450 
# 
# 
# High freq. dielectric constant tensor:
#      x y z
#    x 1.722940 -0.009420 0.019990 
#    y -0.009420 1.726320 0.007840 
#    z 0.019990 0.007840 1.764620 
# 
# From -- ./inp_files/367587.got.cif
#   From: 2010.06.25/outbox.cif.g09.slc.cpg/sg2_184_cif.got.tgz:367587.got - 2010.06.27 13:26:56.
