data_PCOD8008881
_publ_section_title
;
Structure prediction by ZEFSAII (Michael W. Deem and Ramdas Pophale) SiO2 
 PCOD8008881
Probable space group: P -1
;
_chemical_formula_sum "Si O2"
_cell_formula_units_Z 16
_cell_length_a 10.963617
_cell_length_b 5.191394
_cell_length_c 14.285890
_cell_angle_alpha 99.526380
_cell_angle_beta 84.472370
_cell_angle_gamma 115.126999
_cell_volume 725.696379
_symmetry_space_group_name_H-M "P -1"
_symmetry_group_IT_number 2
_symmetry_cell_setting 'triclinic'
loop_
_space_group_symop_operation_xyz
x,y,z
-x,-y,-z
loop_
_atom_site_type_symbol
_atom_site_label
_atom_site_fract_x
_atom_site_fract_y
_atom_site_fract_z
Si Si1 0.968808 0.359345 0.764338
Si Si2 0.503206 0.170371 0.758179
Si Si3 0.060744 0.232110 0.928290
Si Si4 0.462449 0.247518 0.123779
Si Si5 0.760055 0.342304 0.642571
Si Si6 0.215916 0.942716 0.800071
Si Si7 0.105362 0.049498 0.413808
Si Si8 0.706123 0.212798 0.020730
O O1 0.951196 0.278483 0.871927
O O2 0.107476 0.640373 0.752716
O O3 0.841138 0.419097 0.741621
O O4 0.974820 0.102102 0.684566
O O5 0.552222 0.460748 0.834160
O O6 0.600960 0.238744 0.665266
O O7 0.516501 0.906134 0.794201
O O8 0.347214 0.078498 0.730249
O O9 0.150432 0.523151 0.993975
O O10 0.148065 0.161371 0.838270
O O11 0.000000 0.000000 0.000000
O O12 0.585368 0.317904 0.044983
O O13 0.324407 0.025379 0.072089
O O14 0.810412 0.614109 0.587331
O O15 0.791558 0.093481 0.574624
O O16 0.284347 0.928689 0.891624
O O17 0.000000 0.000000 0.500000
#
# Coordination Sequence:
#
# PCOD8008881 Si02
#       8
#     2   2   2   2   2   2   2   2
#     4   9  23  39  62  92 124 167 212 249 318 373
#     4  11  22  38  62  86 122 160 207 266 310 369
#     4  11  22  38  57  84 129 172 221 260 305 364
#     4  10  21  35  57  79 114 160 214 261 313 356
#     4  10  22  40  65 101 123 157 203 258 315 374
#     4  10  21  39  56  82 121 168 211 254 318 363
#     4  10  21  42  71 100 128 156 199 256 318 384
#     4   9  21  35  51  80 108 162 218 269 307 359
#
# _framework density 22.047788000000001
#
# number of rings (size 3 to 8) (size 9 to 14) (size 15 to 20)
#    0.750    1.250    1.250    1.875    1.750    6.500 
#    0.000    0.000    0.000    1.500    0.000    0.000 
#    0.000    0.000    0.000    0.000    0.000    0.000 
#
# Total GULP energy -198270.804267 kJ/mol
# GULP energy per Si atom -12391.925267 kJ/mol
# Density = 2.199761 g / cm^3
# Si number density = 22.047788 Si / 1000 Ang^3
#
#
#
# Elastic Constant Matrix: (Units=GPa)
#
#
# Indices 1 2 3 4 5 6 
#
# 1 60.5643 16.1597 18.4625 -6.4618 -24.0213 0.4999
# 2 16.1597 106.2278 27.7660 -14.6246 -9.2451 -8.2530
# 3 18.4625 27.7660 49.5319 -8.8299 -22.5472 3.9306
# 4 -6.4618 -14.6246 -8.8299 31.0670 4.8324 -9.6714
# 5 -24.0213 -9.2451 -22.5472 4.8324 33.4854 2.6081
# 6 0.4999 -8.2530 3.9306 -9.6714 2.6081 30.8360
#
#
#
# Elastic Compliance Matrix: (Units=1/GPa)
#
#
# Indices 1 2 3 4 5 6 
#
# 1 0.023741 -0.002342 0.000367 0.000631 0.016717 -0.002274
# 2 -0.002342 0.012813 -0.008011 0.006170 -0.004960 0.006843
# 3 0.000367 -0.008011 0.035561 0.000241 0.022625 -0.008521
# 4 0.000631 0.006170 0.000241 0.040612 -0.004691 0.014745
# 5 0.016717 -0.004960 0.022625 -0.004691 0.057239 -0.010795
# 6 -0.002274 0.006843 -0.008521 0.014745 -0.010795 0.040922
#
#
# Mechanical properties :
#
#
# Convention : Reuss Voigt Hill
#
# Bulk Modulus (GPa) = 19.17804 37.90003 28.53904
# Shear Modulus (GPa) = 20.14162 29.34007 24.74085
#
# Velocity S-wave (km/s) = 3.02577 3.65190 3.35348
# Velocity P-wave (km/s) = 4.57431 5.91685 5.28836
#
# Compressibility (1/GPa) = 0.05214296
#
# Stress axis : x y z
#
# Youngs Moduli (GPa) = 42.12085 78.04442 28.12067
#
# Poissons Ratio (x) = 0.18280 -0.01031
# Poissons Ratio (y) = 0.09866 0.22526
# Poissons Ratio (z) = -0.01544 0.62518
#
# Static dielectric constant tensor:
#      x y z
#    x 4.287330 0.149710 -0.220140 
#    y 0.149710 4.108790 0.024000 
#    z -0.220140 0.024000 3.417500 
# 
# 
# High freq. dielectric constant tensor:
#      x y z
#    x 1.867090 -0.000840 -0.022730 
#    y -0.000840 1.880820 0.000910 
#    z -0.022730 0.000910 1.813950 
# 
# From -- ./inp_files/511156.got.cif
#   From: 2010.06.25/outbox.cif.g09.slc.cpg/sg2_256_cif.got.tgz:511156.got - 2010.06.27 13:26:56.
