data_PCOD8008264
_publ_section_title
;
Structure prediction by ZEFSAII (Michael W. Deem and Ramdas Pophale) SiO2 
 PCOD8008264
Probable space group: P -1
;
_chemical_formula_sum "Si O2"
_cell_formula_units_Z 16
_cell_length_a 18.430450
_cell_length_b 19.498952
_cell_length_c 9.322269
_cell_angle_alpha 51.375381
_cell_angle_beta 147.683343
_cell_angle_gamma 152.088426
_cell_volume 730.915823
_symmetry_space_group_name_H-M "P -1"
_symmetry_group_IT_number 2
_symmetry_cell_setting 'triclinic'
loop_
_space_group_symop_operation_xyz
x,y,z
-x,-y,-z
loop_
_atom_site_type_symbol
_atom_site_label
_atom_site_fract_x
_atom_site_fract_y
_atom_site_fract_z
Si Si1 0.580152 0.738753 0.907272
Si Si2 0.381570 0.537808 0.354186
Si Si3 0.270154 0.979916 0.752558
Si Si4 0.831961 0.221370 0.356049
Si Si5 0.128195 0.479411 0.273168
Si Si6 0.820133 0.743131 0.500827
Si Si7 0.132331 0.104514 0.368205
Si Si8 0.818632 0.483058 0.241889
O O1 0.407649 0.639488 0.607246
O O2 0.410362 0.684555 0.824974
O O3 0.665995 0.688215 0.170548
O O4 0.833484 0.937576 0.033187
O O5 0.180302 0.459712 0.238017
O O6 0.347124 0.412789 0.469881
O O7 0.683357 0.730256 0.636202
O O8 0.298547 0.537781 0.067625
O O9 0.260780 0.079692 0.601891
O O10 0.187904 0.892568 0.573506
O O11 0.559434 0.108325 0.105197
O O12 0.085184 0.845539 0.750499
O O13 0.913237 0.311571 0.225733
O O14 0.040959 0.358389 0.648822
O O15 0.000000 0.500000 0.000000
O O16 0.875208 0.862703 0.524542
O O17 0.000000 0.500000 0.500000
#
# Coordination Sequence:
#
# PCOD8008264 Si02
#       8
#     2   2   2   2   2   2   2   2
#     4  10  23  42  69  94 125 180 221 262 330 401
#     4  12  24  42  66  99 138 170 215 287 333 380
#     4  10  20  42  69  94 130 180 224 275 324 392
#     4  10  22  41  68  95 131 179 228 266 329 402
#     4  11  23  44  66  97 135 171 219 277 331 394
#     4  11  23  42  68 101 135 171 219 278 338 391
#     4  11  23  41  68  98 133 173 225 275 325 401
#     4  11  23  40  68  98 129 181 226 264 332 403
#
# _framework density 21.890346000000001
#
# number of rings (size 3 to 8) (size 9 to 14) (size 15 to 20)
#    0.000    1.250    2.500    4.875    1.750    1.000 
#    2.250    4.375    0.000    0.000    0.000    0.000 
#    0.000    0.000    0.000    0.000    0.000    0.000 
#
# Total GULP energy -198272.002616 kJ/mol
# GULP energy per Si atom -12392.000163 kJ/mol
# Density = 2.184052 g / cm^3
# Si number density = 21.890346 Si / 1000 Ang^3
#
#
#
# Elastic Constant Matrix: (Units=GPa)
#
#
# Indices 1 2 3 4 5 6 
#
# 1 110.5865 34.1523 30.5486 10.6116 13.3012 -7.3267
# 2 34.1523 127.3791 31.1622 20.2640 11.0664 -4.1551
# 3 30.5486 31.1622 74.7518 12.9293 9.4856 -10.4257
# 4 10.6116 20.2640 12.9293 31.0488 10.2072 9.2944
# 5 13.3012 11.0664 9.4856 10.2072 36.3059 5.8108
# 6 -7.3267 -4.1551 -10.4257 9.2944 5.8108 39.2339
#
#
#
# Elastic Compliance Matrix: (Units=1/GPa)
#
#
# Indices 1 2 3 4 5 6 
#
# 1 0.010941 -0.001759 -0.002994 -0.000966 -0.002689 0.001688
# 2 -0.001759 0.009766 -0.002205 -0.005095 -0.000549 0.001408
# 3 -0.002994 -0.002205 0.017570 -0.005839 -0.002070 0.005566
# 4 -0.000966 -0.005095 -0.005839 0.044124 -0.007104 -0.011673
# 5 -0.002689 -0.000549 -0.002070 -0.007104 0.031899 -0.004152
# 6 0.001688 0.001408 0.005566 -0.011673 -0.004152 0.030812
#
#
# Mechanical properties :
#
#
# Convention : Reuss Voigt Hill
#
# Bulk Modulus (GPa) = 41.05020 56.04931 48.54975
# Shear Modulus (GPa) = 29.91373 35.77466 32.84419
#
# Velocity S-wave (km/s) = 3.70067 4.04699 3.87770
# Velocity P-wave (km/s) = 6.08714 6.89186 6.50196
#
# Compressibility (1/GPa) = 0.02436042
#
# Stress axis : x y z
#
# Youngs Moduli (GPa) = 91.40020 102.39846 56.91668
#
# Poissons Ratio (x) = 0.18007 0.17043
# Poissons Ratio (y) = 0.16073 0.12550
# Poissons Ratio (z) = 0.27368 0.22579
#
# Static dielectric constant tensor:
#      x y z
#    x 4.211960 0.069460 0.202500 
#    y 0.069460 4.114610 0.444760 
#    z 0.202500 0.444760 3.856060 
# 
# 
# High freq. dielectric constant tensor:
#      x y z
#    x 1.883220 0.004950 0.019150 
#    y 0.004950 1.863250 0.026710 
#    z 0.019150 0.026710 1.839770 
# 
# From -- ./inp_files/337197.got.cif
#   From: 2010.06.25/outbox.cif.g09.slc.cpg/sg2_169_cif.got.tgz:337197.got - 2010.06.27 13:26:56.
