data_PCOD8008941
_publ_section_title
;
Structure prediction by ZEFSAII (Michael W. Deem and Ramdas Pophale) SiO2 
 PCOD8008941
Probable space group: P -1
;
_chemical_formula_sum "Si O2"
_cell_formula_units_Z 16
_cell_length_a 25.963745
_cell_length_b 20.270471
_cell_length_c 14.138870
_cell_angle_alpha 31.179122
_cell_angle_beta 159.113083
_cell_angle_gamma 160.791929
_cell_volume 849.882012
_symmetry_space_group_name_H-M "P -1"
_symmetry_group_IT_number 2
_symmetry_cell_setting 'triclinic'
loop_
_space_group_symop_operation_xyz
x,y,z
-x,-y,-z
loop_
_atom_site_type_symbol
_atom_site_label
_atom_site_fract_x
_atom_site_fract_y
_atom_site_fract_z
Si Si1 0.056036 0.231528 0.762204
Si Si2 0.754633 0.366126 0.697553
Si Si3 0.989609 0.754748 0.541251
Si Si4 0.255687 0.915805 0.983119
Si Si5 0.289451 0.127803 0.251187
Si Si6 0.884948 0.797820 0.598129
Si Si7 0.813617 0.908166 0.092584
Si Si8 0.497581 0.679315 0.006650
O O1 0.928906 0.173881 0.515148
O O2 0.221024 0.462980 0.793267
O O3 0.222518 0.223735 0.048191
O O4 0.856319 0.074261 0.689780
O O5 0.805453 0.509530 0.530447
O O6 0.565542 0.292880 0.537598
O O7 0.653146 0.161302 0.734270
O O8 0.000000 0.500000 0.000000
O O9 0.856188 0.787965 0.304747
O O10 0.210780 0.886852 0.827935
O O11 0.004094 0.760453 0.795648
O O12 0.450155 0.156096 0.046014
O O13 0.240933 0.066834 0.132156
O O14 0.610585 0.631075 0.312004
O O15 0.000000 0.000000 0.500000
O O16 0.959693 0.858381 0.762708
O O17 0.593767 0.769935 0.954937
#
# Coordination Sequence:
#
# PCOD8008941 Si02
#       8
#     2   2   2   2   2   2   2   2
#     4  10  22  33  56  76 105 140 173 215 259 303
#     4  10  21  32  54  78 104 138 173 214 255 309
#     4  10  16  33  53  80  99 135 178 208 262 301
#     4   9  17  32  51  79 107 130 168 219 260 298
#     4  10  21  37  49  77 112 134 171 218 261 300
#     4   8  14  27  51  79 102 123 167 215 258 293
#     4   9  15  30  57  76 101 132 170 224 255 291
#     4  10  16  31  55  82  99 133 175 212 258 308
#
# _framework density 18.826142000000001
#
# number of rings (size 3 to 8) (size 9 to 14) (size 15 to 20)
#    0.000    2.750    3.750    1.500    1.750    2.000 
#    0.000    9.375    0.000    0.000    0.000    0.000 
#    0.000    0.000    0.000    0.000    0.000    0.000 
#
# Total GULP energy -198213.387268 kJ/mol
# GULP energy per Si atom -12388.336704 kJ/mol
# Density = 1.878329 g / cm^3
# Si number density = 18.826142 Si / 1000 Ang^3
#
#
#
# Elastic Constant Matrix: (Units=GPa)
#
#
# Indices 1 2 3 4 5 6 
#
# 1 87.9323 60.0259 42.8465 1.9186 -18.2199 9.7414
# 2 60.0259 83.7620 21.3100 -2.0295 -14.4065 6.1126
# 3 42.8465 21.3100 56.9512 -2.7417 -1.9623 5.4676
# 4 1.9186 -2.0295 -2.7417 27.6252 -5.5339 0.3659
# 5 -18.2199 -14.4065 -1.9623 -5.5339 24.2353 2.5655
# 6 9.7414 6.1126 5.4676 0.3659 2.5655 27.1845
#
#
#
# Elastic Compliance Matrix: (Units=1/GPa)
#
#
# Indices 1 2 3 4 5 6 
#
# 1 0.039068 -0.019427 -0.021043 -0.002895 0.016187 -0.006888
# 2 -0.019427 0.024791 0.005578 0.004022 0.001494 0.000070
# 3 -0.021043 0.005578 0.031042 0.003060 -0.009386 0.000888
# 4 -0.002895 0.004022 0.003060 0.038939 0.009556 -0.001908
# 5 0.016187 0.001494 -0.009386 0.009556 0.056772 -0.009735
# 6 -0.006888 0.000070 0.000888 -0.001908 -0.009735 0.040004
#
#
# Mechanical properties :
#
#
# Convention : Reuss Voigt Hill
#
# Bulk Modulus (GPa) = 39.81568 53.00116 46.40842
# Shear Modulus (GPa) = 16.19317 22.77319 19.48318
#
# Velocity S-wave (km/s) = 2.93600 3.48179 3.22048
# Velocity P-wave (km/s) = 5.71739 6.66167 6.20751
#
# Compressibility (1/GPa) = 0.02511573
#
# Stress axis : x y z
#
# Youngs Moduli (GPa) = 25.59657 40.33786 32.21413
#
# Poissons Ratio (x) = 0.78363 0.67790
# Poissons Ratio (y) = 0.49726 -0.17968
# Poissons Ratio (z) = 0.53864 -0.22499
#
# Static dielectric constant tensor:
#      x y z
#    x 3.496750 -0.309620 -0.185010 
#    y -0.309620 3.536150 -0.010520 
#    z -0.185010 -0.010520 4.003970 
# 
# 
# High freq. dielectric constant tensor:
#      x y z
#    x 1.708830 -0.023280 -0.012500 
#    y -0.023280 1.711500 -0.005330 
#    z -0.012500 -0.005330 1.719330 
# 
# From -- ./inp_files/544437.got.cif
#   From: 2010.06.25/outbox.cif.g09.slc.cpg/sg2_273_cif.got.tgz:544437.got - 2010.06.27 13:26:56.
