data_PCOD8008742
_publ_section_title
;
Structure prediction by ZEFSAII (Michael W. Deem and Ramdas Pophale) SiO2 
 PCOD8008742
Probable space group: P -1
;
_chemical_formula_sum "Si O2"
_cell_formula_units_Z 16
_cell_length_a 24.193778
_cell_length_b 9.375286
_cell_length_c 17.405791
_cell_angle_alpha 56.458787
_cell_angle_beta 17.812149
_cell_angle_gamma 48.485532
_cell_volume 849.541809
_symmetry_space_group_name_H-M "P -1"
_symmetry_group_IT_number 2
_symmetry_cell_setting 'triclinic'
loop_
_space_group_symop_operation_xyz
x,y,z
-x,-y,-z
loop_
_atom_site_type_symbol
_atom_site_label
_atom_site_fract_x
_atom_site_fract_y
_atom_site_fract_z
Si Si1 0.249851 0.767820 0.558570
Si Si2 0.129288 0.439877 0.543914
Si Si3 0.724611 0.490919 0.825016
Si Si4 0.253397 0.670175 0.417379
Si Si5 0.713846 0.307978 0.305438
Si Si6 0.122716 0.103150 0.726452
Si Si7 0.709951 0.690458 0.939189
Si Si8 0.099296 0.062079 0.417164
O O1 0.184516 0.696974 0.590355
O O2 0.258168 0.634786 0.660879
O O3 0.081237 0.005637 0.733906
O O4 0.479320 0.744553 0.253503
O O5 0.277862 0.412253 0.283024
O O6 0.114151 0.607096 0.572739
O O7 0.228142 0.227407 0.521809
O O8 0.888730 0.519410 0.810348
O O9 0.761800 0.608890 0.807725
O O10 0.909562 0.256402 0.653878
O O11 0.503314 0.500859 0.126420
O O12 0.218612 0.882448 0.373632
O O13 0.500000 0.500000 0.500000
O O14 0.719123 0.093797 0.369417
O O15 0.906804 0.264890 0.007963
O O16 0.730663 0.886668 0.856361
O O17 0.000000 0.000000 0.500000
#
# Coordination Sequence:
#
# PCOD8008742 Si02
#       8
#     2   2   2   2   2   2   2   2
#     4   9  21  36  58  86 105 140 187 230 270 330
#     4  11  20  36  53  82 114 148 183 228 270 324
#     4  10  23  36  52  78 115 154 191 227 258 317
#     4  11  23  36  53  81 118 151 181 225 276 316
#     4   9  18  39  61  84 105 134 178 233 280 328
#     4   9  21  34  60  84 103 138 183 222 279 327
#     4  10  21  34  55  82 110 151 193 223 263 318
#     4  11  21  35  53  77 116 156 187 222 269 311
#
# _framework density 18.833682
#
# number of rings (size 3 to 8) (size 9 to 14) (size 15 to 20)
#    0.750    1.250    2.500    2.625    5.250    1.000 
#    0.000    0.625    0.000    0.750    0.000    0.000 
#    0.000    0.000    0.000    0.000    0.000    0.000 
#
# Total GULP energy -198214.939668 kJ/mol
# GULP energy per Si atom -12388.433729 kJ/mol
# Density = 1.879082 g / cm^3
# Si number density = 18.833682 Si / 1000 Ang^3
#
#
#
# Elastic Constant Matrix: (Units=GPa)
#
#
# Indices 1 2 3 4 5 6 
#
# 1 129.7507 33.0378 43.6580 -4.9445 17.2844 13.4959
# 2 33.0378 87.2938 13.1836 5.1242 2.1686 -6.4952
# 3 43.6580 13.1836 63.2334 13.0262 14.8672 6.0364
# 4 -4.9445 5.1242 13.0262 19.5998 0.2141 -6.3741
# 5 17.2844 2.1686 14.8672 0.2141 30.6679 1.8113
# 6 13.4959 -6.4952 6.0364 -6.3741 1.8113 30.4191
#
#
#
# Elastic Compliance Matrix: (Units=1/GPa)
#
#
# Indices 1 2 3 4 5 6 
#
# 1 0.012789 -0.004158 -0.009115 0.009549 -0.002408 -0.002609
# 2 -0.004158 0.013474 0.000122 -0.003390 0.001124 0.003921
# 3 -0.009115 0.000122 0.029687 -0.024027 -0.008721 -0.006337
# 4 0.009549 -0.003390 -0.024027 0.075192 0.005079 0.015261
# 5 -0.002408 0.001124 -0.008721 0.005079 0.037968 0.001842
# 6 -0.002609 0.003921 -0.006337 0.015261 0.001842 0.039214
#
#
# Mechanical properties :
#
#
# Convention : Reuss Voigt Hill
#
# Bulk Modulus (GPa) = 33.73045 51.11518 42.42282
# Shear Modulus (GPa) = 20.44907 28.83060 24.63983
#
# Velocity S-wave (km/s) = 3.29868 3.91679 3.62095
# Velocity P-wave (km/s) = 5.69710 6.90320 6.32895
#
# Compressibility (1/GPa) = 0.02964680
#
# Stress axis : x y z
#
# Youngs Moduli (GPa) = 78.19354 74.21822 33.68463
#
# Poissons Ratio (x) = 0.30863 0.30703
# Poissons Ratio (y) = 0.32516 -0.00410
# Poissons Ratio (z) = 0.71271 -0.00903
#
# Static dielectric constant tensor:
#      x y z
#    x 3.577040 -0.038580 0.220750 
#    y -0.038580 3.516570 0.153000 
#    z 0.220750 0.153000 3.374070 
# 
# 
# High freq. dielectric constant tensor:
#      x y z
#    x 1.730870 -0.004660 0.018420 
#    y -0.004660 1.720800 0.014970 
#    z 0.018420 0.014970 1.716750 
# 
# From -- ./inp_files/578914.got.cif
#   From: 2010.06.25/outbox.cif.g09.slc.cpg/sg2_290_cif.got.tgz:578914.got - 2010.06.27 13:26:56.
