data_PCOD8008110
_publ_section_title
;
Structure prediction by ZEFSAII (Michael W. Deem and Ramdas Pophale) SiO2 
 PCOD8008110
Probable space group: P -1
;
_chemical_formula_sum "Si O2"
_cell_formula_units_Z 16
_cell_length_a 9.667561
_cell_length_b 8.529646
_cell_length_c 13.482122
_cell_angle_alpha 81.015060
_cell_angle_beta 130.271613
_cell_angle_gamma 77.093917
_cell_volume 756.297080
_symmetry_space_group_name_H-M "P -1"
_symmetry_group_IT_number 2
_symmetry_cell_setting 'triclinic'
loop_
_space_group_symop_operation_xyz
x,y,z
-x,-y,-z
loop_
_atom_site_type_symbol
_atom_site_label
_atom_site_fract_x
_atom_site_fract_y
_atom_site_fract_z
Si Si1 0.537411 0.489107 0.167473
Si Si2 0.268587 0.324141 0.637319
Si Si3 0.493948 0.961460 0.362680
Si Si4 0.929448 0.340092 0.611493
Si Si5 0.177820 0.707962 0.850941
Si Si6 0.297534 0.343420 0.167473
Si Si7 0.206461 0.951585 0.388507
Si Si8 0.024061 0.441098 0.850941
O O1 0.669806 0.584759 0.254307
O O2 0.663604 0.343291 0.159892
O O3 0.496267 0.376867 0.246267
O O4 0.320078 0.643083 0.019902
O O5 0.453904 0.148048 0.703904
O O6 0.199634 0.455177 0.497533
O O7 0.104605 0.269635 0.616314
O O8 0.704569 0.952710 0.502467
O O9 0.338809 0.160934 0.254307
O O10 0.371976 0.885950 0.383685
O O11 0.000666 0.324511 0.761551
O O12 0.806410 0.221795 0.556410
O O13 0.022435 0.913938 0.761551
O O14 0.038682 0.605659 0.788682
O O15 0.156182 0.496816 0.159893
O O16 0.219726 0.337015 0.019902
#
# Coordination Sequence:
#
# PCOD8008110 Si02
#       8
#     2   2   2   2   2   2   2   2
#     4  10  22  39  66  96 124 167 207 251 308 370
#     4  11  25  42  62  94 128 162 211 260 308 373
#     4  11  25  42  62  94 128 162 211 260 308 373
#     4  11  25  42  65  91 126 169 206 259 316 366
#     4  10  20  42  66  90 129 166 207 252 307 372
#     4  10  22  39  66  96 124 167 207 251 308 370
#     4  11  25  42  65  91 126 169 206 259 316 366
#     4  10  20  42  66  90 129 166 207 252 307 372
#
# _framework density 21.155707
#
# number of rings (size 3 to 8) (size 9 to 14) (size 15 to 20)
#    0.000    1.500    2.500    1.500    7.000    2.000 
#    0.000    2.500    0.000    0.000    0.000    0.000 
#    0.000    0.000    0.000    0.000    0.000    0.000 
#
# Total GULP energy -198296.614446 kJ/mol
# GULP energy per Si atom -12393.538403 kJ/mol
# Density = 2.110756 g / cm^3
# Si number density = 21.155707 Si / 1000 Ang^3
#
#
#
# Elastic Constant Matrix: (Units=GPa)
#
#
# Indices 1 2 3 4 5 6 
#
# 1 142.7273 48.5023 18.8269 1.7383 5.4267 17.3637
# 2 48.5023 65.3681 19.4117 0.1065 2.1736 1.2970
# 3 18.8269 19.4117 75.9854 -0.6577 -0.4585 -3.7354
# 4 1.7383 0.1065 -0.6577 21.9917 -2.0503 1.5329
# 5 5.4267 2.1736 -0.4585 -2.0503 26.1753 1.7989
# 6 17.3637 1.2970 -3.7354 1.5329 1.7989 42.2946
#
#
#
# Elastic Compliance Matrix: (Units=1/GPa)
#
#
# Indices 1 2 3 4 5 6 
#
# 1 0.010063 -0.007081 -0.000890 -0.000636 -0.001295 -0.003915
# 2 -0.007081 0.021622 -0.003676 0.000162 -0.000512 0.001935
# 3 -0.000890 -0.003676 0.014412 0.000462 0.000661 0.001706
# 4 -0.000636 0.000162 0.000462 0.045999 0.003835 -0.001534
# 5 -0.001295 -0.000512 0.000661 0.003835 0.038908 -0.001188
# 6 -0.003915 0.001935 0.001706 -0.001534 -0.001188 0.025448
#
#
# Mechanical properties :
#
#
# Convention : Reuss Voigt Hill
#
# Bulk Modulus (GPa) = 43.85312 50.84029 47.34671
# Shear Modulus (GPa) = 26.68839 31.24832 28.96836
#
# Velocity S-wave (km/s) = 3.55564 3.84743 3.70441
# Velocity P-wave (km/s) = 6.13437 6.61971 6.38166
#
# Compressibility (1/GPa) = 0.02280339
#
# Stress axis : x y z
#
# Youngs Moduli (GPa) = 99.37193 46.24993 69.38712
#
# Poissons Ratio (x) = 0.32748 0.06177
# Poissons Ratio (y) = 0.70362 0.25505
# Poissons Ratio (z) = 0.08847 0.17000
#
# Static dielectric constant tensor:
#      x y z
#    x 3.893250 0.140880 0.009200 
#    y 0.140880 3.499270 0.009070 
#    z 0.009200 0.009070 3.777460 
# 
# 
# High freq. dielectric constant tensor:
#      x y z
#    x 1.848920 0.004390 0.001920 
#    y 0.004390 1.802910 0.000230 
#    z 0.001920 0.000230 1.823130 
# 
# From -- ./inp_files/492850.got.cif
#   From: 2010.06.25/outbox.cif.g09.slc.cpg/sg2_247_cif.got.tgz:492850.got - 2010.06.27 13:26:56.
