data_PCOD8008239
_publ_section_title
;
Structure prediction by ZEFSAII (Michael W. Deem and Ramdas Pophale) SiO2 
 PCOD8008239
Probable space group: P -1
;
_chemical_formula_sum "Si O2"
_cell_formula_units_Z 16
_cell_length_a 22.625905
_cell_length_b 9.569537
_cell_length_c 9.488861
_cell_angle_alpha 150.240496
_cell_angle_beta 133.200433
_cell_angle_gamma 46.359666
_cell_volume 716.823220
_symmetry_space_group_name_H-M "P -1"
_symmetry_group_IT_number 2
_symmetry_cell_setting 'triclinic'
loop_
_space_group_symop_operation_xyz
x,y,z
-x,-y,-z
loop_
_atom_site_type_symbol
_atom_site_label
_atom_site_fract_x
_atom_site_fract_y
_atom_site_fract_z
Si Si1 0.866841 0.980479 0.261069
Si Si2 0.762718 0.850632 0.555924
Si Si3 0.384601 0.344330 0.340224
Si Si4 0.759939 0.611142 0.644055
Si Si5 0.001254 0.044767 0.333435
Si Si6 0.493538 0.793504 0.937411
Si Si7 0.325055 0.503615 0.077695
Si Si8 0.045196 0.336786 0.294150
O O1 0.804253 0.285501 0.381854
O O2 0.946442 0.888755 0.205668
O O3 0.903166 0.001085 0.495654
O O4 0.817562 0.731633 0.953837
O O5 0.742217 0.814357 0.654919
O O6 0.859489 0.850562 0.690953
O O7 0.701139 0.147031 0.656207
O O8 0.747143 0.591791 0.208646
O O9 0.325420 0.401291 0.429156
O O10 0.438634 0.575543 0.617608
O O11 0.332041 0.374798 0.135031
O O12 0.446026 0.017046 0.176319
O O13 0.955400 0.390177 0.569127
O O14 0.005291 0.885859 0.048326
O O15 0.587756 0.607972 0.966240
O O16 0.500000 0.000000 0.000000
O O17 0.000000 0.500000 0.500000
#
# Coordination Sequence:
#
# PCOD8008239 Si02
#       8
#     2   2   2   2   2   2   2   2
#     4  11  22  40  68  87 123 170 221 270 322 382
#     4  12  24  42  62  93 134 173 208 259 342 392
#     4  11  23  41  68  99 127 166 221 270 319 378
#     4  12  24  42  64  97 137 171 211 280 330 383
#     4  11  22  42  64  92 116 167 229 268 317 382
#     4  10  20  42  68  97 128 168 214 268 320 382
#     4  11  23  41  68  92 125 171 216 259 320 398
#     4  12  25  42  63  91 132 172 215 271 327 392
#
# _framework density 22.320705
#
# number of rings (size 3 to 8) (size 9 to 14) (size 15 to 20)
#    0.000    0.750    2.500    7.125    0.000    5.000 
#    0.000    3.750    0.000    0.000    0.000    0.000 
#    0.000    0.000    0.000    0.000    0.000    0.000 
#
# Total GULP energy -198423.882189 kJ/mol
# GULP energy per Si atom -12401.492637 kJ/mol
# Density = 2.226990 g / cm^3
# Si number density = 22.320705 Si / 1000 Ang^3
#
#
#
# Elastic Constant Matrix: (Units=GPa)
#
#
# Indices 1 2 3 4 5 6 
#
# 1 85.9940 28.3977 4.5074 -6.2930 -12.7272 -3.2685
# 2 28.3977 76.4502 9.5673 10.8378 -9.3721 -14.3731
# 3 4.5074 9.5673 112.8665 -0.5407 -2.0869 -4.6177
# 4 -6.2930 10.8378 -0.5407 34.4647 -5.8439 -8.6219
# 5 -12.7272 -9.3721 -2.0869 -5.8439 33.9674 -0.1550
# 6 -3.2685 -14.3731 -4.6177 -8.6219 -0.1550 17.5974
#
#
#
# Elastic Compliance Matrix: (Units=1/GPa)
#
#
# Indices 1 2 3 4 5 6 
#
# 1 0.014574 -0.005395 0.000034 0.005447 0.004916 0.001021
# 2 -0.005395 0.018223 -0.000806 -0.003292 0.002446 0.012079
# 3 0.000034 -0.000806 0.009034 0.001052 0.000537 0.002239
# 4 0.005447 -0.003292 0.001052 0.036479 0.007549 0.016539
# 5 0.004916 0.002446 0.000537 0.007549 0.033321 0.007044
# 6 0.001021 0.012079 0.002239 0.016539 0.007044 0.075635
#
#
# Mechanical properties :
#
#
# Convention : Reuss Voigt Hill
#
# Bulk Modulus (GPa) = 33.90242 40.02840 36.96541
# Shear Modulus (GPa) = 23.87428 32.72843 28.30136
#
# Velocity S-wave (km/s) = 3.27403 3.83336 3.56468
# Velocity P-wave (km/s) = 5.43269 6.12904 5.79134
#
# Compressibility (1/GPa) = 0.02949642
#
# Stress axis : x y z
#
# Youngs Moduli (GPa) = 68.61723 54.87648 110.69872
#
# Poissons Ratio (x) = 0.29607 -0.00378
# Poissons Ratio (y) = 0.37021 0.08918
# Poissons Ratio (z) = -0.00234 0.04421
#
# Static dielectric constant tensor:
#      x y z
#    x 3.977030 -0.167510 -0.025920 
#    y -0.167510 4.210650 0.292320 
#    z -0.025920 0.292320 4.336360 
# 
# 
# High freq. dielectric constant tensor:
#      x y z
#    x 1.868460 -0.012010 0.001030 
#    y -0.012010 1.869940 0.011780 
#    z 0.001030 0.011780 1.897120 
# 
# From -- ./inp_files/352528.got.cif
#   From: 2010.06.25/outbox.cif.g09.slc.cpg/sg2_177_cif.got.tgz:352528.got - 2010.06.27 13:26:56.
