data_PCOD8008864
_publ_section_title
;
Structure prediction by ZEFSAII (Michael W. Deem and Ramdas Pophale) SiO2 
 PCOD8008864
Probable space group: P -1
;
_chemical_formula_sum "Si O2"
_cell_formula_units_Z 16
_cell_length_a 17.565930
_cell_length_b 12.529567
_cell_length_c 12.208722
_cell_angle_alpha 102.091200
_cell_angle_beta 123.904549
_cell_angle_gamma 29.762371
_cell_volume 824.927347
_symmetry_space_group_name_H-M "P -1"
_symmetry_group_IT_number 2
_symmetry_cell_setting 'triclinic'
loop_
_space_group_symop_operation_xyz
x,y,z
-x,-y,-z
loop_
_atom_site_type_symbol
_atom_site_label
_atom_site_fract_x
_atom_site_fract_y
_atom_site_fract_z
Si Si1 0.264283 0.109825 0.698639
Si Si2 0.186640 0.548964 0.972189
Si Si3 0.165396 0.810933 0.988030
Si Si4 0.631370 0.588172 0.273513
Si Si5 0.869611 0.500766 0.298193
Si Si6 0.073821 0.144097 0.941169
Si Si7 0.350475 0.670733 0.804191
Si Si8 0.980113 0.274359 0.659510
O O1 0.275331 0.228142 0.738605
O O2 0.111570 0.234977 0.706343
O O3 0.134215 0.213421 0.504553
O O4 0.531404 0.767641 0.840935
O O5 0.050951 0.687318 0.008807
O O6 0.131478 0.723984 0.900992
O O7 0.100426 0.550286 0.819452
O O8 0.072114 0.015337 0.883528
O O9 0.454465 0.512661 0.174572
O O10 0.000000 0.000000 0.000000
O O11 0.706092 0.583134 0.231967
O O12 0.758652 0.329376 0.305130
O O13 0.722499 0.540005 0.450663
O O14 0.343661 0.894045 0.110484
O O15 0.937852 0.345256 0.769944
O O16 0.142917 0.988549 0.708254
O O17 0.500000 0.500000 0.000000
#
# Coordination Sequence:
#
# PCOD8008864 Si02
#       8
#     2   2   2   2   2   2   2   2
#     4  10  22  39  59  83 107 143 191 234 270 319
#     4  11  20  37  60  80 110 152 185 219 279 330
#     4   9  18  32  52  80 114 147 174 217 274 325
#     4  10  21  35  56  81 111 144 184 228 275 325
#     4  10  22  39  59  82 109 142 190 236 269 318
#     4  10  22  36  54  83 120 146 175 228 275 332
#     4  11  17  32  56  79 110 143 180 231 271 323
#     4  11  20  35  57  81 110 146 185 226 274 327
#
# _framework density 19.395645999999999
#
# number of rings (size 3 to 8) (size 9 to 14) (size 15 to 20)
#    0.000    1.750    3.750    2.250    0.000    1.000 
#    0.000    2.500    0.000   10.500    0.000    0.000 
#    0.000    0.000    0.000    0.000    0.000    0.000 
#
# Total GULP energy -198244.837675 kJ/mol
# GULP energy per Si atom -12390.302355 kJ/mol
# Density = 1.935150 g / cm^3
# Si number density = 19.395646 Si / 1000 Ang^3
#
#
#
# Elastic Constant Matrix: (Units=GPa)
#
#
# Indices 1 2 3 4 5 6 
#
# 1 101.1199 37.8601 35.6117 14.0104 3.6122 -3.6517
# 2 37.8601 67.9505 36.8643 12.0027 2.5664 -7.7523
# 3 35.6117 36.8643 103.4532 12.5660 -9.2884 -13.4987
# 4 14.0104 12.0027 12.5660 18.5780 0.4991 -4.9252
# 5 3.6122 2.5664 -9.2884 0.4991 27.1383 5.7687
# 6 -3.6517 -7.7523 -13.4987 -4.9252 5.7687 25.4029
#
#
#
# Elastic Compliance Matrix: (Units=1/GPa)
#
#
# Indices 1 2 3 4 5 6 
#
# 1 0.013517 -0.005366 -0.002445 -0.005472 -0.001672 -0.001675
# 2 -0.005366 0.022049 -0.005263 -0.005778 -0.003677 0.002876
# 3 -0.002445 -0.005263 0.013669 -0.003176 0.004794 0.003602
# 4 -0.005472 -0.005778 -0.003176 0.066386 -0.003014 0.009318
# 5 -0.001672 -0.003677 0.004794 -0.003014 0.040965 -0.008702
# 6 -0.001675 0.002876 0.003602 0.009318 -0.008702 0.045699
#
#
# Mechanical properties :
#
#
# Convention : Reuss Voigt Hill
#
# Bulk Modulus (GPa) = 43.31318 54.79953 49.05636
# Shear Modulus (GPa) = 21.17493 25.03633 23.10563
#
# Velocity S-wave (km/s) = 3.30773 3.59670 3.45524
# Velocity P-wave (km/s) = 6.08013 6.75005 6.42383
#
# Compressibility (1/GPa) = 0.02308766
#
# Stress axis : x y z
#
# Youngs Moduli (GPa) = 73.98219 45.35305 73.15673
#
# Poissons Ratio (x) = 0.24338 0.17884
# Poissons Ratio (y) = 0.39701 0.38502
# Poissons Ratio (z) = 0.18086 0.23869
#
# Static dielectric constant tensor:
#      x y z
#    x 4.624340 0.228460 0.143610 
#    y 0.228460 3.757320 0.130710 
#    z 0.143610 0.130710 3.570090 
# 
# 
# High freq. dielectric constant tensor:
#      x y z
#    x 1.769820 0.006870 0.000980 
#    y 0.006870 1.739130 0.003160 
#    z 0.000980 0.003160 1.741650 
# 
# From -- ./inp_files/273687.got.cif
#   From: 2010.06.25/outbox.cif.g09.slc.cpg/sg2_137_cif.got.tgz:273687.got - 2010.06.27 13:26:56.
