data_PCOD8008258
_publ_section_title
;
Structure prediction by ZEFSAII (Michael W. Deem and Ramdas Pophale) SiO2 
 PCOD8008258
Probable space group: P -1
;
_chemical_formula_sum "Si O2"
_cell_formula_units_Z 16
_cell_length_a 6.188656
_cell_length_b 11.962534
_cell_length_c 24.901880
_cell_angle_alpha 30.716252
_cell_angle_beta 52.461417
_cell_angle_gamma 52.022318
_cell_volume 727.358263
_symmetry_space_group_name_H-M "P -1"
_symmetry_group_IT_number 2
_symmetry_cell_setting 'triclinic'
loop_
_space_group_symop_operation_xyz
x,y,z
-x,-y,-z
loop_
_atom_site_type_symbol
_atom_site_label
_atom_site_fract_x
_atom_site_fract_y
_atom_site_fract_z
Si Si1 0.819985 0.999522 0.444346
Si Si2 0.902045 0.081294 0.283334
Si Si3 0.212423 0.501042 0.726001
Si Si4 0.606755 0.562261 0.806203
Si Si5 0.756734 0.546334 0.907999
Si Si6 0.171466 0.337637 0.585119
Si Si7 0.743925 0.407530 0.432245
Si Si8 0.325274 0.251361 0.919726
O O1 0.951419 0.938301 0.390002
O O2 0.859050 0.244135 0.349437
O O3 0.500000 0.000000 0.500000
O O4 0.006666 0.806151 0.533198
O O5 0.581498 0.218229 0.284057
O O6 0.108582 0.252536 0.171132
O O7 0.919763 0.902383 0.305763
O O8 0.370992 0.464809 0.659326
O O9 0.373737 0.344524 0.813908
O O10 0.906782 0.459572 0.776884
O O11 0.622557 0.632163 0.836426
O O12 0.447057 0.364935 0.903728
O O13 0.990588 0.312534 0.958250
O O14 0.500000 0.500000 0.000000
O O15 0.499522 0.309701 0.535715
O O16 0.127353 0.430708 0.614318
O O17 0.000000 0.500000 0.500000
O O18 0.500000 0.000000 0.000000
#
# Coordination Sequence:
#
# PCOD8008258 Si02
#       8
#     2   2   2   2   2   2   2   2
#     4  12  21  38  69  99 129 174 219 270 325 407
#     4  11  21  40  66  94 130 180 221 274 330 398
#     4  11  22  40  64 101 128 170 226 272 332 406
#     4  10  20  42  69  90 131 164 222 278 340 392
#     4  10  23  43  70  97 128 171 237 284 342 410
#     4  11  24  42  61  89 144 185 220 268 335 410
#     4  11  25  39  64  97 139 180 224 268 336 405
#     4  10  23  43  70  96 134 172 218 291 356 394
#
# _framework density 21.997412000000001
#
# number of rings (size 3 to 8) (size 9 to 14) (size 15 to 20)
#    0.000    1.250    5.000    2.625    0.000    4.000 
#    0.000    7.500    0.000    0.000    0.000    0.000 
#    0.000    0.000    0.000    0.000    0.000    0.000 
#
# Total GULP energy -198226.702792 kJ/mol
# GULP energy per Si atom -12389.168924 kJ/mol
# Density = 2.194734 g / cm^3
# Si number density = 21.997412 Si / 1000 Ang^3
#
#
#
# Elastic Constant Matrix: (Units=GPa)
#
#
# Indices 1 2 3 4 5 6 
#
# 1 104.9355 36.3632 42.1661 -12.1515 -1.1105 7.3273
# 2 36.3632 91.1480 56.1761 -14.9146 2.8176 11.2811
# 3 42.1661 56.1761 98.7560 -5.9845 -0.1200 6.1095
# 4 -12.1515 -14.9146 -5.9845 41.5910 -2.0929 -2.9718
# 5 -1.1105 2.8176 -0.1200 -2.0929 29.0677 1.7358
# 6 7.3273 11.2811 6.1095 -2.9718 1.7358 43.5007
#
#
#
# Elastic Compliance Matrix: (Units=1/GPa)
#
#
# Indices 1 2 3 4 5 6 
#
# 1 0.012095 -0.002022 -0.003824 0.002240 0.000855 -0.000857
# 2 -0.002022 0.018630 -0.009290 0.004480 -0.001430 -0.002823
# 3 -0.003824 -0.009290 0.016894 -0.001948 0.000653 0.000521
# 4 0.002240 0.004480 -0.001948 0.026133 0.001497 0.000460
# 5 0.000855 -0.001430 0.000653 0.001497 0.034753 -0.001149
# 6 -0.000857 -0.002823 0.000521 0.000460 -0.001149 0.023869
#
#
# Mechanical properties :
#
#
# Convention : Reuss Voigt Hill
#
# Bulk Modulus (GPa) = 57.64795 62.69449 60.17122
# Shear Modulus (GPa) = 29.68641 33.50749 31.59695
#
# Velocity S-wave (km/s) = 3.67760 3.90711 3.79409
# Velocity P-wave (km/s) = 6.65556 6.99405 6.82691
#
# Compressibility (1/GPa) = 0.01734667
#
# Stress axis : x y z
#
# Youngs Moduli (GPa) = 82.67578 53.67731 59.19411
#
# Poissons Ratio (x) = 0.10855 0.22637
# Poissons Ratio (y) = 0.16719 0.54989
# Poissons Ratio (z) = 0.31617 0.49864
#
# Static dielectric constant tensor:
#      x y z
#    x 4.238600 0.239900 0.128610 
#    y 0.239900 4.044670 -0.129660 
#    z 0.128610 -0.129660 3.664420 
# 
# 
# High freq. dielectric constant tensor:
#      x y z
#    x 1.890220 0.005100 0.003290 
#    y 0.005100 1.853170 -0.005880 
#    z 0.003290 -0.005880 1.838300 
# 
# From -- ./inp_files/90324.got.cif
#   From: 2010.06.25/outbox.cif.g09.slc.cpg/sg2_46_cif.got.tgz:90324.got - 2010.06.27 13:26:56.
