data_PCOD8008294
_publ_section_title
;
Structure prediction by ZEFSAII (Michael W. Deem and Ramdas Pophale) SiO2 
 PCOD8008294
Probable space group: P -1
;
_chemical_formula_sum "Si O2"
_cell_formula_units_Z 16
_cell_length_a 12.338026
_cell_length_b 12.014768
_cell_length_c 11.326369
_cell_angle_alpha 39.142979
_cell_angle_beta 82.939349
_cell_angle_gamma 111.809567
_cell_volume 701.395293
_symmetry_space_group_name_H-M "P -1"
_symmetry_group_IT_number 2
_symmetry_cell_setting 'triclinic'
loop_
_space_group_symop_operation_xyz
x,y,z
-x,-y,-z
loop_
_atom_site_type_symbol
_atom_site_label
_atom_site_fract_x
_atom_site_fract_y
_atom_site_fract_z
Si Si1 0.395310 0.903722 0.477802
Si Si2 0.746848 0.833749 0.435182
Si Si3 0.795243 0.902168 0.881833
Si Si4 0.384943 0.998357 0.819326
Si Si5 0.019678 0.492560 0.368545
Si Si6 0.494436 0.645203 0.286068
Si Si7 0.108175 0.348546 0.888787
Si Si8 0.322074 0.215738 0.251501
O O1 0.246767 0.584907 0.765684
O O2 0.500000 0.000000 0.500000
O O3 0.510516 0.021301 0.249316
O O4 0.313716 0.996814 0.411383
O O5 0.674507 0.573418 0.589015
O O6 0.754406 0.817174 0.587710
O O7 0.628967 0.850244 0.391945
O O8 0.932471 0.103337 0.167639
O O9 0.758881 0.788568 0.847654
O O10 0.645878 0.823560 0.027946
O O11 0.835079 0.777810 0.059959
O O12 0.948690 0.214364 0.582436
O O13 0.486037 0.157263 0.797019
O O14 0.203690 0.714757 0.110656
O O15 0.000000 0.500000 0.500000
O O16 0.908617 0.520110 0.313853
O O17 0.500000 0.500000 0.500000
O O18 0.500000 0.500000 0.000000
#
# Coordination Sequence:
#
# PCOD8008294 Si02
#       8
#     2   2   2   2   2   2   2   2
#     4  12  24  45  72 103 138 190 235 287 356 419
#     4  10  22  42  68 103 140 189 231 295 353 416
#     4  12  24  45  70 102 145 186 232 298 348 423
#     4  10  22  43  71 101 143 185 236 288 358 424
#     4  11  24  47  68 106 147 184 234 298 350 419
#     4  10  20  42  70  98 140 184 232 288 353 417
#     4  11  26  45  71 105 139 189 238 285 364 414
#     4  12  24  42  71 101 144 179 244 294 346 421
#
# _framework density 22.811674
#
# number of rings (size 3 to 8) (size 9 to 14) (size 15 to 20)
#    0.000    1.000    5.000    2.250    0.000    3.500 
#    2.250    1.250    0.000    0.000    0.000    0.000 
#    0.000    0.000    0.000    0.000    0.000    0.000 
#
# Total GULP energy -198237.821351 kJ/mol
# GULP energy per Si atom -12389.863834 kJ/mol
# Density = 2.275975 g / cm^3
# Si number density = 22.811674 Si / 1000 Ang^3
#
#
#
# Elastic Constant Matrix: (Units=GPa)
#
#
# Indices 1 2 3 4 5 6 
#
# 1 68.4261 31.1640 21.4313 -13.6981 5.5768 3.5594
# 2 31.1640 168.1841 58.6456 -0.9104 -12.9536 5.1258
# 3 21.4313 58.6456 121.5057 -25.6907 -9.2393 8.0208
# 4 -13.6981 -0.9104 -25.6907 38.3007 -2.4031 -1.7726
# 5 5.5768 -12.9536 -9.2393 -2.4031 37.8512 -4.6630
# 6 3.5594 5.1258 8.0208 -1.7726 -4.6630 18.8024
#
#
#
# Elastic Compliance Matrix: (Units=1/GPa)
#
#
# Indices 1 2 3 4 5 6 
#
# 1 0.017859 -0.003331 -0.000468 0.005627 -0.003861 -0.002700
# 2 -0.003331 0.008055 -0.003891 -0.003464 0.002114 0.000292
# 3 -0.000468 -0.003891 0.012191 0.007903 0.001865 -0.002844
# 4 0.005627 -0.003464 0.007903 0.033478 0.002062 0.000175
# 5 -0.003861 0.002114 0.001865 0.002062 0.029133 0.006779
# 6 -0.002700 0.000292 -0.002844 0.000175 0.006779 0.056527
#
#
# Mechanical properties :
#
#
# Convention : Reuss Voigt Hill
#
# Bulk Modulus (GPa) = 44.00309 64.51083 54.25696
# Shear Modulus (GPa) = 27.74723 35.44920 31.59821
#
# Velocity S-wave (km/s) = 3.49142 3.94635 3.72583
# Velocity P-wave (km/s) = 5.96531 7.00757 6.50734
#
# Compressibility (1/GPa) = 0.02272568
#
# Stress axis : x y z
#
# Youngs Moduli (GPa) = 55.99281 124.14560 82.02601
#
# Poissons Ratio (x) = 0.41349 0.03839
# Poissons Ratio (y) = 0.18650 0.31919
# Poissons Ratio (z) = 0.02621 0.48309
#
# Static dielectric constant tensor:
#      x y z
#    x 4.079860 0.238120 -0.069350 
#    y 0.238120 4.444770 -0.250240 
#    z -0.069350 -0.250240 4.544600 
# 
# 
# High freq. dielectric constant tensor:
#      x y z
#    x 1.879040 0.009810 0.003470 
#    y 0.009810 1.909430 -0.010670 
#    z 0.003470 -0.010670 1.920570 
# 
# From -- ./inp_files/427401.got.cif
#   From: 2010.06.25/outbox.cif.g09.slc.cpg/sg2_214_cif.got.tgz:427401.got - 2010.06.27 13:26:56.
