data_PCOD8008544
_publ_section_title
;
Structure prediction by ZEFSAII (Michael W. Deem and Ramdas Pophale) SiO2 
 PCOD8008544
Probable space group: P -1
;
_chemical_formula_sum "Si O2"
_cell_formula_units_Z 16
_cell_length_a 9.920893
_cell_length_b 8.933033
_cell_length_c 15.773509
_cell_angle_alpha 111.560596
_cell_angle_beta 33.099476
_cell_angle_gamma 101.259577
_cell_volume 692.306476
_symmetry_space_group_name_H-M "P -1"
_symmetry_group_IT_number 2
_symmetry_cell_setting 'triclinic'
loop_
_space_group_symop_operation_xyz
x,y,z
-x,-y,-z
loop_
_atom_site_type_symbol
_atom_site_label
_atom_site_fract_x
_atom_site_fract_y
_atom_site_fract_z
Si Si1 0.483539 0.033517 0.614437
Si Si2 0.784628 0.719241 0.798517
Si Si3 0.446171 0.853555 0.751548
Si Si4 0.961812 0.217588 0.918381
Si Si5 0.791976 0.517719 0.540170
Si Si6 0.954917 0.020236 0.709355
Si Si7 0.476253 0.818620 0.139604
Si Si8 0.561209 0.503163 0.146337
O O1 0.403537 0.883112 0.678483
O O2 0.767814 0.048170 0.492740
O O3 0.500000 0.000000 0.500000
O O4 0.256956 0.196638 0.786753
O O5 0.572996 0.636634 0.851051
O O6 0.062007 0.594268 0.636277
O O7 0.807947 0.871398 0.757301
O O8 0.707156 0.787974 0.946153
O O9 0.689420 0.704501 0.603202
O O10 0.520676 0.022534 0.773984
O O11 0.201063 0.823951 0.924314
O O12 0.961528 0.090182 0.815237
O O13 0.854220 0.406925 0.984069
O O14 0.561255 0.445809 0.685743
O O15 0.000000 0.500000 0.500000
O O16 0.792244 0.160476 0.763071
O O17 0.521060 0.658426 0.140475
#
# Coordination Sequence:
#
# PCOD8008544 Si02
#       8
#     2   2   2   2   2   2   2   2
#     4  10  25  41  67  91 124 172 225 264 303 375
#     4  11  21  38  60  93 133 167 202 256 333 381
#     4  11  23  42  68  97 125 170 213 267 319 382
#     4  10  20  44  65  87 128 173 217 252 314 380
#     4   9  21  37  59  91 134 164 196 253 330 382
#     4  11  22  38  64  96 131 166 210 265 316 384
#     4  12  23  36  67 103 129 158 215 265 331 380
#     4  10  22  37  63  94 130 170 202 267 317 382
#
# _framework density 23.111153000000002
#
# number of rings (size 3 to 8) (size 9 to 14) (size 15 to 20)
#    0.000    1.500    2.500    3.375    5.250    1.500 
#    0.000    0.625    2.750    2.250    0.000    0.000 
#    0.000    0.000    0.000    0.000    0.000    0.000 
#
# Total GULP energy -198273.952891 kJ/mol
# GULP energy per Si atom -12392.122056 kJ/mol
# Density = 2.305855 g / cm^3
# Si number density = 23.111153 Si / 1000 Ang^3
#
#
#
# Elastic Constant Matrix: (Units=GPa)
#
#
# Indices 1 2 3 4 5 6 
#
# 1 72.3072 47.5054 58.9821 -0.8271 -10.1121 -37.2846
# 2 47.5054 127.2346 67.0355 3.1856 -23.5477 -48.9681
# 3 58.9821 67.0355 185.7042 16.6512 -32.4226 -35.8062
# 4 -0.8271 3.1856 16.6512 34.6424 -10.7232 -4.7827
# 5 -10.1121 -23.5477 -32.4226 -10.7232 34.4465 6.5145
# 6 -37.2846 -48.9681 -35.8062 -4.7827 6.5145 41.6415
#
#
#
# Elastic Compliance Matrix: (Units=1/GPa)
#
#
# Indices 1 2 3 4 5 6 
#
# 1 0.030784 0.001187 -0.005782 0.007435 0.002084 0.024515
# 2 0.001187 0.016959 -0.001909 0.004435 0.008004 0.018622
# 3 -0.005782 -0.001909 0.008788 -0.002908 0.004536 -0.000908
# 4 0.007435 0.004435 -0.002908 0.035110 0.011204 0.011651
# 5 0.002084 0.008004 0.004536 0.011204 0.040969 0.010057
# 6 0.024515 0.018622 -0.000908 0.011651 0.010057 0.066847
#
#
# Mechanical properties :
#
#
# Convention : Reuss Voigt Hill
#
# Bulk Modulus (GPa) = 22.97561 81.36575 52.17068
# Shear Modulus (GPa) = 22.02922 36.26095 29.14508
#
# Velocity S-wave (km/s) = 3.09072 3.96533 3.55503
# Velocity P-wave (km/s) = 4.76442 7.49986 6.28281
#
# Compressibility (1/GPa) = 0.04352442
#
# Stress axis : x y z
#
# Youngs Moduli (GPa) = 32.48458 58.96567 113.79489
#
# Poissons Ratio (x) = -0.07000 0.65793
# Poissons Ratio (y) = -0.03857 0.21719
# Poissons Ratio (z) = 0.18782 0.11254
#
# Static dielectric constant tensor:
#      x y z
#    x 4.086350 -0.340050 -0.041910 
#    y -0.340050 4.064450 0.127750 
#    z -0.041910 0.127750 5.411420 
# 
# 
# High freq. dielectric constant tensor:
#      x y z
#    x 1.887750 -0.026880 -0.002990 
#    y -0.026880 1.899930 0.007900 
#    z -0.002990 0.007900 1.945440 
# 
# From -- ./inp_files/566807.got.cif
#   From: 2010.06.25/outbox.cif.g09.slc.cpg/sg2_284_cif.got.tgz:566807.got - 2010.06.27 13:26:56.
