data_PCOD8008579
_publ_section_title
;
Structure prediction by ZEFSAII (Michael W. Deem and Ramdas Pophale) SiO2 
 PCOD8008579
Probable space group: P -1
;
_chemical_formula_sum "Si O2"
_cell_formula_units_Z 14
_cell_length_a 14.957329
_cell_length_b 6.560778
_cell_length_c 21.765152
_cell_angle_alpha 85.493501
_cell_angle_beta 158.039653
_cell_angle_gamma 80.982506
_cell_volume 627.325618
_symmetry_space_group_name_H-M "P -1"
_symmetry_group_IT_number 2
_symmetry_cell_setting 'triclinic'
loop_
_space_group_symop_operation_xyz
x,y,z
-x,-y,-z
loop_
_atom_site_type_symbol
_atom_site_label
_atom_site_fract_x
_atom_site_fract_y
_atom_site_fract_z
Si Si1 0.351304 0.361282 0.721639
Si Si2 0.369854 0.368867 0.134370
Si Si3 0.802380 0.046130 0.654302
Si Si4 0.753532 0.857460 0.754758
Si Si5 0.195616 0.560851 0.828223
Si Si6 0.230498 0.166063 0.938098
Si Si7 0.617733 0.878501 0.374159
O O1 0.431842 0.558584 0.774307
O O2 0.464931 0.235652 0.729585
O O3 0.000000 0.500000 0.500000
O O4 0.516322 0.144934 0.885574
O O5 0.588287 0.126511 0.324312
O O6 0.215488 0.306761 0.986675
O O7 0.088932 0.600063 0.990076
O O8 0.478946 0.202771 0.410440
O O9 0.911516 0.223110 0.718422
O O10 0.774321 0.004858 0.708736
O O11 0.043018 0.767024 0.781782
O O12 0.621233 0.040979 0.725799
O O13 0.292774 0.282683 0.918103
O O14 0.963184 0.667437 0.620820
O O15 0.500000 0.500000 0.000000
#
# Coordination Sequence:
#
# PCOD8008579 Si02
#       7
#     2   2   2   2   2   2   2
#     4  11  26  44  68  94 133 175 225 267 329 388
#     4  11  23  45  67  97 133 175 220 266 328 391
#     4  10  22  43  66 101 131 173 216 269 335 381
#     4  10  20  44  68  95 138 166 221 272 317 398
#     4  11  25  43  67  97 135 166 225 273 325 391
#     4  11  23  43  70  97 127 179 218 266 336 385
#     4  10  26  41  64 103 127 175 213 274 326 381
#
# _framework density 22.316959000000001
#
# number of rings (size 3 to 8) (size 9 to 14) (size 15 to 20)
#    0.000    1.429    2.857    0.429    6.000    5.143 
#    2.571    0.000    0.000    0.000    0.000    0.000 
#    0.000    0.000    0.000    0.000    0.000    0.000 
#
# Total GULP energy -173610.206872 kJ/mol
# GULP energy per Si atom -12400.729062 kJ/mol
# Density = 2.226616 g / cm^3
# Si number density = 22.316959 Si / 1000 Ang^3
#
#
#
# Elastic Constant Matrix: (Units=GPa)
#
#
# Indices 1 2 3 4 5 6 
#
# 1 77.3433 40.6258 28.0340 -0.7868 -2.6021 24.7498
# 2 40.6258 111.0773 32.4667 16.1068 -0.3312 25.7390
# 3 28.0340 32.4667 103.2535 1.4367 3.1445 20.6602
# 4 -0.7868 16.1068 1.4367 39.5301 9.3110 -2.6262
# 5 -2.6021 -0.3312 3.1445 9.3110 39.5968 0.9252
# 6 24.7498 25.7390 20.6602 -2.6262 0.9252 33.9243
#
#
#
# Elastic Compliance Matrix: (Units=1/GPa)
#
#
# Indices 1 2 3 4 5 6 
#
# 1 0.018970 -0.004415 -0.001975 0.001337 0.001268 -0.009219
# 2 -0.004415 0.013569 -0.001714 -0.006370 0.001611 -0.006567
# 3 -0.001975 -0.001714 0.011651 0.000188 -0.001013 -0.004312
# 4 0.001337 -0.006370 0.000188 0.030021 -0.007186 0.006263
# 5 0.001268 0.001611 -0.001013 -0.007186 0.027188 -0.002828
# 6 -0.009219 -0.006567 -0.004312 0.006263 -0.002828 0.044373
#
#
# Mechanical properties :
#
#
# Convention : Reuss Voigt Hill
#
# Bulk Modulus (GPa) = 35.73755 54.88081 45.30918
# Shear Modulus (GPa) = 29.18713 35.31340 32.25027
#
# Velocity S-wave (km/s) = 3.62034 3.98220 3.80557
# Velocity P-wave (km/s) = 5.79001 6.76674 6.29734
#
# Compressibility (1/GPa) = 0.02798177
#
# Stress axis : x y z
#
# Youngs Moduli (GPa) = 52.71344 73.69882 85.82826
#
# Poissons Ratio (x) = 0.32538 0.16951
# Poissons Ratio (y) = 0.23273 0.14713
# Poissons Ratio (z) = 0.10411 0.12634
#
# Static dielectric constant tensor:
#      x y z
#    x 4.064420 -0.000560 -0.118450 
#    y -0.000560 4.038980 -0.021670 
#    z -0.118450 -0.021670 4.143270 
# 
# 
# High freq. dielectric constant tensor:
#      x y z
#    x 1.878870 0.003960 -0.006500 
#    y 0.003960 1.869940 0.004410 
#    z -0.006500 0.004410 1.887040 
# 
# From -- ./inp_files/26877.got.cif
#   From: 2010.06.25/outbox.cif.g09.slc.cpg/sg2_14_cif.got.tgz:26877.got - 2010.06.27 13:26:56.
