data_PCOD8008152
_publ_section_title
;
Structure prediction by ZEFSAII (Michael W. Deem and Ramdas Pophale) SiO2 
 PCOD8008152
Probable space group: P -1
;
_chemical_formula_sum "Si O2"
_cell_formula_units_Z 16
_cell_length_a 11.489165
_cell_length_b 11.469518
_cell_length_c 11.865906
_cell_angle_alpha 59.937493
_cell_angle_beta 79.337148
_cell_angle_gamma 128.982556
_cell_volume 703.553416
_symmetry_space_group_name_H-M "P -1"
_symmetry_group_IT_number 2
_symmetry_cell_setting 'triclinic'
loop_
_space_group_symop_operation_xyz
x,y,z
-x,-y,-z
loop_
_atom_site_type_symbol
_atom_site_label
_atom_site_fract_x
_atom_site_fract_y
_atom_site_fract_z
Si Si1 0.932610 0.877711 0.949909
Si Si2 0.893569 0.095265 0.721097
Si Si3 0.542136 0.926440 0.763882
Si Si4 0.388182 0.243345 0.564883
Si Si5 0.643006 0.342491 0.300713
Si Si6 0.662072 0.273362 0.874433
Si Si7 0.914650 0.475900 0.375993
Si Si8 0.370527 0.516591 0.372935
O O1 0.814972 0.890824 0.905589
O O2 0.750732 0.585922 0.124570
O O3 0.145692 0.025600 0.769745
O O4 0.000000 0.000000 0.000000
O O5 0.959511 0.284474 0.697394
O O6 0.104391 0.252090 0.534337
O O7 0.694001 0.940458 0.747741
O O8 0.434078 0.822076 0.710356
O O9 0.701085 0.211996 0.611233
O O10 0.345628 0.731138 0.986114
O O11 0.421168 0.158538 0.506515
O O12 0.469368 0.459854 0.381093
O O13 0.566118 0.369713 0.568017
O O14 0.835398 0.447770 0.281334
O O15 0.555355 0.308468 0.823543
O O16 0.914832 0.486065 0.687185
O O17 0.500000 0.000000 0.000000
#
# Coordination Sequence:
#
# PCOD8008152 Si02
#       8
#     2   2   2   2   2   2   2   2
#     4  11  23  42  71 105 132 174 229 280 330 397
#     4  11  21  43  71  98 134 171 227 283 325 399
#     4  12  28  44  65 103 139 179 221 280 343 398
#     4  10  23  40  71  97 133 175 220 278 333 395
#     4  12  27  45  68 100 140 179 220 279 344 402
#     4  12  26  39  71 102 130 177 230 282 330 395
#     4  12  24  47  69  94 138 180 229 276 328 404
#     4  10  20  42  67 101 127 169 230 275 326 392
#
# _framework density 22.741699000000001
#
# number of rings (size 3 to 8) (size 9 to 14) (size 15 to 20)
#    0.000    0.750    5.000    3.000    5.250    2.000 
#    0.000    1.250    0.000    0.000    0.000    0.000 
#    0.000    0.000    0.000    0.000    0.000    0.000 
#
# Total GULP energy -198309.252235 kJ/mol
# GULP energy per Si atom -12394.328265 kJ/mol
# Density = 2.268994 g / cm^3
# Si number density = 22.741699 Si / 1000 Ang^3
#
#
#
# Elastic Constant Matrix: (Units=GPa)
#
#
# Indices 1 2 3 4 5 6 
#
# 1 96.2277 20.9636 26.8173 4.3827 16.3670 11.6693
# 2 20.9636 72.2762 12.6448 17.3189 -2.3064 11.9229
# 3 26.8173 12.6448 85.7913 5.0017 9.5560 -6.3909
# 4 4.3827 17.3189 5.0017 32.6106 0.8683 1.6839
# 5 16.3670 -2.3064 9.5560 0.8683 40.7887 7.6345
# 6 11.6693 11.9229 -6.3909 1.6839 7.6345 28.7771
#
#
#
# Elastic Compliance Matrix: (Units=1/GPa)
#
#
# Indices 1 2 3 4 5 6 
#
# 1 0.013107 -0.002778 -0.003589 0.000572 -0.003844 -0.003975
# 2 -0.002778 0.018607 -0.002424 -0.008853 0.004376 -0.007764
# 3 -0.003589 -0.002424 0.014006 -0.000627 -0.003172 0.006448
# 4 0.000572 -0.008853 -0.000627 0.035344 -0.001647 0.001666
# 5 -0.003844 0.004376 -0.003172 -0.001647 0.028670 -0.008469
# 6 -0.003975 -0.007764 0.006448 0.001666 -0.008469 0.043160
#
#
# Mechanical properties :
#
#
# Convention : Reuss Voigt Hill
#
# Bulk Modulus (GPa) = 35.53855 41.68295 38.61075
# Shear Modulus (GPa) = 27.80033 33.35990 30.58012
#
# Velocity S-wave (km/s) = 3.50013 3.83417 3.67095
# Velocity P-wave (km/s) = 5.65646 6.16197 5.91462
#
# Compressibility (1/GPa) = 0.02813846
#
# Stress axis : x y z
#
# Youngs Moduli (GPa) = 76.29426 53.74233 71.40036
#
# Poissons Ratio (x) = 0.14928 0.25626
# Poissons Ratio (y) = 0.21193 0.17307
# Poissons Ratio (z) = 0.27382 0.13027
#
# Static dielectric constant tensor:
#      x y z
#    x 4.666220 0.161910 0.076550 
#    y 0.161910 3.687530 0.169680 
#    z 0.076550 0.169680 4.391490 
# 
# 
# High freq. dielectric constant tensor:
#      x y z
#    x 1.921350 0.008930 0.009800 
#    y 0.008930 1.851130 0.010130 
#    z 0.009800 0.010130 1.906120 
# 
# From -- ./inp_files/427813.got.cif
#   From: 2010.06.25/outbox.cif.g09.slc.cpg/sg2_214_cif.got.tgz:427813.got - 2010.06.27 13:26:56.
