data_PCOD8008311
_publ_section_title
;
Structure prediction by ZEFSAII (Michael W. Deem and Ramdas Pophale) SiO2 
 PCOD8008311
Probable space group: P -1
;
_chemical_formula_sum "Si O2"
_cell_formula_units_Z 16
_cell_length_a 11.662894
_cell_length_b 9.262834
_cell_length_c 15.008592
_cell_angle_alpha 121.957503
_cell_angle_beta 116.112934
_cell_angle_gamma 112.816174
_cell_volume 716.142101
_symmetry_space_group_name_H-M "P -1"
_symmetry_group_IT_number 2
_symmetry_cell_setting 'triclinic'
loop_
_space_group_symop_operation_xyz
x,y,z
-x,-y,-z
loop_
_atom_site_type_symbol
_atom_site_label
_atom_site_fract_x
_atom_site_fract_y
_atom_site_fract_z
Si Si1 0.795385 0.653111 0.323701
Si Si2 0.627210 0.285760 0.687583
Si Si3 0.809287 0.615087 0.588519
Si Si4 0.950495 0.202923 0.102838
Si Si5 0.064253 0.751767 0.574605
Si Si6 0.673610 0.213924 0.050095
Si Si7 0.490499 0.464014 0.303747
Si Si8 0.457427 0.011578 0.726280
O O1 0.733904 0.483762 0.156835
O O2 0.592172 0.516700 0.260745
O O3 0.879521 0.581897 0.382820
O O4 0.000000 0.000000 0.500000
O O5 0.514762 0.338642 0.633959
O O6 0.613015 0.242801 0.775160
O O7 0.886052 0.565755 0.845200
O O8 0.500000 0.000000 0.500000
O O9 0.635186 0.562626 0.471715
O O10 0.912262 0.768657 0.770906
O O11 0.022369 0.840984 0.668962
O O12 0.695997 0.308788 0.463493
O O13 0.868640 0.286763 0.152171
O O14 0.753368 0.879370 0.887191
O O15 0.000000 0.500000 0.500000
O O16 0.312522 0.020830 0.709322
O O17 0.585843 0.078451 0.877086
O O18 0.500000 0.000000 0.000000
#
# Coordination Sequence:
#
# PCOD8008311 Si02
#       8
#     2   2   2   2   2   2   2   2
#     4  11  23  40  68 106 144 175 220 300 364 411
#     4  12  28  48  70  98 147 195 236 299 356 413
#     4  10  20  42  72 106 131 186 236 294 351 422
#     4  12  24  45  76  99 143 191 241 286 353 423
#     4   9  18  35  66  95 134 170 224 275 345 421
#     4  12  22  43  77 110 141 185 233 293 358 437
#     4  11  25  48  70 105 141 183 250 290 344 437
#     4  11  21  43  68 108 142 186 237 288 356 426
#
# _framework density 22.341934999999999
#
# number of rings (size 3 to 8) (size 9 to 14) (size 15 to 20)
#    0.000    1.000    3.750    4.875    1.750    1.000 
#    4.500    1.250    0.000    0.000    0.000    0.000 
#    0.000    0.000    0.000    0.000    0.000    0.000 
#
# Total GULP energy -198266.736613 kJ/mol
# GULP energy per Si atom -12391.671038 kJ/mol
# Density = 2.229108 g / cm^3
# Si number density = 22.341935 Si / 1000 Ang^3
#
#
#
# Elastic Constant Matrix: (Units=GPa)
#
#
# Indices 1 2 3 4 5 6 
#
# 1 110.9745 73.3537 47.2808 3.8463 7.1073 -5.2191
# 2 73.3537 119.8744 50.0346 2.8955 11.9949 19.1965
# 3 47.2808 50.0346 102.0091 1.2279 7.9573 2.7763
# 4 3.8463 2.8955 1.2279 37.5019 -5.1457 -3.4199
# 5 7.1073 11.9949 7.9573 -5.1457 28.3369 3.5808
# 6 -5.2191 19.1965 2.7763 -3.4199 3.5808 44.7241
#
#
#
# Elastic Compliance Matrix: (Units=1/GPa)
#
#
# Indices 1 2 3 4 5 6 
#
# 1 0.017685 -0.010569 -0.003196 -0.000271 0.000030 0.006776
# 2 -0.010569 0.017959 -0.003413 -0.001408 -0.003164 -0.008584
# 3 -0.003196 -0.003413 0.013062 -0.000002 -0.001473 0.000399
# 4 -0.000271 -0.001408 -0.000002 0.027751 0.005418 0.002261
# 5 0.000030 -0.003164 -0.001473 0.005418 0.038169 -0.001189
# 6 0.006776 -0.008584 0.000399 0.002261 -0.001189 0.027078
#
#
# Mechanical properties :
#
#
# Convention : Reuss Voigt Hill
#
# Bulk Modulus (GPa) = 69.68514 74.91067 72.29791
# Shear Modulus (GPa) = 27.64786 32.92520 30.28653
#
# Velocity S-wave (km/s) = 3.52161 3.84304 3.68583
# Velocity P-wave (km/s) = 6.91330 7.30027 7.10941
#
# Compressibility (1/GPa) = 0.01435026
#
# Stress axis : x y z
#
# Youngs Moduli (GPa) = 56.54401 55.68110 76.55509
#
# Poissons Ratio (x) = 0.58852 0.24470
# Poissons Ratio (y) = 0.59764 0.26126
# Poissons Ratio (z) = 0.18074 0.19002
#
# Static dielectric constant tensor:
#      x y z
#    x 4.225540 0.064910 0.072660 
#    y 0.064910 4.093990 -0.062700 
#    z 0.072660 -0.062700 3.836160 
# 
# 
# High freq. dielectric constant tensor:
#      x y z
#    x 1.891760 0.002780 0.008950 
#    y 0.002780 1.874190 -0.006110 
#    z 0.008950 -0.006110 1.867540 
# 
# From -- ./inp_files/516129.got.cif
#   From: 2010.06.25/outbox.cif.g09.slc.cpg/sg2_259_cif.got.tgz:516129.got - 2010.06.27 13:26:56.
