data_PCOD8008512
_publ_section_title
;
Structure prediction by ZEFSAII (Michael W. Deem and Ramdas Pophale) SiO2 
 PCOD8008512
Probable space group: P -1
;
_chemical_formula_sum "Si O2"
_cell_formula_units_Z 16
_cell_length_a 23.902059
_cell_length_b 9.201259
_cell_length_c 8.022094
_cell_angle_alpha 129.412424
_cell_angle_beta 129.704841
_cell_angle_gamma 29.785259
_cell_volume 659.152241
_symmetry_space_group_name_H-M "P -1"
_symmetry_group_IT_number 2
_symmetry_cell_setting 'triclinic'
loop_
_space_group_symop_operation_xyz
x,y,z
-x,-y,-z
loop_
_atom_site_type_symbol
_atom_site_label
_atom_site_fract_x
_atom_site_fract_y
_atom_site_fract_z
Si Si1 0.255125 0.261639 0.546868
Si Si2 0.392253 0.686878 0.548138
Si Si3 0.056924 0.055878 0.302465
Si Si4 0.185734 0.537237 0.957520
Si Si5 0.654988 0.067820 0.016452
Si Si6 0.472778 0.873028 0.457418
Si Si7 0.957243 0.306107 0.794812
Si Si8 0.124626 0.174821 0.801879
O O1 0.241533 0.429128 0.800793
O O2 0.142117 0.476117 0.376161
O O3 0.279145 0.996218 0.463922
O O4 0.365269 0.123284 0.558204
O O5 0.500000 0.500000 0.500000
O O6 0.408169 0.433104 0.443572
O O7 0.406344 0.773177 0.809225
O O8 0.096719 0.161498 0.551469
O O9 0.932945 0.346203 0.195517
O O10 0.041393 0.905137 0.284078
O O11 0.151645 0.814336 0.162843
O O12 0.264966 0.279069 0.060027
O O13 0.736553 0.075558 0.113068
O O14 0.560021 0.223812 0.808071
O O15 0.500000 0.000000 0.500000
O O16 0.081030 0.100860 0.792911
O O17 0.938837 0.500610 0.043006
#
# Coordination Sequence:
#
# PCOD8008512 Si02
#       8
#     2   2   2   2   2   2   2   2
#     4  10  20  43  72  92 140 175 224 282 342 405
#     4   9  22  43  68  93 127 171 224 289 340 398
#     4  11  22  41  64  95 148 181 227 265 324 398
#     4  10  22  40  62  97 139 178 216 281 320 403
#     4  11  22  44  67  94 136 178 228 269 347 414
#     4  11  23  44  72  98 128 173 230 297 344 399
#     4  11  22  43  65 100 139 180 229 269 328 413
#     4  11  23  38  68  98 134 184 219 272 329 406
#
# _framework density 24.273603999999999
#
# number of rings (size 3 to 8) (size 9 to 14) (size 15 to 20)
#    0.000    1.500    3.750    0.750    0.000    2.500 
#    0.000    9.375    0.000    0.000    0.000    0.000 
#    0.000    0.000    0.000    0.000    0.000    0.000 
#
# Total GULP energy -198212.594590 kJ/mol
# GULP energy per Si atom -12388.287162 kJ/mol
# Density = 2.421836 g / cm^3
# Si number density = 24.273604 Si / 1000 Ang^3
#
#
#
# Elastic Constant Matrix: (Units=GPa)
#
#
# Indices 1 2 3 4 5 6 
#
# 1 121.6336 38.0476 36.7905 8.1537 -19.0443 -4.9248
# 2 38.0476 86.4944 8.6118 -6.2859 -2.9464 12.6877
# 3 36.7905 8.6118 113.4417 10.9950 -18.0186 -11.3602
# 4 8.1537 -6.2859 10.9950 33.2873 -9.0740 -8.5957
# 5 -19.0443 -2.9464 -18.0186 -9.0740 38.5341 7.9476
# 6 -4.9248 12.6877 -11.3602 -8.5957 7.9476 33.7252
#
#
#
# Elastic Compliance Matrix: (Units=1/GPa)
#
#
# Indices 1 2 3 4 5 6 
#
# 1 0.011171 -0.004888 -0.002422 -0.001569 0.003343 0.001467
# 2 -0.004888 0.014804 -0.000318 0.002711 0.000401 -0.005794
# 3 -0.002422 -0.000318 0.010450 -0.001573 0.002838 0.002216
# 4 -0.001569 0.002711 -0.001573 0.034460 0.005641 0.005675
# 5 0.003343 0.000401 0.002838 0.005641 0.031244 -0.004632
# 6 0.001467 -0.005794 0.002216 0.005675 -0.004632 0.035330
#
#
# Mechanical properties :
#
#
# Convention : Reuss Voigt Hill
#
# Bulk Modulus (GPa) = 47.23918 54.27440 50.75679
# Shear Modulus (GPa) = 31.29485 36.98397 34.13941
#
# Velocity S-wave (km/s) = 3.59451 3.90760 3.75432
# Velocity P-wave (km/s) = 6.06059 6.53966 6.30468
#
# Compressibility (1/GPa) = 0.02116887
#
# Stress axis : x y z
#
# Youngs Moduli (GPa) = 89.51803 67.55008 95.69601
#
# Poissons Ratio (x) = 0.33019 0.23176
# Poissons Ratio (y) = 0.43758 0.03041
# Poissons Ratio (z) = 0.21680 0.02147
#
# Static dielectric constant tensor:
#      x y z
#    x 4.650950 -0.296430 0.063290 
#    y -0.296430 5.259050 -0.615680 
#    z 0.063290 -0.615680 5.839370 
# 
# 
# High freq. dielectric constant tensor:
#      x y z
#    x 1.960310 -0.001800 -0.037880 
#    y -0.001800 1.971960 0.011380 
#    z -0.037880 0.011380 1.952230 
# 
# From -- ./inp_files/352448.got.cif
#   From: 2010.06.25/outbox.cif.g09.slc.cpg/sg2_177_cif.got.tgz:352448.got - 2010.06.27 13:26:56.
