data_PCOD8008456
_publ_section_title
;
Structure prediction by ZEFSAII (Michael W. Deem and Ramdas Pophale) SiO2 
 PCOD8008456
Probable space group: P -1
;
_chemical_formula_sum "Si O2"
_cell_formula_units_Z 16
_cell_length_a 11.898750
_cell_length_b 15.565247
_cell_length_c 9.077716
_cell_angle_alpha 143.526756
_cell_angle_beta 114.302381
_cell_angle_gamma 49.183598
_cell_volume 731.654783
_symmetry_space_group_name_H-M "P -1"
_symmetry_group_IT_number 2
_symmetry_cell_setting 'triclinic'
loop_
_space_group_symop_operation_xyz
x,y,z
-x,-y,-z
loop_
_atom_site_type_symbol
_atom_site_label
_atom_site_fract_x
_atom_site_fract_y
_atom_site_fract_z
Si Si1 0.726663 0.589424 0.661041
Si Si2 0.587400 0.114300 0.584974
Si Si3 0.909715 0.421874 0.806437
Si Si4 0.533469 0.104984 0.876188
Si Si5 0.263357 0.438211 0.816764
Si Si6 0.196775 0.232182 0.291816
Si Si7 0.915715 0.987098 0.574520
Si Si8 0.116809 0.710834 0.876803
O O1 0.867249 0.463238 0.671577
O O2 0.749538 0.719079 0.757431
O O3 0.739230 0.439136 0.354936
O O4 0.568258 0.708190 0.830133
O O5 0.594125 0.123006 0.778244
O O6 0.446300 0.305152 0.704557
O O7 0.743546 0.070110 0.543130
O O8 0.571185 0.961443 0.308902
O O9 0.758131 0.534043 0.981467
O O10 0.006502 0.211161 0.597435
O O11 0.000000 0.500000 0.000000
O O12 0.676422 0.974912 0.882207
O O13 0.182970 0.350095 0.585650
O O14 0.175737 0.634359 0.968313
O O15 0.034248 0.272065 0.226812
O O16 0.915299 0.095957 0.866153
O O17 0.000000 0.000000 0.500000
#
# Coordination Sequence:
#
# PCOD8008456 Si02
#       8
#     2   2   2   2   2   2   2   2
#     4  11  22  39  65 101 134 177 232 274 339 401
#     4  10  23  41  69 101 137 173 237 289 333 394
#     4  12  23  40  73  99 133 176 237 282 330 405
#     4  10  21  41  69 105 133 174 232 290 335 388
#     4  10  20  43  68  99 130 178 231 284 329 393
#     4  10  22  39  68 102 142 175 223 284 340 399
#     4  12  28  46  67 101 140 184 224 280 353 413
#     4  11  24  44  61  97 143 180 219 270 350 413
#
# _framework density 21.868238000000002
#
# number of rings (size 3 to 8) (size 9 to 14) (size 15 to 20)
#    0.000    1.250    2.500    4.125    7.000    1.000 
#    0.000    0.625    0.000    0.000    0.000    0.000 
#    0.000    0.000    0.000    0.000    0.000    0.000 
#
# Total GULP energy -198336.557074 kJ/mol
# GULP energy per Si atom -12396.034817 kJ/mol
# Density = 2.181847 g / cm^3
# Si number density = 21.868238 Si / 1000 Ang^3
#
#
#
# Elastic Constant Matrix: (Units=GPa)
#
#
# Indices 1 2 3 4 5 6 
#
# 1 85.8403 38.1186 35.8279 6.8891 -9.4187 -10.5764
# 2 38.1186 141.9153 37.5854 10.7469 -0.3435 -2.0529
# 3 35.8279 37.5854 120.9506 17.2626 -11.8912 7.4435
# 4 6.8891 10.7469 17.2626 35.7478 4.0437 -6.2142
# 5 -9.4187 -0.3435 -11.8912 4.0437 29.9083 3.0612
# 6 -10.5764 -2.0529 7.4435 -6.2142 3.0612 26.6778
#
#
#
# Elastic Compliance Matrix: (Units=1/GPa)
#
#
# Indices 1 2 3 4 5 6 
#
# 1 0.015790 -0.003133 -0.003997 0.000764 0.002526 0.007022
# 2 -0.003133 0.008398 -0.001665 -0.000994 -0.001397 -0.000203
# 3 -0.003997 -0.001665 0.011771 -0.006193 0.004957 -0.007008
# 4 0.000764 -0.000994 -0.006193 0.033881 -0.007915 0.010754
# 5 0.002526 -0.001397 0.004957 -0.007915 0.037940 -0.006686
# 6 0.007022 -0.000203 -0.007008 0.010754 -0.006686 0.045480
#
#
# Mechanical properties :
#
#
# Convention : Reuss Voigt Hill
#
# Bulk Modulus (GPa) = 54.43318 63.52998 58.98158
# Shear Modulus (GPa) = 28.25309 34.27842 31.26576
#
# Velocity S-wave (km/s) = 3.59830 3.96346 3.78528
# Velocity P-wave (km/s) = 6.49686 7.07529 6.79223
#
# Compressibility (1/GPa) = 0.01837115
#
# Stress axis : x y z
#
# Youngs Moduli (GPa) = 63.33200 119.07927 84.95118
#
# Poissons Ratio (x) = 0.37306 0.33951
# Poissons Ratio (y) = 0.19841 0.14140
# Poissons Ratio (z) = 0.25311 0.19821
#
# Static dielectric constant tensor:
#      x y z
#    x 3.700540 0.169440 -0.347460 
#    y 0.169440 4.303230 -0.209270 
#    z -0.347460 -0.209270 4.397350 
# 
# 
# High freq. dielectric constant tensor:
#      x y z
#    x 1.828360 -0.002060 -0.023320 
#    y -0.002060 1.873860 0.005690 
#    z -0.023320 0.005690 1.866810 
# 
# From -- ./inp_files/274701.got.cif
#   From: 2010.06.25/outbox.cif.g09.slc.cpg/sg2_138_cif.got.tgz:274701.got - 2010.06.27 13:26:56.
