data_PCOD8008121
_publ_section_title
;
Structure prediction by ZEFSAII (Michael W. Deem and Ramdas Pophale) SiO2 
 PCOD8008121
Probable space group: P -1
;
_chemical_formula_sum "Si O2"
_cell_formula_units_Z 16
_cell_length_a 8.503120
_cell_length_b 18.462753
_cell_length_c 11.814202
_cell_angle_alpha 150.380930
_cell_angle_beta 127.029275
_cell_angle_gamma 53.011710
_cell_volume 717.309572
_symmetry_space_group_name_H-M "P -1"
_symmetry_group_IT_number 2
_symmetry_cell_setting 'triclinic'
loop_
_space_group_symop_operation_xyz
x,y,z
-x,-y,-z
loop_
_atom_site_type_symbol
_atom_site_label
_atom_site_fract_x
_atom_site_fract_y
_atom_site_fract_z
Si Si1 0.015736 0.662912 0.687560
Si Si2 0.885269 0.906958 0.404037
Si Si3 0.387391 0.396494 0.884054
Si Si4 0.673823 0.361443 0.414296
Si Si5 0.226029 0.655055 0.309722
Si Si6 0.498384 0.111837 0.902615
Si Si7 0.707740 0.166184 0.844568
Si Si8 0.391445 0.221713 0.437499
O O1 0.151928 0.651433 0.619799
O O2 0.000000 0.500000 0.500000
O O3 0.793515 0.757191 0.699448
O O4 0.103459 0.752688 0.947015
O O5 0.731319 0.830174 0.160181
O O6 0.035230 0.780722 0.365528
O O7 0.754744 0.024169 0.591241
O O8 0.000000 0.000000 0.500000
O O9 0.530720 0.291739 0.890491
O O10 0.302914 0.291272 0.614561
O O11 0.500000 0.500000 0.000000
O O12 0.214875 0.501986 0.027774
O O13 0.500000 0.500000 0.500000
O O14 0.774246 0.374861 0.597504
O O15 0.564378 0.219407 0.171653
O O16 0.435775 0.698690 0.426526
O O17 0.650231 0.103209 0.852557
O O18 0.513223 0.951421 0.746869
#
# Coordination Sequence:
#
# PCOD8008121 Si02
#       8
#     2   2   2   2   2   2   2   2
#     4  11  25  44  71  96 130 185 231 269 339 417
#     4  12  24  43  65 105 133 174 223 283 343 390
#     4  10  20  42  66  92 132 179 223 270 326 405
#     4  11  26  46  67 101 142 172 223 291 345 396
#     4  11  24  42  69 102 139 173 227 286 341 391
#     4  11  25  44  68  95 138 179 225 278 338 412
#     4  11  24  43  69  93 135 178 225 277 334 411
#     4  11  23  42  68  97 132 183 229 268 337 410
#
# _framework density 22.305572999999999
#
# number of rings (size 3 to 8) (size 9 to 14) (size 15 to 20)
#    0.000    1.000    2.500    4.875    3.500    4.500 
#    0.000    1.875    0.000    0.000    0.000    0.000 
#    0.000    0.000    0.000    0.000    0.000    0.000 
#
# Total GULP energy -198430.415412 kJ/mol
# GULP energy per Si atom -12401.900963 kJ/mol
# Density = 2.225480 g / cm^3
# Si number density = 22.305573 Si / 1000 Ang^3
#
#
#
# Elastic Constant Matrix: (Units=GPa)
#
#
# Indices 1 2 3 4 5 6 
#
# 1 52.4505 10.1590 5.9575 4.2944 -3.0054 -5.4810
# 2 10.1590 132.5693 13.1818 9.9281 -5.3339 -11.7746
# 3 5.9575 13.1818 82.2736 1.9195 -6.7289 -1.1856
# 4 4.2944 9.9281 1.9195 33.4989 -9.3934 -4.0651
# 5 -3.0054 -5.3339 -6.7289 -9.3934 35.5339 -4.8356
# 6 -5.4810 -11.7746 -1.1856 -4.0651 -4.8356 35.8937
#
#
#
# Elastic Compliance Matrix: (Units=1/GPa)
#
#
# Indices 1 2 3 4 5 6 
#
# 1 0.019862 -0.001012 -0.001097 -0.001499 0.001287 0.002668
# 2 -0.001012 0.008099 -0.001085 -0.001695 0.000801 0.002383
# 3 -0.001097 -0.001085 0.012587 0.000407 0.002269 0.000244
# 4 -0.001499 -0.001695 0.000407 0.033610 0.009162 0.004269
# 5 0.001287 0.000801 0.002269 0.009162 0.032024 0.005886
# 6 0.002668 0.002383 0.000244 0.004269 0.005886 0.030334
#
#
# Mechanical properties :
#
#
# Convention : Reuss Voigt Hill
#
# Bulk Modulus (GPa) = 29.27417 36.20999 32.74208
# Shear Modulus (GPa) = 32.40635 36.85164 34.62899
#
# Velocity S-wave (km/s) = 3.81574 4.06905 3.94443
# Velocity P-wave (km/s) = 5.70665 6.19234 5.95445
#
# Compressibility (1/GPa) = 0.03415980
#
# Stress axis : x y z
#
# Youngs Moduli (GPa) = 50.34859 123.46562 79.44423
#
# Poissons Ratio (x) = 0.12493 0.08718
# Poissons Ratio (y) = 0.05095 0.08620
# Poissons Ratio (z) = 0.05525 0.13396
#
# Static dielectric constant tensor:
#      x y z
#    x 3.853220 -0.108220 -0.040720 
#    y -0.108220 3.952130 -0.203860 
#    z -0.040720 -0.203860 4.670790 
# 
# 
# High freq. dielectric constant tensor:
#      x y z
#    x 1.875790 0.002960 0.001210 
#    y 0.002960 1.889660 0.000440 
#    z 0.001210 0.000440 1.890740 
# 
# From -- ./inp_files/272703.got.cif
#   From: 2010.06.25/outbox.cif.g09.slc.cpg/sg2_137_cif.got.tgz:272703.got - 2010.06.27 13:26:56.
