data_PCOD8008316
_publ_section_title
;
Structure prediction by ZEFSAII (Michael W. Deem and Ramdas Pophale) SiO2 
 PCOD8008316
Probable space group: P -1
;
_chemical_formula_sum "Si O2"
_cell_formula_units_Z 16
_cell_length_a 11.215010
_cell_length_b 9.434649
_cell_length_c 9.450476
_cell_angle_alpha 57.298768
_cell_angle_beta 126.944787
_cell_angle_gamma 111.069899
_cell_volume 671.606218
_symmetry_space_group_name_H-M "P -1"
_symmetry_group_IT_number 2
_symmetry_cell_setting 'triclinic'
loop_
_space_group_symop_operation_xyz
x,y,z
-x,-y,-z
loop_
_atom_site_type_symbol
_atom_site_label
_atom_site_fract_x
_atom_site_fract_y
_atom_site_fract_z
Si Si1 0.683077 0.715537 0.651758
Si Si2 0.542429 0.477253 0.206042
Si Si3 0.195187 0.729907 0.370220
Si Si4 0.074673 0.459986 0.223322
Si Si5 0.477586 0.831410 0.985877
Si Si6 0.450518 0.954625 0.331109
Si Si7 0.142176 0.841401 0.740597
Si Si8 0.081987 0.005793 0.328213
O O1 0.600671 0.616055 0.773569
O O2 0.756394 0.591202 0.659627
O O3 0.563209 0.819615 0.422924
O O4 0.811836 0.843119 0.744548
O O5 0.692594 0.376760 0.395577
O O6 0.500000 0.500000 0.000000
O O7 0.566887 0.668374 0.184303
O O8 0.086043 0.615048 0.256016
O O9 0.285560 0.865226 0.261900
O O10 0.084181 0.834915 0.331386
O O11 0.974802 0.310728 0.305598
O O12 0.000000 0.500000 0.000000
O O13 0.304326 0.770305 0.912593
O O14 0.532074 0.876241 0.840540
O O15 0.500000 0.000000 0.000000
O O16 0.500000 0.000000 0.500000
O O17 0.151062 0.977695 0.548305
O O18 0.085525 0.930617 0.798050
#
# Coordination Sequence:
#
# PCOD8008316 Si02
#       8
#     2   2   2   2   2   2   2   2
#     4  10  21  41  70  93 141 185 230 288 356 417
#     4  11  25  41  68 108 145 177 226 303 360 415
#     4  11  25  42  73 106 138 189 243 280 361 421
#     4  11  26  44  66  99 144 191 236 294 343 418
#     4  12  26  41  70 106 139 175 236 300 353 423
#     4  11  21  41  73  99 139 180 233 296 352 424
#     4  10  22  43  69  97 141 187 229 285 358 416
#     4  10  20  42  72  99 132 188 235 279 344 436
#
# _framework density 23.823483
#
# number of rings (size 3 to 8) (size 9 to 14) (size 15 to 20)
#    0.000    1.250    2.500    3.000    5.250    1.500 
#    0.000    6.250    0.000    0.000    0.000    0.000 
#    0.000    0.000    0.000    0.000    0.000    0.000 
#
# Total GULP energy -198328.963795 kJ/mol
# GULP energy per Si atom -12395.560237 kJ/mol
# Density = 2.376926 g / cm^3
# Si number density = 23.823483 Si / 1000 Ang^3
#
#
#
# Elastic Constant Matrix: (Units=GPa)
#
#
# Indices 1 2 3 4 5 6 
#
# 1 114.8863 60.0116 22.0548 -8.6589 -9.9376 0.4593
# 2 60.0116 164.9005 32.1289 -3.0453 -10.6849 -16.4392
# 3 22.0548 32.1289 66.6682 -11.4546 -12.5205 7.7888
# 4 -8.6589 -3.0453 -11.4546 39.5439 0.3816 -2.7499
# 5 -9.9376 -10.6849 -12.5205 0.3816 27.1235 -7.9941
# 6 0.4593 -16.4392 7.7888 -2.7499 -7.9941 40.6814
#
#
#
# Elastic Compliance Matrix: (Units=1/GPa)
#
#
# Indices 1 2 3 4 5 6 
#
# 1 0.011197 -0.003808 -0.001121 0.001748 0.001770 -0.000984
# 2 -0.003808 0.008623 -0.003208 -0.000807 0.001844 0.004450
# 3 -0.001121 -0.003208 0.019299 0.004799 0.006151 -0.003446
# 4 0.001748 -0.000807 0.004799 0.027048 0.002466 0.001048
# 5 0.001770 0.001844 0.006151 0.002466 0.043482 0.008259
# 6 -0.000984 0.004450 -0.003446 0.001048 0.008259 0.028744
#
#
# Mechanical properties :
#
#
# Convention : Reuss Voigt Hill
#
# Bulk Modulus (GPa) = 43.77400 63.87171 53.82286
# Shear Modulus (GPa) = 30.81034 36.95375 33.88204
#
# Velocity S-wave (km/s) = 3.60012 3.94273 3.77531
# Velocity P-wave (km/s) = 5.97456 6.89895 6.45332
#
# Compressibility (1/GPa) = 0.02284461
#
# Stress axis : x y z
#
# Youngs Moduli (GPa) = 89.30718 115.96595 51.81604
#
# Poissons Ratio (x) = 0.44156 0.05811
# Poissons Ratio (y) = 0.34005 0.16625
# Poissons Ratio (z) = 0.10015 0.37207
#
# Static dielectric constant tensor:
#      x y z
#    x 4.873540 -0.053740 -0.203840 
#    y -0.053740 4.530320 -0.590040 
#    z -0.203840 -0.590040 4.264730 
# 
# 
# High freq. dielectric constant tensor:
#      x y z
#    x 1.956090 -0.006780 -0.007430 
#    y -0.006780 1.949010 -0.030650 
#    z -0.007430 -0.030650 1.919080 
# 
# From -- ./inp_files/242712.got.cif
#   From: 2010.06.25/outbox.cif.g09.slc.cpg/sg2_122_cif.got.tgz:242712.got - 2010.06.27 13:26:56.
