data_PCOD8008882
_publ_section_title
;
Structure prediction by ZEFSAII (Michael W. Deem and Ramdas Pophale) SiO2 
 PCOD8008882
Probable space group: P -1
;
_chemical_formula_sum "Si O2"
_cell_formula_units_Z 14
_cell_length_a 10.804364
_cell_length_b 11.841322
_cell_length_c 9.180407
_cell_angle_alpha 116.165392
_cell_angle_beta 43.488486
_cell_angle_gamma 105.606360
_cell_volume 723.017138
_symmetry_space_group_name_H-M "P -1"
_symmetry_group_IT_number 2
_symmetry_cell_setting 'triclinic'
loop_
_space_group_symop_operation_xyz
x,y,z
-x,-y,-z
loop_
_atom_site_type_symbol
_atom_site_label
_atom_site_fract_x
_atom_site_fract_y
_atom_site_fract_z
Si Si1 0.562889 0.556510 0.828461
Si Si2 0.639224 0.743965 0.332834
Si Si3 0.615752 0.012867 0.555060
Si Si4 0.043293 0.881356 0.792191
Si Si5 0.248110 0.658544 0.636759
Si Si6 0.322407 0.519826 0.759250
Si Si7 0.321658 0.196603 0.002830
O O1 0.717350 0.460631 0.569535
O O2 0.382840 0.578587 0.894088
O O3 0.500000 0.500000 0.000000
O O4 0.648371 0.688933 0.849936
O O5 0.426302 0.733850 0.529896
O O6 0.751910 0.617916 0.227055
O O7 0.682332 0.755867 0.132899
O O8 0.685759 0.868551 0.455383
O O9 0.786496 0.095227 0.440295
O O10 0.483048 0.085718 0.826852
O O11 0.500000 0.000000 0.500000
O O12 0.082949 0.753705 0.779767
O O13 0.868741 0.859786 0.830178
O O14 0.000000 0.000000 0.000000
O O15 0.190786 0.611647 0.822299
O O16 0.500000 0.500000 0.500000
#
# Coordination Sequence:
#
# PCOD8008882 Si02
#       7
#     2   2   2   2   2   2   2
#     4  10  16  31  55  77 107 139 175 216 260 318
#     4   9  14  30  51  72 102 130 173 209 255 301
#     4  10  17  31  50  78 103 131 176 222 255 298
#     4  12  20  31  53  81 107 133 179 227 254 311
#     4  10  19  33  51  81 107 135 175 216 266 316
#     4   8  17  30  53  77 102 140 174 211 264 318
#     4  11  19  29  52  84 103 133 177 218 267 299
#
# _framework density 19.363303999999999
#
# number of rings (size 3 to 8) (size 9 to 14) (size 15 to 20)
#    0.000    2.286    8.571    0.000    0.000    0.571 
#    0.000    0.714    0.000   13.714    0.000   13.000 
#    0.000    0.000    0.000    0.000    0.000    0.000 
#
# Total GULP energy -173447.645305 kJ/mol
# GULP energy per Si atom -12389.117522 kJ/mol
# Density = 1.931923 g / cm^3
# Si number density = 19.363304 Si / 1000 Ang^3
#
#
#
# Elastic Constant Matrix: (Units=GPa)
#
#
# Indices 1 2 3 4 5 6 
#
# 1 68.8342 54.4920 44.3985 8.1563 -0.4907 12.3020
# 2 54.4920 135.4368 38.7655 24.3160 -0.1669 19.4964
# 3 44.3985 38.7655 60.4037 16.5356 -0.7428 3.3827
# 4 8.1563 24.3160 16.5356 39.5476 3.6629 1.8773
# 5 -0.4907 -0.1669 -0.7428 3.6629 28.5102 -1.2765
# 6 12.3020 19.4964 3.3827 1.8773 -1.2765 24.2496
#
#
#
# Elastic Compliance Matrix: (Units=1/GPa)
#
#
# Indices 1 2 3 4 5 6 
#
# 1 0.036945 -0.008152 -0.023548 0.007829 -0.001460 -0.009587
# 2 -0.008152 0.012524 -0.000167 -0.005730 0.000421 -0.005445
# 3 -0.023548 -0.000167 0.036541 -0.010910 0.002303 0.007949
# 4 0.007829 -0.005730 -0.010910 0.032185 -0.004343 -0.000563
# 5 -0.001460 0.000421 0.002303 -0.004343 0.035774 0.002300
# 6 -0.009587 -0.005445 0.007949 -0.000563 0.002300 0.049534
#
#
# Mechanical properties :
#
#
# Convention : Reuss Voigt Hill
#
# Bulk Modulus (GPa) = 44.89226 59.99853 52.44539
# Shear Modulus (GPa) = 18.20413 26.92939 22.56676
#
# Velocity S-wave (km/s) = 3.06949 3.73331 3.41756
# Velocity P-wave (km/s) = 5.98305 7.04531 6.53580
#
# Compressibility (1/GPa) = 0.02227555
#
# Stress axis : x y z
#
# Youngs Moduli (GPa) = 27.06730 79.84499 27.36656
#
# Poissons Ratio (x) = 0.65088 0.64444
# Poissons Ratio (y) = 0.22065 0.00458
# Poissons Ratio (z) = 0.63739 0.01335
#
# Static dielectric constant tensor:
#      x y z
#    x 4.165950 -0.291760 0.115580 
#    y -0.291760 4.488290 0.179090 
#    z 0.115580 0.179090 3.457600 
# 
# 
# High freq. dielectric constant tensor:
#      x y z
#    x 1.709490 0.005400 -0.011430 
#    y 0.005400 1.772970 0.011630 
#    z -0.011430 0.011630 1.727320 
# 
# From -- ./inp_files/259768.got.cif
#   From: 2010.06.25/outbox.cif.g09.slc.cpg/sg2_130_cif.got.tgz:259768.got - 2010.06.27 13:26:56.
