data_PCOD8008244
_publ_section_title
;
Structure prediction by ZEFSAII (Michael W. Deem and Ramdas Pophale) SiO2 
 PCOD8008244
Probable space group: P -1
;
_chemical_formula_sum "Si O2"
_cell_formula_units_Z 16
_cell_length_a 8.340503
_cell_length_b 9.552071
_cell_length_c 11.832617
_cell_angle_alpha 71.486180
_cell_angle_beta 56.926860
_cell_angle_gamma 65.754660
_cell_volume 714.869371
_symmetry_space_group_name_H-M "P -1"
_symmetry_group_IT_number 2
_symmetry_cell_setting 'triclinic'
loop_
_space_group_symop_operation_xyz
x,y,z
-x,-y,-z
loop_
_atom_site_type_symbol
_atom_site_label
_atom_site_fract_x
_atom_site_fract_y
_atom_site_fract_z
Si Si1 0.171170 0.341526 0.972080
Si Si2 0.119897 0.030517 0.051508
Si Si3 0.030818 0.479937 0.627474
Si Si4 0.086135 0.980808 0.314914
Si Si5 0.516687 0.934145 0.806602
Si Si6 0.634766 0.750102 0.318350
Si Si7 0.356706 0.399290 0.114155
Si Si8 0.203679 0.752528 0.515467
O O1 0.303151 0.320769 0.812445
O O2 0.054700 0.213096 0.054822
O O3 0.305415 0.331039 0.033843
O O4 0.000000 0.500000 0.000000
O O5 0.062058 0.943404 0.202918
O O6 0.359329 0.972004 0.960072
O O7 0.000000 0.000000 0.000000
O O8 0.826782 0.492948 0.770299
O O9 0.000000 0.500000 0.500000
O O10 0.188397 0.314441 0.641649
O O11 0.122277 0.609494 0.610056
O O12 0.270017 0.051287 0.242237
O O13 0.882995 0.106254 0.401210
O O14 0.126029 0.817548 0.404169
O O15 0.542612 0.754738 0.807861
O O16 0.423548 0.061214 0.711132
O O17 0.443714 0.698511 0.444308
O O18 0.500000 0.500000 0.000000
#
# Coordination Sequence:
#
# PCOD8008244 Si02
#       8
#     2   2   2   2   2   2   2   2
#     4  11  23  44  71  97 145 183 233 299 349 423
#     4  11  24  39  67 104 141 180 232 294 356 419
#     4  12  26  47  65 102 149 181 234 299 349 427
#     4  10  20  42  68  98 132 184 228 284 354 422
#     4  10  22  43  69  98 139 178 235 295 342 422
#     4  10  24  43  73 102 133 189 236 287 365 418
#     4  12  27  45  73 104 140 190 241 290 361 418
#     4  10  22  41  71  95 131 185 236 277 353 429
#
# _framework density 22.381710000000002
#
# number of rings (size 3 to 8) (size 9 to 14) (size 15 to 20)
#    0.000    1.250    3.750    0.750    7.000    2.000 
#    2.250    0.625    0.000    0.000    0.000    0.000 
#    0.000    0.000    0.000    0.000    0.000    0.000 
#
# Total GULP energy -198359.259809 kJ/mol
# GULP energy per Si atom -12397.453738 kJ/mol
# Density = 2.233077 g / cm^3
# Si number density = 22.381710 Si / 1000 Ang^3
#
#
#
# Elastic Constant Matrix: (Units=GPa)
#
#
# Indices 1 2 3 4 5 6 
#
# 1 94.2679 53.1881 61.6666 -0.4176 4.6192 -10.4260
# 2 53.1881 121.8581 19.5597 -16.2870 -8.1432 -19.6418
# 3 61.6666 19.5597 131.3135 1.0907 -3.4915 -14.7599
# 4 -0.4176 -16.2870 1.0907 33.6646 -1.9663 -7.4444
# 5 4.6192 -8.1432 -3.4915 -1.9663 45.7464 -0.2166
# 6 -10.4260 -19.6418 -14.7599 -7.4444 -0.2166 38.1015
#
#
#
# Elastic Compliance Matrix: (Units=1/GPa)
#
#
# Indices 1 2 3 4 5 6 
#
# 1 0.022081 -0.009750 -0.009419 -0.005240 -0.004927 -0.003684
# 2 -0.009750 0.014682 0.003325 0.008881 0.004271 0.007948
# 3 -0.009419 0.003325 0.012072 0.002192 0.002579 0.004256
# 4 -0.005240 0.008881 0.002192 0.036561 0.003902 0.011160
# 5 -0.004927 0.004271 0.002579 0.003902 0.023495 0.002749
# 6 -0.003684 0.007948 0.004256 0.011160 0.002749 0.033180
#
#
# Mechanical properties :
#
#
# Convention : Reuss Voigt Hill
#
# Bulk Modulus (GPa) = 58.31727 68.47428 63.39577
# Shear Modulus (GPa) = 27.85910 37.70417 32.78164
#
# Velocity S-wave (km/s) = 3.53190 4.10884 3.83124
# Velocity P-wave (km/s) = 6.53794 7.29180 6.92514
#
# Compressibility (1/GPa) = 0.01714758
#
# Stress axis : x y z
#
# Youngs Moduli (GPa) = 45.28720 68.11210 82.83505
#
# Poissons Ratio (x) = 0.66406 0.78023
# Poissons Ratio (y) = 0.44153 -0.27541
# Poissons Ratio (z) = 0.42656 -0.22646
#
# Static dielectric constant tensor:
#      x y z
#    x 3.882110 -0.181090 -0.065710 
#    y -0.181090 4.379900 -0.158530 
#    z -0.065710 -0.158530 4.409170 
# 
# 
# High freq. dielectric constant tensor:
#      x y z
#    x 1.858100 -0.018900 -0.014550 
#    y -0.018900 1.889690 -0.010520 
#    z -0.014550 -0.010520 1.892560 
# 
# From -- ./inp_files/381616.got.cif
#   From: 2010.06.25/outbox.cif.g09.slc.cpg/sg2_191_cif.got.tgz:381616.got - 2010.06.27 13:26:56.
