data_PCOD8008800
_publ_section_title
;
Structure prediction by ZEFSAII (Michael W. Deem and Ramdas Pophale) SiO2 
 PCOD8008800
Probable space group: P -1
;
_chemical_formula_sum "Si O2"
_cell_formula_units_Z 16
_cell_length_a 11.335809
_cell_length_b 9.178599
_cell_length_c 8.770181
_cell_angle_alpha 66.199379
_cell_angle_beta 62.477337
_cell_angle_gamma 69.366415
_cell_volume 724.774973
_symmetry_space_group_name_H-M "P -1"
_symmetry_group_IT_number 2
_symmetry_cell_setting 'triclinic'
loop_
_space_group_symop_operation_xyz
x,y,z
-x,-y,-z
loop_
_atom_site_type_symbol
_atom_site_label
_atom_site_fract_x
_atom_site_fract_y
_atom_site_fract_z
Si Si1 0.752502 0.588364 0.705889
Si Si2 0.503710 0.379956 0.328111
Si Si3 0.651778 0.118819 0.136980
Si Si4 0.375425 0.167323 0.095085
Si Si5 0.235376 0.895581 0.395201
Si Si6 0.821347 0.896559 0.363159
Si Si7 0.879879 0.229315 0.756520
Si Si8 0.476351 0.296691 0.692442
O O1 0.616480 0.538021 0.746708
O O2 0.713359 0.659661 0.868633
O O3 0.791075 0.732275 0.522281
O O4 0.867318 0.424128 0.704365
O O5 0.621655 0.258086 0.223264
O O6 0.434633 0.289062 0.543181
O O7 0.573335 0.520927 0.293129
O O8 0.509125 0.106278 0.147117
O O9 0.719845 0.954824 0.257486
O O10 0.756948 0.167637 0.935666
O O11 0.281422 0.036724 0.209555
O O12 0.415221 0.175839 0.889885
O O13 0.120345 0.825752 0.399085
O O14 0.360424 0.743982 0.394106
O O15 0.187934 0.962376 0.562628
O O16 0.975278 0.856326 0.224078
#
# Coordination Sequence:
#
# PCOD8008800 Si02
#       8
#     2   2   2   2   2   2   2   2
#     4  10  22  40  60  86 114 151 194 240 286 338
#     4  10  21  34  61  88 117 147 185 245 294 340
#     4  11  22  38  61  87 119 146 195 238 290 339
#     4  10  22  36  62  89 116 145 186 244 298 337
#     4  11  22  38  59  85 116 149 192 236 287 339
#     4  11  25  40  58  84 118 159 194 233 277 341
#     4  12  23  41  61  82 117 159 197 230 279 344
#     4  11  19  35  56  91 120 145 183 231 304 346
#
# _framework density 22.075818000000002
#
# number of rings (size 3 to 8) (size 9 to 14) (size 15 to 20)
#    0.000    1.250    3.750    2.250    1.750    3.500 
#    0.000    0.000    0.000    0.000    0.000   12.250 
#    0.000    0.000    0.000    0.000    0.000    0.000 
#
# Total GULP energy -198316.615624 kJ/mol
# GULP energy per Si atom -12394.788477 kJ/mol
# Density = 2.202557 g / cm^3
# Si number density = 22.075818 Si / 1000 Ang^3
#
#
#
# Elastic Constant Matrix: (Units=GPa)
#
#
# Indices 1 2 3 4 5 6 
#
# 1 28.5013 20.5342 4.9469 3.7366 -8.0455 -9.4448
# 2 20.5342 107.4077 30.1110 5.5590 4.9884 -6.2175
# 3 4.9469 30.1110 72.0601 6.7018 9.9973 -3.2343
# 4 3.7366 5.5590 6.7018 23.0900 -3.5796 5.1772
# 5 -8.0455 4.9884 9.9973 -3.5796 22.0223 2.2256
# 6 -9.4448 -6.2175 -3.2343 5.1772 2.2256 28.8488
#
#
#
# Elastic Compliance Matrix: (Units=1/GPa)
#
#
# Indices 1 2 3 4 5 6 
#
# 1 0.053591 -0.009655 -0.001125 -0.006313 0.019740 0.014948
# 2 -0.009655 0.012477 -0.003816 -0.000990 -0.004746 -0.000356
# 3 -0.001125 -0.003816 0.017404 -0.005847 -0.008648 0.002477
# 4 -0.006313 -0.000990 -0.005847 0.050706 0.010109 -0.012815
# 5 0.019740 -0.004746 -0.008648 0.010109 0.059459 -0.001931
# 6 0.014948 -0.000356 0.002477 -0.012815 -0.001931 0.042207
#
#
# Mechanical properties :
#
#
# Convention : Reuss Voigt Hill
#
# Bulk Modulus (GPa) = 18.42326 35.46148 26.94237
# Shear Modulus (GPa) = 17.65971 24.95067 21.30519
#
# Velocity S-wave (km/s) = 2.83142 3.36553 3.10996
# Velocity P-wave (km/s) = 4.36495 5.58576 5.01266
#
# Compressibility (1/GPa) = 0.05427920
#
# Stress axis : x y z
#
# Youngs Moduli (GPa) = 18.65991 80.14716 57.45816
#
# Poissons Ratio (x) = 0.77380 0.06465
# Poissons Ratio (y) = 0.18016 0.21928
# Poissons Ratio (z) = 0.02100 0.30587
#
# Static dielectric constant tensor:
#      x y z
#    x 3.679500 -0.042940 0.203420 
#    y -0.042940 4.138140 0.191270 
#    z 0.203420 0.191270 4.025910 
# 
# 
# High freq. dielectric constant tensor:
#      x y z
#    x 1.837320 0.007280 0.010920 
#    y 0.007280 1.888670 0.010930 
#    z 0.010920 0.010930 1.865070 
# 
# From -- ./inp_files/186506.got.cif
#   From: 2010.06.25/outbox.cif.g09.slc.cpg/sg2_94_cif.got.tgz:186506.got - 2010.06.27 13:26:56.
