data_PCOD8008686
_publ_section_title
;
Structure prediction by ZEFSAII (Michael W. Deem and Ramdas Pophale) SiO2 
 PCOD8008686
Probable space group: P -1
;
_chemical_formula_sum "Si O2"
_cell_formula_units_Z 14
_cell_length_a 8.488113
_cell_length_b 16.949468
_cell_length_c 8.578327
_cell_angle_alpha 43.982957
_cell_angle_beta 113.901422
_cell_angle_gamma 85.083917
_cell_volume 630.246227
_symmetry_space_group_name_H-M "P -1"
_symmetry_group_IT_number 2
_symmetry_cell_setting 'triclinic'
loop_
_space_group_symop_operation_xyz
x,y,z
-x,-y,-z
loop_
_atom_site_type_symbol
_atom_site_label
_atom_site_fract_x
_atom_site_fract_y
_atom_site_fract_z
Si Si1 0.076787 0.799867 0.885932
Si Si2 0.855061 0.082034 0.534065
Si Si3 0.681248 0.284721 0.440822
Si Si4 0.966635 0.611036 0.997698
Si Si5 0.276698 0.487822 0.784908
Si Si6 0.509352 0.711869 0.107316
Si Si7 0.659497 0.677513 0.532767
O O1 0.010586 0.886229 0.571497
O O2 0.336029 0.695755 0.145130
O O3 0.973608 0.913109 0.826084
O O4 0.979887 0.711589 0.977502
O O5 0.848064 0.136685 0.627873
O O6 0.613973 0.160615 0.250340
O O7 0.799779 0.350393 0.465842
O O8 0.568038 0.260003 0.568438
O O9 0.511439 0.389622 0.093668
O O10 0.892160 0.527153 0.176919
O O11 0.198972 0.494605 0.180157
O O12 0.797494 0.708516 0.652833
O O13 0.304572 0.436007 0.690322
O O14 0.617079 0.742194 0.248739
#
# Coordination Sequence:
#
# PCOD8008686 Si02
#       7
#     2   2   2   2   2   2   2
#     4   9  18  36  60  73 100 139 184 206 252 309
#     4   8  18  35  61  72  97 141 186 205 246 312
#     4   9  17  32  52  77 102 141 171 209 251 323
#     4  10  21  33  52  81 109 135 165 219 265 308
#     4   9  18  31  52  77 108 133 172 209 267 302
#     4   9  18  36  55  76 105 137 177 212 248 320
#     4  10  21  33  52  82 110 132 171 213 270 302
#
# _framework density 22.213542
#
# number of rings (size 3 to 8) (size 9 to 14) (size 15 to 20)
#    0.857    2.000    0.000    0.857    6.000    2.857 
#    0.000    7.857    0.000    0.000    0.000    0.000 
#    0.000    0.000    0.000    0.000    0.000    0.000 
#
# Total GULP energy -173438.040356 kJ/mol
# GULP energy per Si atom -12388.431454 kJ/mol
# Density = 2.216298 g / cm^3
# Si number density = 22.213542 Si / 1000 Ang^3
#
#
#
# Elastic Constant Matrix: (Units=GPa)
#
#
# Indices 1 2 3 4 5 6 
#
# 1 68.5260 53.8556 5.5573 -15.1534 4.7610 -11.0746
# 2 53.8556 138.0098 13.0410 -22.3853 6.5410 -33.8774
# 3 5.5573 13.0410 20.0754 -0.6580 4.8063 -4.2309
# 4 -15.1534 -22.3853 -0.6580 33.8905 -0.1195 -2.4916
# 5 4.7610 6.5410 4.8063 -0.1195 10.4110 1.5886
# 6 -11.0746 -33.8774 -4.2309 -2.4916 1.5886 34.6214
#
#
#
# Elastic Compliance Matrix: (Units=1/GPa)
#
#
# Indices 1 2 3 4 5 6 
#
# 1 0.021947 -0.007443 0.000320 0.004912 -0.005510 0.000383
# 2 -0.007443 0.015154 -0.003266 0.007543 -0.006489 0.012889
# 3 0.000320 -0.003266 0.059232 -0.000566 -0.026256 0.005309
# 4 0.004912 0.007543 -0.000566 0.037525 -0.008117 0.011956
# 5 -0.005510 -0.006489 -0.026256 -0.008117 0.117315 -0.017288
# 6 0.000383 0.012889 0.005309 0.011956 -0.017288 0.043921
#
#
# Mechanical properties :
#
#
# Convention : Reuss Voigt Hill
#
# Bulk Modulus (GPa) = 13.23539 41.27988 27.25764
# Shear Modulus (GPa) = 14.66037 26.06174 20.36106
#
# Velocity S-wave (km/s) = 2.57178 3.42897 3.03083
# Velocity P-wave (km/s) = 3.84577 5.85668 4.95432
#
# Compressibility (1/GPa) = 0.07555500
#
# Stress axis : x y z
#
# Youngs Moduli (GPa) = 45.56337 65.99024 16.88288
#
# Poissons Ratio (x) = 0.49116 -0.00541
# Poissons Ratio (y) = 0.33912 0.05514
# Poissons Ratio (z) = -0.01459 0.21554
#
# Static dielectric constant tensor:
#      x y z
#    x 3.597630 -0.184650 0.189610 
#    y -0.184650 4.186760 0.122250 
#    z 0.189610 0.122250 3.476850 
# 
# 
# High freq. dielectric constant tensor:
#      x y z
#    x 1.842420 -0.022650 0.014770 
#    y -0.022650 1.883350 0.018180 
#    z 0.014770 0.018180 1.825980 
# 
# From -- ./inp_files/199743.got.cif
#   From: 2010.06.25/outbox.cif.g09.slc.cpg/sg2_100_cif.got.tgz:199743.got - 2010.06.27 13:26:56.
