data_PCOD8008371
_publ_section_title
;
Structure prediction by ZEFSAII (Michael W. Deem and Ramdas Pophale) SiO2 
 PCOD8008371
Probable space group: P -1
;
_chemical_formula_sum "Si O2"
_cell_formula_units_Z 14
_cell_length_a 8.797502
_cell_length_b 9.407547
_cell_length_c 11.395412
_cell_angle_alpha 82.706260
_cell_angle_beta 98.172807
_cell_angle_gamma 137.989851
_cell_volume 624.458519
_symmetry_space_group_name_H-M "P -1"
_symmetry_group_IT_number 2
_symmetry_cell_setting 'triclinic'
loop_
_space_group_symop_operation_xyz
x,y,z
-x,-y,-z
loop_
_atom_site_type_symbol
_atom_site_label
_atom_site_fract_x
_atom_site_fract_y
_atom_site_fract_z
Si Si1 0.381209 0.407756 0.621379
Si Si2 0.055593 0.698080 0.445451
Si Si3 0.755697 0.070962 0.786277
Si Si4 0.073344 0.351448 0.012926
Si Si5 0.881683 0.032153 0.398389
Si Si6 0.341205 0.795996 0.922594
Si Si7 0.782513 0.763415 0.781577
O O1 0.500000 0.500000 0.500000
O O2 0.170959 0.371139 0.603034
O O3 0.527780 0.555952 0.733554
O O4 0.326900 0.200721 0.656627
O O5 0.000000 0.500000 0.500000
O O6 0.210930 0.800846 0.334498
O O7 0.189950 0.875537 0.545813
O O8 0.485509 0.885503 0.808314
O O9 0.831507 0.965083 0.767832
O O10 0.922154 0.232273 0.892525
O O11 0.172839 0.270611 0.080477
O O12 0.908896 0.303579 0.102754
O O13 0.293516 0.603720 0.987988
O O14 0.051591 0.198153 0.297551
O O15 0.000000 0.000000 0.500000
O O16 0.500000 0.000000 0.000000
#
# Coordination Sequence:
#
# PCOD8008371 Si02
#       7
#     2   2   2   2   2   2   2
#     4  11  21  43  68  92 134 177 219 271 327 397
#     4  11  24  45  69 101 136 175 224 279 336 391
#     4  11  23  44  67  99 136 170 222 285 320 398
#     4  10  24  44  67  97 135 175 216 276 334 402
#     4  10  20  43  65  91 135 171 215 271 329 390
#     4   9  22  45  65  89 138 171 221 268 336 385
#     4  12  23  41  72  97 130 176 224 266 337 395
#
# _framework density 22.419423999999999
#
# number of rings (size 3 to 8) (size 9 to 14) (size 15 to 20)
#    0.000    1.429    5.714    0.429    2.000    6.286 
#    2.571    1.429    0.000    0.000    0.000    0.000 
#    0.000    0.000    0.000    0.000    0.000    0.000 
#
# Total GULP energy -173514.334217 kJ/mol
# GULP energy per Si atom -12393.881015 kJ/mol
# Density = 2.236840 g / cm^3
# Si number density = 22.419424 Si / 1000 Ang^3
#
#
#
# Elastic Constant Matrix: (Units=GPa)
#
#
# Indices 1 2 3 4 5 6 
#
# 1 61.4975 48.0301 47.2660 -14.7075 -11.9111 -7.9950
# 2 48.0301 165.5041 59.7534 -11.7960 2.2690 -14.2072
# 3 47.2660 59.7534 100.8843 -17.6977 -12.8761 -5.0070
# 4 -14.7075 -11.7960 -17.6977 42.2756 3.4340 -7.1379
# 5 -11.9111 2.2690 -12.8761 3.4340 30.3061 -8.8168
# 6 -7.9950 -14.2072 -5.0070 -7.1379 -8.8168 43.3593
#
#
#
# Elastic Compliance Matrix: (Units=1/GPa)
#
#
# Indices 1 2 3 4 5 6 
#
# 1 0.031256 -0.004982 -0.009096 0.005896 0.009888 0.006062
# 2 -0.004982 0.008805 -0.003372 -0.000250 -0.003799 0.000763
# 3 -0.009096 -0.003372 0.017176 0.002852 0.003780 0.000439
# 4 0.005896 -0.000250 0.002852 0.027720 0.002256 0.006357
# 5 0.009888 -0.003799 0.003780 0.002256 0.041368 0.009798
# 6 0.006062 0.000763 0.000439 0.006357 0.009798 0.027521
#
#
# Mechanical properties :
#
#
# Convention : Reuss Voigt Hill
#
# Bulk Modulus (GPa) = 44.76850 70.88719 57.82784
# Shear Modulus (GPa) = 25.48540 34.71063 30.09802
#
# Velocity S-wave (km/s) = 3.37524 3.93904 3.66799
# Velocity P-wave (km/s) = 5.93309 7.23708 6.61728
#
# Compressibility (1/GPa) = 0.02233714
#
# Stress axis : x y z
#
# Youngs Moduli (GPa) = 31.99394 113.57066 58.22096
#
# Poissons Ratio (x) = 0.56575 0.52958
# Poissons Ratio (y) = 0.15938 0.19634
# Poissons Ratio (z) = 0.29102 0.38299
#
# Static dielectric constant tensor:
#      x y z
#    x 4.203050 0.086660 -0.614070 
#    y 0.086660 4.913820 -0.287790 
#    z -0.614070 -0.287790 4.478000 
# 
# 
# High freq. dielectric constant tensor:
#      x y z
#    x 1.861510 -0.004310 -0.019710 
#    y -0.004310 1.903200 -0.004770 
#    z -0.019710 -0.004770 1.875970 
# 
# From -- ./inp_files/268320.got.cif
#   From: 2010.06.25/outbox.cif.g09.slc.cpg/sg2_135_cif.got.tgz:268320.got - 2010.06.27 13:26:56.
