data_PCOD8008096
_publ_section_title
;
Structure prediction by ZEFSAII (Michael W. Deem and Ramdas Pophale) SiO2 
 PCOD8008096
Probable space group: P -1
;
_chemical_formula_sum "Si O2"
_cell_formula_units_Z 16
_cell_length_a 10.743110
_cell_length_b 9.477600
_cell_length_c 11.873139
_cell_angle_alpha 132.055619
_cell_angle_beta 71.118419
_cell_angle_gamma 127.536832
_cell_volume 704.400045
_symmetry_space_group_name_H-M "P -1"
_symmetry_group_IT_number 2
_symmetry_cell_setting 'triclinic'
loop_
_space_group_symop_operation_xyz
x,y,z
-x,-y,-z
loop_
_atom_site_type_symbol
_atom_site_label
_atom_site_fract_x
_atom_site_fract_y
_atom_site_fract_z
Si Si1 0.071197 0.704714 0.907735
Si Si2 0.362879 0.778605 0.984436
Si Si3 0.676173 0.378552 0.618368
Si Si4 0.733949 0.843014 0.625608
Si Si5 0.861242 0.279241 0.357431
Si Si6 0.266715 0.751239 0.235443
Si Si7 0.456459 0.521546 0.683211
Si Si8 0.056854 0.101153 0.215278
O O1 0.192235 0.733059 0.983196
O O2 0.137810 0.685503 0.758076
O O3 0.900864 0.481241 0.862234
O O4 0.054013 0.919951 0.034642
O O5 0.371875 0.565837 0.831754
O O6 0.384671 0.796095 0.122000
O O7 0.500000 0.000000 0.000000
O O8 0.702346 0.240382 0.438344
O O9 0.651100 0.248254 0.673120
O O10 0.519186 0.368517 0.626929
O O11 0.821649 0.643204 0.733297
O O12 0.599944 0.765971 0.720876
O O13 0.676645 0.618358 0.448113
O O14 0.896798 0.921992 0.683573
O O15 0.759675 0.043676 0.645395
O O16 0.000000 0.500000 0.500000
O O17 0.886240 0.071344 0.257691
#
# Coordination Sequence:
#
# PCOD8008096 Si02
#       8
#     2   2   2   2   2   2   2   2
#     4  12  24  42  72 102 138 175 226 285 337 396
#     4  12  25  45  70 100 133 189 224 270 345 410
#     4  10  23  43  68  97 141 174 226 281 331 404
#     4  10  22  41  69  91 138 170 228 279 324 399
#     4  10  21  39  67  97 131 179 219 264 351 401
#     4  12  24  44  68 103 141 167 228 300 327 385
#     4  10  23  44  68  95 129 193 223 262 340 415
#     4  10  20  42  65  98 132 183 215 273 338 413
#
# _framework density 22.714365999999998
#
# number of rings (size 3 to 8) (size 9 to 14) (size 15 to 20)
#    0.000    1.250    5.000    1.500    7.000    1.000 
#    2.250    1.250    0.000    0.000    0.000    0.000 
#    0.000    0.000    0.000    0.000    0.000    0.000 
#
# Total GULP energy -198381.620881 kJ/mol
# GULP energy per Si atom -12398.851305 kJ/mol
# Density = 2.266267 g / cm^3
# Si number density = 22.714366 Si / 1000 Ang^3
#
#
#
# Elastic Constant Matrix: (Units=GPa)
#
#
# Indices 1 2 3 4 5 6 
#
# 1 72.4280 28.6975 23.3478 -4.3728 -24.2166 -18.2117
# 2 28.6975 99.9999 38.4327 -16.5439 -2.5264 -25.5469
# 3 23.3478 38.4327 115.0677 -21.2196 -26.7176 -4.3098
# 4 -4.3728 -16.5439 -21.2196 34.3459 -0.8891 2.7024
# 5 -24.2166 -2.5264 -26.7176 -0.8891 44.5407 0.3724
# 6 -18.2117 -25.5469 -4.3098 2.7024 0.3724 35.0662
#
#
#
# Elastic Compliance Matrix: (Units=1/GPa)
#
#
# Indices 1 2 3 4 5 6 
#
# 1 0.021053 -0.003542 -0.000094 0.000561 0.011132 0.008181
# 2 -0.003542 0.015344 -0.004274 0.003530 -0.003621 0.008580
# 3 -0.000094 -0.004274 0.013000 0.006327 0.007648 -0.002134
# 4 0.000561 0.003530 0.006327 0.034854 0.004988 0.000902
# 5 0.011132 -0.003621 0.007648 0.004988 0.032958 0.003349
# 6 0.008181 0.008580 -0.002134 0.000902 0.003349 0.038650
#
#
# Mechanical properties :
#
#
# Convention : Reuss Voigt Hill
#
# Bulk Modulus (GPa) = 29.78296 52.05018 40.91657
# Shear Modulus (GPa) = 27.34149 35.92506 31.63327
#
# Velocity S-wave (km/s) = 3.47322 3.98125 3.73588
# Velocity P-wave (km/s) = 5.40599 6.64068 6.05489
#
# Compressibility (1/GPa) = 0.03357624
#
# Stress axis : x y z
#
# Youngs Moduli (GPa) = 47.49814 65.17337 76.92296
#
# Poissons Ratio (x) = 0.23082 0.00726
# Poissons Ratio (y) = 0.16822 0.32881
# Poissons Ratio (z) = 0.00448 0.27858
#
# Static dielectric constant tensor:
#      x y z
#    x 4.331050 -0.134880 -0.248970 
#    y -0.134880 3.797220 -0.053040 
#    z -0.248970 -0.053040 4.306560 
# 
# 
# High freq. dielectric constant tensor:
#      x y z
#    x 1.894080 -0.020650 -0.001980 
#    y -0.020650 1.866200 0.000940 
#    z -0.001980 0.000940 1.911920 
# 
# From -- ./inp_files/392440.got.cif
#   From: 2010.06.25/outbox.cif.g09.slc.cpg/sg2_197_cif.got.tgz:392440.got - 2010.06.27 13:26:56.
