data_PCOD8008532
_publ_section_title
;
Structure prediction by ZEFSAII (Michael W. Deem and Ramdas Pophale) SiO2 
 PCOD8008532
Probable space group: P -1
;
_chemical_formula_sum "Si O2"
_cell_formula_units_Z 16
_cell_length_a 9.192137
_cell_length_b 26.138304
_cell_length_c 9.344646
_cell_angle_alpha 45.777109
_cell_angle_beta 134.499521
_cell_angle_gamma 150.013511
_cell_volume 774.233328
_symmetry_space_group_name_H-M "P -1"
_symmetry_group_IT_number 2
_symmetry_cell_setting 'triclinic'
loop_
_space_group_symop_operation_xyz
x,y,z
-x,-y,-z
loop_
_atom_site_type_symbol
_atom_site_label
_atom_site_fract_x
_atom_site_fract_y
_atom_site_fract_z
Si Si1 0.955652 0.370602 0.202078
Si Si2 0.281924 0.102948 0.080610
Si Si3 0.876000 0.784404 0.297158
Si Si4 0.950109 0.241795 0.254758
Si Si5 0.378606 0.154908 0.361016
Si Si6 0.423322 0.593184 0.174490
Si Si7 0.838358 0.746801 0.921067
Si Si8 0.364064 0.896790 0.184777
O O1 0.049001 0.343680 0.187787
O O2 0.726181 0.267276 0.347078
O O3 0.250705 0.472391 0.298087
O O4 0.812007 0.403627 0.967413
O O5 0.590672 0.143536 0.166551
O O6 0.230105 0.083122 0.254887
O O7 0.329774 0.198685 0.891950
O O8 0.000000 0.000000 0.000000
O O9 0.685898 0.667509 0.331193
O O10 0.965242 0.797452 0.496861
O O11 0.180010 0.875466 0.238405
O O12 0.150251 0.278413 0.182537
O O13 0.188673 0.173747 0.247311
O O14 0.383340 0.095418 0.604114
O O15 0.557170 0.637835 0.019681
O O16 0.143579 0.801725 0.104813
O O17 0.500000 0.000000 0.000000
#
# Coordination Sequence:
#
# PCOD8008532 Si02
#       8
#     2   2   2   2   2   2   2   2
#     4   9  17  37  69  87 121 165 208 247 310 362
#     4  11  23  40  65  87 122 164 209 255 304 359
#     4  11  21  42  62  93 123 156 216 253 295 379
#     4  11  23  39  61  91 128 162 201 259 306 365
#     4  10  20  44  60  90 125 162 208 255 298 377
#     4   9  18  38  67  91 118 167 205 253 305 366
#     4  10  23  39  59  91 130 159 201 257 307 360
#     4  11  23  39  64  86 120 164 209 254 307 367
#
# _framework density 20.665604999999999
#
# number of rings (size 3 to 8) (size 9 to 14) (size 15 to 20)
#    0.000    1.750    7.500    0.000    1.750    4.000 
#    0.000    0.000    0.000    2.250    0.000    0.000 
#    0.000    0.000    0.000    0.000    0.000    0.000 
#
# Total GULP energy -198366.386746 kJ/mol
# GULP energy per Si atom -12397.899172 kJ/mol
# Density = 2.061857 g / cm^3
# Si number density = 20.665605 Si / 1000 Ang^3
#
#
#
# Elastic Constant Matrix: (Units=GPa)
#
#
# Indices 1 2 3 4 5 6 
#
# 1 106.8095 16.7361 34.9015 7.8606 -16.1222 -8.6409
# 2 16.7361 108.3735 34.8783 10.9316 -6.7992 -20.5742
# 3 34.9015 34.8783 119.9770 10.7785 -7.8196 -6.1932
# 4 7.8606 10.9316 10.7785 28.5575 0.7632 3.9500
# 5 -16.1222 -6.7992 -7.8196 0.7632 27.6903 1.7234
# 6 -8.6409 -20.5742 -6.1932 3.9500 1.7234 21.6176
#
#
#
# Elastic Compliance Matrix: (Units=1/GPa)
#
#
# Indices 1 2 3 4 5 6 
#
# 1 0.011646 0.000634 -0.002652 -0.003246 0.005990 0.004615
# 2 0.000634 0.013205 -0.002662 -0.006081 0.002219 0.012993
# 3 -0.002652 -0.002662 0.010090 -0.002025 0.000732 -0.000391
# 4 -0.003246 -0.006081 -0.002025 0.041169 -0.004165 -0.014856
# 5 0.005990 0.002219 0.000732 -0.004165 0.040327 0.002262
# 6 0.004615 0.012993 -0.000391 -0.014856 0.002262 0.062891
#
#
# Mechanical properties :
#
#
# Convention : Reuss Voigt Hill
#
# Bulk Modulus (GPa) = 39.09008 56.46576 47.77792
# Shear Modulus (GPa) = 25.35316 32.14936 28.75126
#
# Velocity S-wave (km/s) = 3.50641 3.94851 3.73401
# Velocity P-wave (km/s) = 5.94557 6.94050 6.46221
#
# Compressibility (1/GPa) = 0.02558194
#
# Stress axis : x y z
#
# Youngs Moduli (GPa) = 85.86665 75.72653 99.11200
#
# Poissons Ratio (x) = -0.04803 0.26285
# Poissons Ratio (y) = -0.05446 0.26381
# Poissons Ratio (z) = 0.22772 0.20156
#
# Static dielectric constant tensor:
#      x y z
#    x 3.638960 -0.025660 0.163840 
#    y -0.025660 3.800240 0.122490 
#    z 0.163840 0.122490 3.743180 
# 
# 
# High freq. dielectric constant tensor:
#      x y z
#    x 1.792730 -0.002410 0.014590 
#    y -0.002410 1.802400 0.014000 
#    z 0.014590 0.014000 1.809050 
# 
# From -- ./inp_files/227418.got.cif
#   From: 2010.06.25/outbox.cif.g09.slc.cpg/sg2_114_cif.got.tgz:227418.got - 2010.06.27 13:26:56.
