data_PCOD8008378
_publ_section_title
;
Structure prediction by ZEFSAII (Michael W. Deem and Ramdas Pophale) SiO2 
 PCOD8008378
Probable space group: P -1
;
_chemical_formula_sum "Si O2"
_cell_formula_units_Z 16
_cell_length_a 14.272761
_cell_length_b 8.640775
_cell_length_c 20.231022
_cell_angle_alpha 62.983709
_cell_angle_beta 157.821696
_cell_angle_gamma 105.508425
_cell_volume 746.884403
_symmetry_space_group_name_H-M "P -1"
_symmetry_group_IT_number 2
_symmetry_cell_setting 'triclinic'
loop_
_space_group_symop_operation_xyz
x,y,z
-x,-y,-z
loop_
_atom_site_type_symbol
_atom_site_label
_atom_site_fract_x
_atom_site_fract_y
_atom_site_fract_z
Si Si1 0.813824 0.809236 0.569570
Si Si2 0.756983 0.547323 0.281569
Si Si3 0.177860 0.838270 0.910689
Si Si4 0.225447 0.484608 0.306038
Si Si5 0.888412 0.699185 0.849587
Si Si6 0.178813 0.802737 0.690435
Si Si7 0.359310 0.135312 0.945010
Si Si8 0.193541 0.106148 0.109553
O O1 0.845620 0.602661 0.657967
O O2 0.009230 0.754225 0.644499
O O3 0.501261 0.961418 0.311851
O O4 0.926300 0.904043 0.680948
O O5 0.462295 0.678830 0.096701
O O6 0.726137 0.362971 0.270698
O O7 0.839989 0.652952 0.256112
O O8 0.000000 0.500000 0.500000
O O9 0.123515 0.745386 0.959688
O O10 0.201811 0.037278 0.903956
O O11 0.500000 0.500000 0.500000
O O12 0.303502 0.321522 0.329977
O O13 0.961796 0.689934 0.072587
O O14 0.742962 0.864597 0.777824
O O15 0.000000 0.500000 0.000000
O O16 0.434384 0.826327 0.881421
O O17 0.000000 0.000000 0.500000
O O18 0.500000 0.000000 0.000000
O O19 0.000000 0.000000 0.000000
#
# Coordination Sequence:
#
# PCOD8008378 Si02
#       8
#     2   2   2   2   2   2   2   2
#     4  11  24  43  68  98 138 175 226 276 336 402
#     4  11  24  43  69  97 133 178 225 277 340 397
#     4  10  22  44  70  94 136 175 220 277 341 393
#     4  10  21  45  68  93 134 171 218 284 332 395
#     4   9  22  43  68  96 132 171 220 275 331 401
#     4  12  25  42  69  96 136 178 227 277 338 402
#     4  10  20  43  65  95 134 166 219 282 326 406
#     4  11  23  43  70  98 133 176 225 274 336 398
#
# _framework density 21.422325000000001
#
# number of rings (size 3 to 8) (size 9 to 14) (size 15 to 20)
#    0.000    1.500    3.750    1.875    0.000    7.000 
#    2.250    0.000    0.000    0.000    0.000    0.000 
#    0.000    0.000    0.000    0.000    0.000    0.000 
#
# Total GULP energy -198244.797572 kJ/mol
# GULP energy per Si atom -12390.299848 kJ/mol
# Density = 2.137357 g / cm^3
# Si number density = 21.422325 Si / 1000 Ang^3
#
#
#
# Elastic Constant Matrix: (Units=GPa)
#
#
# Indices 1 2 3 4 5 6 
#
# 1 77.9478 42.5274 27.2209 5.6992 -16.8339 31.9106
# 2 42.5274 157.3250 58.5706 16.6890 -15.5301 21.4504
# 3 27.2209 58.5706 141.9150 11.0402 -17.8077 14.6798
# 4 5.6992 16.6890 11.0402 45.1435 4.6227 -7.7121
# 5 -16.8339 -15.5301 -17.8077 4.6227 30.9371 0.7743
# 6 31.9106 21.4504 14.6798 -7.7121 0.7743 44.5874
#
#
#
# Elastic Compliance Matrix: (Units=1/GPa)
#
#
# Indices 1 2 3 4 5 6 
#
# 1 0.025064 -0.002244 0.000358 -0.007030 0.014230 -0.018439
# 2 -0.002244 0.008722 -0.002408 -0.002987 0.002276 -0.002353
# 3 0.000358 -0.002408 0.008979 -0.002248 0.004554 -0.002522
# 4 -0.007030 -0.002987 -0.002248 0.027919 -0.011096 0.012230
# 5 0.014230 0.002276 0.004554 -0.011096 0.045876 -0.015495
# 6 -0.018439 -0.002353 -0.002522 0.012230 -0.015495 0.039972
#
#
# Mechanical properties :
#
#
# Convention : Reuss Voigt Hill
#
# Bulk Modulus (GPa) = 29.25877 70.42507 49.84192
# Shear Modulus (GPa) = 28.32686 40.72487 34.52587
#
# Velocity S-wave (km/s) = 3.64030 4.36483 4.01892
# Velocity P-wave (km/s) = 5.59971 7.63861 6.69720
#
# Compressibility (1/GPa) = 0.03417779
#
# Stress axis : x y z
#
# Youngs Moduli (GPa) = 39.89744 114.65609 111.37606
#
# Poissons Ratio (x) = 0.25731 -0.03992
# Poissons Ratio (y) = 0.08954 0.26816
# Poissons Ratio (z) = -0.01430 0.27605
#
# Static dielectric constant tensor:
#      x y z
#    x 4.083160 0.334350 -0.320440 
#    y 0.334350 4.460980 0.133250 
#    z -0.320440 0.133250 3.799650 
# 
# 
# High freq. dielectric constant tensor:
#      x y z
#    x 1.833140 0.013230 -0.021800 
#    y 0.013230 1.865050 0.006290 
#    z -0.021800 0.006290 1.833710 
# 
# From -- ./inp_files/347632.got.cif
#   From: 2010.06.25/outbox.cif.g09.slc.cpg/sg2_174_cif.got.tgz:347632.got - 2010.06.27 13:26:56.
