data_PCOD8008557
_publ_section_title
;
Structure prediction by ZEFSAII (Michael W. Deem and Ramdas Pophale) SiO2 
 PCOD8008557
Probable space group: P -1
;
_chemical_formula_sum "Si O2"
_cell_formula_units_Z 16
_cell_length_a 9.702253
_cell_length_b 14.301463
_cell_length_c 14.393784
_cell_angle_alpha 137.285748
_cell_angle_beta 92.436414
_cell_angle_gamma 53.712274
_cell_volume 760.621670
_symmetry_space_group_name_H-M "P -1"
_symmetry_group_IT_number 2
_symmetry_cell_setting 'triclinic'
loop_
_space_group_symop_operation_xyz
x,y,z
-x,-y,-z
loop_
_atom_site_type_symbol
_atom_site_label
_atom_site_fract_x
_atom_site_fract_y
_atom_site_fract_z
Si Si1 0.688563 0.367981 0.023170
Si Si2 0.604851 0.671586 0.507885
Si Si3 0.779335 0.846359 0.265015
Si Si4 0.092113 0.359615 0.232781
Si Si5 0.137453 0.469780 0.847210
Si Si6 0.129455 0.790554 0.280280
Si Si7 0.512951 0.198391 0.191676
Si Si8 0.737240 0.259703 0.148181
O O1 0.698211 0.527108 0.146806
O O2 0.413419 0.538829 0.129402
O O3 0.781299 0.220289 0.010766
O O4 0.866993 0.167031 0.798047
O O5 0.468348 0.792859 0.690942
O O6 0.638657 0.487159 0.344405
O O7 0.872302 0.519709 0.416873
O O8 0.455358 0.869517 0.564624
O O9 0.701547 0.786932 0.289420
O O10 0.983657 0.767985 0.267533
O O11 0.890941 0.690897 0.061265
O O12 0.250190 0.358362 0.269257
O O13 0.958723 0.494989 0.230176
O O14 0.262148 0.084768 0.035905
O O15 0.000000 0.000000 0.500000
O O16 0.535763 0.319725 0.223301
O O17 0.000000 0.000000 0.000000
#
# Coordination Sequence:
#
# PCOD8008557 Si02
#       8
#     2   2   2   2   2   2   2   2
#     4  10  22  43  66  91 134 170 217 265 328 395
#     4  12  23  45  68  99 130 174 229 274 324 406
#     4  10  23  39  71  93 127 169 220 263 340 387
#     4  11  23  44  69  94 138 167 224 277 331 390
#     4  10  20  44  66  93 128 175 209 271 329 396
#     4  10  22  42  64  95 128 167 211 277 325 385
#     4  11  25  44  68  98 134 178 219 279 329 385
#     4  12  24  44  69  96 134 181 221 270 336 393
#
# _framework density 21.035423999999999
#
# number of rings (size 3 to 8) (size 9 to 14) (size 15 to 20)
#    0.000    1.250    3.750    1.500    3.500    0.500 
#    2.250    0.000    0.000    0.000    0.000    0.000 
#    0.000    0.000    0.000    0.000    0.000    0.000 
#
# Total GULP energy -198365.037607 kJ/mol
# GULP energy per Si atom -12397.814850 kJ/mol
# Density = 2.098755 g / cm^3
# Si number density = 21.035424 Si / 1000 Ang^3
#
#
#
# Elastic Constant Matrix: (Units=GPa)
#
#
# Indices 1 2 3 4 5 6 
#
# 1 137.1726 69.5407 39.8982 12.1520 -3.6450 11.9998
# 2 69.5407 131.5232 36.1063 -3.4885 9.1520 9.2496
# 3 39.8982 36.1063 85.0926 2.9010 2.7356 4.3482
# 4 12.1520 -3.4885 2.9010 34.8470 0.3866 1.7411
# 5 -3.6450 9.1520 2.7356 0.3866 28.1067 1.5949
# 6 11.9998 9.2496 4.3482 1.7411 1.5949 32.3909
#
#
#
# Elastic Compliance Matrix: (Units=1/GPa)
#
#
# Indices 1 2 3 4 5 6 
#
# 1 0.011657 -0.005568 -0.002962 -0.004304 0.003802 -0.002287
# 2 -0.005568 0.011617 -0.002249 0.003386 -0.004280 -0.000924
# 3 -0.002962 -0.002249 0.014144 -0.000354 -0.001018 -0.000090
# 4 -0.004304 0.003386 -0.000354 0.030632 -0.001998 -0.000873
# 5 0.003802 -0.004280 -0.001018 -0.001998 0.037694 -0.001798
# 6 -0.002287 -0.000924 -0.000090 -0.000873 -0.001798 0.032131
#
#
# Mechanical properties :
#
#
# Convention : Reuss Voigt Hill
#
# Bulk Modulus (GPa) = 63.05009 71.65321 67.35165
# Shear Modulus (GPa) = 30.35446 32.95179 31.65313
#
# Velocity S-wave (km/s) = 3.80283 3.96219 3.88332
# Velocity P-wave (km/s) = 7.02284 7.42085 7.22459
#
# Compressibility (1/GPa) = 0.01586040
#
# Stress axis : x y z
#
# Youngs Moduli (GPa) = 85.78825 86.07801 70.69966
#
# Poissons Ratio (x) = 0.47929 0.20938
# Poissons Ratio (y) = 0.47768 0.15902
# Poissons Ratio (z) = 0.25407 0.19362
#
# Static dielectric constant tensor:
#      x y z
#    x 4.134510 0.144920 -0.203900 
#    y 0.144920 4.221160 -0.348790 
#    z -0.203900 -0.348790 4.062580 
# 
# 
# High freq. dielectric constant tensor:
#      x y z
#    x 1.830940 -0.001840 -0.012370 
#    y -0.001840 1.827980 -0.011850 
#    z -0.012370 -0.011850 1.824240 
# 
# From -- ./inp_files/455287.got.cif
#   From: 2010.06.25/outbox.cif.g09.slc.cpg/sg2_228_cif.got.tgz:455287.got - 2010.06.27 13:26:56.
