data_PCOD8008974
_publ_section_title
;
Structure prediction by ZEFSAII (Michael W. Deem and Ramdas Pophale) SiO2 
 PCOD8008974
Probable space group: P -1
;
_chemical_formula_sum "Si O2"
_cell_formula_units_Z 16
_cell_length_a 24.634759
_cell_length_b 18.447181
_cell_length_c 14.970280
_cell_angle_alpha 150.473958
_cell_angle_beta 19.974165
_cell_angle_gamma 160.073718
_cell_volume 786.715876
_symmetry_space_group_name_H-M "P -1"
_symmetry_group_IT_number 2
_symmetry_cell_setting 'triclinic'
loop_
_space_group_symop_operation_xyz
x,y,z
-x,-y,-z
loop_
_atom_site_type_symbol
_atom_site_label
_atom_site_fract_x
_atom_site_fract_y
_atom_site_fract_z
Si Si1 0.998080 0.038227 0.896262
Si Si2 0.685634 0.708599 0.878328
Si Si3 0.031210 0.381116 0.141770
Si Si4 0.681384 0.896086 0.395627
Si Si5 0.096344 0.676117 0.912626
Si Si6 0.760403 0.295467 0.696435
Si Si7 0.803258 0.542837 0.382901
Si Si8 0.471130 0.845225 0.266309
O O1 0.220087 0.107726 0.669740
O O2 0.910001 0.890278 0.786976
O O3 0.072233 0.250330 0.980804
O O4 0.796981 0.904516 0.137932
O O5 0.753346 0.663104 0.636929
O O6 0.500000 0.500000 0.000000
O O7 0.573935 0.785638 0.102945
O O8 0.070669 0.406807 0.002260
O O9 0.771795 0.263692 0.435650
O O10 0.232057 0.622096 0.130123
O O11 0.412607 0.676370 0.569180
O O12 0.727653 0.100076 0.547611
O O13 0.101339 0.505864 0.742659
O O14 0.354785 0.900700 0.729225
O O15 0.997699 0.700880 0.176160
O O16 0.562710 0.226667 0.862251
O O17 0.000000 0.500000 0.500000
#
# Coordination Sequence:
#
# PCOD8008974 Si02
#       8
#     2   2   2   2   2   2   2   2
#     4  11  23  37  62  93 127 157 201 257 315 361
#     4  12  25  37  64  97 121 160 203 260 315 364
#     4  11  22  39  64  95 121 162 212 253 303 370
#     4  11  22  40  59  91 133 156 199 259 313 364
#     4  11  23  44  65  86 123 172 207 257 303 370
#     4  10  21  35  61  91 121 157 201 252 307 359
#     4  11  25  43  63  89 128 165 207 252 318 364
#     4  11  22  39  66  91 126 157 210 262 302 359
#
# _framework density 20.337712
#
# number of rings (size 3 to 8) (size 9 to 14) (size 15 to 20)
#    0.000    1.000    6.250    1.125    7.000    0.500 
#    0.000    2.500    0.000    0.000    0.000    0.000 
#    0.000    0.000    0.000    0.000    0.000    0.000 
#
# Total GULP energy -198395.869684 kJ/mol
# GULP energy per Si atom -12399.741855 kJ/mol
# Density = 2.029142 g / cm^3
# Si number density = 20.337712 Si / 1000 Ang^3
#
#
#
# Elastic Constant Matrix: (Units=GPa)
#
#
# Indices 1 2 3 4 5 6 
#
# 1 152.1596 40.8477 26.1707 10.8755 -18.8881 8.2734
# 2 40.8477 86.3654 20.0695 17.8987 -1.3022 15.1942
# 3 26.1707 20.0695 45.4193 11.4251 -1.5490 -6.3744
# 4 10.8755 17.8987 11.4251 19.7981 4.8244 0.4444
# 5 -18.8881 -1.3022 -1.5490 4.8244 29.9529 3.6995
# 6 8.2734 15.1942 -6.3744 0.4444 3.6995 38.0926
#
#
#
# Elastic Compliance Matrix: (Units=1/GPa)
#
#
# Indices 1 2 3 4 5 6 
#
# 1 0.008834 -0.002497 -0.003603 -0.001892 0.005837 -0.002070
# 2 -0.002497 0.017599 -0.004159 -0.012433 0.001869 -0.007210
# 3 -0.003603 -0.004159 0.029946 -0.011724 0.000048 0.007585
# 4 -0.001892 -0.012433 -0.011724 0.073022 -0.014592 0.003974
# 5 0.005837 0.001869 0.000048 -0.014592 0.040209 -0.005740
# 6 -0.002070 -0.007210 0.007585 0.003974 -0.005740 0.031358
#
#
# Mechanical properties :
#
#
# Convention : Reuss Voigt Hill
#
# Bulk Modulus (GPa) = 27.88366 50.90224 39.39295
# Shear Modulus (GPa) = 21.41889 30.69246 26.05568
#
# Velocity S-wave (km/s) = 3.24877 3.88898 3.58320
# Velocity P-wave (km/s) = 5.27378 6.72669 6.04405
#
# Compressibility (1/GPa) = 0.03586330
#
# Stress axis : x y z
#
# Youngs Moduli (GPa) = 113.19563 56.82072 33.39368
#
# Poissons Ratio (x) = 0.14186 0.12030
# Poissons Ratio (y) = 0.28261 0.13888
# Poissons Ratio (z) = 0.40780 0.23630
#
# Static dielectric constant tensor:
#      x y z
#    x 4.265700 0.537320 -0.090680 
#    y 0.537320 3.883410 0.088440 
#    z -0.090680 0.088440 3.440280 
# 
# 
# High freq. dielectric constant tensor:
#      x y z
#    x 1.818980 0.009090 -0.012320 
#    y 0.009090 1.795370 0.012140 
#    z -0.012320 0.012140 1.759540 
# 
# From -- ./inp_files/245125.got.cif
#   From: 2010.06.25/outbox.cif.g09.slc.cpg/sg2_123_cif.got.tgz:245125.got - 2010.06.27 13:26:56.
