data_PCOD8008847
_publ_section_title
;
Structure prediction by ZEFSAII (Michael W. Deem and Ramdas Pophale) SiO2 
 PCOD8008847
Probable space group: P -1
;
_chemical_formula_sum "Si O2"
_cell_formula_units_Z 16
_cell_length_a 9.542845
_cell_length_b 26.015557
_cell_length_c 9.082579
_cell_angle_alpha 133.721620
_cell_angle_beta 30.750356
_cell_angle_gamma 133.734369
_cell_volume 803.788111
_symmetry_space_group_name_H-M "P -1"
_symmetry_group_IT_number 2
_symmetry_cell_setting 'triclinic'
loop_
_space_group_symop_operation_xyz
x,y,z
-x,-y,-z
loop_
_atom_site_type_symbol
_atom_site_label
_atom_site_fract_x
_atom_site_fract_y
_atom_site_fract_z
Si Si1 0.454548 0.869360 0.588859
Si Si2 0.981254 0.282362 0.858872
Si Si3 0.153971 0.069613 0.093047
Si Si4 0.390035 0.584263 0.223548
Si Si5 0.056975 0.966174 0.229281
Si Si6 0.070247 0.437068 0.168898
Si Si7 0.474857 0.740762 0.528404
Si Si8 0.732393 0.163819 0.626108
O O1 0.746499 0.921519 0.362166
O O2 0.541722 0.811543 0.503573
O O3 0.271895 0.829525 0.534395
O O4 0.270605 0.913626 0.936037
O O5 0.825516 0.244084 0.776528
O O6 0.269156 0.259528 0.591071
O O7 0.792944 0.259276 0.128923
O O8 0.039417 0.370551 0.947777
O O9 0.956959 0.123045 0.399666
O O10 0.436019 0.116241 0.857422
O O11 0.212076 0.036729 0.131593
O O12 0.000000 0.000000 0.000000
O O13 0.206532 0.521280 0.151220
O O14 0.406381 0.669260 0.338839
O O15 0.232610 0.568061 0.493210
O O16 0.707826 0.575548 0.931459
O O17 0.000000 0.000000 0.500000
#
# Coordination Sequence:
#
# PCOD8008847 Si02
#       8
#     2   2   2   2   2   2   2   2
#     4  12  24  42  56  82 114 144 177 225 282 333
#     4  10  21  35  55  85 108 144 183 226 265 317
#     4  12  23  43  61  78 104 143 188 224 268 336
#     4   8  14  27  48  75 105 143 170 217 265 307
#     4  12  27  41  60  83 105 139 183 235 277 320
#     4   8  14  27  48  75 108 134 179 218 257 307
#     4  10  21  35  55  82 114 141 182 224 272 319
#     4  12  24  39  61  80 110 147 181 224 276 328
#
# _framework density 19.905745
#
# number of rings (size 3 to 8) (size 9 to 14) (size 15 to 20)
#    0.000    1.500    2.500    3.000    5.250    0.000 
#    0.000    0.000    0.000    0.750    0.000    0.000 
#    0.000   24.000    0.000    0.000    0.000    3.500 
#
# Total GULP energy -198253.879290 kJ/mol
# GULP energy per Si atom -12390.867456 kJ/mol
# Density = 1.986044 g / cm^3
# Si number density = 19.905745 Si / 1000 Ang^3
#
#
#
# Elastic Constant Matrix: (Units=GPa)
#
#
# Indices 1 2 3 4 5 6 
#
# 1 59.8040 35.9019 14.1836 12.5096 8.5904 12.1076
# 2 35.9019 85.4960 29.6538 15.4346 6.7224 30.6865
# 3 14.1836 29.6538 99.7360 6.2011 -10.0899 5.2644
# 4 12.5096 15.4346 6.2011 33.6799 6.2391 2.8351
# 5 8.5904 6.7224 -10.0899 6.2391 27.9951 2.1298
# 6 12.1076 30.6865 5.2644 2.8351 2.1298 31.3663
#
#
#
# Elastic Compliance Matrix: (Units=1/GPa)
#
#
# Indices 1 2 3 4 5 6 
#
# 1 0.023520 -0.008466 -0.001073 -0.003786 -0.004731 0.000047
# 2 -0.008466 0.025464 -0.005243 -0.005371 -0.002681 -0.020096
# 3 -0.001073 -0.005243 0.012222 -0.000814 0.005934 0.003164
# 4 -0.003786 -0.005371 -0.000814 0.034441 -0.005832 0.004136
# 5 -0.004731 -0.002681 0.005934 -0.005832 0.041165 0.001185
# 6 0.000047 -0.020096 0.003164 0.004136 0.001185 0.050539
#
#
# Mechanical properties :
#
#
# Convention : Reuss Voigt Hill
#
# Bulk Modulus (GPa) = 31.60494 44.94605 38.27549
# Shear Modulus (GPa) = 21.98165 29.62805 25.80485
#
# Velocity S-wave (km/s) = 3.32669 3.86219 3.60439
# Velocity P-wave (km/s) = 5.53783 6.52051 6.04916
#
# Compressibility (1/GPa) = 0.03164062
#
# Stress axis : x y z
#
# Youngs Moduli (GPa) = 42.51674 39.27183 81.81877
#
# Poissons Ratio (x) = 0.33246 0.08783
# Poissons Ratio (y) = 0.35993 0.42901
# Poissons Ratio (z) = 0.04564 0.20592
#
# Static dielectric constant tensor:
#      x y z
#    x 3.208400 0.499750 -0.123990 
#    y 0.499750 4.042060 0.113300 
#    z -0.123990 0.113300 3.851520 
# 
# 
# High freq. dielectric constant tensor:
#      x y z
#    x 1.725110 0.034250 -0.015970 
#    y 0.034250 1.785800 0.009420 
#    z -0.015970 0.009420 1.799910 
# 
# From -- ./inp_files/42261.got.cif
#   From: 2010.06.25/outbox.cif.g09.slc.cpg/sg2_22_cif.got.tgz:42261.got - 2010.06.27 13:26:56.
