data_PCOD8008460
_publ_section_title
;
Structure prediction by ZEFSAII (Michael W. Deem and Ramdas Pophale) SiO2 
 PCOD8008460
Probable space group: P -1
;
_chemical_formula_sum "Si O2"
_cell_formula_units_Z 14
_cell_length_a 11.586423
_cell_length_b 11.299606
_cell_length_c 17.463255
_cell_angle_alpha 131.270124
_cell_angle_beta 153.713517
_cell_angle_gamma 66.780399
_cell_volume 613.178626
_symmetry_space_group_name_H-M "P -1"
_symmetry_group_IT_number 2
_symmetry_cell_setting 'triclinic'
loop_
_space_group_symop_operation_xyz
x,y,z
-x,-y,-z
loop_
_atom_site_type_symbol
_atom_site_label
_atom_site_fract_x
_atom_site_fract_y
_atom_site_fract_z
Si Si1 0.226454 0.578918 0.027640
Si Si2 0.758947 0.756771 0.164150
Si Si3 0.552801 0.888902 0.232288
Si Si4 0.780241 0.703088 0.527818
Si Si5 0.674029 0.899413 0.909838
Si Si6 0.658238 0.226324 0.196083
Si Si7 0.378173 0.453905 0.322159
O O1 0.309692 0.754266 0.096941
O O2 0.480483 0.655024 0.279638
O O3 0.197544 0.415181 0.886445
O O4 0.883693 0.501560 0.828264
O O5 0.558347 0.748069 0.114061
O O6 0.570295 0.731273 0.963947
O O7 0.101819 0.966800 0.460378
O O8 0.434238 0.008269 0.175543
O O9 0.667227 0.586028 0.490292
O O10 0.978997 0.644551 0.569554
O O11 0.018195 0.932770 0.786351
O O12 0.362851 0.745748 0.713688
O O13 0.777612 0.774832 0.878303
O O14 0.500000 0.000000 0.000000
O O15 0.500000 0.500000 0.500000
#
# Coordination Sequence:
#
# PCOD8008460 Si02
#       7
#     2   2   2   2   2   2   2
#     4  12  27  43  66 100 138 178 225 270 332 404
#     4  11  23  41  68 100 139 170 221 279 333 395
#     4  11  23  42  67 104 135 176 220 274 344 387
#     4  11  25  46  70 100 133 178 224 277 339 392
#     4  11  24  45  73  99 136 175 222 281 332 398
#     4  10  20  43  69 103 131 168 224 274 336 394
#     4  12  28  47  67  99 135 181 231 269 329 402
#
# _framework density 22.831845999999999
#
# number of rings (size 3 to 8) (size 9 to 14) (size 15 to 20)
#    0.000    0.857    2.857    5.143    2.000    6.286 
#    0.000    0.000    0.000    0.000    0.000    0.000 
#    0.000    0.000    0.000    0.000    0.000    0.000 
#
# Total GULP energy -173601.907783 kJ/mol
# GULP energy per Si atom -12400.136270 kJ/mol
# Density = 2.277988 g / cm^3
# Si number density = 22.831846 Si / 1000 Ang^3
#
#
#
# Elastic Constant Matrix: (Units=GPa)
#
#
# Indices 1 2 3 4 5 6 
#
# 1 107.7944 71.6543 36.9855 6.3936 2.3029 13.1149
# 2 71.6543 119.5451 42.3365 -12.7635 -2.3796 -7.4113
# 3 36.9855 42.3365 81.8631 -11.1664 -1.6451 -1.3741
# 4 6.3936 -12.7635 -11.1664 32.8903 -1.9746 -0.7961
# 5 2.3029 -2.3796 -1.6451 -1.9746 36.0332 4.8513
# 6 13.1149 -7.4113 -1.3741 -0.7961 4.8513 47.6201
#
#
#
# Elastic Compliance Matrix: (Units=1/GPa)
#
#
# Indices 1 2 3 4 5 6 
#
# 1 0.020781 -0.012511 -0.004553 -0.010743 -0.001902 -0.007788
# 2 -0.012511 0.018055 -0.002338 0.008887 0.001540 0.006180
# 3 -0.004553 -0.002338 0.016288 0.005601 0.001005 0.001351
# 4 -0.010743 0.008887 0.005601 0.038138 0.002968 0.004839
# 5 -0.001902 0.001540 0.001005 0.002968 0.028461 -0.002057
# 6 -0.007788 0.006180 0.001351 0.004839 -0.002057 0.024436
#
#
# Mechanical properties :
#
#
# Convention : Reuss Voigt Hill
#
# Bulk Modulus (GPa) = 61.27330 67.90615 64.58972
# Shear Modulus (GPa) = 26.26014 33.85714 30.05864
#
# Velocity S-wave (km/s) = 3.39507 3.85501 3.63233
# Velocity P-wave (km/s) = 6.50105 7.04423 6.77809
#
# Compressibility (1/GPa) = 0.01632032
#
# Stress axis : x y z
#
# Youngs Moduli (GPa) = 48.12078 55.38707 61.39364
#
# Poissons Ratio (x) = 0.69297 0.27951
# Poissons Ratio (y) = 0.60205 0.14353
# Poissons Ratio (z) = 0.21908 0.12948
#
# Static dielectric constant tensor:
#      x y z
#    x 3.818220 -0.119620 -0.074390 
#    y -0.119620 4.029850 0.050380 
#    z -0.074390 0.050380 4.085830 
# 
# 
# High freq. dielectric constant tensor:
#      x y z
#    x 1.908900 0.000340 -0.003130 
#    y 0.000340 1.906580 0.003160 
#    z -0.003130 0.003160 1.902300 
# 
# From -- ./inp_files/568842.got.cif
#   From: 2010.06.25/outbox.cif.g09.slc.cpg/sg2_285_cif.got.tgz:568842.got - 2010.06.27 13:26:56.
