data_PCOD8008817
_publ_section_title
;
Structure prediction by ZEFSAII (Michael W. Deem and Ramdas Pophale) SiO2 
 PCOD8008817
Probable space group: P -1
;
_chemical_formula_sum "Si O2"
_cell_formula_units_Z 14
_cell_length_a 12.328519
_cell_length_b 22.254077
_cell_length_c 5.104140
_cell_angle_alpha 66.376015
_cell_angle_beta 104.790540
_cell_angle_gamma 143.205614
_cell_volume 762.940848
_symmetry_space_group_name_H-M "P -1"
_symmetry_group_IT_number 2
_symmetry_cell_setting 'triclinic'
loop_
_space_group_symop_operation_xyz
x,y,z
-x,-y,-z
loop_
_atom_site_type_symbol
_atom_site_label
_atom_site_fract_x
_atom_site_fract_y
_atom_site_fract_z
Si Si1 0.911910 0.389551 0.594805
Si Si2 0.891852 0.153560 0.526762
Si Si3 0.555632 0.196125 0.469318
Si Si4 0.657767 0.021722 0.113457
Si Si5 0.905486 0.876721 0.413358
Si Si6 0.899834 0.306195 0.249193
Si Si7 0.762246 0.874066 0.832539
O O1 0.692961 0.297103 0.577291
O O2 0.999060 0.394803 0.382692
O O3 0.000000 0.500000 0.500000
O O4 0.955368 0.361819 0.909875
O O5 0.735445 0.074615 0.352673
O O6 0.965880 0.261859 0.385517
O O7 0.063143 0.185860 0.508454
O O8 0.814550 0.097981 0.859770
O O9 0.679347 0.208295 0.328885
O O10 0.442094 0.195914 0.229511
O O11 0.420038 0.088019 0.742922
O O12 0.500000 0.000000 0.000000
O O13 0.821435 0.848176 0.697620
O O14 0.765770 0.841497 0.174994
O O15 0.103109 0.001843 0.300162
#
# Coordination Sequence:
#
# PCOD8008817 Si02
#       7
#     2   2   2   2   2   2   2
#     4  10  22  39  57  83 110 134 175 231 287 326
#     4  12  22  36  51  80 115 151 177 215 261 320
#     4  10  23  33  57  80 110 142 183 222 267 324
#     4  12  22  31  50  80 117 146 177 209 266 326
#     4  10  22  34  50  70 111 154 185 215 249 298
#     4  10  22  36  57  84 107 140 178 219 279 334
#     4  10  21  35  48  75 105 150 192 214 249 308
#
# _framework density 18.350047
#
# number of rings (size 3 to 8) (size 9 to 14) (size 15 to 20)
#    0.857    0.571    2.857    3.429    8.000    0.000 
#    0.000    0.000    0.000    0.000    0.000    6.000 
#    0.000    0.000    0.000    0.000    0.000    0.000 
#
# Total GULP energy -173590.268365 kJ/mol
# GULP energy per Si atom -12399.304883 kJ/mol
# Density = 1.830828 g / cm^3
# Si number density = 18.350047 Si / 1000 Ang^3
#
#
#
# Elastic Constant Matrix: (Units=GPa)
#
#
# Indices 1 2 3 4 5 6 
#
# 1 90.0635 25.7307 18.5907 2.0950 22.1581 -19.7074
# 2 25.7307 96.7564 38.9038 2.8523 15.2457 -26.5051
# 3 18.5907 38.9038 85.3964 12.5795 8.4428 -7.9848
# 4 2.0950 2.8523 12.5795 24.1716 -6.7290 0.9925
# 5 22.1581 15.2457 8.4428 -6.7290 29.9042 1.0409
# 6 -19.7074 -26.5051 -7.9848 0.9925 1.0409 20.9850
#
#
#
# Elastic Compliance Matrix: (Units=1/GPa)
#
#
# Indices 1 2 3 4 5 6 
#
# 1 0.021738 0.006823 -0.001440 -0.009391 -0.022338 0.030036
# 2 0.006823 0.023720 -0.006232 -0.006633 -0.018107 0.035207
# 3 -0.001440 -0.006232 0.015965 -0.007879 -0.001943 -0.002680
# 4 -0.009391 -0.006633 -0.007879 0.055250 0.025836 -0.024091
# 5 -0.022338 -0.018107 -0.001943 0.025836 0.067295 -0.049146
# 6 0.030036 0.035207 -0.002680 -0.024091 -0.049146 0.122886
#
#
# Mechanical properties :
#
#
# Convention : Reuss Voigt Hill
#
# Bulk Modulus (GPa) = 16.74382 48.74076 32.74229
# Shear Modulus (GPa) = 15.22254 27.61155 21.41704
#
# Velocity S-wave (km/s) = 2.88334 3.88327 3.42005
# Velocity P-wave (km/s) = 4.49770 6.83562 5.78598
#
# Compressibility (1/GPa) = 0.05972353
#
# Stress axis : x y z
#
# Youngs Moduli (GPa) = 46.00272 42.15905 62.63783
#
# Poissons Ratio (x) = -0.28764 0.09021
# Poissons Ratio (y) = -0.31387 0.39036
# Poissons Ratio (z) = 0.06625 0.26273
#
# Static dielectric constant tensor:
#      x y z
#    x 3.277130 -0.195200 0.047650 
#    y -0.195200 3.115600 0.251980 
#    z 0.047650 0.251980 3.547140 
# 
# 
# High freq. dielectric constant tensor:
#      x y z
#    x 1.704010 -0.022430 0.006890 
#    y -0.022430 1.670640 0.029140 
#    z 0.006890 0.029140 1.720900 
# 
# From -- ./inp_files/82475.got.cif
#   From: 2010.06.25/outbox.cif.g09.slc.cpg/sg2_42_cif.got.tgz:82475.got - 2010.06.27 13:26:56.
