data_PCOD8008091
_publ_section_title
;
Structure prediction by ZEFSAII (Michael W. Deem and Ramdas Pophale) SiO2 
 PCOD8008091
Probable space group: P -1
;
_chemical_formula_sum "Si O2"
_cell_formula_units_Z 16
_cell_length_a 9.153952
_cell_length_b 7.802364
_cell_length_c 15.503540
_cell_angle_alpha 102.755362
_cell_angle_beta 66.347984
_cell_angle_gamma 130.076888
_cell_volume 775.001500
_symmetry_space_group_name_H-M "P -1"
_symmetry_group_IT_number 2
_symmetry_cell_setting 'triclinic'
loop_
_space_group_symop_operation_xyz
x,y,z
-x,-y,-z
loop_
_atom_site_type_symbol
_atom_site_label
_atom_site_fract_x
_atom_site_fract_y
_atom_site_fract_z
Si Si1 0.670645 0.683241 0.756399
Si Si2 0.235357 0.441943 0.664071
Si Si3 0.495924 0.935097 0.591006
Si Si4 0.080777 0.794605 0.980880
Si Si5 0.372917 0.222766 0.710116
Si Si6 0.267136 0.596878 0.863415
Si Si7 0.963611 0.923451 0.866672
Si Si8 0.878217 0.041328 0.598215
O O1 0.584410 0.431664 0.725743
O O2 0.489885 0.675430 0.838729
O O3 0.848808 0.780930 0.793106
O O4 0.749531 0.829827 0.668018
O O5 0.375147 0.668937 0.599868
O O6 0.339163 0.319788 0.642088
O O7 0.196826 0.509181 0.772387
O O8 0.026716 0.269359 0.642754
O O9 0.500000 0.000000 0.500000
O O10 0.383052 0.020358 0.674399
O O11 0.724969 0.064288 0.585551
O O12 0.273699 0.809067 0.907903
O O13 0.979134 0.775832 0.912290
O O14 0.901969 0.581704 0.051109
O O15 0.158870 0.008268 0.045485
O O16 0.187371 0.144280 0.809534
O O17 0.000000 0.000000 0.500000
#
# Coordination Sequence:
#
# PCOD8008091 Si02
#       8
#     2   2   2   2   2   2   2   2
#     4  11  23  43  69  94 136 180 220 267 346 394
#     4  11  23  48  70  91 143 176 217 276 339 395
#     4  12  28  43  70 103 128 176 229 279 335 402
#     4  10  21  38  66  95 136 165 231 276 317 402
#     4  11  23  45  69  95 136 178 222 272 339 398
#     4  10  20  42  65  95 128 185 214 271 340 385
#     4  11  22  40  64 100 131 178 217 280 330 386
#     4  12  26  45  72 100 132 180 223 275 336 402
#
# _framework density 20.645123000000002
#
# number of rings (size 3 to 8) (size 9 to 14) (size 15 to 20)
#    0.000    1.000    6.250    1.500    1.750    4.500 
#    0.000    0.000    0.000    0.000    0.000    0.000 
#    0.000    0.000    0.000    0.000    0.000    0.000 
#
# Total GULP energy -198301.666461 kJ/mol
# GULP energy per Si atom -12393.854154 kJ/mol
# Density = 2.059813 g / cm^3
# Si number density = 20.645123 Si / 1000 Ang^3
#
#
#
# Elastic Constant Matrix: (Units=GPa)
#
#
# Indices 1 2 3 4 5 6 
#
# 1 52.7563 2.6954 22.2487 10.8628 5.6075 19.3543
# 2 2.6954 58.8327 10.9915 5.2796 7.2890 29.6798
# 3 22.2487 10.9915 79.6446 -9.1422 11.9432 5.1070
# 4 10.8628 5.2796 -9.1422 24.1949 -1.5115 -3.9682
# 5 5.6075 7.2890 11.9432 -1.5115 45.8039 10.0884
# 6 19.3543 29.6798 5.1070 -3.9682 10.0884 21.2167
#
#
#
# Elastic Compliance Matrix: (Units=1/GPa)
#
#
# Indices 1 2 3 4 5 6 
#
# 1 -0.009723 -0.033928 0.007417 0.024397 -0.008443 0.063124
# 2 -0.033928 -0.017830 0.013157 0.033927 -0.009305 0.063495
# 3 0.007417 0.013157 0.009597 -0.007317 0.000680 -0.029173
# 4 0.024397 0.033927 -0.007317 0.009200 0.009398 -0.070703
# 5 -0.008443 -0.009305 0.000680 0.009398 0.021854 0.011921
# 6 0.063124 0.063495 -0.029173 -0.070703 0.011921 -0.111142
#
#
# Mechanical properties :
#
#
# Convention : Reuss Voigt Hill
#
# Bulk Modulus (GPa) = -22.38928 29.23387 3.42230
# Shear Modulus (GPa) = -57.98836 28.59628 -14.69604
#
# Velocity S-wave (km/s) = -5.30558 3.72578 -2.67093
# Velocity P-wave (km/s) = 6.95705 5.71835 2.80188
#
# Compressibility (1/GPa) = -0.04466423
#
# Stress axis : x y z
#
# Youngs Moduli (GPa) = -102.84522 -56.08611 104.20178
#
# Poissons Ratio (x) = -1.90290 -0.77291
# Poissons Ratio (y) = -3.48935 -1.37096
# Poissons Ratio (z) = 0.76285 0.73791
#
# Static dielectric constant tensor:
#      x y z
#    x 4.845060 -0.127910 0.105320 
#    y -0.127910 3.829250 0.043570 
#    z 0.105320 0.043570 4.069610 
# 
# 
# High freq. dielectric constant tensor:
#      x y z
#    x 1.804550 -0.012060 0.001480 
#    y -0.012060 1.805780 -0.003190 
#    z 0.001480 -0.003190 1.819300 
# 
# From -- ./inp_files/495191.got.cif
#   From: 2010.06.25/outbox.cif.g09.slc.cpg/sg2_248_cif.got.tgz:495191.got - 2010.06.27 13:26:56.
