data_PCOD8008945
_publ_section_title
;
Structure prediction by ZEFSAII (Michael W. Deem and Ramdas Pophale) SiO2 
 PCOD8008945
Probable space group: P -1
;
_chemical_formula_sum "Si O2"
_cell_formula_units_Z 16
_cell_length_a 8.974281
_cell_length_b 14.492748
_cell_length_c 9.492916
_cell_angle_alpha 91.749872
_cell_angle_beta 121.026093
_cell_angle_gamma 121.411944
_cell_volume 823.957636
_symmetry_space_group_name_H-M "P -1"
_symmetry_group_IT_number 2
_symmetry_cell_setting 'triclinic'
loop_
_space_group_symop_operation_xyz
x,y,z
-x,-y,-z
loop_
_atom_site_type_symbol
_atom_site_label
_atom_site_fract_x
_atom_site_fract_y
_atom_site_fract_z
Si Si1 0.437549 0.959621 0.125772
Si Si2 0.022880 0.295614 0.742209
Si Si3 0.828358 0.521115 0.959551
Si Si4 0.479605 0.898932 0.572020
Si Si5 0.813524 0.847235 0.667130
Si Si6 0.808100 0.945722 0.291246
Si Si7 0.949885 0.751883 0.948049
Si Si8 0.327959 0.286143 0.699463
O O1 0.620979 0.948151 0.269773
O O2 0.454514 0.057775 0.232223
O O3 0.197562 0.832696 0.009586
O O4 0.500000 0.000000 0.000000
O O5 0.175154 0.317713 0.685790
O O6 0.770224 0.222971 0.563665
O O7 0.110663 0.423545 0.849847
O O8 0.037596 0.225523 0.875435
O O9 0.582153 0.400094 0.827632
O O10 0.847526 0.615271 0.866508
O O11 0.000000 0.500000 0.000000
O O12 0.643440 0.875145 0.593372
O O13 0.500000 0.000000 0.500000
O O14 0.752065 0.764071 0.499172
O O15 0.802193 0.780436 0.798854
O O16 0.069953 0.971448 0.784459
O O17 0.699549 0.808977 0.210070
O O18 0.000000 0.000000 0.500000
#
# Coordination Sequence:
#
# PCOD8008945 Si02
#       8
#     2   2   2   2   2   2   2   2
#     4  12  23  39  59  89 130 161 197 254 310 368
#     4  10  23  39  64  90 119 163 214 248 302 371
#     4  10  21  41  67  89 121 159 215 255 299 367
#     4  12  21  39  62  89 125 164 205 247 307 370
#     4  11  23  39  62  93 130 159 202 259 313 364
#     4  10  21  35  60  90 119 160 205 241 305 366
#     4  10  24  40  60  94 126 158 207 253 320 349
#     4  11  21  39  66  89 120 167 211 249 302 367
#
# _framework density 19.418475000000001
#
# number of rings (size 3 to 8) (size 9 to 14) (size 15 to 20)
#    0.750    0.500    2.500    5.625    0.000    2.000 
#    0.000    0.000    0.000    1.500    0.000    0.000 
#    0.000    0.000    0.000    0.000    0.000    0.000 
#
# Total GULP energy -198321.320117 kJ/mol
# GULP energy per Si atom -12395.082507 kJ/mol
# Density = 1.937428 g / cm^3
# Si number density = 19.418475 Si / 1000 Ang^3
#
#
#
# Elastic Constant Matrix: (Units=GPa)
#
#
# Indices 1 2 3 4 5 6 
#
# 1 150.7427 42.1054 45.8474 10.4599 5.7690 -3.5178
# 2 42.1054 120.1013 48.5230 16.0978 10.5005 7.2501
# 3 45.8474 48.5230 81.3966 10.3869 -6.5826 3.3967
# 4 10.4599 16.0978 10.3869 37.1832 3.4765 8.7418
# 5 5.7690 10.5005 -6.5826 3.4765 39.9168 4.0970
# 6 -3.5178 7.2501 3.3967 8.7418 4.0970 35.2138
#
#
#
# Elastic Compliance Matrix: (Units=1/GPa)
#
#
# Indices 1 2 3 4 5 6 
#
# 1 0.008385 -0.001086 -0.004165 -0.001014 -0.001721 0.001915
# 2 -0.001086 0.012069 -0.006528 -0.002532 -0.003782 -0.000895
# 3 -0.004165 -0.006528 0.019248 -0.001637 0.005758 -0.001192
# 4 -0.001014 -0.002532 -0.001637 0.030468 -0.001411 -0.006822
# 5 -0.001721 -0.003782 0.005758 -0.001411 0.027657 -0.002816
# 6 0.001915 -0.000895 -0.001192 -0.006822 -0.002816 0.030910
#
#
# Mechanical properties :
#
#
# Convention : Reuss Voigt Hill
#
# Bulk Modulus (GPa) = 61.94876 69.46579 65.70727
# Shear Modulus (GPa) = 31.71065 36.84709 34.27887
#
# Velocity S-wave (km/s) = 4.04544 4.36079 4.20607
# Velocity P-wave (km/s) = 7.33430 7.82343 7.58281
#
# Compressibility (1/GPa) = 0.01614237
#
# Stress axis : x y z
#
# Youngs Moduli (GPa) = 119.26190 82.85991 51.95460
#
# Poissons Ratio (x) = 0.08998 0.21640
# Poissons Ratio (y) = 0.12951 0.33917
# Poissons Ratio (z) = 0.49675 0.54093
#
# Static dielectric constant tensor:
#      x y z
#    x 3.954190 0.016340 0.019330 
#    y 0.016340 3.925980 -0.037610 
#    z 0.019330 -0.037610 3.589920 
# 
# 
# High freq. dielectric constant tensor:
#      x y z
#    x 1.768060 0.004600 0.005080 
#    y 0.004600 1.745550 0.010450 
#    z 0.005080 0.010450 1.747470 
# 
# From -- ./inp_files/207443.got.cif
#   From: 2010.06.25/outbox.cif.g09.slc.cpg/sg2_104_cif.got.tgz:207443.got - 2010.06.27 13:26:56.
