data_PCOD8008912
_publ_section_title
;
Structure prediction by ZEFSAII (Michael W. Deem and Ramdas Pophale) SiO2 
 PCOD8008912
Probable space group: P -1
;
_chemical_formula_sum "Si O2"
_cell_formula_units_Z 12
_cell_length_a 12.614149
_cell_length_b 11.602559
_cell_length_c 14.681887
_cell_angle_alpha 152.634976
_cell_angle_beta 40.431404
_cell_angle_gamma 145.585965
_cell_volume 554.846041
_symmetry_space_group_name_H-M "P -1"
_symmetry_group_IT_number 2
_symmetry_cell_setting 'triclinic'
loop_
_space_group_symop_operation_xyz
x,y,z
-x,-y,-z
loop_
_atom_site_type_symbol
_atom_site_label
_atom_site_fract_x
_atom_site_fract_y
_atom_site_fract_z
Si Si1 0.711254 0.138048 0.996210
Si Si2 0.796914 0.914123 0.955435
Si Si3 0.335491 0.127703 0.785940
Si Si4 0.251313 0.676902 0.388321
Si Si5 0.832830 0.513364 0.880354
Si Si6 0.971098 0.235304 0.735556
O O1 0.680671 0.966602 0.989796
O O2 0.821025 0.487623 0.186500
O O3 0.849675 0.090320 0.804116
O O4 0.500000 0.000000 0.000000
O O5 0.013457 0.153749 0.971881
O O6 0.733519 0.958530 0.126955
O O7 0.781977 0.606311 0.734736
O O8 0.533986 0.143523 0.659879
O O9 0.199200 0.867664 0.622745
O O10 0.351712 0.441282 0.970021
O O11 0.132438 0.602111 0.319430
O O12 0.838535 0.320080 0.822388
O O13 0.000000 0.000000 0.500000
#
# Coordination Sequence:
#
# PCOD8008912 Si02
#       6
#     2   2   2   2   2   2
#     4  10  24  42  67  92 125 170 211 262 312 367
#     4  10  21  37  58  86 120 153 199 248 299 364
#     4  10  21  36  57  90 119 154 196 243 305 361
#     4  10  21  35  58  90 117 153 197 245 299 368
#     4  10  21  37  62  82 120 158 191 251 305 359
#     4  10  24  45  64  95 127 165 215 260 310 374
#
# _framework density 21.627621999999999
#
# number of rings (size 3 to 8) (size 9 to 14) (size 15 to 20)
#    0.000    2.000    0.000    4.000    4.667   10.000 
#    3.000    0.000    0.000    0.000    0.000    0.000 
#    0.000    0.000    0.000    0.000    0.000    0.000 
#
# Total GULP energy -148720.737033 kJ/mol
# GULP energy per Si atom -12393.394753 kJ/mol
# Density = 2.157840 g / cm^3
# Si number density = 21.627622 Si / 1000 Ang^3
#
#
#
# Elastic Constant Matrix: (Units=GPa)
#
#
# Indices 1 2 3 4 5 6 
#
# 1 117.0201 16.4492 40.5806 -2.0523 13.5826 -7.9488
# 2 16.4492 45.0790 24.8630 1.8321 -0.8043 -3.9207
# 3 40.5806 24.8630 148.3347 5.0969 26.1142 -15.6613
# 4 -2.0523 1.8321 5.0969 24.6285 6.6757 3.8470
# 5 13.5826 -0.8043 26.1142 6.6757 28.0037 -0.5591
# 6 -7.9488 -3.9207 -15.6613 3.8470 -0.5591 31.9884
#
#
#
# Elastic Compliance Matrix: (Units=1/GPa)
#
#
# Indices 1 2 3 4 5 6 
#
# 1 0.010066 -0.002913 -0.001515 0.002311 -0.004083 0.001053
# 2 -0.002913 0.026162 -0.004692 -0.003320 0.007345 0.000713
# 3 -0.001515 -0.004692 0.009830 -0.000098 -0.008469 0.003725
# 4 0.002311 -0.003320 -0.000098 0.045180 -0.012006 -0.005524
# 5 -0.004083 0.007345 -0.008469 -0.012006 0.048621 -0.001967
# 6 0.001053 0.000713 0.003725 -0.005524 -0.001967 0.034064
#
#
# Mechanical properties :
#
#
# Convention : Reuss Voigt Hill
#
# Bulk Modulus (GPa) = 35.94692 52.69104 44.31898
# Shear Modulus (GPa) = 24.82170 32.16019 28.49094
#
# Velocity S-wave (km/s) = 3.39143 3.86034 3.63346
# Velocity P-wave (km/s) = 5.65620 6.65473 6.17568
#
# Compressibility (1/GPa) = 0.02781880
#
# Stress axis : x y z
#
# Youngs Moduli (GPa) = 99.34037 38.22340 101.72909
#
# Poissons Ratio (x) = 0.11134 0.15412
# Poissons Ratio (y) = 0.28935 0.47731
# Poissons Ratio (z) = 0.15050 0.17934
#
# Static dielectric constant tensor:
#      x y z
#    x 4.438710 0.079650 0.261720 
#    y 0.079650 3.850750 0.144730 
#    z 0.261720 0.144730 4.007930 
# 
# 
# High freq. dielectric constant tensor:
#      x y z
#    x 1.855410 0.007360 0.021920 
#    y 0.007360 1.847640 0.001570 
#    z 0.021920 0.001570 1.845560 
# 
# From -- ./inp_files/333169.got.cif
#   From: 2010.06.25/outbox.cif.g09.slc.cpg/sg2_167_cif.got.tgz:333169.got - 2010.06.27 13:26:56.
