data_PCOD8008599
_publ_section_title
;
Structure prediction by ZEFSAII (Michael W. Deem and Ramdas Pophale) SiO2 
 PCOD8008599
Probable space group: P -1
;
_chemical_formula_sum "Si O2"
_cell_formula_units_Z 12
_cell_length_a 9.164545
_cell_length_b 11.561953
_cell_length_c 9.158556
_cell_angle_alpha 84.660411
_cell_angle_beta 130.350192
_cell_angle_gamma 122.649482
_cell_volume 570.906031
_symmetry_space_group_name_H-M "P -1"
_symmetry_group_IT_number 2
_symmetry_cell_setting 'triclinic'
loop_
_space_group_symop_operation_xyz
x,y,z
-x,-y,-z
loop_
_atom_site_type_symbol
_atom_site_label
_atom_site_fract_x
_atom_site_fract_y
_atom_site_fract_z
Si Si1 0.113185 0.564918 0.722832
Si Si2 0.558105 0.887462 0.061525
Si Si3 0.500391 0.193114 0.631092
Si Si4 0.996109 0.037707 0.826685
Si Si5 0.029247 0.307010 0.874997
Si Si6 0.183449 0.484126 0.208759
O O1 0.144250 0.450204 0.828943
O O2 0.000000 0.500000 0.500000
O O3 0.924316 0.574207 0.691933
O O4 0.369750 0.733946 0.865277
O O5 0.561999 0.856958 0.236736
O O6 0.826841 0.972649 0.156255
O O7 0.500000 0.000000 0.000000
O O8 0.550294 0.351535 0.630997
O O9 0.736964 0.211903 0.724887
O O10 0.279569 0.076587 0.396693
O O11 0.081045 0.203816 0.847269
O O12 0.000000 0.000000 0.000000
O O13 0.177620 0.365140 0.121328
O O14 0.000000 0.500000 0.000000
#
# Coordination Sequence:
#
# PCOD8008599 Si02
#       6
#     2   2   2   2   2   2
#     4  10  21  38  68 100 118 164 219 256 317 375
#     4  12  25  43  65  90 133 172 210 262 318 381
#     4  10  20  45  65  89 126 172 208 254 324 377
#     4  12  28  39  61 101 130 165 218 260 315 378
#     4  10  20  44  70  89 128 166 206 269 317 373
#     4   8  16  38  67  85 119 164 203 252 313 373
#
# _framework density 21.019221000000002
#
# number of rings (size 3 to 8) (size 9 to 14) (size 15 to 20)
#    0.000    2.000    5.000    2.000    7.000    0.667 
#    0.000    0.833    0.000    0.000    0.000    0.000 
#    0.000    0.000    0.000    0.000    0.000    0.000 
#
# Total GULP energy -148733.686965 kJ/mol
# GULP energy per Si atom -12394.473914 kJ/mol
# Density = 2.097138 g / cm^3
# Si number density = 21.019221 Si / 1000 Ang^3
#
#
#
# Elastic Constant Matrix: (Units=GPa)
#
#
# Indices 1 2 3 4 5 6 
#
# 1 92.6618 33.1104 22.0798 -4.0203 -3.8224 -5.7782
# 2 33.1104 94.5874 39.9525 23.3240 4.6895 -6.5422
# 3 22.0798 39.9525 98.5337 9.2291 -33.8902 -11.1858
# 4 -4.0203 23.3240 9.2291 25.6273 -1.2982 -14.1479
# 5 -3.8224 4.6895 -33.8902 -1.2982 27.9379 -2.9417
# 6 -5.7782 -6.5422 -11.1858 -14.1479 -2.9417 35.8412
#
#
#
# Elastic Compliance Matrix: (Units=1/GPa)
#
#
# Indices 1 2 3 4 5 6 
#
# 1 0.015646 -0.011575 0.004617 0.017199 0.011492 0.009583
# 2 -0.011575 0.035627 -0.025267 -0.039644 -0.042412 -0.022379
# 3 0.004617 -0.025267 0.038556 0.025112 0.055191 0.022608
# 4 0.017199 -0.039644 0.025112 0.096275 0.048721 0.045376
# 5 0.011492 -0.042412 0.055191 0.048721 0.117936 0.040247
# 6 0.009583 -0.022379 0.022608 0.045376 0.040247 0.053631
#
#
# Mechanical properties :
#
#
# Convention : Reuss Voigt Hill
#
# Bulk Modulus (GPa) = 39.40133 52.89648 46.14891
# Shear Modulus (GPa) = 11.61224 30.59064 21.10144
#
# Velocity S-wave (km/s) = 2.35299 3.81906 3.17189
# Velocity P-wave (km/s) = 5.11548 6.68337 5.95128
#
# Compressibility (1/GPa) = 0.02537985
#
# Stress axis : x y z
#
# Youngs Moduli (GPa) = 63.91569 28.06863 25.93631
#
# Poissons Ratio (x) = 0.32489 -0.11975
# Poissons Ratio (y) = 0.73982 0.65532
# Poissons Ratio (z) = -0.29510 0.70920
#
# Static dielectric constant tensor:
#      x y z
#    x 4.168410 -0.030730 -0.344870 
#    y -0.030730 4.071050 0.388200 
#    z -0.344870 0.388200 3.935120 
# 
# 
# High freq. dielectric constant tensor:
#      x y z
#    x 1.816390 0.007120 -0.024860 
#    y 0.007120 1.827730 0.022530 
#    z -0.024860 0.022530 1.819760 
# 
# From -- ./inp_files/179646.got.cif
#   From: 2010.06.25/outbox.cif.g09.slc.cpg/sg2_90_cif.got.tgz:179646.got - 2010.06.27 13:26:56.
