data_PCOD8008079
_publ_section_title
;
Structure prediction by ZEFSAII (Michael W. Deem and Ramdas Pophale) SiO2 
 PCOD8008079
Probable space group: P -1
;
_chemical_formula_sum "Si O2"
_cell_formula_units_Z 16
_cell_length_a 15.367503
_cell_length_b 9.616072
_cell_length_c 12.251067
_cell_angle_alpha 70.136520
_cell_angle_beta 111.919434
_cell_angle_gamma 152.448726
_cell_volume 776.688397
_symmetry_space_group_name_H-M "P -1"
_symmetry_group_IT_number 2
_symmetry_cell_setting 'triclinic'
loop_
_space_group_symop_operation_xyz
x,y,z
-x,-y,-z
loop_
_atom_site_type_symbol
_atom_site_label
_atom_site_fract_x
_atom_site_fract_y
_atom_site_fract_z
Si Si1 0.048213 0.133116 0.603851
Si Si2 0.797897 0.919688 0.163110
Si Si3 0.302546 0.655109 0.032360
Si Si4 0.855788 0.422871 0.805648
Si Si5 0.630442 0.556099 0.597442
Si Si6 0.323176 0.676290 0.453942
Si Si7 0.611209 0.549133 0.834351
Si Si8 0.104275 0.861691 0.083973
O O1 0.142070 0.146075 0.727700
O O2 0.192596 0.464335 0.556159
O O3 0.000000 0.000000 0.500000
O O4 0.847621 0.913308 0.616591
O O5 0.574213 0.638059 0.145372
O O6 0.920159 0.226660 0.183413
O O7 0.842554 0.967298 0.042916
O O8 0.253696 0.628628 0.141931
O O9 0.323703 0.510487 0.060591
O O10 0.125619 0.458964 0.923114
O O11 0.500000 0.000000 0.000000
O O12 0.779004 0.352123 0.668650
O O13 0.824602 0.208962 0.876410
O O14 0.500000 0.500000 0.500000
O O15 0.615613 0.388116 0.563475
O O16 0.554256 0.427019 0.717640
O O17 0.500000 0.000000 0.500000
O O18 0.783994 0.906075 0.826335
#
# Coordination Sequence:
#
# PCOD8008079 Si02
#       8
#     2   2   2   2   2   2   2   2
#     4  10  20  42  65  91 121 171 211 258 314 383
#     4  11  21  41  68  90 128 174 217 251 318 393
#     4  11  22  43  63  91 132 167 210 264 325 370
#     4  11  22  43  64  90 129 170 217 253 316 395
#     4  11  23  42  66  95 126 164 211 265 328 369
#     4  11  24  44  67  94 124 169 219 261 314 385
#     4  12  23  40  64  99 128 162 211 275 318 370
#     4  11  25  40  63  99 129 172 214 258 317 389
#
# _framework density 20.600282
#
# number of rings (size 3 to 8) (size 9 to 14) (size 15 to 20)
#    0.000    1.000    3.750    6.000    3.500    0.000 
#    2.250    0.625    0.000    0.000    0.000    0.000 
#    0.000    0.000    0.000    0.000    0.000    0.000 
#
# Total GULP energy -198365.669719 kJ/mol
# GULP energy per Si atom -12397.854357 kJ/mol
# Density = 2.055339 g / cm^3
# Si number density = 20.600282 Si / 1000 Ang^3
#
#
#
# Elastic Constant Matrix: (Units=GPa)
#
#
# Indices 1 2 3 4 5 6 
#
# 1 92.5948 51.5621 34.9277 8.2416 24.0467 16.5317
# 2 51.5621 156.0625 31.9178 0.5261 3.1534 0.8973
# 3 34.9277 31.9178 95.6856 -4.2307 18.5478 -3.8987
# 4 8.2416 0.5261 -4.2307 29.7567 0.3970 -4.7106
# 5 24.0467 3.1534 18.5478 0.3970 34.0775 0.0520
# 6 16.5317 0.8973 -3.8987 -4.7106 0.0520 28.3699
#
#
#
# Elastic Compliance Matrix: (Units=1/GPa)
#
#
# Indices 1 2 3 4 5 6 
#
# 1 0.023020 -0.006232 -0.004860 -0.009221 -0.012891 -0.015393
# 2 -0.006232 0.008597 -0.001184 0.001904 0.004218 0.003505
# 3 -0.004860 -0.001184 0.013814 0.004253 -0.004037 0.005482
# 4 -0.009221 0.001904 0.004253 0.038632 0.003547 0.012306
# 5 -0.012891 0.004218 -0.004037 0.003547 0.040196 0.007339
# 6 -0.015393 0.003505 0.005482 0.012306 0.007339 0.046891
#
#
# Mechanical properties :
#
#
# Convention : Reuss Voigt Hill
#
# Bulk Modulus (GPa) = 47.89373 64.57310 56.23342
# Shear Modulus (GPa) = 24.67195 33.50319 29.08757
#
# Velocity S-wave (km/s) = 3.46446 4.03717 3.76173
# Velocity P-wave (km/s) = 6.26920 7.29009 6.79884
#
# Compressibility (1/GPa) = 0.02087956
#
# Stress axis : x y z
#
# Youngs Moduli (GPa) = 43.44073 116.32200 72.39117
#
# Poissons Ratio (x) = 0.72487 0.35184
# Poissons Ratio (y) = 0.27070 0.08569
# Poissons Ratio (z) = 0.21113 0.13769
#
# Static dielectric constant tensor:
#      x y z
#    x 3.522750 0.127670 0.195380 
#    y 0.127670 3.956980 0.074720 
#    z 0.195380 0.074720 3.341990 
# 
# 
# High freq. dielectric constant tensor:
#      x y z
#    x 1.795390 0.010960 0.011980 
#    y 0.010960 1.812310 0.000780 
#    z 0.011980 0.000780 1.811070 
# 
# From -- ./inp_files/186096.got.cif
#   From: 2010.06.25/outbox.cif.g09.slc.cpg/sg2_94_cif.got.tgz:186096.got - 2010.06.27 13:26:56.
