data_PCOD8008977
_publ_section_title
;
Structure prediction by ZEFSAII (Michael W. Deem and Ramdas Pophale) SiO2 
 PCOD8008977
Probable space group: P -1
;
_chemical_formula_sum "Si O2"
_cell_formula_units_Z 14
_cell_length_a 20.889605
_cell_length_b 10.951643
_cell_length_c 6.999788
_cell_angle_alpha 113.723948
_cell_angle_beta 45.649510
_cell_angle_gamma 140.777994
_cell_volume 688.906613
_symmetry_space_group_name_H-M "P -1"
_symmetry_group_IT_number 2
_symmetry_cell_setting 'triclinic'
loop_
_space_group_symop_operation_xyz
x,y,z
-x,-y,-z
loop_
_atom_site_type_symbol
_atom_site_label
_atom_site_fract_x
_atom_site_fract_y
_atom_site_fract_z
Si Si1 0.110583 0.508032 0.756444
Si Si2 0.298317 0.201236 0.239847
Si Si3 0.149702 0.155301 0.865579
Si Si4 0.069276 0.938957 0.266484
Si Si5 0.568918 0.377618 0.832395
Si Si6 0.358494 0.764559 0.135275
Si Si7 0.264678 0.560863 0.810133
O O1 0.235617 0.692972 0.472462
O O2 0.159867 0.529364 0.881513
O O3 0.044871 0.301180 0.673955
O O4 0.000000 0.500000 0.000000
O O5 0.250568 0.193895 0.539975
O O6 0.368255 0.406563 0.122614
O O7 0.171682 0.004626 0.258026
O O8 0.405662 0.202307 0.042287
O O9 0.195259 0.358251 0.935094
O O10 0.156162 0.065803 0.976847
O O11 0.000000 0.000000 0.000000
O O12 0.000000 0.000000 0.500000
O O13 0.613558 0.349795 0.910182
O O14 0.618240 0.360911 0.525997
O O15 0.321470 0.718019 0.958924
O O16 0.500000 0.000000 0.000000
#
# Coordination Sequence:
#
# PCOD8008977 Si02
#       7
#     2   2   2   2   2   2   2
#     4  11  26  42  61  96 131 159 207 262 317 372
#     4  10  21  35  61  92 126 155 199 261 311 370
#     4  11  19  34  61  94 120 156 200 248 321 373
#     4  12  21  37  64  93 125 163 203 255 318 370
#     4   9  21  41  58  90 123 158 206 257 310 365
#     4  11  25  43  64  82 117 174 216 247 304 375
#     4  10  21  42  64  85 124 161 203 262 309 371
#
# _framework density 20.322057999999998
#
# number of rings (size 3 to 8) (size 9 to 14) (size 15 to 20)
#    0.000    1.429    2.857    3.429    0.000    7.429 
#    0.000    4.286    0.000    0.000    0.000    0.000 
#    0.000    0.000    0.000    0.000    0.000    0.000 
#
# Total GULP energy -173589.597107 kJ/mol
# GULP energy per Si atom -12399.256936 kJ/mol
# Density = 2.027580 g / cm^3
# Si number density = 20.322058 Si / 1000 Ang^3
#
#
#
# Elastic Constant Matrix: (Units=GPa)
#
#
# Indices 1 2 3 4 5 6 
#
# 1 104.3846 30.2788 54.6207 7.5972 -17.2862 18.7518
# 2 30.2788 109.6821 47.5656 -1.3428 2.2012 18.7480
# 3 54.6207 47.5656 89.0016 -6.8658 -14.2236 4.5812
# 4 7.5972 -1.3428 -6.8658 29.6322 4.4811 3.7482
# 5 -17.2862 2.2012 -14.2236 4.4811 44.5534 1.8749
# 6 18.7518 18.7480 4.5812 3.7482 1.8749 33.9848
#
#
#
# Elastic Compliance Matrix: (Units=1/GPa)
#
#
# Indices 1 2 3 4 5 6 
#
# 1 0.017595 0.001065 -0.010747 -0.006553 0.004354 -0.008365
# 2 0.001065 0.013460 -0.007913 -0.000266 -0.002466 -0.006781
# 3 -0.010747 -0.007913 0.022633 0.006449 0.002529 0.006393
# 4 -0.006553 -0.000266 0.006449 0.037677 -0.004217 -0.001030
# 5 0.004354 -0.002466 0.002529 -0.004217 0.025586 -0.002330
# 6 -0.008365 -0.006781 0.006393 -0.001030 -0.002330 0.037162
#
#
# Mechanical properties :
#
#
# Convention : Reuss Voigt Hill
#
# Bulk Modulus (GPa) = 54.05579 63.11096 58.58337
# Shear Modulus (GPa) = 25.57981 33.00763 29.29372
#
# Velocity S-wave (km/s) = 3.55170 4.03454 3.80079
# Velocity P-wave (km/s) = 6.59369 7.26816 6.93912
#
# Compressibility (1/GPa) = 0.01849941
#
# Stress axis : x y z
#
# Youngs Moduli (GPa) = 56.83465 74.29399 44.18420
#
# Poissons Ratio (x) = -0.07915 0.47483
# Poissons Ratio (y) = -0.06055 0.34962
# Poissons Ratio (z) = 0.61078 0.58788
#
# Static dielectric constant tensor:
#      x y z
#    x 4.092550 0.019350 0.522740 
#    y 0.019350 3.647760 -0.195780 
#    z 0.522740 -0.195780 4.370460 
# 
# 
# High freq. dielectric constant tensor:
#      x y z
#    x 1.795430 0.011620 0.003130 
#    y 0.011620 1.786390 -0.010780 
#    z 0.003130 -0.010780 1.799970 
# 
# From -- ./inp_files/118296.got.cif
#   From: 2010.06.25/outbox.cif.g09.slc.cpg/sg2_60_cif.got.tgz:118296.got - 2010.06.27 13:26:56.
