data_PCOD8008001
_publ_section_title
;
Structure prediction by ZEFSAII (Michael W. Deem and Ramdas Pophale) SiO2 
 PCOD8008001
Probable space group: P -1
;
_chemical_formula_sum "Si O2"
_cell_formula_units_Z 14
_cell_length_a 11.949340
_cell_length_b 6.798106
_cell_length_c 8.615775
_cell_angle_alpha 89.472574
_cell_angle_beta 97.388696
_cell_angle_gamma 90.683458
_cell_volume 694.002618
_symmetry_space_group_name_H-M "P -1"
_symmetry_group_IT_number 2
_symmetry_cell_setting 'triclinic'
loop_
_space_group_symop_operation_xyz
x,y,z
-x,-y,-z
loop_
_atom_site_type_symbol
_atom_site_label
_atom_site_fract_x
_atom_site_fract_y
_atom_site_fract_z
Si Si1 0.533324 0.579369 0.693079
Si Si2 0.180938 0.023924 0.485468
Si Si3 0.967693 0.028130 0.245707
Si Si4 0.054982 0.704560 0.051838
Si Si5 0.464059 0.028469 0.166308
Si Si6 0.396521 0.243005 0.600645
Si Si7 0.281571 0.747532 0.264883
O O1 0.420031 0.443969 0.703434
O O2 0.524411 0.714832 0.535919
O O3 0.641221 0.440298 0.696700
O O4 0.547563 0.735349 0.831360
O O5 0.267782 0.206425 0.526113
O O6 0.084872 0.095140 0.348321
O O7 0.130430 0.971139 0.644299
O O8 0.242369 0.833979 0.424222
O O9 0.934144 0.179235 0.107141
O O10 0.979893 0.815240 0.167517
O O11 0.178440 0.673456 0.142715
O O12 0.000000 0.500000 0.000000
O O13 0.560345 0.948333 0.299770
O O14 0.345345 0.923195 0.183110
O O15 0.500000 0.000000 0.000000
#
# Coordination Sequence:
#
# PCOD8008001 Si02
#       7
#     2   2   2   2   2   2   2
#     4  10  22  40  62  90 118 158 200 248 294 352
#     4  10  20  42  63  89 120 159 201 248 298 346
#     4   9  22  42  63  87 122 158 199 247 297 354
#     4  10  22  42  62  90 122 156 199 245 299 357
#     4  11  24  42  59  87 126 159 197 244 298 366
#     4  10  22  37  64  88 119 154 202 245 292 355
#     4  10  23  39  63  90 121 159 198 246 300 354
#
# _framework density 20.172834000000002
#
# number of rings (size 3 to 8) (size 9 to 14) (size 15 to 20)
#    0.000    2.000    1.429    0.429    8.000    3.429 
#    5.143    2.143    0.000    0.000    0.000    0.000 
#    0.000    0.000    0.000    0.000    0.000    0.000 
#
# Total GULP energy -173526.776798 kJ/mol
# GULP energy per Si atom -12394.769771 kJ/mol
# Density = 2.012692 g / cm^3
# Si number density = 20.172834 Si / 1000 Ang^3
#
#
#
# Elastic Constant Matrix: (Units=GPa)
#
#
# Indices 1 2 3 4 5 6 
#
# 1 110.2236 68.9644 67.9538 21.3249 3.2545 18.7611
# 2 68.9644 141.5751 67.3402 27.5887 3.1369 7.9898
# 3 67.9538 67.3402 129.8146 13.6282 -7.1607 -4.0852
# 4 21.3249 27.5887 13.6282 29.1456 -0.2289 7.1759
# 5 3.2545 3.1369 -7.1607 -0.2289 36.3041 10.2139
# 6 18.7611 7.9898 -4.0852 7.1759 10.2139 30.7736
#
#
#
# Elastic Compliance Matrix: (Units=1/GPa)
#
#
# Indices 1 2 3 4 5 6 
#
# 1 0.019008 -0.004310 -0.007664 -0.003611 0.000142 -0.010692
# 2 -0.004310 0.012088 -0.003328 -0.007056 -0.001714 0.001262
# 3 -0.007664 -0.003328 0.013669 0.000764 0.001828 0.006566
# 4 -0.003611 -0.007056 0.000764 0.045162 0.003495 -0.007556
# 5 0.000142 -0.001714 0.001828 0.003495 0.031020 -0.010509
# 6 -0.010692 0.001262 0.006566 -0.007556 -0.010509 0.044808
#
#
# Mechanical properties :
#
#
# Convention : Reuss Voigt Hill
#
# Bulk Modulus (GPa) = 70.61994 87.79222 79.20608
# Shear Modulus (GPa) = 24.86566 31.06833 27.96699
#
# Velocity S-wave (km/s) = 3.51469 3.92868 3.72744
# Velocity P-wave (km/s) = 7.18013 8.01211 7.60750
#
# Compressibility (1/GPa) = 0.01416031
#
# Stress axis : x y z
#
# Youngs Moduli (GPa) = 52.60827 82.72702 73.15864
#
# Poissons Ratio (x) = 0.35657 0.56069
# Poissons Ratio (y) = 0.22675 0.24350
# Poissons Ratio (z) = 0.40319 0.27534
#
# Static dielectric constant tensor:
#      x y z
#    x 4.072180 0.522750 0.512540 
#    y 0.522750 4.315820 0.611810 
#    z 0.512540 0.611810 4.144120 
# 
# 
# High freq. dielectric constant tensor:
#      x y z
#    x 1.779930 0.007480 0.012570 
#    y 0.007480 1.786660 0.010520 
#    z 0.012570 0.010520 1.796170 
# 
# From -- ./inp_files/82934.got.cif
#   From: 2010.06.25/outbox.cif.g09.slc.cpg/sg2_42_cif.got.tgz:82934.got - 2010.06.27 13:26:56.
