data_PCOD8008767
_publ_section_title
;
Structure prediction by ZEFSAII (Michael W. Deem and Ramdas Pophale) SiO2 
 PCOD8008767
Probable space group: P -1
;
_chemical_formula_sum "Si O2"
_cell_formula_units_Z 16
_cell_length_a 9.490828
_cell_length_b 17.371482
_cell_length_c 6.391463
_cell_angle_alpha 45.784309
_cell_angle_beta 93.064952
_cell_angle_gamma 86.944243
_cell_volume 748.102916
_symmetry_space_group_name_H-M "P -1"
_symmetry_group_IT_number 2
_symmetry_cell_setting 'triclinic'
loop_
_space_group_symop_operation_xyz
x,y,z
-x,-y,-z
loop_
_atom_site_type_symbol
_atom_site_label
_atom_site_fract_x
_atom_site_fract_y
_atom_site_fract_z
Si Si1 0.362834 0.879278 0.754470
Si Si2 0.217233 0.736344 0.750515
Si Si3 0.873620 0.597828 0.461884
Si Si4 0.708652 0.715457 0.569514
Si Si5 0.402076 0.710185 0.430426
Si Si6 0.341322 0.551374 0.407857
Si Si7 0.969425 0.614696 0.008794
Si Si8 0.418956 0.065027 0.678990
O O1 0.221669 0.838260 0.718147
O O2 0.471804 0.885931 0.559396
O O3 0.328171 0.991693 0.665626
O O4 0.433624 0.793422 0.092933
O O5 0.292128 0.766649 0.484764
O O6 0.307399 0.631208 0.057893
O O7 0.059455 0.705967 0.746632
O O8 0.796110 0.701261 0.384239
O O9 0.759441 0.541175 0.427623
O O10 0.980004 0.633760 0.226122
O O11 0.961500 0.510586 0.793337
O O12 0.556151 0.671409 0.620076
O O13 0.690383 0.839512 0.409728
O O14 0.805442 0.638268 0.883542
O O15 0.327633 0.612237 0.514576
O O16 0.500000 0.500000 0.500000
O O17 0.500000 0.000000 0.000000
#
# Coordination Sequence:
#
# PCOD8008767 Si02
#       8
#     2   2   2   2   2   2   2   2
#     4  10  21  39  65  90 130 154 196 253 322 362
#     4  10  22  41  59  86 123 169 204 250 308 368
#     4  10  23  43  60  86 129 166 215 250 305 363
#     4  12  23  36  66  93 121 160 207 257 305 366
#     4  11  22  37  62  94 120 158 208 257 307 364
#     4  10  21  34  57  89 119 158 204 262 306 352
#     4  10  25  42  60  86 126 175 206 249 305 368
#     4  11  22  38  64 103 123 153 197 263 320 364
#
# _framework density 21.387433000000001
#
# number of rings (size 3 to 8) (size 9 to 14) (size 15 to 20)
#    0.000    1.500    3.750    0.375    3.500    6.500 
#    0.000    0.625    0.000    3.750    0.000    0.000 
#    0.000    0.000    0.000    0.000    0.000    0.000 
#
# Total GULP energy -198284.042805 kJ/mol
# GULP energy per Si atom -12392.752675 kJ/mol
# Density = 2.133875 g / cm^3
# Si number density = 21.387433 Si / 1000 Ang^3
#
#
#
# Elastic Constant Matrix: (Units=GPa)
#
#
# Indices 1 2 3 4 5 6 
#
# 1 73.3787 19.5901 45.0987 2.0630 7.4681 -6.4117
# 2 19.5901 135.6374 27.0709 -3.9802 0.9582 -15.1301
# 3 45.0987 27.0709 85.2396 11.4813 -4.5668 -1.3153
# 4 2.0630 -3.9802 11.4813 27.7738 -3.7855 0.2164
# 5 7.4681 0.9582 -4.5668 -3.7855 33.7107 4.7548
# 6 -6.4117 -15.1301 -1.3153 0.2164 4.7548 31.6576
#
#
#
# Elastic Compliance Matrix: (Units=1/GPa)
#
#
# Indices 1 2 3 4 5 6 
#
# 1 0.022397 -0.000063 -0.012465 0.002476 -0.007081 0.005035
# 2 -0.000063 0.008499 -0.002962 0.002287 -0.000944 0.004052
# 3 -0.012465 -0.002962 0.020464 -0.007199 0.005352 -0.003845
# 4 0.002476 0.002287 -0.007199 0.039496 0.002760 0.000611
# 5 -0.007081 -0.000944 0.005352 0.002760 0.033236 -0.006673
# 6 0.005035 0.004052 -0.003845 0.000611 -0.006673 0.035383
#
#
# Mechanical properties :
#
#
# Convention : Reuss Voigt Hill
#
# Bulk Modulus (GPa) = 49.06649 53.08613 51.07631
# Shear Modulus (GPa) = 25.34895 32.12814 28.73855
#
# Velocity S-wave (km/s) = 3.44645 3.88002 3.66964
# Velocity P-wave (km/s) = 6.23128 6.70432 6.47212
#
# Compressibility (1/GPa) = 0.02038051
#
# Stress axis : x y z
#
# Youngs Moduli (GPa) = 44.64971 117.66686 48.86563
#
# Poissons Ratio (x) = 0.00737 0.60910
# Poissons Ratio (y) = 0.00280 0.14474
# Poissons Ratio (z) = 0.55655 0.34852
#
# Static dielectric constant tensor:
#      x y z
#    x 3.417270 0.165670 0.220710 
#    y 0.165670 4.296210 0.340190 
#    z 0.220710 0.340190 3.719440 
# 
# 
# High freq. dielectric constant tensor:
#      x y z
#    x 1.822080 0.014180 -0.003510 
#    y 0.014180 1.848720 0.026240 
#    z -0.003510 0.026240 1.827830 
# 
# From -- ./inp_files/46253.got.cif
#   From: 2010.06.25/outbox.cif.g09.slc.cpg/sg2_24_cif.got.tgz:46253.got - 2010.06.27 13:26:56.
