data_PCOD8008308
_publ_section_title
;
Structure prediction by ZEFSAII (Michael W. Deem and Ramdas Pophale) SiO2 
 PCOD8008308
Probable space group: P -1
;
_chemical_formula_sum "Si O2"
_cell_formula_units_Z 16
_cell_length_a 9.067883
_cell_length_b 8.098638
_cell_length_c 16.490522
_cell_angle_alpha 44.724074
_cell_angle_beta 65.069972
_cell_angle_gamma 54.534054
_cell_volume 693.983294
_symmetry_space_group_name_H-M "P -1"
_symmetry_group_IT_number 2
_symmetry_cell_setting 'triclinic'
loop_
_space_group_symop_operation_xyz
x,y,z
-x,-y,-z
loop_
_atom_site_type_symbol
_atom_site_label
_atom_site_fract_x
_atom_site_fract_y
_atom_site_fract_z
Si Si1 0.034707 0.953345 0.137081
Si Si2 0.655959 0.373892 0.074340
Si Si3 0.506549 0.023546 0.290575
Si Si4 0.868055 0.595501 0.724283
Si Si5 0.525943 0.611774 0.540146
Si Si6 0.266477 0.437021 0.725389
Si Si7 0.700525 0.781823 0.029859
Si Si8 0.119844 0.575758 0.385887
O O1 0.841229 0.144294 0.076662
O O2 0.114007 0.692714 0.152733
O O3 0.011578 0.858876 0.267323
O O4 0.165536 0.091211 0.063908
O O5 0.578351 0.243939 0.205540
O O6 0.716306 0.581493 0.025325
O O7 0.500000 0.500000 0.000000
O O8 0.289434 0.175722 0.267398
O O9 0.529803 0.885353 0.421351
O O10 0.614437 0.824883 0.262690
O O11 0.809866 0.641070 0.626680
O O12 0.062269 0.597759 0.685169
O O13 0.500000 0.500000 0.500000
O O14 0.361269 0.632578 0.628774
O O15 0.712638 0.419491 0.606056
O O16 0.251445 0.366489 0.845141
O O17 0.500000 0.000000 0.000000
O O18 0.000000 0.500000 0.500000
#
# Coordination Sequence:
#
# PCOD8008308 Si02
#       8
#     2   2   2   2   2   2   2   2
#     4  10  24  47  68 106 144 180 239 293 353 429
#     4  12  26  46  74 103 140 190 238 293 362 423
#     4  11  23  46  72 101 140 187 239 283 361 415
#     4  10  24  43  71 103 138 189 237 286 360 422
#     4  10  22  41  68 100 141 183 231 291 353 409
#     4  11  24  47  68 102 147 183 235 296 351 419
#     4  12  26  44  69 103 143 185 238 294 355 423
#     4  10  20  42  71  99 140 182 232 291 352 415
#
# _framework density 23.055309999999999
#
# number of rings (size 3 to 8) (size 9 to 14) (size 15 to 20)
#    0.750    0.500    1.250    4.875    3.500    2.500 
#    9.000    0.000    0.000    0.000    0.000    0.000 
#    0.000    0.000    0.000    0.000    0.000    0.000 
#
# Total GULP energy -198254.178780 kJ/mol
# GULP energy per Si atom -12390.886174 kJ/mol
# Density = 2.300284 g / cm^3
# Si number density = 23.055310 Si / 1000 Ang^3
#
#
#
# Elastic Constant Matrix: (Units=GPa)
#
#
# Indices 1 2 3 4 5 6 
#
# 1 137.8015 15.2981 40.5814 5.5076 2.4202 -28.9181
# 2 15.2981 67.0450 1.0802 -4.8920 10.6051 -30.9348
# 3 40.5814 1.0802 146.7713 9.8996 -19.9974 -7.7252
# 4 5.5076 -4.8920 9.8996 30.3418 -8.7719 4.7191
# 5 2.4202 10.6051 -19.9974 -8.7719 50.9367 2.3608
# 6 -28.9181 -30.9348 -7.7252 4.7191 2.3608 41.1975
#
#
#
# Elastic Compliance Matrix: (Units=1/GPa)
#
#
# Indices 1 2 3 4 5 6 
#
# 1 0.009627 0.001807 -0.002424 -0.002687 -0.002624 0.008118
# 2 0.001807 0.024865 -0.000423 -0.001256 -0.006590 0.020381
# 3 -0.002424 -0.000423 0.007969 -0.001231 0.003146 -0.000564
# 4 -0.002687 -0.001256 -0.001231 0.036738 0.006587 -0.007646
# 5 -0.002624 -0.006590 0.003146 0.006587 0.023884 -0.008324
# 6 0.008118 0.020381 -0.000564 -0.007646 -0.008324 0.046523
#
#
# Mechanical properties :
#
#
# Convention : Reuss Voigt Hill
#
# Bulk Modulus (GPa) = 24.76451 51.72636 38.24543
# Shear Modulus (GPa) = 30.27630 44.13907 37.20768
#
# Velocity S-wave (km/s) = 3.62775 4.38023 4.02163
# Velocity P-wave (km/s) = 5.32091 6.93299 6.17974
#
# Compressibility (1/GPa) = 0.04038037
#
# Stress axis : x y z
#
# Youngs Moduli (GPa) = 103.87220 40.21794 125.49169
#
# Poissons Ratio (x) = -0.07268 0.30422
# Poissons Ratio (y) = -0.18772 0.05309
# Poissons Ratio (z) = 0.25181 0.01701
#
# Static dielectric constant tensor:
#      x y z
#    x 4.207540 -0.208920 -0.211350 
#    y -0.208920 3.825620 -0.143550 
#    z -0.211350 -0.143550 4.762290 
# 
# 
# High freq. dielectric constant tensor:
#      x y z
#    x 1.917270 -0.020460 -0.006440 
#    y -0.020460 1.884610 0.001960 
#    z -0.006440 0.001960 1.927770 
# 
# From -- ./inp_files/587755.got.cif
#   From: 2010.06.25/outbox.cif.g09.slc.cpg/sg2_294_cif.got.tgz:587755.got - 2010.06.27 13:26:56.
