data_PCOD8008709
_publ_section_title
;
Structure prediction by ZEFSAII (Michael W. Deem and Ramdas Pophale) SiO2 
 PCOD8008709
Probable space group: P -1
;
_chemical_formula_sum "Si O2"
_cell_formula_units_Z 16
_cell_length_a 9.144470
_cell_length_b 10.851328
_cell_length_c 12.784655
_cell_angle_alpha 137.844093
_cell_angle_beta 59.996391
_cell_angle_gamma 105.394866
_cell_volume 725.149396
_symmetry_space_group_name_H-M "P -1"
_symmetry_group_IT_number 2
_symmetry_cell_setting 'triclinic'
loop_
_space_group_symop_operation_xyz
x,y,z
-x,-y,-z
loop_
_atom_site_type_symbol
_atom_site_label
_atom_site_fract_x
_atom_site_fract_y
_atom_site_fract_z
Si Si1 0.220252 0.059556 0.622774
Si Si2 0.764449 0.821791 0.926985
Si Si3 0.481001 0.596207 0.896993
Si Si4 0.002411 0.542751 0.315031
Si Si5 0.990753 0.166007 0.329725
Si Si6 0.297158 0.716704 0.244086
Si Si7 0.311198 0.377061 0.664562
Si Si8 0.344177 0.888525 0.671408
O O1 0.212854 0.268343 0.716390
O O2 0.281468 0.928628 0.419400
O O3 0.352007 0.022871 0.651499
O O4 0.036099 0.008897 0.695613
O O5 0.610630 0.720355 0.882020
O O6 0.846233 0.900939 0.845139
O O7 0.910820 0.672853 0.838056
O O8 0.691849 0.991564 0.135539
O O9 0.580737 0.404967 0.791188
O O10 0.363900 0.551415 0.815562
O O11 0.368744 0.713519 0.100317
O O12 0.982701 0.651536 0.500918
O O13 0.817036 0.544320 0.332501
O O14 0.116195 0.645572 0.261313
O O15 0.813771 0.223588 0.361725
O O16 0.476658 0.252374 0.472929
#
# Coordination Sequence:
#
# PCOD8008709 Si02
#       8
#     2   2   2   2   2   2   2   2
#     4   9  20  35  61  85 119 152 197 240 293 358
#     4  11  21  42  63  89 115 161 210 240 282 363
#     4  10  21  33  60  84 124 156 197 238 291 359
#     4  10  23  38  61  89 126 153 192 253 308 344
#     4   9  21  41  65  86 113 164 207 243 284 357
#     4   9  18  36  54  87 114 160 196 237 294 353
#     4  12  22  38  59  96 124 152 191 252 311 347
#     4  10  21  38  65  90 112 161 203 243 293 354
#
# _framework density 22.064416999999999
#
# number of rings (size 3 to 8) (size 9 to 14) (size 15 to 20)
#    0.750    1.250    1.250    2.625    5.250    2.500 
#    0.000    4.375    0.000    0.000    0.000    0.000 
#    0.000    0.000    0.000    0.000    0.000    0.000 
#
# Total GULP energy -198352.888102 kJ/mol
# GULP energy per Si atom -12397.055506 kJ/mol
# Density = 2.201420 g / cm^3
# Si number density = 22.064417 Si / 1000 Ang^3
#
#
#
# Elastic Constant Matrix: (Units=GPa)
#
#
# Indices 1 2 3 4 5 6 
#
# 1 119.7057 34.6217 47.3920 -0.3451 17.6559 19.8839
# 2 34.6217 62.8388 53.8188 -13.8817 3.0247 23.4134
# 3 47.3920 53.8188 118.5983 -21.7772 2.1913 14.1694
# 4 -0.3451 -13.8817 -21.7772 20.4575 11.5920 -6.5930
# 5 17.6559 3.0247 2.1913 11.5920 23.3298 1.6625
# 6 19.8839 23.4134 14.1694 -6.5930 1.6625 19.1379
#
#
#
# Elastic Compliance Matrix: (Units=1/GPa)
#
#
# Indices 1 2 3 4 5 6 
#
# 1 0.012926 0.000597 -0.004788 -0.004710 -0.006236 -0.011695
# 2 0.000597 0.045818 -0.015279 0.002164 -0.002870 -0.044366
# 3 -0.004788 -0.015279 0.018859 0.018847 -0.006727 0.016782
# 4 -0.004710 0.002164 0.018847 0.112925 -0.056886 0.032136
# 5 -0.006236 -0.002870 -0.006727 -0.056886 0.077663 -0.011372
# 6 -0.011695 -0.044366 0.016782 0.032136 -0.011372 0.118315
#
#
# Mechanical properties :
#
#
# Convention : Reuss Voigt Hill
#
# Bulk Modulus (GPa) = 25.86589 63.64531 44.75560
# Shear Modulus (GPa) = 11.40684 23.60571 17.50628
#
# Velocity S-wave (km/s) = 2.27618 3.27441 2.81982
# Velocity P-wave (km/s) = 4.31930 6.57294 5.56147
#
# Compressibility (1/GPa) = 0.03866096
#
# Stress axis : x y z
#
# Youngs Moduli (GPa) = 77.36449 21.82558 53.02569
#
# Poissons Ratio (x) = -0.01302 0.25390
# Poissons Ratio (y) = -0.04616 0.81019
# Poissons Ratio (z) = 0.37044 0.33348
#
# Static dielectric constant tensor:
#      x y z
#    x 3.772760 0.352850 -0.020180 
#    y 0.352850 3.649110 -0.138410 
#    z -0.020180 -0.138410 3.904480 
# 
# 
# High freq. dielectric constant tensor:
#      x y z
#    x 1.850530 0.033170 0.006800 
#    y 0.033170 1.843110 -0.008760 
#    z 0.006800 -0.008760 1.872440 
# 
# From -- ./inp_files/391283.got.cif
#   From: 2010.06.25/outbox.cif.g09.slc.cpg/sg2_196_cif.got.tgz:391283.got - 2010.06.27 13:26:56.
