data_PCOD8008123
_publ_section_title
;
Structure prediction by ZEFSAII (Michael W. Deem and Ramdas Pophale) SiO2 
 PCOD8008123
Probable space group: P -1
;
_chemical_formula_sum "Si O2"
_cell_formula_units_Z 16
_cell_length_a 12.423667
_cell_length_b 9.250808
_cell_length_c 14.405698
_cell_angle_alpha 85.238946
_cell_angle_beta 150.631818
_cell_angle_gamma 84.158010
_cell_volume 756.058865
_symmetry_space_group_name_H-M "P -1"
_symmetry_group_IT_number 2
_symmetry_cell_setting 'triclinic'
loop_
_space_group_symop_operation_xyz
x,y,z
-x,-y,-z
loop_
_atom_site_type_symbol
_atom_site_label
_atom_site_fract_x
_atom_site_fract_y
_atom_site_fract_z
Si Si1 0.614499 0.758732 0.311791
Si Si2 0.388032 0.555476 0.619758
Si Si3 0.982053 0.222834 0.796918
Si Si4 0.904719 0.965404 0.527303
Si Si5 0.513458 0.752337 0.843780
Si Si6 0.146212 0.610364 0.114835
Si Si7 0.885886 0.087128 0.002007
Si Si8 0.401478 0.864549 0.952608
O O1 0.711804 0.579110 0.423451
O O2 0.836445 0.812199 0.483528
O O3 0.398162 0.862012 0.209190
O O4 0.529536 0.765705 0.141486
O O5 0.174206 0.703044 0.413686
O O6 0.507676 0.596303 0.799693
O O7 0.584010 0.495628 0.691079
O O8 0.869624 0.318665 0.798999
O O9 0.999608 0.042059 0.825325
O O10 0.237466 0.229874 0.975875
O O11 0.121765 0.938027 0.762838
O O12 0.667213 0.109582 0.361428
O O13 0.000000 0.000000 0.500000
O O14 0.440844 0.755464 0.897028
O O15 0.061298 0.751131 0.966024
O O16 0.000000 0.500000 0.000000
O O17 0.000000 0.000000 0.000000
O O18 0.500000 0.000000 0.000000
#
# Coordination Sequence:
#
# PCOD8008123 Si02
#       8
#     2   2   2   2   2   2   2   2
#     4  11  22  43  63  94 131 167 216 270 320 384
#     4  11  26  39  63  97 134 170 209 267 335 377
#     4  11  21  42  67  91 132 169 213 263 318 384
#     4  10  21  39  66  92 121 168 217 262 319 381
#     4  11  23  38  64  97 124 166 220 263 316 390
#     4  10  20  42  66  92 134 169 208 266 326 380
#     4   9  20  38  68  93 122 170 212 263 313 378
#     4  11  22  40  69  91 125 170 214 268 328 372
#
# _framework density 21.162372999999999
#
# number of rings (size 3 to 8) (size 9 to 14) (size 15 to 20)
#    0.000    1.500    5.000    0.375    3.500    1.500 
#    0.000    5.000    0.000    0.000    0.000    0.000 
#    0.000    0.000    0.000    0.000    0.000    0.000 
#
# Total GULP energy -198280.227228 kJ/mol
# GULP energy per Si atom -12392.514202 kJ/mol
# Density = 2.111421 g / cm^3
# Si number density = 21.162373 Si / 1000 Ang^3
#
#
#
# Elastic Constant Matrix: (Units=GPa)
#
#
# Indices 1 2 3 4 5 6 
#
# 1 89.0571 37.0113 37.2366 5.4794 11.2826 2.7544
# 2 37.0113 126.6375 51.0716 1.8953 5.6873 33.6740
# 3 37.2366 51.0716 123.6845 -2.0604 7.8084 18.7940
# 4 5.4794 1.8953 -2.0604 35.4030 3.1027 1.1075
# 5 11.2826 5.6873 7.8084 3.1027 29.2379 1.1649
# 6 2.7544 33.6740 18.7940 1.1075 1.1649 44.6720
#
#
#
# Elastic Compliance Matrix: (Units=1/GPa)
#
#
# Indices 1 2 3 4 5 6 
#
# 1 0.014607 -0.003673 -0.003172 -0.002004 -0.003996 0.003356
# 2 -0.003673 0.012134 -0.002729 -0.000005 0.000096 -0.007774
# 3 -0.003172 -0.002729 0.010599 0.001423 -0.001138 -0.002212
# 4 -0.002004 -0.000005 0.001423 0.028905 -0.002629 -0.001119
# 5 -0.003996 0.000096 -0.001138 -0.002629 0.036318 -0.000229
# 6 0.003356 -0.007774 -0.002212 -0.001119 -0.000229 0.029003
#
#
# Mechanical properties :
#
#
# Convention : Reuss Voigt Hill
#
# Bulk Modulus (GPa) = 54.97270 65.55758 60.26514
# Shear Modulus (GPa) = 31.89239 36.13323 34.01281
#
# Velocity S-wave (km/s) = 3.88626 4.13659 4.01338
# Velocity P-wave (km/s) = 6.79488 7.33899 7.07217
#
# Compressibility (1/GPa) = 0.01819085
#
# Stress axis : x y z
#
# Youngs Moduli (GPa) = 68.45907 82.41533 94.35089
#
# Poissons Ratio (x) = 0.30270 0.29930
# Poissons Ratio (y) = 0.25144 0.25752
# Poissons Ratio (z) = 0.21716 0.22494
#
# Static dielectric constant tensor:
#      x y z
#    x 4.724260 -0.018030 0.168960 
#    y -0.018030 4.063450 -0.165160 
#    z 0.168960 -0.165160 4.057290 
# 
# 
# High freq. dielectric constant tensor:
#      x y z
#    x 1.838990 0.001200 0.014920 
#    y 0.001200 1.832200 -0.006290 
#    z 0.014920 -0.006290 1.815340 
# 
# From -- ./inp_files/296794.got.cif
#   From: 2010.06.25/outbox.cif.g09.slc.cpg/sg2_149_cif.got.tgz:296794.got - 2010.06.27 13:26:56.
