data_PCOD8008662
_publ_section_title
;
Structure prediction by ZEFSAII (Michael W. Deem and Ramdas Pophale) SiO2 
 PCOD8008662
Probable space group: P -1
;
_chemical_formula_sum "Si O2"
_cell_formula_units_Z 12
_cell_length_a 5.087059
_cell_length_b 9.669419
_cell_length_c 13.032917
_cell_angle_alpha 104.104602
_cell_angle_beta 89.453016
_cell_angle_gamma 82.672171
_cell_volume 616.119722
_symmetry_space_group_name_H-M "P -1"
_symmetry_group_IT_number 2
_symmetry_cell_setting 'triclinic'
loop_
_space_group_symop_operation_xyz
x,y,z
-x,-y,-z
loop_
_atom_site_type_symbol
_atom_site_label
_atom_site_fract_x
_atom_site_fract_y
_atom_site_fract_z
Si Si1 0.925177 0.579869 0.619516
Si Si2 0.380923 0.069239 0.117366
Si Si3 0.266144 0.529131 0.206491
Si Si4 0.898806 0.696345 0.970485
Si Si5 0.373063 0.766132 0.109127
Si Si6 0.596516 0.296577 0.276868
O O1 0.128502 0.691534 0.666439
O O2 0.000000 0.500000 0.500000
O O3 0.919645 0.460178 0.688864
O O4 0.637322 0.676074 0.631012
O O5 0.146073 0.196156 0.109553
O O6 0.597303 0.139407 0.197182
O O7 0.283775 0.937498 0.157844
O O8 0.500000 0.000000 0.000000
O O9 0.113982 0.465020 0.099683
O O10 0.339550 0.684647 0.201976
O O11 0.534792 0.419206 0.210316
O O12 0.321790 0.262498 0.933450
O O13 0.190436 0.707540 0.012519
#
# Coordination Sequence:
#
# PCOD8008662 Si02
#       6
#     2   2   2   2   2   2
#     4  10  21  37  60  79  99 135 186 230 263 301
#     4   9  20  34  53  77 113 146 174 203 253 326
#     4   9  22  31  56  75 108 133 178 221 264 299
#     4  10  21  32  49  75 110 145 177 203 252 315
#     4  11  21  32  50  78 111 142 172 207 259 314
#     4   9  21  35  56  78 106 134 180 216 265 309
#
# _framework density 19.476735000000001
#
# number of rings (size 3 to 8) (size 9 to 14) (size 15 to 20)
#    1.000    1.333    0.000    2.000    9.333    2.667 
#    0.000    0.000    0.000    2.000    0.000    0.000 
#    0.000    0.000    0.000    0.000    0.000    0.000 
#
# Total GULP energy -148696.396493 kJ/mol
# GULP energy per Si atom -12391.366374 kJ/mol
# Density = 1.943241 g / cm^3
# Si number density = 19.476735 Si / 1000 Ang^3
#
#
#
# Elastic Constant Matrix: (Units=GPa)
#
#
# Indices 1 2 3 4 5 6 
#
# 1 52.4980 9.5416 8.5001 -1.3487 0.5983 18.1841
# 2 9.5416 135.5334 38.0833 11.2040 -2.7642 18.3282
# 3 8.5001 38.0833 95.6838 4.3757 -6.9267 20.1178
# 4 -1.3487 11.2040 4.3757 18.9351 4.3476 0.3941
# 5 0.5983 -2.7642 -6.9267 4.3476 26.1256 0.2566
# 6 18.1841 18.3282 20.1178 0.3941 0.2566 18.5637
#
#
#
# Elastic Compliance Matrix: (Units=1/GPa)
#
#
# Indices 1 2 3 4 5 6 
#
# 1 0.030615 0.001463 0.004314 0.000885 0.000805 -0.036138
# 2 0.001463 0.009399 -0.001673 -0.005225 0.001473 -0.008808
# 3 0.004314 -0.001673 0.015183 -0.002827 0.004407 -0.019029
# 4 0.000885 -0.005225 -0.002827 0.059064 -0.011213 0.006257
# 5 0.000805 0.001473 0.004407 -0.011213 0.041521 -0.007355
# 6 -0.036138 -0.008808 -0.019029 0.006257 -0.007355 0.118556
#
#
# Mechanical properties :
#
#
# Convention : Reuss Voigt Hill
#
# Bulk Modulus (GPa) = 15.77183 43.99612 29.88397
# Shear Modulus (GPa) = 17.40556 27.89758 22.65157
#
# Velocity S-wave (km/s) = 2.99266 3.78875 3.41399
# Velocity P-wave (km/s) = 4.47847 6.46356 5.56032
#
# Compressibility (1/GPa) = 0.06340417
#
# Stress axis : x y z
#
# Youngs Moduli (GPa) = 32.66361 106.39925 65.86330
#
# Poissons Ratio (x) = -0.15563 -0.28414
# Poissons Ratio (y) = -0.04778 0.11019
# Poissons Ratio (z) = -0.14092 0.17801
#
# Static dielectric constant tensor:
#      x y z
#    x 3.387840 0.103600 0.030700 
#    y 0.103600 3.935970 0.157740 
#    z 0.030700 0.157740 3.249240 
# 
# 
# High freq. dielectric constant tensor:
#      x y z
#    x 1.755610 0.015500 0.004090 
#    y 0.015500 1.744010 0.011490 
#    z 0.004090 0.011490 1.720560 
# 
# From -- ./inp_files/479388.got.cif
#   From: 2010.06.25/outbox.cif.g09.slc.cpg/sg2_240_cif.got.tgz:479388.got - 2010.06.27 13:26:56.
