data_PCOD8008190
_publ_section_title
;
Structure prediction by ZEFSAII (Michael W. Deem and Ramdas Pophale) SiO2 
 PCOD8008190
Probable space group: P -1
;
_chemical_formula_sum "Si O2"
_cell_formula_units_Z 16
_cell_length_a 26.835873
_cell_length_b 26.535098
_cell_length_c 9.492720
_cell_angle_alpha 140.946906
_cell_angle_beta 37.208913
_cell_angle_gamma 169.135531
_cell_volume 769.554464
_symmetry_space_group_name_H-M "P -1"
_symmetry_group_IT_number 2
_symmetry_cell_setting 'triclinic'
loop_
_space_group_symop_operation_xyz
x,y,z
-x,-y,-z
loop_
_atom_site_type_symbol
_atom_site_label
_atom_site_fract_x
_atom_site_fract_y
_atom_site_fract_z
Si Si1 0.233879 0.995114 0.989873
Si Si2 0.935425 0.422242 0.815773
Si Si3 0.454100 0.463168 0.316611
Si Si4 0.961201 0.017012 0.258341
Si Si5 0.503221 0.885270 0.552064
Si Si6 0.883992 0.128942 0.690670
Si Si7 0.659339 0.326051 0.236922
Si Si8 0.324709 0.459320 0.836067
O O1 0.381302 0.061021 0.717441
O O2 0.441832 0.260778 0.122562
O O3 0.127840 0.869772 0.110627
O O4 0.974873 0.778194 0.003865
O O5 0.235580 0.679127 0.633934
O O6 0.726651 0.155982 0.687961
O O7 0.793168 0.370092 0.961549
O O8 0.000000 0.500000 0.000000
O O9 0.306743 0.366923 0.572538
O O10 0.600426 0.512787 0.123037
O O11 0.214070 0.222112 0.226793
O O12 0.667613 0.726714 0.355837
O O13 0.967642 0.117121 0.433110
O O14 0.000000 0.000000 0.000000
O O15 0.418566 0.755776 0.599956
O O16 0.120491 0.400242 0.676710
O O17 0.598994 0.890770 0.746684
#
# Coordination Sequence:
#
# PCOD8008190 Si02
#       8
#     2   2   2   2   2   2   2   2
#     4  12  24  42  64  97 135 168 208 275 325 376
#     4  10  20  42  67  95 126 166 211 264 316 377
#     4  11  22  42  63  91 115 165 225 262 311 375
#     4  12  25  42  63  90 131 171 212 265 320 384
#     4  11  23  41  68  98 125 163 218 267 314 372
#     4  12  24  42  62  93 133 171 206 255 334 387
#     4  11  23  41  68  92 125 170 213 255 315 391
#     4  11  22  40  68  86 122 168 216 265 317 376
#
# _framework density 20.791250999999999
#
# number of rings (size 3 to 8) (size 9 to 14) (size 15 to 20)
#    0.000    0.750    2.500    7.125    0.000    5.000 
#    0.000    3.750    0.000    0.000    0.000    0.000 
#    0.000    0.000    0.000    0.000    0.000    0.000 
#
# Total GULP energy -198380.982962 kJ/mol
# GULP energy per Si atom -12398.811435 kJ/mol
# Density = 2.074393 g / cm^3
# Si number density = 20.791251 Si / 1000 Ang^3
#
#
#
# Elastic Constant Matrix: (Units=GPa)
#
#
# Indices 1 2 3 4 5 6 
#
# 1 100.0865 48.7208 66.2596 5.2068 -14.1247 24.8936
# 2 48.7208 157.0045 49.6096 11.1512 -5.2401 21.3117
# 3 66.2596 49.6096 137.7471 -3.6808 -5.4183 2.4661
# 4 5.2068 11.1512 -3.6808 36.2464 6.3512 -9.5640
# 5 -14.1247 -5.2401 -5.4183 6.3512 16.0661 -2.9387
# 6 24.8936 21.3117 2.4661 -9.5640 -2.9387 48.4191
#
#
#
# Elastic Compliance Matrix: (Units=1/GPa)
#
#
# Indices 1 2 3 4 5 6 
#
# 1 0.023482 -0.001035 -0.010249 -0.010572 0.018827 -0.012041
# 2 -0.001035 0.008309 -0.002461 -0.003951 0.001861 -0.003667
# 3 -0.010249 -0.002461 0.012863 0.006463 -0.006831 0.006560
# 4 -0.010572 -0.003951 0.006463 0.038129 -0.021081 0.013097
# 5 0.018827 0.001861 -0.006831 -0.021081 0.083743 -0.009232
# 6 -0.012041 -0.003667 0.006560 0.013097 -0.009232 0.030150
#
#
# Mechanical properties :
#
#
# Convention : Reuss Voigt Hill
#
# Bulk Modulus (GPa) = 58.26453 80.44645 69.35549
# Shear Modulus (GPa) = 21.74977 35.49618 28.62297
#
# Velocity S-wave (km/s) = 3.23786 4.13639 3.71439
# Velocity P-wave (km/s) = 6.48558 7.84789 7.19903
#
# Compressibility (1/GPa) = 0.01716310
#
# Stress axis : x y z
#
# Youngs Moduli (GPa) = 42.58596 120.35722 77.74383
#
# Poissons Ratio (x) = 0.12453 0.79680
# Poissons Ratio (y) = 0.04406 0.19135
# Poissons Ratio (z) = 0.43647 0.29624
#
# Static dielectric constant tensor:
#      x y z
#    x 10.478580 -1.842660 1.360480 
#    y -1.842660 4.842280 -0.685870 
#    z 1.360480 -0.685870 4.223040 
# 
# 
# High freq. dielectric constant tensor:
#      x y z
#    x 1.810890 0.012310 -0.016010 
#    y 0.012310 1.839270 0.001480 
#    z -0.016010 0.001480 1.811510 
# 
# From -- ./inp_files/358013.got.cif
#   From: 2010.06.25/outbox.cif.g09.slc.cpg/sg2_180_cif.got.tgz:358013.got - 2010.06.27 13:26:56.
