data_PCOD8008938
_publ_section_title
;
Structure prediction by ZEFSAII (Michael W. Deem and Ramdas Pophale) SiO2 
 PCOD8008938
Probable space group: P -1
;
_chemical_formula_sum "Si O2"
_cell_formula_units_Z 14
_cell_length_a 18.628095
_cell_length_b 29.018804
_cell_length_c 9.746680
_cell_angle_alpha 25.905563
_cell_angle_beta 152.000259
_cell_angle_gamma 161.955685
_cell_volume 697.933151
_symmetry_space_group_name_H-M "P -1"
_symmetry_group_IT_number 2
_symmetry_cell_setting 'triclinic'
loop_
_space_group_symop_operation_xyz
x,y,z
-x,-y,-z
loop_
_atom_site_type_symbol
_atom_site_label
_atom_site_fract_x
_atom_site_fract_y
_atom_site_fract_z
Si Si1 0.994669 0.812317 0.549241
Si Si2 0.735073 0.554570 0.258444
Si Si3 0.506453 0.826982 0.502474
Si Si4 0.029430 0.657454 0.234059
Si Si5 0.517180 0.631477 0.215141
Si Si6 0.267097 0.662468 0.276546
Si Si7 0.080406 0.359052 0.367086
O O1 0.786685 0.784380 0.319001
O O2 0.967415 0.773220 0.445487
O O3 0.241413 0.993007 0.518451
O O4 0.958500 0.677810 0.918196
O O5 0.646209 0.385830 0.547968
O O6 0.882178 0.653967 0.378145
O O7 0.925792 0.676864 0.130653
O O8 0.500000 0.500000 0.000000
O O9 0.314172 0.795129 0.347380
O O10 0.473344 0.819285 0.301508
O O11 0.489012 0.695121 0.868814
O O12 0.914938 0.480327 0.531927
O O13 0.500000 0.500000 0.500000
O O14 0.316807 0.548163 0.213689
O O15 0.147626 0.686157 0.914136
#
# Coordination Sequence:
#
# PCOD8008938 Si02
#       7
#     2   2   2   2   2   2   2
#     4  11  23  35  62  90 122 155 190 248 297 346
#     4  10  23  37  61  86 115 154 205 244 289 341
#     4  12  21  38  59  95 121 150 196 244 300 347
#     4  10  21  38  60  88 113 161 196 242 288 345
#     4  10  21  35  60  87 118 153 195 247 283 341
#     4  10  21  35  63  83 119 150 203 241 287 342
#     4  11  20  39  60  88 117 153 203 238 293 351
#
# _framework density 20.059228000000001
#
# number of rings (size 3 to 8) (size 9 to 14) (size 15 to 20)
#    0.857    0.571    2.857    4.286    4.000    0.000 
#    0.000    0.714    3.143    1.714    0.000    0.000 
#    0.000    0.000    0.000    0.000    0.000    0.000 
#
# Total GULP energy -173464.236140 kJ/mol
# GULP energy per Si atom -12390.302581 kJ/mol
# Density = 2.001357 g / cm^3
# Si number density = 20.059228 Si / 1000 Ang^3
#
#
#
# Elastic Constant Matrix: (Units=GPa)
#
#
# Indices 1 2 3 4 5 6 
#
# 1 76.9122 44.1324 23.5974 17.4915 3.6367 -15.2416
# 2 44.1324 103.2359 19.0353 31.7816 6.2221 -10.8838
# 3 23.5974 19.0353 95.6760 28.3204 8.8161 -3.2949
# 4 17.4915 31.7816 28.3204 34.9193 3.1105 3.6181
# 5 3.6367 6.2221 8.8161 3.1105 31.7362 11.3744
# 6 -15.2416 -10.8838 -3.2949 3.6181 11.3744 25.8482
#
#
#
# Elastic Compliance Matrix: (Units=1/GPa)
#
#
# Indices 1 2 3 4 5 6 
#
# 1 0.020324 -0.005297 -0.001653 -0.004871 -0.004771 0.012324
# 2 -0.005297 0.017948 0.003695 -0.017184 -0.005787 0.009856
# 3 -0.001653 0.003695 0.015451 -0.015294 -0.005948 0.007309
# 4 -0.004871 -0.017184 -0.015294 0.060756 0.011386 -0.025572
# 5 -0.004771 -0.005787 -0.005948 0.011386 0.043277 -0.026645
# 6 0.012324 0.009856 0.007309 -0.025572 -0.026645 0.066341
#
#
# Mechanical properties :
#
#
# Convention : Reuss Voigt Hill
#
# Bulk Modulus (GPa) = 21.18089 49.92825 35.55457
# Shear Modulus (GPa) = 20.29670 31.10470 25.70070
#
# Velocity S-wave (km/s) = 3.18439 3.94209 3.58333
# Velocity P-wave (km/s) = 4.90944 6.75756 5.90623
#
# Compressibility (1/GPa) = 0.04721236
#
# Stress axis : x y z
#
# Youngs Moduli (GPa) = 49.20253 55.71685 64.71962
#
# Poissons Ratio (x) = 0.29515 0.10698
# Poissons Ratio (y) = 0.26064 -0.23913
# Poissons Ratio (z) = 0.08133 -0.20587
#
# Static dielectric constant tensor:
#      x y z
#    x 3.508080 0.213320 0.149570 
#    y 0.213320 3.627330 0.360070 
#    z 0.149570 0.360070 3.738490 
# 
# 
# High freq. dielectric constant tensor:
#      x y z
#    x 1.761050 0.003190 0.013180 
#    y 0.003190 1.767060 0.030970 
#    z 0.013180 0.030970 1.788560 
# 
# From -- ./inp_files/282795.got.cif
#   From: 2010.06.25/outbox.cif.g09.slc.cpg/sg2_142_cif.got.tgz:282795.got - 2010.06.27 13:26:56.
