data_PCOD8008858
_publ_section_title
;
Structure prediction by ZEFSAII (Michael W. Deem and Ramdas Pophale) SiO2 
 PCOD8008858
Probable space group: P -1
;
_chemical_formula_sum "Si O2"
_cell_formula_units_Z 14
_cell_length_a 16.966109
_cell_length_b 11.687101
_cell_length_c 8.510620
_cell_angle_alpha 147.618335
_cell_angle_beta 126.826819
_cell_angle_gamma 42.668831
_cell_volume 611.455406
_symmetry_space_group_name_H-M "P -1"
_symmetry_group_IT_number 2
_symmetry_cell_setting 'triclinic'
loop_
_space_group_symop_operation_xyz
x,y,z
-x,-y,-z
loop_
_atom_site_type_symbol
_atom_site_label
_atom_site_fract_x
_atom_site_fract_y
_atom_site_fract_z
Si Si1 0.116350 0.980631 0.673285
Si Si2 0.692717 0.259314 0.789402
Si Si3 0.917905 0.609792 0.679716
Si Si4 0.269308 0.476000 0.146778
Si Si5 0.331794 0.295779 0.567364
Si Si6 0.878700 0.759092 0.322946
Si Si7 0.556330 0.009209 0.334690
O O1 0.223491 0.683542 0.473826
O O2 0.146272 0.125739 0.747244
O O3 0.000000 0.000000 0.500000
O O4 0.101477 0.118888 0.981442
O O5 0.713566 0.387913 0.818557
O O6 0.583658 0.227416 0.590398
O O7 0.809590 0.981830 0.628424
O O8 0.669002 0.443788 0.121627
O O9 0.795706 0.638523 0.545399
O O10 0.000000 0.500000 0.500000
O O11 0.984481 0.405259 0.662320
O O12 0.166224 0.430404 0.934372
O O13 0.391559 0.199443 0.989026
O O14 0.418157 0.135447 0.339388
O O15 0.376764 0.133389 0.591134
#
# Coordination Sequence:
#
# PCOD8008858 Si02
#       7
#     2   2   2   2   2   2   2
#     4  11  23  40  65  87 122 171 204 234 307 384
#     4   9  17  33  60  85 113 159 204 239 298 364
#     4  12  24  39  59  95 132 151 203 260 301 350
#     4   9  18  36  63  85 109 156 209 243 283 369
#     4  10  21  35  55  88 128 160 196 258 301 357
#     4  10  21  39  61  89 123 165 198 242 308 369
#     4   9  18  37  60  84 120 165 204 242 310 358
#
# _framework density 22.896191000000002
#
# number of rings (size 3 to 8) (size 9 to 14) (size 15 to 20)
#    0.000    2.000    1.429    3.429    2.000    0.571 
#    2.571    0.714    0.000    7.714    0.000    0.000 
#    0.000    0.000    0.000    0.000    0.000    0.000 
#
# Total GULP energy -173445.445671 kJ/mol
# GULP energy per Si atom -12388.960405 kJ/mol
# Density = 2.284408 g / cm^3
# Si number density = 22.896191 Si / 1000 Ang^3
#
#
#
# Elastic Constant Matrix: (Units=GPa)
#
#
# Indices 1 2 3 4 5 6 
#
# 1 132.9474 34.2260 68.1263 11.9705 3.0363 -32.6998
# 2 34.2260 40.1914 29.6387 14.5169 -0.6233 -24.6304
# 3 68.1263 29.6387 181.2432 29.5802 -20.8312 -13.2734
# 4 11.9705 14.5169 29.5802 22.7593 -3.4473 -4.0231
# 5 3.0363 -0.6233 -20.8312 -3.4473 48.2927 10.0183
# 6 -32.6998 -24.6304 -13.2734 -4.0231 10.0183 35.4008
#
#
#
# Elastic Compliance Matrix: (Units=1/GPa)
#
#
# Indices 1 2 3 4 5 6 
#
# 1 0.012891 -0.001722 -0.004583 0.001395 -0.004895 0.010535
# 2 -0.001722 0.066183 -0.003265 -0.031226 -0.011588 0.042963
# 3 -0.004583 -0.003265 0.009183 -0.007655 0.004756 -0.005277
# 4 0.001395 -0.031226 -0.007655 0.070852 0.004706 -0.016587
# 5 -0.004895 -0.011588 0.004756 0.004706 0.026965 -0.017897
# 6 0.010535 0.042963 -0.005277 -0.016587 -0.017897 0.069072
#
#
# Mechanical properties :
#
#
# Convention : Reuss Voigt Hill
#
# Bulk Modulus (GPa) = 14.46786 68.70709 41.58748
# Shear Modulus (GPa) = 16.81667 36.11663 26.46665
#
# Velocity S-wave (km/s) = 2.71306 3.97597 3.40360
# Velocity P-wave (km/s) = 4.01832 7.15199 5.80077
#
# Compressibility (1/GPa) = 0.06911872
#
# Stress axis : x y z
#
# Youngs Moduli (GPa) = 77.57577 15.10969 108.89204
#
# Poissons Ratio (x) = 0.02601 0.49901
# Poissons Ratio (y) = 0.13355 0.35551
# Poissons Ratio (z) = 0.35550 0.04933
#
# Static dielectric constant tensor:
#      x y z
#    x 4.387660 -0.237040 -0.422160 
#    y -0.237040 3.837140 0.744750 
#    z -0.422160 0.744750 4.974810 
# 
# 
# High freq. dielectric constant tensor:
#      x y z
#    x 1.918840 -0.014940 -0.007270 
#    y -0.014940 1.856140 0.041060 
#    z -0.007270 0.041060 1.917280 
# 
# From -- ./inp_files/60992.got.cif
#   From: 2010.06.25/outbox.cif.g09.slc.cpg/sg2_31_cif.got.tgz:60992.got - 2010.06.27 13:26:56.
