data_PCOD8008957
_publ_section_title
;
Structure prediction by ZEFSAII (Michael W. Deem and Ramdas Pophale) SiO2 
 PCOD8008957
Probable space group: P -1
;
_chemical_formula_sum "Si O2"
_cell_formula_units_Z 16
_cell_length_a 14.632451
_cell_length_b 7.526015
_cell_length_c 12.015992
_cell_angle_alpha 77.947714
_cell_angle_beta 125.573484
_cell_angle_gamma 135.144391
_cell_volume 709.723453
_symmetry_space_group_name_H-M "P -1"
_symmetry_group_IT_number 2
_symmetry_cell_setting 'triclinic'
loop_
_space_group_symop_operation_xyz
x,y,z
-x,-y,-z
loop_
_atom_site_type_symbol
_atom_site_label
_atom_site_fract_x
_atom_site_fract_y
_atom_site_fract_z
Si Si1 0.105978 0.885023 0.554768
Si Si2 0.588425 0.486829 0.287194
Si Si3 0.817376 0.515950 0.565771
Si Si4 0.741346 0.208837 0.182379
Si Si5 0.450326 0.679644 0.957681
Si Si6 0.261502 0.287997 0.078654
Si Si7 0.099395 0.177029 0.191474
Si Si8 0.063567 0.740833 0.300510
O O1 0.162785 0.751312 0.646848
O O2 0.025942 0.778424 0.391088
O O3 0.967651 0.780953 0.561807
O O4 0.269946 0.203274 0.618394
O O5 0.643931 0.363105 0.400804
O O6 0.578440 0.486987 0.144743
O O7 0.401075 0.310263 0.218352
O O8 0.829892 0.627241 0.680087
O O9 0.817228 0.295839 0.609809
O O10 0.608912 0.192006 0.139158
O O11 0.880588 0.459437 0.164742
O O12 0.647783 0.931123 0.089840
O O13 0.347894 0.510483 0.016592
O O14 0.209091 0.354390 0.136701
O O15 0.093837 0.999163 0.944445
O O16 0.126192 0.987824 0.242245
#
# Coordination Sequence:
#
# PCOD8008957 Si02
#       8
#     2   2   2   2   2   2   2   2
#     4  11  21  37  66 102 132 167 215 283 336 383
#     4  12  23  39  68 103 129 170 220 283 334 391
#     4  11  24  41  70  99 130 176 219 273 335 392
#     4  10  21  35  60  96 136 169 204 280 334 386
#     4  11  21  38  63 100 134 166 217 273 342 391
#     4  11  25  43  66  92 136 180 223 271 324 394
#     4  11  25  47  67  91 134 188 225 263 321 404
#     4  11  22  42  67  99 136 170 225 270 330 396
#
# _framework density 22.543990999999998
#
# number of rings (size 3 to 8) (size 9 to 14) (size 15 to 20)
#    0.000    1.000    3.750    4.500    3.500    0.500 
#    0.000    5.625    0.000    0.000    0.000    0.000 
#    0.000    0.000    0.000    0.000    0.000    0.000 
#
# Total GULP energy -198266.052043 kJ/mol
# GULP energy per Si atom -12391.628253 kJ/mol
# Density = 2.249268 g / cm^3
# Si number density = 22.543991 Si / 1000 Ang^3
#
#
#
# Elastic Constant Matrix: (Units=GPa)
#
#
# Indices 1 2 3 4 5 6 
#
# 1 101.3574 42.3013 48.5343 1.9440 -0.3644 11.2926
# 2 42.3013 60.6227 25.7303 8.7149 -6.8733 2.8144
# 3 48.5343 25.7303 104.6203 8.4705 2.7959 19.7977
# 4 1.9440 8.7149 8.4705 22.6475 3.9636 1.5706
# 5 -0.3644 -6.8733 2.7959 3.9636 52.3032 -3.9415
# 6 11.2926 2.8144 19.7977 1.5706 -3.9415 27.1917
#
#
#
# Elastic Compliance Matrix: (Units=1/GPa)
#
#
# Indices 1 2 3 4 5 6 
#
# 1 0.016823 -0.010323 -0.005109 0.004896 -0.001541 -0.002705
# 2 -0.010323 0.026141 -0.001753 -0.009585 0.004489 0.004062
# 3 -0.005109 -0.001753 0.014191 -0.003398 -0.001372 -0.008032
# 4 0.004896 -0.009585 -0.003398 0.049714 -0.004974 -0.002160
# 5 -0.001541 0.004489 -0.001372 -0.004974 0.020483 0.004431
# 6 -0.002705 0.004062 -0.008032 -0.002160 0.004431 0.044094
#
#
# Mechanical properties :
#
#
# Convention : Reuss Voigt Hill
#
# Bulk Modulus (GPa) = 43.88779 55.52583 49.70681
# Shear Modulus (GPa) = 23.42914 30.43079 26.92996
#
# Velocity S-wave (km/s) = 3.22726 3.67800 3.45998
# Velocity P-wave (km/s) = 5.77900 6.53608 6.16917
#
# Compressibility (1/GPa) = 0.02278538
#
# Stress axis : x y z
#
# Youngs Moduli (GPa) = 59.44382 38.25403 70.46686
#
# Poissons Ratio (x) = 0.39491 0.36000
# Poissons Ratio (y) = 0.61365 0.12351
# Poissons Ratio (z) = 0.30368 0.06705
#
# Static dielectric constant tensor:
#      x y z
#    x 4.150400 -0.100390 0.313770 
#    y -0.100390 3.880560 -0.063850 
#    z 0.313770 -0.063850 4.464860 
# 
# 
# High freq. dielectric constant tensor:
#      x y z
#    x 1.878640 -0.011080 0.017960 
#    y -0.011080 1.862690 -0.000990 
#    z 0.017960 -0.000990 1.907820 
# 
# From -- ./inp_files/447370.got.cif
#   From: 2010.06.25/outbox.cif.g09.slc.cpg/sg2_224_cif.got.tgz:447370.got - 2010.06.27 13:26:56.
