data_PCOD8008688
_publ_section_title
;
Structure prediction by ZEFSAII (Michael W. Deem and Ramdas Pophale) SiO2 
 PCOD8008688
Probable space group: P -1
;
_chemical_formula_sum "Si O2"
_cell_formula_units_Z 16
_cell_length_a 11.079011
_cell_length_b 10.128738
_cell_length_c 10.794504
_cell_angle_alpha 77.216687
_cell_angle_beta 47.829912
_cell_angle_gamma 79.970028
_cell_volume 874.973699
_symmetry_space_group_name_H-M "P -1"
_symmetry_group_IT_number 2
_symmetry_cell_setting 'triclinic'
loop_
_space_group_symop_operation_xyz
x,y,z
-x,-y,-z
loop_
_atom_site_type_symbol
_atom_site_label
_atom_site_fract_x
_atom_site_fract_y
_atom_site_fract_z
Si Si1 0.239311 0.004399 0.734871
Si Si2 0.521173 0.677667 0.303909
Si Si3 0.090331 0.087496 0.075492
Si Si4 0.696912 0.594285 0.898884
Si Si5 0.423266 0.456093 0.255319
Si Si6 0.515470 0.780504 0.550463
Si Si7 0.121035 0.389718 0.996753
Si Si8 0.604018 0.874420 0.005410
O O1 0.364915 0.878103 0.668648
O O2 0.080919 0.980944 0.762539
O O3 0.320766 0.140002 0.604759
O O4 0.179902 0.014675 0.914039
O O5 0.390199 0.582385 0.346173
O O6 0.467838 0.697093 0.477919
O O7 0.698228 0.599931 0.188399
O O8 0.530701 0.823687 0.198356
O O9 0.050024 0.245392 0.041139
O O10 0.212546 0.074594 0.110786
O O11 0.723588 0.559905 0.741552
O O12 0.584679 0.480220 0.058746
O O13 0.862852 0.592596 0.867463
O O14 0.608532 0.744916 0.937781
O O15 0.446268 0.317627 0.342278
O O16 0.000000 0.500000 0.000000
O O17 0.500000 0.000000 0.000000
#
# Coordination Sequence:
#
# PCOD8008688 Si02
#       8
#     2   2   2   2   2   2   2   2
#     4  10  21  33  52  82 113 139 186 224 268 329
#     4   9  19  35  49  86 108 134 191 227 259 343
#     4   9  19  37  49  83 114 132 187 233 251 330
#     4   8  18  33  49  85 104 130 192 225 254 336
#     4   9  18  32  52  75 109 136 176 232 268 308
#     4  11  20  33  56  80 110 152 174 226 288 323
#     4   9  17  32  58  77 106 144 177 225 277 306
#     4   9  17  31  58  77 109 142 176 228 277 312
#
# _framework density 18.286263000000002
#
# number of rings (size 3 to 8) (size 9 to 14) (size 15 to 20)
#    0.000    3.250    2.500    0.375    5.250    0.000 
#    0.000    0.000    0.000    7.500    0.000    0.000 
#    0.000    0.000    0.000    0.000    0.000    0.000 
#
# Total GULP energy -198250.550202 kJ/mol
# GULP energy per Si atom -12390.659388 kJ/mol
# Density = 1.824464 g / cm^3
# Si number density = 18.286263 Si / 1000 Ang^3
#
#
#
# Elastic Constant Matrix: (Units=GPa)
#
#
# Indices 1 2 3 4 5 6 
#
# 1 113.3257 64.7986 38.8102 2.9171 13.3938 0.7219
# 2 64.7986 92.7773 32.4524 2.5568 7.7167 -7.9159
# 3 38.8102 32.4524 58.3960 -1.2045 7.0433 4.5322
# 4 2.9171 2.5568 -1.2045 17.2682 3.7465 5.2296
# 5 13.3938 7.7167 7.0433 3.7465 31.1134 -0.1213
# 6 0.7219 -7.9159 4.5322 5.2296 -0.1213 43.6156
#
#
#
# Elastic Compliance Matrix: (Units=1/GPa)
#
#
# Indices 1 2 3 4 5 6 
#
# 1 0.016458 -0.009515 -0.005130 -0.000542 -0.003504 -0.001411
# 2 -0.009515 0.019630 -0.005107 -0.003232 0.000791 0.004641
# 3 -0.005130 -0.005107 0.024098 0.005069 -0.002606 -0.003961
# 4 -0.000542 -0.003232 0.005069 0.063149 -0.007751 -0.008698
# 5 -0.003504 0.000791 -0.002606 -0.007751 0.034982 0.001499
# 6 -0.001411 0.004641 -0.003961 -0.008698 0.001499 0.025252
#
#
# Mechanical properties :
#
#
# Convention : Reuss Voigt Hill
#
# Bulk Modulus (GPa) = 48.34988 59.62460 53.98724
# Shear Modulus (GPa) = 21.74217 26.96193 24.35205
#
# Velocity S-wave (km/s) = 3.45191 3.84400 3.65322
# Velocity P-wave (km/s) = 6.51042 7.23732 6.88347
#
# Compressibility (1/GPa) = 0.02068257
#
# Stress axis : x y z
#
# Youngs Moduli (GPa) = 60.75901 50.94318 41.49662
#
# Poissons Ratio (x) = 0.48471 0.21287
# Poissons Ratio (y) = 0.57811 0.21194
# Poissons Ratio (z) = 0.31168 0.26019
#
# Static dielectric constant tensor:
#      x y z
#    x 3.598890 0.427650 0.090730 
#    y 0.427650 3.456550 -0.029710 
#    z 0.090730 -0.029710 3.097170 
# 
# 
# High freq. dielectric constant tensor:
#      x y z
#    x 1.706200 0.025010 0.012000 
#    y 0.025010 1.715370 -0.005180 
#    z 0.012000 -0.005180 1.668410 
# 
# From -- ./inp_files/414604.got.cif
#   From: 2010.06.25/outbox.cif.g09.slc.cpg/sg2_208_cif.got.tgz:414604.got - 2010.06.27 13:26:56.
