data_PCOD8008214
_publ_section_title
;
Structure prediction by ZEFSAII (Michael W. Deem and Ramdas Pophale) SiO2 
 PCOD8008214
Probable space group: P -1
;
_chemical_formula_sum "Si O2"
_cell_formula_units_Z 14
_cell_length_a 11.903635
_cell_length_b 12.311760
_cell_length_c 4.991606
_cell_angle_alpha 110.406383
_cell_angle_beta 106.597560
_cell_angle_gamma 45.154036
_cell_volume 485.247127
_symmetry_space_group_name_H-M "P -1"
_symmetry_group_IT_number 2
_symmetry_cell_setting 'triclinic'
loop_
_space_group_symop_operation_xyz
x,y,z
-x,-y,-z
loop_
_atom_site_type_symbol
_atom_site_label
_atom_site_fract_x
_atom_site_fract_y
_atom_site_fract_z
Si Si1 0.255601 0.739663 0.388564
Si Si2 0.650081 0.700651 0.610770
Si Si3 0.077746 0.557792 0.736540
Si Si4 0.321014 0.081936 0.991880
Si Si5 0.466627 0.397537 0.138180
Si Si6 0.988858 0.750930 0.350986
Si Si7 0.345096 0.893493 0.321598
O O1 0.358215 0.580746 0.136124
O O2 0.365461 0.681851 0.674848
O O3 0.081073 0.806114 0.386817
O O4 0.214571 0.891956 0.352916
O O5 0.733649 0.592802 0.305183
O O6 0.754694 0.743612 0.816271
O O7 0.647551 0.601602 0.743133
O O8 0.465674 0.875668 0.601741
O O9 0.023958 0.702782 0.642157
O O10 0.000000 0.500000 0.500000
O O11 0.038493 0.613133 0.065978
O O12 0.289883 0.008367 0.137677
O O13 0.208752 0.106921 0.685832
O O14 0.500000 0.000000 0.000000
O O15 0.515618 0.291381 0.824041
#
# Coordination Sequence:
#
# PCOD8008214 Si02
#       7
#     2   2   2   2   2   2   2
#     4  10  23  41  70 101 143 181 246 292 364 419
#     4  11  23  42  73 105 141 184 240 303 366 427
#     4  12  26  45  75 112 146 184 241 305 373 417
#     4  12  27  46  70 101 147 195 246 288 365 438
#     4  10  20  42  68 107 135 180 237 302 363 420
#     4  12  28  47  73 111 148 192 237 306 360 431
#     4  11  24  41  71  98 143 195 235 297 347 445
#
# _framework density 28.851277
#
# number of rings (size 3 to 8) (size 9 to 14) (size 15 to 20)
#    0.000    0.857    4.286    2.143    4.000    1.714 
#    0.000    0.714    0.000    0.000    0.000    0.000 
#    0.000    0.000    0.000    0.000    0.000    0.000 
#
# Total GULP energy -173473.546027 kJ/mol
# GULP energy per Si atom -12390.967573 kJ/mol
# Density = 2.878561 g / cm^3
# Si number density = 28.851277 Si / 1000 Ang^3
#
#
#
# Elastic Constant Matrix: (Units=GPa)
#
#
# Indices 1 2 3 4 5 6 
#
# 1 136.2489 63.6223 9.5585 -6.6939 28.6183 -2.6169
# 2 63.6223 82.7987 7.9263 -3.3636 19.0261 -5.7569
# 3 9.5585 7.9263 45.0529 -5.7644 5.7102 7.5046
# 4 -6.6939 -3.3636 -5.7644 41.4130 -6.3161 5.9312
# 5 28.6183 19.0261 5.7102 -6.3161 34.5372 0.4616
# 6 -2.6169 -5.7569 7.5046 5.9312 0.4616 62.3781
#
#
#
# Elastic Compliance Matrix: (Units=1/GPa)
#
#
# Indices 1 2 3 4 5 6 
#
# 1 0.012385 -0.008187 -0.000387 0.000456 -0.005603 -0.000191
# 2 -0.008187 0.019499 -0.001599 -0.000802 -0.003863 0.001753
# 3 -0.000387 -0.001599 0.023797 0.003277 -0.002089 -0.003323
# 4 0.000456 -0.000802 0.003277 0.025680 0.004258 -0.002922
# 5 -0.005603 -0.003863 -0.002089 0.004258 0.036863 -0.001018
# 6 -0.000191 0.001753 -0.003323 -0.002922 -0.001018 0.016870
#
#
# Mechanical properties :
#
#
# Convention : Reuss Voigt Hill
#
# Bulk Modulus (GPa) = 28.30001 47.36829 37.83415
# Shear Modulus (GPa) = 29.90128 39.86524 34.88326
#
# Velocity S-wave (km/s) = 3.22280 3.72122 3.48094
# Velocity P-wave (km/s) = 4.86609 5.90907 5.41276
#
# Compressibility (1/GPa) = 0.03533568
#
# Stress axis : x y z
#
# Youngs Moduli (GPa) = 80.74178 51.28599 42.02190
#
# Poissons Ratio (x) = 0.41988 0.01626
# Poissons Ratio (y) = 0.66104 0.06717
# Poissons Ratio (z) = 0.03124 0.08198
#
# Static dielectric constant tensor:
#      x y z
#    x 5.726420 -0.526030 0.408250 
#    y -0.526030 2.003520 0.134170 
#    z 0.408250 0.134170 5.970100 
# 
# 
# High freq. dielectric constant tensor:
#      x y z
#    x 2.195240 -0.013650 0.021280 
#    y -0.013650 2.187070 0.031670 
#    z 0.021280 0.031670 2.178430 
# 
# From -- ./inp_files/66542.got.cif
#   From: 2010.06.25/outbox.cif.g09.slc.cpg/sg2_34_cif.got.tgz:66542.got - 2010.06.27 13:26:56.
