data_PCOD8008320
_publ_section_title
;
Structure prediction by ZEFSAII (Michael W. Deem and Ramdas Pophale) SiO2 
 PCOD8008320
Probable space group: P -1
;
_chemical_formula_sum "Si O2"
_cell_formula_units_Z 14
_cell_length_a 7.868360
_cell_length_b 16.837460
_cell_length_c 11.610203
_cell_angle_alpha 33.039136
_cell_angle_beta 123.911622
_cell_angle_gamma 138.089456
_cell_volume 550.915059
_symmetry_space_group_name_H-M "P -1"
_symmetry_group_IT_number 2
_symmetry_cell_setting 'triclinic'
loop_
_space_group_symop_operation_xyz
x,y,z
-x,-y,-z
loop_
_atom_site_type_symbol
_atom_site_label
_atom_site_fract_x
_atom_site_fract_y
_atom_site_fract_z
Si Si1 0.160745 0.704732 0.268522
Si Si2 0.437868 0.113363 0.194922
Si Si3 0.333534 0.746104 0.647709
Si Si4 0.777644 0.793270 0.632889
Si Si5 0.388424 0.303440 0.558416
Si Si6 0.199138 0.262779 0.783767
Si Si7 0.038071 0.658764 0.019511
O O1 0.461476 0.787948 0.277053
O O2 0.068801 0.713737 0.096963
O O3 0.000000 0.500000 0.500000
O O4 0.089452 0.805526 0.207377
O O5 0.517389 0.216630 0.221713
O O6 0.291441 0.897403 0.422359
O O7 0.246527 0.137067 0.026742
O O8 0.694949 0.195844 0.119469
O O9 0.497323 0.739521 0.616861
O O10 0.049459 0.547946 0.779151
O O11 0.798664 0.768584 0.534880
O O12 0.000000 0.000000 0.500000
O O13 0.813192 0.659903 0.878716
O O14 0.209464 0.231413 0.690910
O O15 0.586318 0.524239 0.361600
#
# Coordination Sequence:
#
# PCOD8008320 Si02
#       7
#     2   2   2   2   2   2   2
#     4  10  21  42  74 108 140 190 244 297 364 442
#     4  11  23  43  68 113 146 189 248 305 359 442
#     4  11  24  42  68 106 152 186 247 303 366 434
#     4  12  25  47  70 108 146 196 246 302 363 437
#     4  10  22  42  72 108 144 192 245 299 365 437
#     4  10  20  42  73 107 148 186 246 301 368 435
#     4  12  23  45  76 103 146 200 237 303 376 426
#
# _framework density 25.412267
#
# number of rings (size 3 to 8) (size 9 to 14) (size 15 to 20)
#    0.000    1.143    2.857    4.286    0.000    0.000 
#    2.571    4.286    0.000    9.429    0.000    0.000 
#    0.000    0.000    0.000    0.000    0.000    0.000 
#
# Total GULP energy -173678.337359 kJ/mol
# GULP energy per Si atom -12405.595526 kJ/mol
# Density = 2.535443 g / cm^3
# Si number density = 25.412267 Si / 1000 Ang^3
#
#
#
# Elastic Constant Matrix: (Units=GPa)
#
#
# Indices 1 2 3 4 5 6 
#
# 1 142.0285 32.7435 45.7127 18.0531 1.8668 -24.8643
# 2 32.7435 83.1894 36.3014 17.7748 -18.1984 -20.4215
# 3 45.7127 36.3014 121.1667 25.5011 -3.6795 -13.0602
# 4 18.0531 17.7748 25.5011 50.5004 -1.0159 -11.5693
# 5 1.8668 -18.1984 -3.6795 -1.0159 34.0332 13.5314
# 6 -24.8643 -20.4215 -13.0602 -11.5693 13.5314 37.9414
#
#
#
# Elastic Compliance Matrix: (Units=1/GPa)
#
#
# Indices 1 2 3 4 5 6 
#
# 1 0.009353 -0.002141 -0.002370 -0.000199 -0.004137 0.005576
# 2 -0.002141 0.017339 -0.003212 -0.002822 0.007675 0.003226
# 3 -0.002370 -0.003212 0.010800 -0.003609 -0.000307 -0.000556
# 4 -0.000199 -0.002822 -0.003609 0.023906 -0.003406 0.005613
# 5 -0.004137 0.007675 -0.000307 -0.003406 0.039000 -0.013633
# 6 0.005576 0.003226 -0.000556 0.005613 -0.013633 0.038129
#
#
# Mechanical properties :
#
#
# Convention : Reuss Voigt Hill
#
# Bulk Modulus (GPa) = 45.36016 63.98886 54.67451
# Shear Modulus (GPa) = 30.99391 39.93679 35.46535
#
# Velocity S-wave (km/s) = 3.49613 3.96859 3.73983
# Velocity P-wave (km/s) = 5.84685 6.79960 6.34114
#
# Compressibility (1/GPa) = 0.02204578
#
# Stress axis : x y z
#
# Youngs Moduli (GPa) = 106.91741 57.67340 92.59234
#
# Poissons Ratio (x) = 0.12347 0.21944
# Poissons Ratio (y) = 0.22889 0.29744
# Poissons Ratio (z) = 0.25339 0.18527
#
# Static dielectric constant tensor:
#      x y z
#    x 5.111800 -0.078660 0.263250 
#    y -0.078660 4.299950 0.092140 
#    z 0.263250 0.092140 4.784290 
# 
# 
# High freq. dielectric constant tensor:
#      x y z
#    x 2.023980 -0.009860 -0.003020 
#    y -0.009860 2.006820 0.008730 
#    z -0.003020 0.008730 2.027100 
# 
# From -- ./inp_files/402753.got.cif
#   From: 2010.06.25/outbox.cif.g09.slc.cpg/sg2_202_cif.got.tgz:402753.got - 2010.06.27 13:26:56.
