data_PCOD8008528
_publ_section_title
;
Structure prediction by ZEFSAII (Michael W. Deem and Ramdas Pophale) SiO2 
 PCOD8008528
Probable space group: P -1
;
_chemical_formula_sum "Si O2"
_cell_formula_units_Z 14
_cell_length_a 8.416626
_cell_length_b 12.490977
_cell_length_c 14.121437
_cell_angle_alpha 129.353947
_cell_angle_beta 33.052945
_cell_angle_gamma 114.267564
_cell_volume 600.019945
_symmetry_space_group_name_H-M "P -1"
_symmetry_group_IT_number 2
_symmetry_cell_setting 'triclinic'
loop_
_space_group_symop_operation_xyz
x,y,z
-x,-y,-z
loop_
_atom_site_type_symbol
_atom_site_label
_atom_site_fract_x
_atom_site_fract_y
_atom_site_fract_z
Si Si1 0.525617 0.114299 0.767699
Si Si2 0.342051 0.125416 0.575687
Si Si3 0.265456 0.666460 0.479854
Si Si4 0.047318 0.824159 0.036121
Si Si5 0.631154 0.577432 0.558479
Si Si6 0.263750 0.627022 0.244169
Si Si7 0.284026 0.079896 0.069640
O O1 0.742912 0.217192 0.706988
O O2 0.691899 0.956923 0.550592
O O3 0.482602 0.092905 0.887485
O O4 0.205334 0.197441 0.923362
O O5 0.521039 0.243018 0.531826
O O6 0.500000 0.000000 0.500000
O O7 0.027739 0.204290 0.832015
O O8 0.284683 0.524354 0.449835
O O9 0.369707 0.617887 0.294841
O O10 0.913610 0.762395 0.708873
O O11 0.379884 0.723392 0.792726
O O12 0.048993 0.989236 0.111184
O O13 0.500000 0.500000 0.500000
O O14 0.926591 0.614090 0.391920
O O15 0.500000 0.500000 0.000000
O O16 0.500000 0.000000 0.000000
#
# Coordination Sequence:
#
# PCOD8008528 Si02
#       7
#     2   2   2   2   2   2   2
#     4  11  23  47  78 107 144 193 243 302 365 422
#     4  10  20  43  79 105 137 184 244 299 360 414
#     4  12  24  49  75 102 149 194 238 300 365 430
#     4  11  22  46  72 106 144 188 244 292 358 433
#     4  12  29  46  71 110 147 194 243 291 365 439
#     4  12  25  48  72 103 148 194 238 297 365 433
#     4  12  25  43  74 110 145 189 243 300 359 431
#
# _framework density 23.332557000000001
#
# number of rings (size 3 to 8) (size 9 to 14) (size 15 to 20)
#    0.000    0.571    5.714    4.286    2.000    1.714 
#    2.571    3.571    0.000    0.000    0.000    0.000 
#    0.000    0.000    0.000    0.000    0.000    0.000 
#
# Total GULP energy -173655.188590 kJ/mol
# GULP energy per Si atom -12403.942042 kJ/mol
# Density = 2.327945 g / cm^3
# Si number density = 23.332557 Si / 1000 Ang^3
#
#
#
# Elastic Constant Matrix: (Units=GPa)
#
#
# Indices 1 2 3 4 5 6 
#
# 1 99.6858 58.6891 60.1328 -7.6829 23.9460 -7.2346
# 2 58.6891 126.5745 44.1308 -29.0853 1.0900 11.8846
# 3 60.1328 44.1308 176.3605 -8.4045 17.2121 1.1440
# 4 -7.6829 -29.0853 -8.4045 44.1789 -1.1168 1.6208
# 5 23.9460 1.0900 17.2121 -1.1168 43.6547 -4.2698
# 6 -7.2346 11.8846 1.1440 1.6208 -4.2698 43.9091
#
#
#
# Elastic Compliance Matrix: (Units=1/GPa)
#
#
# Indices 1 2 3 4 5 6 
#
# 1 0.019958 -0.009168 -0.003864 -0.003711 -0.008786 0.005153
# 2 -0.009168 0.014721 -0.000574 0.008300 0.004578 -0.005341
# 3 -0.003864 -0.000574 0.007228 0.000333 -0.000782 -0.000758
# 4 -0.003711 0.008300 0.000333 0.027704 0.002045 -0.003690
# 5 -0.008786 0.004578 -0.000782 0.002045 0.027971 -0.000022
# 6 0.005153 -0.005341 -0.000758 -0.003690 -0.000022 0.025223
#
#
# Mechanical properties :
#
#
# Convention : Reuss Voigt Hill
#
# Bulk Modulus (GPa) = 68.04723 80.94737 74.49730
# Shear Modulus (GPa) = 32.27548 42.32642 37.30095
#
# Velocity S-wave (km/s) = 3.72328 4.26379 4.00267
# Velocity P-wave (km/s) = 6.90733 7.68167 7.30477
#
# Compressibility (1/GPa) = 0.01469567
#
# Stress axis : x y z
#
# Youngs Moduli (GPa) = 50.10426 67.93062 138.34302
#
# Poissons Ratio (x) = 0.62279 0.53452
# Poissons Ratio (y) = 0.45936 0.07944
# Poissons Ratio (z) = 0.19359 0.03901
#
# Static dielectric constant tensor:
#      x y z
#    x 4.074110 0.185920 0.417940 
#    y 0.185920 4.619720 -0.000190 
#    z 0.417940 -0.000190 4.916630 
# 
# 
# High freq. dielectric constant tensor:
#      x y z
#    x 1.911630 0.011350 0.015420 
#    y 0.011350 1.932910 -0.009540 
#    z 0.015420 -0.009540 1.937190 
# 
# From -- ./inp_files/500760.got.cif
#   From: 2010.06.25/outbox.cif.g09.slc.cpg/sg2_251_cif.got.tgz:500760.got - 2010.06.27 13:26:56.
