data_PCOD8008000
_publ_section_title
;
Structure prediction by ZEFSAII (Michael W. Deem and Ramdas Pophale) SiO2 
 PCOD8008000
Probable space group: P -1
;
_chemical_formula_sum "Si O2"
_cell_formula_units_Z 16
_cell_length_a 9.720158
_cell_length_b 9.500731
_cell_length_c 13.848033
_cell_angle_alpha 91.147484
_cell_angle_beta 38.603262
_cell_angle_gamma 99.665032
_cell_volume 773.621652
_symmetry_space_group_name_H-M "P -1"
_symmetry_group_IT_number 2
_symmetry_cell_setting 'triclinic'
loop_
_space_group_symop_operation_xyz
x,y,z
-x,-y,-z
loop_
_atom_site_type_symbol
_atom_site_label
_atom_site_fract_x
_atom_site_fract_y
_atom_site_fract_z
Si Si1 0.160943 0.688586 0.749407
Si Si2 0.395432 0.381927 0.188121
Si Si3 0.182636 0.410679 0.642442
Si Si4 0.324081 0.306379 0.006795
Si Si5 0.507636 0.310831 0.584983
Si Si6 0.554081 0.141852 0.745390
Si Si7 0.504589 0.181600 0.266776
Si Si8 0.941252 0.739011 0.476603
O O1 0.075623 0.513775 0.772428
O O2 0.319956 0.761824 0.572653
O O3 0.311120 0.722879 0.762353
O O4 0.936700 0.746747 0.885649
O O5 0.545004 0.544579 0.112791
O O6 0.539069 0.271769 0.148893
O O7 0.171073 0.374885 0.378173
O O8 0.317723 0.324817 0.124475
O O9 0.266762 0.291152 0.660097
O O10 0.393647 0.512715 0.466124
O O11 0.007227 0.334829 0.653733
O O12 0.445839 0.181520 0.904992
O O13 0.481211 0.241447 0.703911
O O14 0.823686 0.164333 0.610406
O O15 0.446827 0.975222 0.775999
O O16 0.243252 0.166674 0.446300
#
# Coordination Sequence:
#
# PCOD8008000 Si02
#       8
#     2   2   2   2   2   2   2   2
#     4  10  21  40  64  86 131 152 198 248 306 355
#     4   9  23  42  61  88 123 153 207 250 303 343
#     4   9  18  36  63  92 116 151 198 255 304 332
#     4  11  24  39  60  96 117 162 202 246 302 359
#     4   9  18  37  59  92 116 152 196 251 296 347
#     4  12  25  36  65  90 125 160 203 240 302 365
#     4  10  23  44  60  88 123 165 199 246 298 360
#     4  10  20  42  63  89 120 158 201 254 298 351
#
# _framework density 20.681943
#
# number of rings (size 3 to 8) (size 9 to 14) (size 15 to 20)
#    1.500    0.500    1.250    1.875    5.250    3.000 
#    0.000    0.000    0.000    0.000    0.000    0.000 
#    0.000    0.000    0.000    0.000    0.000    0.000 
#
# Total GULP energy -198232.835814 kJ/mol
# GULP energy per Si atom -12389.552238 kJ/mol
# Density = 2.063487 g / cm^3
# Si number density = 20.681943 Si / 1000 Ang^3
#
#
#
# Elastic Constant Matrix: (Units=GPa)
#
#
# Indices 1 2 3 4 5 6 
#
# 1 113.0162 42.9244 30.6310 2.1362 1.4278 5.8233
# 2 42.9244 93.6799 19.9474 13.3308 9.1860 8.1308
# 3 30.6310 19.9474 63.6638 17.3175 -8.8959 7.4867
# 4 2.1362 13.3308 17.3175 17.1406 -3.3180 -0.5404
# 5 1.4278 9.1860 -8.8959 -3.3180 8.9832 3.1929
# 6 5.8233 8.1308 7.4867 -0.5404 3.1929 19.8778
#
#
#
# Elastic Compliance Matrix: (Units=1/GPa)
#
#
# Indices 1 2 3 4 5 6 
#
# 1 0.012819 -0.005960 -0.007368 0.010543 0.000038 0.001738
# 2 -0.005960 0.018936 -0.001828 -0.017225 -0.026020 -0.001600
# 3 -0.007368 -0.001828 0.032933 -0.025268 0.031752 -0.015285
# 4 0.010543 -0.017225 -0.025268 0.100950 0.023796 0.012396
# 5 0.000038 -0.026020 0.031752 0.023796 0.189195 -0.031070
# 6 0.001738 -0.001600 -0.015285 0.012396 -0.031070 0.061537
#
#
# Mechanical properties :
#
#
# Convention : Reuss Voigt Hill
#
# Bulk Modulus (GPa) = 29.08862 50.81838 39.95350
# Shear Modulus (GPa) = 10.91370 20.99079 15.95224
#
# Velocity S-wave (km/s) = 2.29965 3.18926 2.78026
# Velocity P-wave (km/s) = 4.59853 6.17953 5.44670
#
# Compressibility (1/GPa) = 0.03437770
#
# Stress axis : x y z
#
# Youngs Moduli (GPa) = 78.00638 52.80905 30.36511
#
# Poissons Ratio (x) = 0.31474 0.22372
# Poissons Ratio (y) = 0.46491 0.05550
# Poissons Ratio (z) = 0.57472 0.09652
#
# Static dielectric constant tensor:
#      x y z
#    x 3.669380 0.055420 0.044180 
#    y 0.055420 3.347400 0.141270 
#    z 0.044180 0.141270 3.421680 
# 
# 
# High freq. dielectric constant tensor:
#      x y z
#    x 1.821480 0.009500 -0.000600 
#    y 0.009500 1.777300 0.018660 
#    z -0.000600 0.018660 1.780540 
# 
# From -- ./inp_files/495027.got.cif
#   From: 2010.06.25/outbox.cif.g09.slc.cpg/sg2_248_cif.got.tgz:495027.got - 2010.06.27 13:26:56.
