data_PCOD8008610
_publ_section_title
;
Structure prediction by ZEFSAII (Michael W. Deem and Ramdas Pophale) SiO2 
 PCOD8008610
Probable space group: P -1
;
_chemical_formula_sum "Si O2"
_cell_formula_units_Z 14
_cell_length_a 12.151864
_cell_length_b 11.428692
_cell_length_c 9.749836
_cell_angle_alpha 123.156071
_cell_angle_beta 37.311363
_cell_angle_gamma 130.717126
_cell_volume 620.919238
_symmetry_space_group_name_H-M "P -1"
_symmetry_group_IT_number 2
_symmetry_cell_setting 'triclinic'
loop_
_space_group_symop_operation_xyz
x,y,z
-x,-y,-z
loop_
_atom_site_type_symbol
_atom_site_label
_atom_site_fract_x
_atom_site_fract_y
_atom_site_fract_z
Si Si1 0.733118 0.799181 0.177073
Si Si2 0.023780 0.308366 0.626589
Si Si3 0.026895 0.779090 0.078907
Si Si4 0.312797 0.922367 0.535525
Si Si5 0.418639 0.864787 0.103463
Si Si6 0.215485 0.144784 0.148829
Si Si7 0.735632 0.339089 0.410183
O O1 0.857542 0.728250 0.095729
O O2 0.502286 0.715093 0.400638
O O3 0.824127 0.984879 0.243547
O O4 0.748568 0.774828 0.984176
O O5 0.080236 0.290389 0.715523
O O6 0.057950 0.187040 0.415242
O O7 0.158989 0.479311 0.549393
O O8 0.789032 0.271811 0.829531
O O9 0.144795 0.962460 0.092035
O O10 0.182553 0.706806 0.839421
O O11 0.384341 0.944144 0.324132
O O12 0.204306 0.742973 0.573657
O O13 0.500000 0.000000 0.500000
O O14 0.574443 0.790530 0.933258
O O15 0.500000 0.000000 0.000000
#
# Coordination Sequence:
#
# PCOD8008610 Si02
#       7
#     2   2   2   2   2   2   2
#     4  11  24  43  77  99 129 182 242 286 326 411
#     4  12  30  42  67 108 145 179 222 289 357 402
#     4  12  25  45  73 100 134 186 238 281 336 413
#     4  10  20  44  71  99 127 183 236 271 329 410
#     4  12  25  44  70 101 143 180 224 290 347 402
#     4  12  24  46  70 104 133 177 239 288 338 407
#     4  11  25  47  68 100 143 182 234 277 343 416
#
# _framework density 22.547215999999999
#
# number of rings (size 3 to 8) (size 9 to 14) (size 15 to 20)
#    0.000    0.571    5.714    3.000    4.000    2.857 
#    0.000    0.000    0.000    0.000    0.000    0.000 
#    0.000    0.000    0.000    0.000    0.000    0.000 
#
# Total GULP energy -173630.358597 kJ/mol
# GULP energy per Si atom -12402.168471 kJ/mol
# Density = 2.249590 g / cm^3
# Si number density = 22.547216 Si / 1000 Ang^3
#
#
#
# Elastic Constant Matrix: (Units=GPa)
#
#
# Indices 1 2 3 4 5 6 
#
# 1 134.4302 31.7738 44.6423 -21.6090 5.5767 -4.3209
# 2 31.7738 89.4118 25.2951 -10.7665 1.5808 2.6456
# 3 44.6423 25.2951 132.1349 -6.1240 16.0492 -5.1009
# 4 -21.6090 -10.7665 -6.1240 29.7346 -1.4727 4.2282
# 5 5.5767 1.5808 16.0492 -1.4727 49.7663 -7.1298
# 6 -4.3209 2.6456 -5.1009 4.2282 -7.1298 14.9268
#
#
#
# Elastic Compliance Matrix: (Units=1/GPa)
#
#
# Indices 1 2 3 4 5 6 
#
# 1 0.009726 -0.002055 -0.002612 0.005688 0.000089 0.000718
# 2 -0.002055 0.012976 -0.001786 0.003479 -0.000157 -0.004566
# 3 -0.002612 -0.001786 0.009101 -0.001049 -0.002352 0.001844
# 4 0.005688 0.003479 -0.001049 0.040353 -0.000812 -0.011147
# 5 0.000089 -0.000157 -0.002352 -0.000812 0.022273 0.010119
# 6 0.000718 -0.004566 0.001844 -0.011147 0.010119 0.076631
#
#
# Mechanical properties :
#
#
# Convention : Reuss Voigt Hill
#
# Bulk Modulus (GPa) = 52.91787 62.15547 57.53667
# Shear Modulus (GPa) = 26.27917 35.83659 31.05788
#
# Velocity S-wave (km/s) = 3.41767 3.99106 3.71544
# Velocity P-wave (km/s) = 6.25258 6.99033 6.63172
#
# Compressibility (1/GPa) = 0.01889721
#
# Stress axis : x y z
#
# Youngs Moduli (GPa) = 102.82083 77.06252 109.88309
#
# Poissons Ratio (x) = 0.15837 0.28700
# Poissons Ratio (y) = 0.21131 0.19622
# Poissons Ratio (z) = 0.26856 0.13761
#
# Static dielectric constant tensor:
#      x y z
#    x 4.609340 -0.113630 0.005440 
#    y -0.113630 4.073520 0.031370 
#    z 0.005440 0.031370 4.368960 
# 
# 
# High freq. dielectric constant tensor:
#      x y z
#    x 1.898890 -0.003040 -0.000630 
#    y -0.003040 1.859070 -0.010410 
#    z -0.000630 -0.010410 1.905280 
# 
# From -- ./inp_files/262868.got.cif
#   From: 2010.06.25/outbox.cif.g09.slc.cpg/sg2_132_cif.got.tgz:262868.got - 2010.06.27 13:26:56.
