data_PCOD8008137
_publ_section_title
;
Structure prediction by ZEFSAII (Michael W. Deem and Ramdas Pophale) SiO2 
 PCOD8008137
Probable space group: P -1
;
_chemical_formula_sum "Si O2"
_cell_formula_units_Z 16
_cell_length_a 18.838051
_cell_length_b 15.003647
_cell_length_c 9.212003
_cell_angle_alpha 33.904876
_cell_angle_beta 143.285438
_cell_angle_gamma 149.169972
_cell_volume 707.391026
_symmetry_space_group_name_H-M "P -1"
_symmetry_group_IT_number 2
_symmetry_cell_setting 'triclinic'
loop_
_space_group_symop_operation_xyz
x,y,z
-x,-y,-z
loop_
_atom_site_type_symbol
_atom_site_label
_atom_site_fract_x
_atom_site_fract_y
_atom_site_fract_z
Si Si1 0.903724 0.790035 0.384321
Si Si2 0.166175 0.891414 0.872596
Si Si3 0.435670 0.056808 0.942706
Si Si4 0.373552 0.839207 0.614533
Si Si5 0.325011 0.334406 0.602956
Si Si6 0.890491 0.156268 0.843186
Si Si7 0.363279 0.351446 0.325146
Si Si8 0.159580 0.397781 0.767887
O O1 0.775018 0.640148 0.487383
O O2 0.890280 0.663876 0.395639
O O3 0.056320 0.874177 0.597920
O O4 0.897295 0.970510 0.086795
O O5 0.285232 0.866502 0.024969
O O6 0.264913 0.108930 0.808296
O O7 0.087161 0.762625 0.061809
O O8 0.386448 0.182838 0.617113
O O9 0.558811 0.176159 0.105278
O O10 0.500000 0.000000 0.000000
O O11 0.265223 0.901655 0.391010
O O12 0.281099 0.629167 0.667541
O O13 0.500000 0.000000 0.500000
O O14 0.326936 0.409673 0.341474
O O15 0.490943 0.460777 0.761777
O O16 0.019774 0.334979 0.719897
O O17 0.229148 0.283334 0.090506
#
# Coordination Sequence:
#
# PCOD8008137 Si02
#       8
#     2   2   2   2   2   2   2   2
#     4  11  24  38  71 102 136 169 232 282 332 391
#     4  10  20  42  66  96 131 178 225 270 337 404
#     4  11  25  42  68  98 132 181 227 279 336 401
#     4  12  27  48  69  96 142 182 223 275 352 403
#     4   9  18  37  63  96 123 171 218 275 327 389
#     4  11  23  44  70  97 138 184 219 274 344 405
#     4  10  21  40  69  94 133 170 232 274 335 397
#     4  12  26  43  69 106 135 177 228 283 333 403
#
# _framework density 22.618324999999999
#
# number of rings (size 3 to 8) (size 9 to 14) (size 15 to 20)
#    0.000    1.250    1.250    6.750    5.250    1.500 
#    0.000    0.625    0.000    0.000    0.000    0.000 
#    0.000    0.000    0.000    0.000    0.000    0.000 
#
# Total GULP energy -198325.887918 kJ/mol
# GULP energy per Si atom -12395.367995 kJ/mol
# Density = 2.256685 g / cm^3
# Si number density = 22.618325 Si / 1000 Ang^3
#
#
#
# Elastic Constant Matrix: (Units=GPa)
#
#
# Indices 1 2 3 4 5 6 
#
# 1 193.2783 73.2273 44.3859 4.5830 -2.1702 21.8847
# 2 73.2273 90.1183 32.1016 2.7328 0.9013 20.2988
# 3 44.3859 32.1016 96.9738 19.3304 10.1258 5.9131
# 4 4.5830 2.7328 19.3304 28.2044 10.2825 2.7290
# 5 -2.1702 0.9013 10.1258 10.2825 26.5183 3.8238
# 6 21.8847 20.2988 5.9131 2.7290 3.8238 38.6659
#
#
#
# Elastic Compliance Matrix: (Units=1/GPa)
#
#
# Indices 1 2 3 4 5 6 
#
# 1 0.007834 -0.005365 -0.001914 0.000068 0.001745 -0.001502
# 2 -0.005365 0.018036 -0.003591 0.002023 0.000409 -0.006066
# 3 -0.001914 -0.003591 0.014195 -0.008331 -0.002459 0.001629
# 4 0.000068 0.002023 -0.008331 0.046463 -0.014659 -0.001656
# 5 0.001745 0.000409 -0.002459 -0.014659 0.045075 -0.004249
# 6 -0.001502 -0.006066 0.001629 -0.001656 -0.004249 0.030185
#
#
# Mechanical properties :
#
#
# Convention : Reuss Voigt Hill
#
# Bulk Modulus (GPa) = 54.56967 75.53333 65.05150
# Shear Modulus (GPa) = 26.36622 34.05475 30.21049
#
# Velocity S-wave (km/s) = 3.41794 3.88445 3.65864
# Velocity P-wave (km/s) = 6.30517 7.32024 6.83158
#
# Compressibility (1/GPa) = 0.01832520
#
# Stress axis : x y z
#
# Youngs Moduli (GPa) = 127.64584 55.44388 70.44785
#
# Poissons Ratio (x) = 0.29747 0.13482
# Poissons Ratio (y) = 0.68485 0.25298
# Poissons Ratio (z) = 0.24429 0.19910
#
# Static dielectric constant tensor:
#      x y z
#    x 4.702180 0.571470 -0.125400 
#    y 0.571470 4.040900 0.173120 
#    z -0.125400 0.173120 4.109340 
# 
# 
# High freq. dielectric constant tensor:
#      x y z
#    x 1.898410 0.031200 -0.002770 
#    y 0.031200 1.878250 0.013840 
#    z -0.002770 0.013840 1.888690 
# 
# From -- ./inp_files/335645.got.cif
#   From: 2010.06.25/outbox.cif.g09.slc.cpg/sg2_168_cif.got.tgz:335645.got - 2010.06.27 13:26:56.
