data_PCOD8008880
_publ_section_title
;
Structure prediction by ZEFSAII (Michael W. Deem and Ramdas Pophale) SiO2 
 PCOD8008880
Probable space group: P -1
;
_chemical_formula_sum "Si O2"
_cell_formula_units_Z 14
_cell_length_a 22.929536
_cell_length_b 17.132745
_cell_length_c 5.237489
_cell_angle_alpha 127.326578
_cell_angle_beta 62.643419
_cell_angle_gamma 155.238185
_cell_volume 659.166574
_symmetry_space_group_name_H-M "P -1"
_symmetry_group_IT_number 2
_symmetry_cell_setting 'triclinic'
loop_
_space_group_symop_operation_xyz
x,y,z
-x,-y,-z
loop_
_atom_site_type_symbol
_atom_site_label
_atom_site_fract_x
_atom_site_fract_y
_atom_site_fract_z
Si Si1 0.585154 0.919029 0.993670
Si Si2 0.600405 0.342767 0.659264
Si Si3 0.097480 0.569900 0.140716
Si Si4 0.314347 0.218837 0.062578
Si Si5 0.648201 0.616558 0.182058
Si Si6 0.836402 0.158243 0.150176
Si Si7 0.340097 0.787831 0.783849
O O1 0.473871 0.755174 0.663083
O O2 0.516458 0.808400 0.184437
O O3 0.711605 0.004304 0.877250
O O4 0.654407 0.121131 0.263461
O O5 0.694560 0.368304 0.557204
O O6 0.699083 0.571663 0.943350
O O7 0.185874 0.770379 0.508822
O O8 0.996704 0.368275 0.126229
O O9 0.211860 0.645748 0.950322
O O10 0.000000 0.500000 0.000000
O O11 0.473936 0.385364 0.060941
O O12 0.300189 0.279463 0.438384
O O13 0.279743 0.221751 0.864815
O O14 0.192776 0.974294 0.874916
O O15 0.500000 0.000000 0.000000
#
# Coordination Sequence:
#
# PCOD8008880 Si02
#       7
#     2   2   2   2   2   2   2
#     4  11  21  36  61  90 123 168 196 248 315 370
#     4  11  22  37  60  89 130 157 206 258 308 361
#     4  11  24  41  61  94 125 163 212 244 314 381
#     4  10  22  35  60  84 124 160 206 257 309 351
#     4  10  21  35  56  93 117 160 211 254 304 360
#     4  11  23  38  63  86 130 163 202 261 310 366
#     4  10  22  39  62  90 126 165 203 251 312 375
#
# _framework density 21.238939999999999
#
# number of rings (size 3 to 8) (size 9 to 14) (size 15 to 20)
#    0.000    1.429    2.857    3.000    6.000    1.143 
#    0.000    0.000    0.000    1.714    0.000    0.000 
#    0.000    0.000    0.000    0.000    0.000    0.000 
#
# Total GULP energy -173518.466218 kJ/mol
# GULP energy per Si atom -12394.176158 kJ/mol
# Density = 2.119060 g / cm^3
# Si number density = 21.238940 Si / 1000 Ang^3
#
#
#
# Elastic Constant Matrix: (Units=GPa)
#
#
# Indices 1 2 3 4 5 6 
#
# 1 92.5480 52.5606 29.8669 -4.0137 -29.0284 -17.1278
# 2 52.5606 111.5473 38.5088 4.7666 -18.9167 -19.1593
# 3 29.8669 38.5088 58.5925 -8.8263 -22.4767 -0.0195
# 4 -4.0137 4.7666 -8.8263 22.8743 -8.3369 -7.0105
# 5 -29.0284 -18.9167 -22.4767 -8.3369 40.1894 5.2360
# 6 -17.1278 -19.1593 -0.0195 -7.0105 5.2360 35.3039
#
#
#
# Elastic Compliance Matrix: (Units=1/GPa)
#
#
# Indices 1 2 3 4 5 6 
#
# 1 0.020680 -0.007364 0.001758 0.013053 0.014314 0.006507
# 2 -0.007364 0.016250 -0.010842 -0.009877 -0.006332 0.004218
# 3 0.001758 -0.010842 0.034550 0.022287 0.020587 -0.003640
# 4 0.013053 -0.009877 0.022287 0.071056 0.030608 0.010555
# 5 0.014314 -0.006332 0.020587 0.030608 0.049815 0.002209
# 6 0.006507 0.004218 -0.003640 0.010555 0.002209 0.035538
#
#
# Mechanical properties :
#
#
# Convention : Reuss Voigt Hill
#
# Bulk Modulus (GPa) = 25.91754 56.06226 40.98990
# Shear Modulus (GPa) = 18.27165 29.12361 23.69763
#
# Velocity S-wave (km/s) = 2.93625 3.70704 3.34393
# Velocity P-wave (km/s) = 4.87081 6.69150 5.85239
#
# Compressibility (1/GPa) = 0.03858391
#
# Stress axis : x y z
#
# Youngs Moduli (GPa) = 48.35580 61.53708 28.94341
#
# Poissons Ratio (x) = 0.45316 -0.05087
# Poissons Ratio (y) = 0.35609 0.31381
# Poissons Ratio (z) = -0.08500 0.66719
#
# Static dielectric constant tensor:
#      x y z
#    x 4.179500 -0.217090 -0.244130 
#    y -0.217090 3.752640 -0.203680 
#    z -0.244130 -0.203680 4.092300 
# 
# 
# High freq. dielectric constant tensor:
#      x y z
#    x 1.829780 -0.030040 -0.011210 
#    y -0.030040 1.815120 -0.016040 
#    z -0.011210 -0.016040 1.823160 
# 
# From -- ./inp_files/124907.got.cif
#   From: 2010.06.25/outbox.cif.g09.slc.cpg/sg2_63_cif.got.tgz:124907.got - 2010.06.27 13:26:56.
