data_PCOD8008823
_publ_section_title
;
Structure prediction by ZEFSAII (Michael W. Deem and Ramdas Pophale) SiO2 
 PCOD8008823
Probable space group: P -1
;
_chemical_formula_sum "Si O2"
_cell_formula_units_Z 16
_cell_length_a 6.670512
_cell_length_b 25.754159
_cell_length_c 18.076601
_cell_angle_alpha 20.011134
_cell_angle_beta 79.856743
_cell_angle_gamma 68.642232
_cell_volume 844.679974
_symmetry_space_group_name_H-M "P -1"
_symmetry_group_IT_number 2
_symmetry_cell_setting 'triclinic'
loop_
_space_group_symop_operation_xyz
x,y,z
-x,-y,-z
loop_
_atom_site_type_symbol
_atom_site_label
_atom_site_fract_x
_atom_site_fract_y
_atom_site_fract_z
Si Si1 0.876394 0.403120 0.793118
Si Si2 0.050242 0.517848 0.887210
Si Si3 0.361819 0.438938 0.249037
Si Si4 0.605917 0.234277 0.204309
Si Si5 0.041396 0.037207 0.334229
Si Si6 0.838394 0.497752 0.449011
Si Si7 0.734879 0.265339 0.849157
Si Si8 0.098912 0.849877 0.436289
O O1 0.690202 0.529573 0.702204
O O2 0.727612 0.388221 0.754267
O O3 0.026976 0.493064 0.644856
O O4 0.077867 0.188301 0.094776
O O5 0.040765 0.700390 0.628464
O O6 0.845089 0.551007 0.799517
O O7 0.310380 0.322728 0.104699
O O8 0.000000 0.500000 0.000000
O O9 0.622852 0.233399 0.499921
O O10 0.379734 0.596531 0.999736
O O11 0.750464 0.147201 0.233638
O O12 0.750577 0.064387 0.479987
O O13 0.088821 0.883563 0.479078
O O14 0.843916 0.311954 0.708608
O O15 0.544101 0.674806 0.230261
O O16 0.000000 0.500000 0.500000
O O17 0.904209 0.043453 0.147200
#
# Coordination Sequence:
#
# PCOD8008823 Si02
#       8
#     2   2   2   2   2   2   2   2
#     4   9  19  34  56  79 103 137 175 217 259 307
#     4  11  22  34  52  75 106 148 181 212 261 310
#     4  10  21  36  51  75 109 143 177 214 259 308
#     4   9  19  35  51  72 105 139 176 220 262 303
#     4   9  17  34  54  74 103 136 175 224 261 298
#     4   9  18  34  58  84 107 129 164 213 264 316
#     4   9  19  36  58  81 104 134 170 212 264 311
#     4  10  21  35  52  75 106 137 173 216 259 309
#
# _framework density 18.942086
#
# number of rings (size 3 to 8) (size 9 to 14) (size 15 to 20)
#    0.000    2.500    0.000    1.500    0.000   10.000 
#    0.000   10.625    0.000    7.500    0.000    0.000 
#    0.000    0.000    0.000    0.000    0.000    0.000 
#
# Total GULP energy -198252.777570 kJ/mol
# GULP energy per Si atom -12390.798598 kJ/mol
# Density = 1.889897 g / cm^3
# Si number density = 18.942086 Si / 1000 Ang^3
#
#
#
# Elastic Constant Matrix: (Units=GPa)
#
#
# Indices 1 2 3 4 5 6 
#
# 1 125.3807 45.8320 51.7318 0.8827 20.4345 -7.8318
# 2 45.8320 83.0503 43.3084 -3.9750 9.2693 -9.1401
# 3 51.7318 43.3084 99.4143 7.4458 18.6862 -9.8427
# 4 0.8827 -3.9750 7.4458 32.9694 -6.6093 -1.8657
# 5 20.4345 9.2693 18.6862 -6.6093 25.2572 0.4379
# 6 -7.8318 -9.1401 -9.8427 -1.8657 0.4379 24.4906
#
#
#
# Elastic Compliance Matrix: (Units=1/GPa)
#
#
# Indices 1 2 3 4 5 6 
#
# 1 0.011826 -0.004258 -0.002929 -0.001356 -0.006211 0.001023
# 2 -0.004258 0.017803 -0.006002 0.004279 0.002418 0.003153
# 3 -0.002929 -0.006002 0.016767 -0.006151 -0.009499 0.003263
# 4 -0.001356 0.004279 -0.006151 0.034985 0.013213 0.001120
# 5 -0.006211 0.002418 -0.009499 0.013213 0.054300 -0.004866
# 6 0.001023 0.003153 0.003263 0.001120 -0.004866 0.043820
#
#
# Mechanical properties :
#
#
# Convention : Reuss Voigt Hill
#
# Bulk Modulus (GPa) = 49.95606 65.50996 57.73301
# Shear Modulus (GPa) = 23.52360 27.67498 25.59929
#
# Velocity S-wave (km/s) = 3.52784 3.82649 3.68020
# Velocity P-wave (km/s) = 6.55931 7.36085 6.97161
#
# Compressibility (1/GPa) = 0.02001759
#
# Stress axis : x y z
#
# Youngs Moduli (GPa) = 84.55615 56.17038 59.64111
#
# Poissons Ratio (x) = 0.23919 0.17467
# Poissons Ratio (y) = 0.36007 0.35799
# Poissons Ratio (z) = 0.24763 0.33716
#
# Static dielectric constant tensor:
#      x y z
#    x 3.584390 -0.276280 -0.051650 
#    y -0.276280 3.625570 0.157300 
#    z -0.051650 0.157300 3.638010 
# 
# 
# High freq. dielectric constant tensor:
#      x y z
#    x 1.735140 -0.010120 0.001490 
#    y -0.010120 1.725130 0.012850 
#    z 0.001490 0.012850 1.740530 
# 
# From -- ./inp_files/44696.got.cif
#   From: 2010.06.25/outbox.cif.g09.slc.cpg/sg2_23_cif.got.tgz:44696.got - 2010.06.27 13:26:56.
