data_PCOD8008105
_publ_section_title
;
Structure prediction by ZEFSAII (Michael W. Deem and Ramdas Pophale) SiO2 
 PCOD8008105
Probable space group: P -1
;
_chemical_formula_sum "Si O2"
_cell_formula_units_Z 16
_cell_length_a 13.800547
_cell_length_b 11.740989
_cell_length_c 9.069093
_cell_angle_alpha 104.190695
_cell_angle_beta 32.311372
_cell_angle_gamma 111.641992
_cell_volume 723.519274
_symmetry_space_group_name_H-M "P -1"
_symmetry_group_IT_number 2
_symmetry_cell_setting 'triclinic'
loop_
_space_group_symop_operation_xyz
x,y,z
-x,-y,-z
loop_
_atom_site_type_symbol
_atom_site_label
_atom_site_fract_x
_atom_site_fract_y
_atom_site_fract_z
Si Si1 0.742201 0.850129 0.724442
Si Si2 0.893761 0.735169 0.241851
Si Si3 0.864135 0.148163 0.278851
Si Si4 0.344000 0.532460 0.612190
Si Si5 0.519956 0.255386 0.718964
Si Si6 0.870399 0.129543 0.605768
Si Si7 0.609484 0.916660 0.404880
Si Si8 0.743444 0.258340 0.052223
O O1 0.750003 0.790427 0.534585
O O2 0.925847 0.854807 0.583366
O O3 0.728855 0.989006 0.768371
O O4 0.557169 0.758962 0.018520
O O5 0.810167 0.588197 0.292631
O O6 0.101261 0.782376 0.066207
O O7 0.931433 0.790544 0.045409
O O8 0.712983 0.217714 0.447525
O O9 0.900476 0.163377 0.408557
O O10 0.795392 0.002834 0.276380
O O11 0.500000 0.500000 0.500000
O O12 0.433104 0.610098 0.374539
O O13 0.238549 0.601161 0.882346
O O14 0.349311 0.163010 0.810032
O O15 0.781501 0.230449 0.824243
O O16 0.500000 0.000000 0.500000
O O17 0.472926 0.822984 0.665476
#
# Coordination Sequence:
#
# PCOD8008105 Si02
#       8
#     2   2   2   2   2   2   2   2
#     4  10  24  41  62  95 139 162 199 265 325 375
#     4  11  23  42  65  94 127 174 212 256 315 376
#     4  11  22  37  67  96 125 170 215 254 309 392
#     4  11  25  42  67  92 126 167 220 269 312 366
#     4  10  22  40  64  89 125 170 212 266 310 374
#     4  10  23  39  63  98 133 164 205 259 323 379
#     4   9  16  32  60  91 120 155 207 248 314 361
#     4  10  20  42  66  88 126 172 211 261 311 380
#
# _framework density 22.114131
#
# number of rings (size 3 to 8) (size 9 to 14) (size 15 to 20)
#    0.000    1.750    3.750    1.875    5.250    6.000 
#    0.000    0.625    0.000    0.000    0.000    0.000 
#    0.000    0.000    0.000    0.000    0.000    0.000 
#
# Total GULP energy -198295.547695 kJ/mol
# GULP energy per Si atom -12393.471731 kJ/mol
# Density = 2.206380 g / cm^3
# Si number density = 22.114131 Si / 1000 Ang^3
#
#
#
# Elastic Constant Matrix: (Units=GPa)
#
#
# Indices 1 2 3 4 5 6 
#
# 1 61.2234 25.4404 32.9875 -0.7203 30.3654 2.2680
# 2 25.4404 118.3114 57.1654 -3.6901 17.8178 21.0348
# 3 32.9875 57.1654 149.4177 0.1519 43.5405 12.2632
# 4 -0.7203 -3.6901 0.1519 40.0488 2.8061 4.8908
# 5 30.3654 17.8178 43.5405 2.8061 37.9567 4.2413
# 6 2.2680 21.0348 12.2632 4.8908 4.2413 30.8117
#
#
#
# Elastic Compliance Matrix: (Units=1/GPa)
#
#
# Indices 1 2 3 4 5 6 
#
# 1 0.028567 -0.003946 0.001817 0.001440 -0.023513 0.002876
# 2 -0.003946 0.012123 -0.003972 0.001734 0.002681 -0.007050
# 3 0.001817 -0.003972 0.011597 0.000569 -0.012895 -0.000353
# 4 0.001440 0.001734 0.000569 0.026055 -0.003975 -0.005105
# 5 -0.023513 0.002681 -0.012895 -0.003975 0.059262 -0.002494
# 6 0.002876 -0.007050 -0.000353 -0.005105 -0.002494 0.038351
#
#
# Mechanical properties :
#
#
# Convention : Reuss Voigt Hill
#
# Bulk Modulus (GPa) = 24.94614 62.23768 43.59191
# Shear Modulus (GPa) = 24.81170 35.98739 30.39954
#
# Velocity S-wave (km/s) = 3.35324 4.03842 3.71167
# Velocity P-wave (km/s) = 5.12810 7.06753 6.17444
#
# Compressibility (1/GPa) = 0.04008636
#
# Stress axis : x y z
#
# Youngs Moduli (GPa) = 35.00584 82.48493 86.22926
#
# Poissons Ratio (x) = 0.32549 -0.15670
# Poissons Ratio (y) = 0.13813 0.34246
# Poissons Ratio (z) = -0.06361 0.32759
#
# Static dielectric constant tensor:
#      x y z
#    x 3.953190 0.231600 0.157050 
#    y 0.231600 4.140930 0.136620 
#    z 0.157050 0.136620 4.084820 
# 
# 
# High freq. dielectric constant tensor:
#      x y z
#    x 1.867990 0.004690 0.007750 
#    y 0.004690 1.858340 0.006700 
#    z 0.007750 0.006700 1.868870 
# 
# From -- ./inp_files/176736.got.cif
#   From: 2010.06.25/outbox.cif.g09.slc.cpg/sg2_89_cif.got.tgz:176736.got - 2010.06.27 13:26:56.
