data_PCOD8008845
_publ_section_title
;
Structure prediction by ZEFSAII (Michael W. Deem and Ramdas Pophale) SiO2 
 PCOD8008845
Probable space group: P -1
;
_chemical_formula_sum "Si O2"
_cell_formula_units_Z 14
_cell_length_a 21.509148
_cell_length_b 15.056590
_cell_length_c 5.122057
_cell_angle_alpha 104.704298
_cell_angle_beta 103.567765
_cell_angle_gamma 26.538161
_cell_volume 716.760298
_symmetry_space_group_name_H-M "P -1"
_symmetry_group_IT_number 2
_symmetry_cell_setting 'triclinic'
loop_
_space_group_symop_operation_xyz
x,y,z
-x,-y,-z
loop_
_atom_site_type_symbol
_atom_site_label
_atom_site_fract_x
_atom_site_fract_y
_atom_site_fract_z
Si Si1 0.488877 0.621883 0.064964
Si Si2 0.015540 0.808940 0.950213
Si Si3 0.430391 0.795204 0.645712
Si Si4 0.901431 0.041406 0.491950
Si Si5 0.005851 0.372861 0.135037
Si Si6 0.286550 0.582097 0.166326
Si Si7 0.159019 0.242080 0.691108
O O1 0.408840 0.764591 0.339850
O O2 0.500000 0.500000 0.000000
O O3 0.397341 0.767009 0.829527
O O4 0.644378 0.468187 0.072505
O O5 0.960469 0.904493 0.683024
O O6 0.048320 0.659770 0.884390
O O7 0.159224 0.678348 0.051848
O O8 0.898256 0.984534 0.182440
O O9 0.590836 0.626756 0.705876
O O10 0.324499 0.015609 0.713723
O O11 0.754556 0.273720 0.600866
O O12 0.000000 0.000000 0.500000
O O13 0.116581 0.263790 0.377666
O O14 0.871501 0.611131 0.189859
O O15 0.075341 0.288936 0.856133
#
# Coordination Sequence:
#
# PCOD8008845 Si02
#       7
#     2   2   2   2   2   2   2
#     4  10  22  36  53  80 115 153 186 222 274 336
#     4  11  22  37  58  87 110 153 193 234 285 332
#     4  10  22  37  58  81 114 151 182 236 283 335
#     4  10  21  35  55  81 119 153 187 223 280 338
#     4  10  22  39  64  84 113 144 193 245 283 343
#     4   9  23  35  57  79 122 145 187 229 279 334
#     4  10  21  42  60  86 112 148 188 241 296 330
#
# _framework density 19.532330999999999
#
# number of rings (size 3 to 8) (size 9 to 14) (size 15 to 20)
#    0.857    1.143    0.000    3.857    6.000    3.429 
#    0.000    0.714    0.000    0.857    0.000    0.000 
#    0.000    0.000    0.000    0.000    0.000    0.000 
#
# Total GULP energy -173495.465567 kJ/mol
# GULP energy per Si atom -12392.533255 kJ/mol
# Density = 1.948787 g / cm^3
# Si number density = 19.532331 Si / 1000 Ang^3
#
#
#
# Elastic Constant Matrix: (Units=GPa)
#
#
# Indices 1 2 3 4 5 6 
#
# 1 82.4093 34.6442 16.8462 7.2710 0.6772 23.0535
# 2 34.6442 133.0888 23.2061 19.8341 -5.2363 13.1070
# 3 16.8462 23.2061 101.7916 -3.7470 -14.6891 13.9164
# 4 7.2710 19.8341 -3.7470 23.7830 12.2941 -0.9894
# 5 0.6772 -5.2363 -14.6891 12.2941 21.2142 -3.7604
# 6 23.0535 13.1070 13.9164 -0.9894 -3.7604 25.7494
#
#
#
# Elastic Compliance Matrix: (Units=1/GPa)
#
#
# Indices 1 2 3 4 5 6 
#
# 1 0.017801 -0.002857 -0.000842 -0.002146 -0.003197 -0.014577
# 2 -0.002857 0.010971 -0.000899 -0.013507 0.009713 -0.001641
# 3 -0.000842 -0.000899 0.011846 -0.001517 0.008167 -0.004056
# 4 -0.002146 -0.013507 -0.001517 0.079503 -0.049423 0.005454
# 5 -0.003197 0.009713 0.008167 -0.049423 0.084637 0.003965
# 6 -0.014577 -0.001641 -0.004056 0.005454 0.003965 0.055703
#
#
# Mechanical properties :
#
#
# Convention : Reuss Voigt Hill
#
# Bulk Modulus (GPa) = 31.82659 51.85362 41.84011
# Shear Modulus (GPa) = 17.84872 30.32221 24.08547
#
# Velocity S-wave (km/s) = 3.02620 3.94434 3.51537
# Velocity P-wave (km/s) = 5.34230 6.88106 6.15992
#
# Compressibility (1/GPa) = 0.03142027
#
# Stress axis : x y z
#
# Youngs Moduli (GPa) = 56.17511 91.14884 84.41936
#
# Poissons Ratio (x) = 0.26045 0.07109
# Poissons Ratio (y) = 0.16051 0.07593
# Poissons Ratio (z) = 0.04730 0.08199
#
# Static dielectric constant tensor:
#      x y z
#    x 3.243250 0.181560 -0.146460 
#    y 0.181560 3.667670 0.222810 
#    z -0.146460 0.222810 3.753260 
# 
# 
# High freq. dielectric constant tensor:
#      x y z
#    x 1.727630 0.012650 -0.016740 
#    y 0.012650 1.761970 0.003160 
#    z -0.016740 0.003160 1.779530 
# 
# From -- ./inp_files/119342.got.cif
#   From: 2010.06.25/outbox.cif.g09.slc.cpg/sg2_60_cif.got.tgz:119342.got - 2010.06.27 13:26:56.
