data_PCOD8008538
_publ_section_title
;
Structure prediction by ZEFSAII (Michael W. Deem and Ramdas Pophale) SiO2 
 PCOD8008538
Probable space group: P -1
;
_chemical_formula_sum "Si O2"
_cell_formula_units_Z 16
_cell_length_a 9.667713
_cell_length_b 17.142045
_cell_length_c 13.022357
_cell_angle_alpha 130.396402
_cell_angle_beta 35.585101
_cell_angle_gamma 104.076591
_cell_volume 734.532753
_symmetry_space_group_name_H-M "P -1"
_symmetry_group_IT_number 2
_symmetry_cell_setting 'triclinic'
loop_
_space_group_symop_operation_xyz
x,y,z
-x,-y,-z
loop_
_atom_site_type_symbol
_atom_site_label
_atom_site_fract_x
_atom_site_fract_y
_atom_site_fract_z
Si Si1 0.124904 0.085205 0.109511
Si Si2 0.620120 0.689739 0.820583
Si Si3 0.173382 0.837794 0.860455
Si Si4 0.465558 0.662328 0.237357
Si Si5 0.685122 0.045834 0.682262
Si Si6 0.702070 0.508006 0.772868
Si Si7 0.946111 0.199918 0.880035
Si Si8 0.192152 0.348701 0.791595
O O1 0.029033 0.140477 0.096931
O O2 0.892734 0.204717 0.430259
O O3 0.478708 0.025977 0.862065
O O4 0.087522 0.976260 0.062696
O O5 0.671691 0.561190 0.722674
O O6 0.955026 0.627754 0.520925
O O7 0.527198 0.793526 0.058513
O O8 0.371833 0.757883 0.937473
O O9 0.536230 0.736034 0.528032
O O10 0.090976 0.785804 0.961804
O O11 0.518825 0.529321 0.124688
O O12 0.669450 0.676009 0.199650
O O13 0.590558 0.631025 0.019493
O O14 0.000000 0.000000 0.500000
O O15 0.771961 0.957117 0.451657
O O16 0.001231 0.295359 0.874231
O O17 0.000000 0.500000 0.000000
#
# Coordination Sequence:
#
# PCOD8008538 Si02
#       8
#     2   2   2   2   2   2   2   2
#     4  10  20  44  63  93 133 160 220 269 312 381
#     4  10  22  40  60  93 127 163 212 267 310 381
#     4  10  24  41  67  93 127 173 210 269 320 375
#     4  10  22  39  63  93 119 171 211 257 325 372
#     4  10  21  40  63  91 127 166 207 265 321 371
#     4  10  21  40  64  88 126 167 212 259 317 383
#     4  11  24  43  65  96 128 169 216 259 328 380
#     4  11  24  43  64  95 132 165 212 268 319 383
#
# _framework density 21.782554999999999
#
# number of rings (size 3 to 8) (size 9 to 14) (size 15 to 20)
#    0.000    1.750    2.500    0.750    3.500    2.000 
#    2.250    2.500    0.000    0.000    0.000    0.000 
#    0.000    0.000    0.000    0.000    0.000    0.000 
#
# Total GULP energy -198228.475738 kJ/mol
# GULP energy per Si atom -12389.279734 kJ/mol
# Density = 2.173298 g / cm^3
# Si number density = 21.782555 Si / 1000 Ang^3
#
#
#
# Elastic Constant Matrix: (Units=GPa)
#
#
# Indices 1 2 3 4 5 6 
#
# 1 50.5585 17.1587 35.6160 -0.2111 -0.5113 9.0997
# 2 17.1587 90.4523 33.5373 -1.9271 3.1149 1.9342
# 3 35.6160 33.5373 148.0732 3.3623 8.2601 -2.0442
# 4 -0.2111 -1.9271 3.3623 26.1941 10.5428 1.5300
# 5 -0.5113 3.1149 8.2601 10.5428 28.7333 -2.0240
# 6 9.0997 1.9342 -2.0442 1.5300 -2.0240 28.1130
#
#
#
# Elastic Compliance Matrix: (Units=1/GPa)
#
#
# Indices 1 2 3 4 5 6 
#
# 1 0.026501 -0.002659 -0.005999 0.000642 0.001632 -0.008749
# 2 -0.002659 0.012451 -0.002144 0.001777 -0.001458 -0.000354
# 3 -0.005999 -0.002144 0.008844 -0.000700 -0.001975 0.002628
# 4 0.000642 0.001777 -0.000700 0.045462 -0.016948 -0.004075
# 5 0.001632 -0.001458 -0.001975 -0.016948 0.042014 0.003375
# 6 -0.008749 -0.000354 0.002628 -0.004075 0.003375 0.039083
#
#
# Mechanical properties :
#
#
# Convention : Reuss Voigt Hill
#
# Bulk Modulus (GPa) = 38.17857 51.30089 44.73973
# Shear Modulus (GPa) = 24.42746 30.12620 27.27683
#
# Velocity S-wave (km/s) = 3.35240 3.72296 3.54253
# Velocity P-wave (km/s) = 5.70526 6.48715 6.10873
#
# Compressibility (1/GPa) = 0.02619270
#
# Stress axis : x y z
#
# Youngs Moduli (GPa) = 37.73470 80.31745 113.06757
#
# Poissons Ratio (x) = 0.21353 0.67824
# Poissons Ratio (y) = 0.10032 0.24246
# Poissons Ratio (z) = 0.22635 0.17223
#
# Static dielectric constant tensor:
#      x y z
#    x 3.692860 0.288240 0.054300 
#    y 0.288240 3.724480 0.082920 
#    z 0.054300 0.082920 4.318520 
# 
# 
# High freq. dielectric constant tensor:
#      x y z
#    x 1.830950 0.025210 0.001630 
#    y 0.025210 1.848150 0.004270 
#    z 0.001630 0.004270 1.876390 
# 
# From -- ./inp_files/403186.got.cif
#   From: 2010.06.25/outbox.cif.g09.slc.cpg/sg2_202_cif.got.tgz:403186.got - 2010.06.27 13:26:56.
