data_PCOD8008326
_publ_section_title
;
Structure prediction by ZEFSAII (Michael W. Deem and Ramdas Pophale) SiO2 
 PCOD8008326
Probable space group: P -1
;
_chemical_formula_sum "Si O2"
_cell_formula_units_Z 16
_cell_length_a 21.593156
_cell_length_b 12.573864
_cell_length_c 14.901017
_cell_angle_alpha 152.151637
_cell_angle_beta 153.472254
_cell_angle_gamma 27.730201
_cell_volume 753.464715
_symmetry_space_group_name_H-M "P -1"
_symmetry_group_IT_number 2
_symmetry_cell_setting 'triclinic'
loop_
_space_group_symop_operation_xyz
x,y,z
-x,-y,-z
loop_
_atom_site_type_symbol
_atom_site_label
_atom_site_fract_x
_atom_site_fract_y
_atom_site_fract_z
Si Si1 0.543449 0.810451 0.143490
Si Si2 0.947756 0.932041 0.146448
Si Si3 0.333980 0.595510 0.658197
Si Si4 0.210815 0.475713 0.088546
Si Si5 0.827765 0.995140 0.383550
Si Si6 0.544189 0.150835 0.242701
Si Si7 0.259561 0.266659 0.188042
Si Si8 0.677954 0.445293 0.187224
O O1 0.677169 0.667381 0.285334
O O2 0.591247 0.983222 0.270390
O O3 0.377388 0.978431 0.100572
O O4 0.500291 0.607139 0.882903
O O5 0.080932 0.770283 0.123262
O O6 0.799769 0.179627 0.100207
O O7 0.889573 0.731454 0.956756
O O8 0.013005 0.040363 0.392706
O O9 0.353907 0.362518 0.447743
O O10 0.275402 0.546769 0.642944
O O11 0.201507 0.859629 0.641121
O O12 0.389467 0.423362 0.259654
O O13 0.198383 0.446189 0.156716
O O14 0.170394 0.278629 0.832525
O O15 0.692045 0.174758 0.413041
O O16 0.500000 0.000000 0.000000
O O17 0.500000 0.500000 0.000000
#
# Coordination Sequence:
#
# PCOD8008326 Si02
#       8
#     2   2   2   2   2   2   2   2
#     4  10  20  43  58  84 120 152 198 236 282 349
#     4  12  23  36  56  89 123 151 192 241 291 345
#     4  11  20  35  60  88 117 152 189 234 301 342
#     4  10  21  35  56  87 123 146 189 243 292 340
#     4  11  22  37  60  91 117 155 190 240 298 334
#     4   9  18  39  64  85 112 155 194 238 288 339
#     4  11  21  34  55  91 118 152 185 242 296 345
#     4  10  22  41  58  81 120 163 187 234 290 354
#
# _framework density 21.235234999999999
#
# number of rings (size 3 to 8) (size 9 to 14) (size 15 to 20)
#    0.000    1.500    7.500    0.375    1.750    2.000 
#    0.000    0.625    0.000    3.000    0.000    0.000 
#    0.000    0.000    0.000    0.000    0.000    0.000 
#
# Total GULP energy -198239.471502 kJ/mol
# GULP energy per Si atom -12389.966969 kJ/mol
# Density = 2.118690 g / cm^3
# Si number density = 21.235235 Si / 1000 Ang^3
#
#
#
# Elastic Constant Matrix: (Units=GPa)
#
#
# Indices 1 2 3 4 5 6 
#
# 1 73.1814 51.2584 10.9187 1.0104 -4.2024 -7.4343
# 2 51.2584 137.7083 11.7781 -6.2837 -2.8535 -10.2229
# 3 10.9187 11.7781 74.6530 -5.3378 -2.2863 -2.8910
# 4 1.0104 -6.2837 -5.3378 13.9313 -3.2127 -0.7038
# 5 -4.2024 -2.8535 -2.2863 -3.2127 21.0889 2.0229
# 6 -7.4343 -10.2229 -2.8910 -0.7038 2.0229 29.4356
#
#
#
# Elastic Compliance Matrix: (Units=1/GPa)
#
#
# Indices 1 2 3 4 5 6 
#
# 1 0.019248 -0.007035 -0.001917 -0.004799 0.001753 0.001994
# 2 -0.007035 0.010286 -0.000121 0.005339 0.000611 0.001869
# 3 -0.001917 -0.000121 0.014221 0.006034 0.001978 0.000879
# 4 -0.004799 0.005339 0.006034 0.079815 0.012359 0.002294
# 5 0.001753 0.000611 0.001978 0.012359 0.050169 -0.002303
# 6 0.001994 0.001869 0.000879 0.002294 -0.002303 0.035425
#
#
# Mechanical properties :
#
#
# Convention : Reuss Voigt Hill
#
# Bulk Modulus (GPa) = 39.05130 48.16144 43.60637
# Shear Modulus (GPa) = 21.20032 26.99700 24.09866
#
# Velocity S-wave (km/s) = 3.16310 3.56944 3.37240
# Velocity P-wave (km/s) = 5.63650 6.30215 5.97859
#
# Compressibility (1/GPa) = 0.02560734
#
# Stress axis : x y z
#
# Youngs Moduli (GPa) = 51.95373 97.22201 70.31919
#
# Poissons Ratio (x) = 0.68397 0.13483
# Poissons Ratio (y) = 0.36550 0.00851
# Poissons Ratio (z) = 0.09962 0.01177
#
# Static dielectric constant tensor:
#      x y z
#    x 4.385170 -0.015400 0.097600 
#    y -0.015400 4.057010 -0.064970 
#    z 0.097600 -0.064970 3.794780 
# 
# 
# High freq. dielectric constant tensor:
#      x y z
#    x 1.811570 -0.015450 -0.008690 
#    y -0.015450 1.821540 0.003820 
#    z -0.008690 0.003820 1.822880 
# 
# From -- ./inp_files/541023.got.cif
#   From: 2010.06.25/outbox.cif.g09.slc.cpg/sg2_271_cif.got.tgz:541023.got - 2010.06.27 13:26:56.
