data_PCOD8008463
_publ_section_title
;
Structure prediction by ZEFSAII (Michael W. Deem and Ramdas Pophale) SiO2 
 PCOD8008463
Probable space group: P -1
;
_chemical_formula_sum "Si O2"
_cell_formula_units_Z 16
_cell_length_a 8.941029
_cell_length_b 14.165991
_cell_length_c 9.248564
_cell_angle_alpha 107.330016
_cell_angle_beta 46.353988
_cell_angle_gamma 112.623228
_cell_volume 781.509965
_symmetry_space_group_name_H-M "P -1"
_symmetry_group_IT_number 2
_symmetry_cell_setting 'triclinic'
loop_
_space_group_symop_operation_xyz
x,y,z
-x,-y,-z
loop_
_atom_site_type_symbol
_atom_site_label
_atom_site_fract_x
_atom_site_fract_y
_atom_site_fract_z
Si Si1 0.609410 0.408329 0.875580
Si Si2 0.800100 0.378309 0.428524
Si Si3 0.166623 0.275732 0.089541
Si Si4 0.999382 0.245003 0.872324
Si Si5 0.991042 0.554628 0.180547
Si Si6 0.108444 0.935392 0.792803
Si Si7 0.858303 0.932491 0.441332
Si Si8 0.389944 0.815548 0.707402
O O1 0.733745 0.405368 0.642556
O O2 0.771256 0.414747 0.900597
O O3 0.500000 0.500000 0.000000
O O4 0.415211 0.307178 0.978884
O O5 0.625852 0.279248 0.436487
O O6 0.036524 0.357321 0.265489
O O7 0.818877 0.479445 0.364254
O O8 0.067986 0.167516 0.183178
O O9 0.149218 0.263670 0.922046
O O10 0.077606 0.340573 0.754801
O O11 0.005417 0.141849 0.741250
O O12 0.753111 0.230414 0.079064
O O13 0.000000 0.500000 0.000000
O O14 0.302414 0.904292 0.730139
O O15 0.193755 0.997156 0.619550
O O16 0.000000 0.000000 0.000000
O O17 0.631416 0.864031 0.620475
O O18 0.000000 0.000000 0.500000
#
# Coordination Sequence:
#
# PCOD8008463 Si02
#       8
#     2   2   2   2   2   2   2   2
#     4  12  24  40  67  96 127 167 213 262 314 379
#     4  10  22  42  68  90 128 165 213 261 312 385
#     4  10  21  42  68  90 125 164 221 259 310 382
#     4  10  22  44  62  93 132 168 207 267 319 382
#     4  12  22  43  66  93 134 169 203 262 327 380
#     4  10  20  43  69  89 122 170 212 263 313 376
#     4  12  25  42  62  98 132 162 217 272 317 376
#     4  10  22  42  73  88 125 173 217 254 328 382
#
# _framework density 20.473188
#
# number of rings (size 3 to 8) (size 9 to 14) (size 15 to 20)
#    0.000    1.500    6.250    1.500    0.000    3.500 
#    4.500    1.875    0.000    0.000    0.000    0.000 
#    0.000    0.000    0.000    0.000    0.000    0.000 
#
# Total GULP energy -198391.864413 kJ/mol
# GULP energy per Si atom -12399.491526 kJ/mol
# Density = 2.042659 g / cm^3
# Si number density = 20.473188 Si / 1000 Ang^3
#
#
#
# Elastic Constant Matrix: (Units=GPa)
#
#
# Indices 1 2 3 4 5 6 
#
# 1 94.5834 44.7773 38.2497 1.6774 0.1689 30.8074
# 2 44.7773 115.7188 40.0760 -0.5824 6.6026 -4.7642
# 3 38.2497 40.0760 104.6659 11.9167 9.8979 12.9810
# 4 1.6774 -0.5824 11.9167 38.3211 7.6440 -3.7140
# 5 0.1689 6.6026 9.8979 7.6440 16.4936 -4.8291
# 6 30.8074 -4.7642 12.9810 -3.7140 -4.8291 42.9972
#
#
#
# Elastic Compliance Matrix: (Units=1/GPa)
#
#
# Indices 1 2 3 4 5 6 
#
# 1 0.019796 -0.007446 -0.002493 -0.001772 0.000906 -0.014308
# 2 -0.007446 0.013158 -0.003399 0.002769 -0.002146 0.007818
# 3 -0.002493 -0.003399 0.013134 -0.003158 -0.006060 -0.003509
# 4 -0.001772 0.002769 -0.003158 0.029951 -0.011971 0.003773
# 5 0.000906 -0.002146 -0.006060 -0.011971 0.073038 0.008111
# 6 -0.014308 0.007818 -0.003509 0.003773 0.008111 0.036671
#
#
# Mechanical properties :
#
#
# Convention : Reuss Voigt Hill
#
# Bulk Modulus (GPa) = 51.51221 62.35269 56.93245
# Shear Modulus (GPa) = 22.84190 32.35338 27.59764
#
# Velocity S-wave (km/s) = 3.34383 3.97959 3.67548
# Velocity P-wave (km/s) = 6.33433 7.18596 6.77354
#
# Compressibility (1/GPa) = 0.01941287
#
# Stress axis : x y z
#
# Youngs Moduli (GPa) = 50.51517 75.99720 76.13597
#
# Poissons Ratio (x) = 0.56591 0.18978
# Poissons Ratio (y) = 0.37616 0.25877
# Poissons Ratio (z) = 0.12592 0.25830
#
# Static dielectric constant tensor:
#      x y z
#    x 3.695570 0.005360 -0.073740 
#    y 0.005360 4.139940 -0.078250 
#    z -0.073740 -0.078250 3.763110 
# 
# 
# High freq. dielectric constant tensor:
#      x y z
#    x 1.779270 0.006670 -0.001580 
#    y 0.006670 1.821640 -0.000040 
#    z -0.001580 -0.000040 1.795900 
# 
# From -- ./inp_files/202899.got.cif
#   From: 2010.06.25/outbox.cif.g09.slc.cpg/sg2_102_cif.got.tgz:202899.got - 2010.06.27 13:26:56.
