data_PCOD8008692
_publ_section_title
;
Structure prediction by ZEFSAII (Michael W. Deem and Ramdas Pophale) SiO2 
 PCOD8008692
Probable space group: P -1
;
_chemical_formula_sum "Si O2"
_cell_formula_units_Z 16
_cell_length_a 20.035484
_cell_length_b 11.805392
_cell_length_c 17.208003
_cell_angle_alpha 34.061950
_cell_angle_beta 159.249852
_cell_angle_gamma 137.419003
_cell_volume 792.418292
_symmetry_space_group_name_H-M "P -1"
_symmetry_group_IT_number 2
_symmetry_cell_setting 'triclinic'
loop_
_space_group_symop_operation_xyz
x,y,z
-x,-y,-z
loop_
_atom_site_type_symbol
_atom_site_label
_atom_site_fract_x
_atom_site_fract_y
_atom_site_fract_z
Si Si1 0.613256 0.211878 0.213739
Si Si2 0.916444 0.121534 0.914313
Si Si3 0.675922 0.545051 0.882431
Si Si4 0.894799 0.545157 0.578968
Si Si5 0.669160 0.913572 0.567251
Si Si6 0.479152 0.204649 0.910001
Si Si7 0.239428 0.470469 0.721894
Si Si8 0.662528 0.818096 0.866610
O O1 0.636523 0.174134 0.168643
O O2 0.782933 0.303345 0.389855
O O3 0.589701 0.993412 0.350199
O O4 0.435259 0.401348 0.925586
O O5 0.828139 0.353347 0.658885
O O6 0.757591 0.016917 0.841998
O O7 0.101814 0.113900 0.174625
O O8 0.000000 0.000000 0.000000
O O9 0.616531 0.696761 0.658125
O O10 0.661364 0.676056 0.871410
O O11 0.532218 0.386276 0.811799
O O12 0.896569 0.427354 0.179824
O O13 0.917551 0.514503 0.526765
O O14 0.736097 0.743801 0.318429
O O15 0.561962 0.093300 0.407480
O O16 0.500000 0.000000 0.000000
O O17 0.222632 0.306727 0.864906
#
# Coordination Sequence:
#
# PCOD8008692 Si02
#       8
#     2   2   2   2   2   2   2   2
#     4   9  18  34  55  81 109 144 182 220 280 321
#     4  11  20  31  51  86 117 151 168 209 280 335
#     4  11  22  34  55  85 106 151 183 219 278 321
#     4  10  22  37  56  85 119 139 181 226 271 335
#     4  10  21  33  54  80 119 144 172 220 268 344
#     4  11  24  42  60  75 104 151 196 236 268 308
#     4   9  18  31  53  82 117 146 167 223 275 333
#     4  11  20  31  50  83 118 148 178 202 273 343
#
# _framework density 20.191358000000001
#
# number of rings (size 3 to 8) (size 9 to 14) (size 15 to 20)
#    0.000    1.750    3.750    1.875    3.500    2.000 
#    0.000    0.625    0.000    3.000    0.000    0.000 
#    0.000    0.000    0.000    0.000    0.000    0.000 
#
# Total GULP energy -198253.069706 kJ/mol
# GULP energy per Si atom -12390.816857 kJ/mol
# Density = 2.014540 g / cm^3
# Si number density = 20.191358 Si / 1000 Ang^3
#
#
#
# Elastic Constant Matrix: (Units=GPa)
#
#
# Indices 1 2 3 4 5 6 
#
# 1 61.1190 26.4319 30.7549 -14.9111 -9.4248 -5.4871
# 2 26.4319 66.2746 25.5757 -13.0794 -1.9414 -7.7185
# 3 30.7549 25.5757 74.5041 -13.5521 -10.2637 0.5742
# 4 -14.9111 -13.0794 -13.5521 19.1011 10.5064 -0.6421
# 5 -9.4248 -1.9414 -10.2637 10.5064 34.0516 -6.0040
# 6 -5.4871 -7.7185 0.5742 -0.6421 -6.0040 22.1775
#
#
#
# Elastic Compliance Matrix: (Units=1/GPa)
#
#
# Indices 1 2 3 4 5 6 
#
# 1 0.025171 -0.004666 -0.006559 0.010645 0.002452 0.005746
# 2 -0.004666 0.021010 -0.003982 0.009965 -0.003375 0.005636
# 3 -0.006559 -0.003982 0.018530 0.004258 0.001718 -0.002900
# 4 0.010645 0.009965 0.004258 0.081513 -0.019826 0.002984
# 5 0.002452 -0.003375 0.001718 -0.019826 0.038098 0.009128
# 6 0.005746 0.005636 -0.002900 0.002984 0.009128 0.051106
#
#
# Mechanical properties :
#
#
# Convention : Reuss Voigt Hill
#
# Bulk Modulus (GPa) = 29.15651 40.82475 34.99063
# Shear Modulus (GPa) = 18.03266 23.00838 20.52052
#
# Velocity S-wave (km/s) = 2.99170 3.37933 3.19141
# Velocity P-wave (km/s) = 5.13859 5.95729 5.56302
#
# Compressibility (1/GPa) = 0.03429766
#
# Stress axis : x y z
#
# Youngs Moduli (GPa) = 39.72849 47.59550 53.96654
#
# Poissons Ratio (x) = 0.22207 0.35396
# Poissons Ratio (y) = 0.18536 0.21491
# Poissons Ratio (z) = 0.26057 0.18953
#
# Static dielectric constant tensor:
#      x y z
#    x 3.406990 0.096730 -0.406690 
#    y 0.096730 2.960270 -0.401990 
#    z -0.406690 -0.401990 2.902790 
# 
# 
# High freq. dielectric constant tensor:
#      x y z
#    x 1.771440 0.042420 -0.013860 
#    y 0.042420 1.740460 -0.002550 
#    z -0.013860 -0.002550 1.801430 
# 
# From -- ./inp_files/354477.got.cif
#   From: 2010.06.25/outbox.cif.g09.slc.cpg/sg2_178_cif.got.tgz:354477.got - 2010.06.27 13:26:56.
