data_PCOD8008821
_publ_section_title
;
Structure prediction by ZEFSAII (Michael W. Deem and Ramdas Pophale) SiO2 
 PCOD8008821
Probable space group: P -1
;
_chemical_formula_sum "Si O2"
_cell_formula_units_Z 16
_cell_length_a 11.384902
_cell_length_b 18.691703
_cell_length_c 12.447540
_cell_angle_alpha 39.109588
_cell_angle_beta 66.079873
_cell_angle_gamma 37.354145
_cell_volume 845.254715
_symmetry_space_group_name_H-M "P -1"
_symmetry_group_IT_number 2
_symmetry_cell_setting 'triclinic'
loop_
_space_group_symop_operation_xyz
x,y,z
-x,-y,-z
loop_
_atom_site_type_symbol
_atom_site_label
_atom_site_fract_x
_atom_site_fract_y
_atom_site_fract_z
Si Si1 0.554977 0.552503 0.270741
Si Si2 0.745572 0.425041 0.582471
Si Si3 0.538891 0.155377 0.794634
Si Si4 0.555231 0.024076 0.561365
Si Si5 0.052456 0.638401 0.779057
Si Si6 0.165858 0.982193 0.983141
Si Si7 0.105623 0.456531 0.176643
Si Si8 0.646223 0.882203 0.921800
O O1 0.688450 0.440340 0.463504
O O2 0.394763 0.558939 0.306036
O O3 0.748781 0.418876 0.261885
O O4 0.399627 0.782939 0.059641
O O5 0.680035 0.602180 0.432661
O O6 0.024515 0.201335 0.752159
O O7 0.606752 0.038419 0.798740
O O8 0.492429 0.104721 0.970281
O O9 0.754970 0.071544 0.857520
O O10 0.353734 0.266315 0.368137
O O11 0.500000 0.000000 0.500000
O O12 0.556509 0.941851 0.762206
O O13 0.818400 0.879095 0.620554
O O14 0.994155 0.595385 0.753100
O O15 0.152682 0.492220 0.010200
O O16 0.000000 0.000000 0.000000
O O17 0.920912 0.653621 0.092923
#
# Coordination Sequence:
#
# PCOD8008821 Si02
#       8
#     2   2   2   2   2   2   2   2
#     4   9  17  30  49  75 104 131 165 213 259 302
#     4   9  18  31  48  73 104 135 168 207 255 305
#     4  10  21  35  51  76 108 140 169 206 257 311
#     4   9  19  33  51  75  99 131 173 214 254 299
#     4   9  17  29  48  74 101 128 165 214 262 301
#     4   9  18  32  50  74 102 132 169 209 249 298
#     4   9  17  31  48  71 102 133 167 211 257 304
#     4  10  21  35  51  75 109 139 168 209 257 308
#
# _framework density 18.929203999999999
#
# number of rings (size 3 to 8) (size 9 to 14) (size 15 to 20)
#    0.000    2.750    0.000    3.000    0.000    5.000 
#    0.000    2.500    0.000    3.000    0.000   15.750 
#    0.000    0.000    0.000    0.000    0.000    0.000 
#
# Total GULP energy -198231.485856 kJ/mol
# GULP energy per Si atom -12389.467866 kJ/mol
# Density = 1.888612 g / cm^3
# Si number density = 18.929204 Si / 1000 Ang^3
#
#
#
# Elastic Constant Matrix: (Units=GPa)
#
#
# Indices 1 2 3 4 5 6 
#
# 1 41.2499 22.0259 21.6616 0.0220 -1.4056 -0.5634
# 2 22.0259 89.6198 46.3749 -8.0700 4.2338 -8.3789
# 3 21.6616 46.3749 122.7666 -33.0573 13.0214 -5.2425
# 4 0.0220 -8.0700 -33.0573 35.7202 -4.4641 -2.9358
# 5 -1.4056 4.2338 13.0214 -4.4641 22.8464 -6.5933
# 6 -0.5634 -8.3789 -5.2425 -2.9358 -6.5933 30.6099
#
#
#
# Elastic Compliance Matrix: (Units=1/GPa)
#
#
# Indices 1 2 3 4 5 6 
#
# 1 0.030102 -0.005517 -0.005299 -0.005747 0.004345 -0.001479
# 2 -0.005517 0.015268 -0.004906 -0.000768 0.000416 0.003254
# 3 -0.005299 -0.004906 0.014761 0.012004 -0.005159 0.001128
# 4 -0.005747 -0.000768 0.012004 0.039743 0.002468 0.006083
# 5 0.004345 0.000416 -0.005159 0.002468 0.050385 0.010400
# 6 -0.001479 0.003254 0.001128 0.006083 0.010400 0.036549
#
#
# Mechanical properties :
#
#
# Convention : Reuss Voigt Hill
#
# Bulk Modulus (GPa) = 34.85872 48.19568 41.52720
# Shear Modulus (GPa) = 21.94759 28.74021 25.34390
#
# Velocity S-wave (km/s) = 3.40877 3.90076 3.66304
# Velocity P-wave (km/s) = 5.82651 6.76788 6.31476
#
# Compressibility (1/GPa) = 0.02868722
#
# Stress axis : x y z
#
# Youngs Moduli (GPa) = 33.22044 65.49492 67.74436
#
# Poissons Ratio (x) = 0.36136 0.35896
# Poissons Ratio (y) = 0.18329 0.33236
# Poissons Ratio (z) = 0.17603 0.32133
#
# Static dielectric constant tensor:
#      x y z
#    x 3.229210 -0.130860 0.172460 
#    y -0.130860 3.505490 -0.416970 
#    z 0.172460 -0.416970 3.945590 
# 
# 
# High freq. dielectric constant tensor:
#      x y z
#    x 1.688600 -0.013720 0.010940 
#    y -0.013720 1.723950 -0.022840 
#    z 0.010940 -0.022840 1.746650 
# 
# From -- ./inp_files/432952.got.cif
#   From: 2010.06.25/outbox.cif.g09.slc.cpg/sg2_217_cif.got.tgz:432952.got - 2010.06.27 13:26:56.
