data_PCOD8008798
_publ_section_title
;
Structure prediction by ZEFSAII (Michael W. Deem and Ramdas Pophale) SiO2 
 PCOD8008798
Probable space group: P -1
;
_chemical_formula_sum "Si O2"
_cell_formula_units_Z 16
_cell_length_a 8.746149
_cell_length_b 10.703855
_cell_length_c 22.962954
_cell_angle_alpha 38.952952
_cell_angle_beta 48.544552
_cell_angle_gamma 73.789378
_cell_volume 877.101958
_symmetry_space_group_name_H-M "P -1"
_symmetry_group_IT_number 2
_symmetry_cell_setting 'triclinic'
loop_
_space_group_symop_operation_xyz
x,y,z
-x,-y,-z
loop_
_atom_site_type_symbol
_atom_site_label
_atom_site_fract_x
_atom_site_fract_y
_atom_site_fract_z
Si Si1 0.956510 0.121447 0.847007
Si Si2 0.968813 0.934305 0.599356
Si Si3 0.316183 0.336171 0.433034
Si Si4 0.812926 0.187885 0.619948
Si Si5 0.506848 0.588601 0.402358
Si Si6 0.439270 0.289818 0.849393
Si Si7 0.663274 0.002036 0.851719
Si Si8 0.267656 0.586801 0.158051
O O1 0.878330 0.070757 0.817496
O O2 0.891819 0.302816 0.824848
O O3 0.231252 0.215430 0.750414
O O4 0.829849 0.881794 0.001668
O O5 0.898901 0.674302 0.725088
O O6 0.773364 0.993849 0.652107
O O7 0.000000 0.000000 0.500000
O O8 0.213278 0.085335 0.520396
O O9 0.418287 0.369746 0.460590
O O10 0.534511 0.522240 0.272044
O O11 0.092785 0.384614 0.475025
O O12 0.655428 0.297648 0.603726
O O13 0.758598 0.057933 0.742376
O O14 0.500000 0.500000 0.500000
O O15 0.536311 0.141073 0.849628
O O16 0.594654 0.425714 0.816016
O O17 0.461826 0.733717 0.006481
#
# Coordination Sequence:
#
# PCOD8008798 Si02
#       8
#     2   2   2   2   2   2   2   2
#     4   9  21  33  59  87 113 141 175 236 288 321
#     4  10  21  34  61  81 107 149 195 225 262 328
#     4  10  21  35  59  83 108 147 190 224 272 329
#     4  10  22  35  57  82 109 144 191 228 274 328
#     4  12  24  35  55  86 119 141 176 239 291 322
#     4   9  16  33  59  82 109 140 186 230 269 324
#     4   9  17  34  59  84 108 140 193 233 271 321
#     4   9  17  35  57  87 109 145 184 230 269 325
#
# _framework density 18.241893999999998
#
# number of rings (size 3 to 8) (size 9 to 14) (size 15 to 20)
#    0.750    1.500    2.500    2.625    5.250    1.000 
#    0.000    0.625    0.000    3.000    0.000    0.000 
#    0.000    0.000    0.000    0.000    0.000    0.000 
#
# Total GULP energy -198222.069948 kJ/mol
# GULP energy per Si atom -12388.879372 kJ/mol
# Density = 1.820037 g / cm^3
# Si number density = 18.241894 Si / 1000 Ang^3
#
#
#
# Elastic Constant Matrix: (Units=GPa)
#
#
# Indices 1 2 3 4 5 6 
#
# 1 61.4586 42.8797 45.4376 -0.2251 1.2062 16.1248
# 2 42.8797 86.0303 58.2854 -5.1602 6.2201 26.4275
# 3 45.4376 58.2854 121.7961 -8.3394 1.7820 15.8280
# 4 -0.2251 -5.1602 -8.3394 36.6476 3.1399 -0.3971
# 5 1.2062 6.2201 1.7820 3.1399 31.7572 5.6822
# 6 16.1248 26.4275 15.8280 -0.3971 5.6822 26.0341
#
#
#
# Elastic Compliance Matrix: (Units=1/GPa)
#
#
# Indices 1 2 3 4 5 6 
#
# 1 0.027985 -0.008622 -0.005801 -0.002612 0.002207 -0.005576
# 2 -0.008622 0.025814 -0.006857 0.001984 -0.001621 -0.016310
# 3 -0.005801 -0.006857 0.013491 0.002079 0.000182 0.002344
# 4 -0.002612 0.001984 0.002079 0.028283 -0.003104 -0.000551
# 5 0.002207 -0.001621 0.000182 -0.003104 0.033298 -0.007146
# 6 -0.005576 -0.016310 0.002344 -0.000551 -0.007146 0.058548
#
#
# Mechanical properties :
#
#
# Convention : Reuss Voigt Hill
#
# Bulk Modulus (GPa) = 40.43682 62.49893 51.46787
# Shear Modulus (GPa) = 20.98874 27.06660 24.02767
#
# Velocity S-wave (km/s) = 3.39570 3.85614 3.63322
# Velocity P-wave (km/s) = 6.13103 7.35948 6.77316
#
# Compressibility (1/GPa) = 0.02472994
#
# Stress axis : x y z
#
# Youngs Moduli (GPa) = 35.73296 38.73921 74.12237
#
# Poissons Ratio (x) = 0.33401 0.42997
# Poissons Ratio (y) = 0.30809 0.50829
# Poissons Ratio (z) = 0.20728 0.26565
#
# Static dielectric constant tensor:
#      x y z
#    x 3.002620 0.148840 -0.365990 
#    y 0.148840 3.124340 -0.302440 
#    z -0.365990 -0.302440 2.510200 
# 
# 
# High freq. dielectric constant tensor:
#      x y z
#    x 1.678130 0.026820 0.002260 
#    y 0.026820 1.687350 0.006860 
#    z 0.002260 0.006860 1.723720 
# 
# From -- ./inp_files/405050.got.cif
#   From: 2010.06.25/outbox.cif.g09.slc.cpg/sg2_203_cif.got.tgz:405050.got - 2010.06.27 13:26:56.
