data_PCOD8008116
_publ_section_title
;
Structure prediction by ZEFSAII (Michael W. Deem and Ramdas Pophale) SiO2 
 PCOD8008116
Probable space group: P -1
;
_chemical_formula_sum "Si O2"
_cell_formula_units_Z 14
_cell_length_a 20.986631
_cell_length_b 9.158927
_cell_length_c 11.989270
_cell_angle_alpha 142.942117
_cell_angle_beta 32.000295
_cell_angle_gamma 144.303691
_cell_volume 666.553385
_symmetry_space_group_name_H-M "P -1"
_symmetry_group_IT_number 2
_symmetry_cell_setting 'triclinic'
loop_
_space_group_symop_operation_xyz
x,y,z
-x,-y,-z
loop_
_atom_site_type_symbol
_atom_site_label
_atom_site_fract_x
_atom_site_fract_y
_atom_site_fract_z
Si Si1 0.346101 0.190889 0.522075
Si Si2 0.934377 0.101636 0.326426
Si Si3 0.895792 0.416434 0.767996
Si Si4 0.673011 0.004161 0.328487
Si Si5 0.979383 0.358043 0.060718
Si Si6 0.617670 0.240972 0.160553
Si Si7 0.465629 0.216353 0.820303
O O1 0.356891 0.192538 0.641766
O O2 0.473111 0.149155 0.259324
O O3 0.351148 0.476318 0.651309
O O4 0.211192 0.951130 0.535406
O O5 0.954161 0.252218 0.506178
O O6 0.047225 0.279959 0.179371
O O7 0.943082 0.827481 0.168076
O O8 0.951874 0.419629 0.810629
O O9 0.735201 0.284674 0.924959
O O10 0.625927 0.821575 0.176062
O O11 0.826549 0.192985 0.210934
O O12 0.600235 0.200596 0.570951
O O13 0.000000 0.500000 0.000000
O O14 0.615507 0.022986 0.120214
O O15 0.500000 0.500000 0.000000
#
# Coordination Sequence:
#
# PCOD8008116 Si02
#       7
#     2   2   2   2   2   2   2
#     4  10  20  42  66  92 126 168 210 259 316 367
#     4  11  24  42  66  92 132 170 208 261 316 376
#     4  11  23  42  66  97 126 166 215 260 314 373
#     4  10  22  41  65  90 125 170 207 255 318 374
#     4  12  24  40  67  92 127 169 210 261 315 378
#     4  10  21  40  66  94 124 161 217 258 309 370
#     4  10  23  44  63  92 128 166 207 260 317 376
#
# _framework density 21.00357
#
# number of rings (size 3 to 8) (size 9 to 14) (size 15 to 20)
#    0.000    1.429    2.857    2.143    0.000    3.429 
#   15.429    0.000    0.000    0.000    0.000    0.000 
#    0.000    0.000    0.000    0.000    0.000    0.000 
#
# Total GULP energy -173607.231601 kJ/mol
# GULP energy per Si atom -12400.516543 kJ/mol
# Density = 2.095576 g / cm^3
# Si number density = 21.003570 Si / 1000 Ang^3
#
#
#
# Elastic Constant Matrix: (Units=GPa)
#
#
# Indices 1 2 3 4 5 6 
#
# 1 108.8803 57.3734 48.3234 5.4846 2.5978 -6.9962
# 2 57.3734 112.5130 44.1693 -14.9826 0.2026 -1.5917
# 3 48.3234 44.1693 86.8130 -19.1625 -1.5837 9.0350
# 4 5.4846 -14.9826 -19.1625 44.3489 14.4563 -1.2888
# 5 2.5978 0.2026 -1.5837 14.4563 28.7358 -8.4524
# 6 -6.9962 -1.5917 9.0350 -1.2888 -8.4524 28.0996
#
#
#
# Elastic Compliance Matrix: (Units=1/GPa)
#
#
# Indices 1 2 3 4 5 6 
#
# 1 0.017789 -0.006553 -0.009555 -0.010067 0.005416 0.008298
# 2 -0.006553 0.013784 -0.002167 0.005326 -0.002498 -0.000661
# 3 -0.009555 -0.002167 0.021552 0.011752 -0.007088 -0.011025
# 4 -0.010067 0.005326 0.011752 0.036920 -0.020093 -0.010334
# 5 0.005416 -0.002498 -0.007088 -0.020093 0.049148 0.017348
# 6 0.008298 -0.000661 -0.011025 -0.010334 0.017348 0.045905
#
#
# Mechanical properties :
#
#
# Convention : Reuss Voigt Hill
#
# Bulk Modulus (GPa) = 60.32668 67.54873 63.93770
# Shear Modulus (GPa) = 22.00953 30.79288 26.40120
#
# Velocity S-wave (km/s) = 3.24063 3.83309 3.54925
# Velocity P-wave (km/s) = 6.54116 7.19865 6.87776
#
# Compressibility (1/GPa) = 0.01657641
#
# Stress axis : x y z
#
# Youngs Moduli (GPa) = 56.21384 72.54539 46.39909
#
# Poissons Ratio (x) = 0.47540 0.44334
# Poissons Ratio (y) = 0.36838 0.10053
# Poissons Ratio (z) = 0.53712 0.15718
#
# Static dielectric constant tensor:
#      x y z
#    x 3.846810 0.091530 -0.127490 
#    y 0.091530 3.567990 -0.166670 
#    z -0.127490 -0.166670 3.750860 
# 
# 
# High freq. dielectric constant tensor:
#      x y z
#    x 1.818890 0.003770 -0.007810 
#    y 0.003770 1.827430 -0.019980 
#    z -0.007810 -0.019980 1.821040 
# 
# From -- ./inp_files/256579.got.cif
#   From: 2010.06.25/outbox.cif.g09.slc.cpg/sg2_129_cif.got.tgz:256579.got - 2010.06.27 13:26:56.
