data_PCOD8008115
_publ_section_title
;
Structure prediction by ZEFSAII (Michael W. Deem and Ramdas Pophale) SiO2 
 PCOD8008115
Probable space group: P -1
;
_chemical_formula_sum "Si O2"
_cell_formula_units_Z 14
_cell_length_a 14.303785
_cell_length_b 11.829964
_cell_length_c 22.425238
_cell_angle_alpha 19.595228
_cell_angle_beta 148.016768
_cell_angle_gamma 148.279651
_cell_volume 645.070074
_symmetry_space_group_name_H-M "P -1"
_symmetry_group_IT_number 2
_symmetry_cell_setting 'triclinic'
loop_
_space_group_symop_operation_xyz
x,y,z
-x,-y,-z
loop_
_atom_site_type_symbol
_atom_site_label
_atom_site_fract_x
_atom_site_fract_y
_atom_site_fract_z
Si Si1 0.349838 0.462523 0.386770
Si Si2 0.027610 0.402977 0.875605
Si Si3 0.853451 0.194556 0.698709
Si Si4 0.462541 0.549200 0.622715
Si Si5 0.851792 0.134479 0.176961
Si Si6 0.914380 0.221403 0.390087
Si Si7 0.819462 0.803832 0.757750
O O1 0.500000 0.500000 0.500000
O O2 0.195330 0.664508 0.216506
O O3 0.442214 0.606733 0.301941
O O4 0.262910 0.039350 0.545741
O O5 0.106691 0.734272 0.797872
O O6 0.122696 0.485516 0.820532
O O7 0.084910 0.066974 0.094398
O O8 0.637773 0.174197 0.596287
O O9 0.959728 0.593543 0.577942
O O10 0.893212 0.112518 0.692868
O O11 0.614133 0.772673 0.639608
O O12 0.314737 0.225885 0.736585
O O13 0.039671 0.088314 0.274379
O O14 0.800045 0.423782 0.964615
O O15 0.000000 0.000000 0.500000
#
# Coordination Sequence:
#
# PCOD8008115 Si02
#       7
#     2   2   2   2   2   2   2
#     4  11  22  39  65  95 123 164 221 260 306 383
#     4  10  20  42  66  91 129 166 208 259 322 368
#     4  11  24  40  63  95 129 165 206 267 315 374
#     4  12  22  40  65  97 129 166 216 254 312 374
#     4  10  21  42  69  92 126 173 207 258 311 378
#     4  10  21  41  66  88 122 172 208 254 324 372
#     4  10  23  42  64  95 129 166 215 255 314 370
#
# _framework density 21.703068999999999
#
# number of rings (size 3 to 8) (size 9 to 14) (size 15 to 20)
#    0.000    1.429    1.429    5.571    0.000    0.571 
#    2.571    4.286    0.000    0.000    0.000    0.000 
#    0.000    0.000    0.000    0.000    0.000    0.000 
#
# Total GULP energy -173515.282732 kJ/mol
# GULP energy per Si atom -12393.948767 kJ/mol
# Density = 2.165367 g / cm^3
# Si number density = 21.703069 Si / 1000 Ang^3
#
#
#
# Elastic Constant Matrix: (Units=GPa)
#
#
# Indices 1 2 3 4 5 6 
#
# 1 92.9178 48.5340 31.8858 -6.2818 -14.7016 9.3641
# 2 48.5340 159.6858 61.5289 6.7937 -4.2776 -3.1218
# 3 31.8858 61.5289 100.6430 16.8199 10.8831 8.7720
# 4 -6.2818 6.7937 16.8199 36.1141 -5.4279 3.5300
# 5 -14.7016 -4.2776 10.8831 -5.4279 24.7282 -0.0382
# 6 9.3641 -3.1218 8.7720 3.5300 -0.0382 39.2791
#
#
#
# Elastic Compliance Matrix: (Units=1/GPa)
#
#
# Indices 1 2 3 4 5 6 
#
# 1 0.018133 -0.002928 -0.006890 0.009608 0.015409 -0.003865
# 2 -0.002928 0.009277 -0.005259 0.000279 0.002244 0.002587
# 3 -0.006890 -0.005259 0.019122 -0.011306 -0.015907 -0.002045
# 4 0.009608 0.000279 -0.011306 0.037737 0.019015 -0.003116
# 5 0.015409 0.002244 -0.015907 0.019015 0.061161 -0.001592
# 6 -0.003865 0.002587 -0.002045 -0.003116 -0.001592 0.027321
#
#
# Mechanical properties :
#
#
# Convention : Reuss Voigt Hill
#
# Bulk Modulus (GPa) = 61.05532 70.79379 65.92456
# Shear Modulus (GPa) = 23.99638 34.11082 29.05360
#
# Velocity S-wave (km/s) = 3.32877 3.96877 3.66278
# Velocity P-wave (km/s) = 6.55495 7.32746 6.95194
#
# Compressibility (1/GPa) = 0.01637859
#
# Stress axis : x y z
#
# Youngs Moduli (GPa) = 55.14746 107.78962 52.29622
#
# Poissons Ratio (x) = 0.31561 0.36032
# Poissons Ratio (y) = 0.16147 0.27502
# Poissons Ratio (z) = 0.37997 0.56685
#
# Static dielectric constant tensor:
#      x y z
#    x 4.044920 -0.086290 -0.242290 
#    y -0.086290 3.986540 0.077650 
#    z -0.242290 0.077650 4.202180 
# 
# 
# High freq. dielectric constant tensor:
#      x y z
#    x 1.848760 -0.016800 -0.014220 
#    y -0.016800 1.857640 0.012380 
#    z -0.014220 0.012380 1.853660 
# 
# From -- ./inp_files/241479.got.cif
#   From: 2010.06.25/outbox.cif.g09.slc.cpg/sg2_121_cif.got.tgz:241479.got - 2010.06.27 13:26:56.
