data_PCOD8008520
_publ_section_title
;
Structure prediction by ZEFSAII (Michael W. Deem and Ramdas Pophale) SiO2 
 PCOD8008520
Probable space group: P -1
;
_chemical_formula_sum "Si O2"
_cell_formula_units_Z 14
_cell_length_a 16.904510
_cell_length_b 10.348797
_cell_length_c 10.374320
_cell_angle_alpha 79.194327
_cell_angle_beta 56.746609
_cell_angle_gamma 32.000549
_cell_volume 627.012233
_symmetry_space_group_name_H-M "P -1"
_symmetry_group_IT_number 2
_symmetry_cell_setting 'triclinic'
loop_
_space_group_symop_operation_xyz
x,y,z
-x,-y,-z
loop_
_atom_site_type_symbol
_atom_site_label
_atom_site_fract_x
_atom_site_fract_y
_atom_site_fract_z
Si Si1 0.057257 0.154158 0.254512
Si Si2 0.078665 0.634546 0.227355
Si Si3 0.582828 0.841557 0.591583
Si Si4 0.834867 0.192905 0.989551
Si Si5 0.668944 0.160367 0.687664
Si Si6 0.854785 0.677060 0.971369
Si Si7 0.741913 0.790877 0.679939
O O1 0.793110 0.476369 0.464303
O O2 0.214140 0.911984 0.281371
O O3 0.107417 0.243330 0.164550
O O4 0.084842 0.025669 0.132362
O O5 0.275094 0.321293 0.199606
O O6 0.160579 0.676192 0.114138
O O7 0.069803 0.551927 0.125489
O O8 0.835123 0.952791 0.454861
O O9 0.653290 0.883433 0.597610
O O10 0.500000 0.000000 0.500000
O O11 0.399604 0.999952 0.812185
O O12 0.577112 0.475356 0.202267
O O13 0.000000 0.000000 0.000000
O O14 0.617081 0.075366 0.795669
O O15 0.000000 0.500000 0.000000
O O16 0.000000 0.500000 0.500000
#
# Coordination Sequence:
#
# PCOD8008520 Si02
#       7
#     2   2   2   2   2   2   2
#     4  12  25  48  65 105 144 179 239 288 348 426
#     4  11  24  46  74 102 137 184 240 282 356 419
#     4  12  25  41  72 109 146 179 228 300 354 413
#     4  12  30  46  67 102 143 190 236 287 353 424
#     4  11  24  46  75  97 140 183 232 298 346 418
#     4  12  25  40  72 107 140 184 231 291 356 409
#     4  10  20  43  73 107 133 175 238 291 347 409
#
# _framework density 22.328112999999998
#
# number of rings (size 3 to 8) (size 9 to 14) (size 15 to 20)
#    0.000    0.571    5.714    3.000    4.000    3.429 
#    0.000    0.000    0.000    0.000    0.000    0.000 
#    0.000    0.000    0.000    0.000    0.000    0.000 
#
# Total GULP energy -173473.345868 kJ/mol
# GULP energy per Si atom -12390.953276 kJ/mol
# Density = 2.227729 g / cm^3
# Si number density = 22.328113 Si / 1000 Ang^3
#
#
#
# Elastic Constant Matrix: (Units=GPa)
#
#
# Indices 1 2 3 4 5 6 
#
# 1 101.6605 35.3902 42.1723 11.4749 23.1072 -20.5356
# 2 35.3902 87.5053 39.2437 9.1346 2.0071 -37.3385
# 3 42.1723 39.2437 142.5420 28.5481 2.2482 -18.3355
# 4 11.4749 9.1346 28.5481 44.1443 -3.6380 -2.0695
# 5 23.1072 2.0071 2.2482 -3.6380 45.5311 -7.9898
# 6 -20.5356 -37.3385 -18.3355 -2.0695 -7.9898 56.0996
#
#
#
# Elastic Compliance Matrix: (Units=1/GPa)
#
#
# Indices 1 2 3 4 5 6 
#
# 1 0.014183 -0.003961 -0.002560 -0.001750 -0.006920 0.000668
# 2 -0.003961 0.018662 -0.002574 -0.000414 0.003135 0.010561
# 3 -0.002560 -0.002574 0.009494 -0.004874 0.000618 0.000361
# 4 -0.001750 -0.000414 -0.004874 0.026548 0.003077 -0.001092
# 5 -0.006920 0.003135 0.000618 0.003077 0.026183 0.003598
# 6 0.000668 0.010561 0.000361 -0.001092 0.003598 0.025689
#
#
# Mechanical properties :
#
#
# Convention : Reuss Voigt Hill
#
# Bulk Modulus (GPa) = 41.40979 62.81335 52.11157
# Shear Modulus (GPa) = 34.01357 43.48176 38.74767
#
# Velocity S-wave (km/s) = 3.90725 4.41772 4.17030
# Velocity P-wave (km/s) = 6.24033 7.36306 6.82482
#
# Compressibility (1/GPa) = 0.02414888
#
# Stress axis : x y z
#
# Youngs Moduli (GPa) = 70.50679 53.58500 105.32564
#
# Poissons Ratio (x) = 0.21227 0.26962
# Poissons Ratio (y) = 0.27931 0.27110
# Poissons Ratio (z) = 0.18049 0.13793
#
# Static dielectric constant tensor:
#      x y z
#    x 4.160660 -0.000720 0.034300 
#    y -0.000720 4.406620 0.263640 
#    z 0.034300 0.263640 4.263290 
# 
# 
# High freq. dielectric constant tensor:
#      x y z
#    x 1.886640 -0.019810 0.005720 
#    y -0.019810 1.871030 0.008530 
#    z 0.005720 0.008530 1.892620 
# 
# From -- ./inp_files/332033.got.cif
#   From: 2010.06.25/outbox.cif.g09.slc.cpg/sg2_167_cif.got.tgz:332033.got - 2010.06.27 13:26:56.
