data_PCOD8008763
_publ_section_title
;
Structure prediction by ZEFSAII (Michael W. Deem and Ramdas Pophale) SiO2 
 PCOD8008763
Probable space group: P -1
;
_chemical_formula_sum "Si O2"
_cell_formula_units_Z 14
_cell_length_a 10.845194
_cell_length_b 12.401674
_cell_length_c 11.075993
_cell_angle_alpha 30.119235
_cell_angle_beta 69.270356
_cell_angle_gamma 69.200207
_cell_volume 695.330080
_symmetry_space_group_name_H-M "P -1"
_symmetry_group_IT_number 2
_symmetry_cell_setting 'triclinic'
loop_
_space_group_symop_operation_xyz
x,y,z
-x,-y,-z
loop_
_atom_site_type_symbol
_atom_site_label
_atom_site_fract_x
_atom_site_fract_y
_atom_site_fract_z
Si Si1 0.215642 0.164490 0.905628
Si Si2 0.449041 0.358651 0.762855
Si Si3 0.616183 0.004773 0.191617
Si Si4 0.688499 0.338628 0.029072
Si Si5 0.060784 0.550209 0.275677
Si Si6 0.067144 0.810109 0.243482
Si Si7 0.539588 0.343334 0.313313
O O1 0.323793 0.233609 0.893438
O O2 0.083691 0.323817 0.815725
O O3 0.274937 0.166114 0.746334
O O4 0.179295 0.915413 0.181053
O O5 0.500000 0.500000 0.500000
O O6 0.404435 0.514305 0.738960
O O7 0.564357 0.177549 0.939689
O O8 0.495821 0.883449 0.401668
O O9 0.682296 0.119320 0.168487
O O10 0.838168 0.406237 0.907931
O O11 0.590992 0.534957 0.820023
O O12 0.654907 0.294001 0.222627
O O13 0.125192 0.620538 0.313441
O O14 0.038258 0.295457 0.532187
O O15 0.000000 0.000000 0.000000
#
# Coordination Sequence:
#
# PCOD8008763 Si02
#       7
#     2   2   2   2   2   2   2
#     4  11  22  34  56  90 116 145 189 235 293 344
#     4  11  24  38  58  88 117 153 193 239 290 344
#     4  11  22  36  63  87 115 152 190 244 293 339
#     4  10  22  40  59  87 117 153 196 237 288 341
#     4  10  21  34  57  83 118 151 186 242 290 337
#     4   9  20  32  51  85 115 150 183 234 286 339
#     4  10  23  39  60  85 118 155 194 238 284 348
#
# _framework density 20.134322000000001
#
# number of rings (size 3 to 8) (size 9 to 14) (size 15 to 20)
#    0.000    1.714    2.857    0.857    8.000    0.000 
#    0.000    0.714    0.000    1.714    0.000    0.000 
#    0.000    0.000    0.000    0.000    0.000    0.000 
#
# Total GULP energy -173516.262645 kJ/mol
# GULP energy per Si atom -12394.018760 kJ/mol
# Density = 2.008850 g / cm^3
# Si number density = 20.134322 Si / 1000 Ang^3
#
#
#
# Elastic Constant Matrix: (Units=GPa)
#
#
# Indices 1 2 3 4 5 6 
#
# 1 76.5273 55.8054 47.8381 2.9895 -28.3469 1.8263
# 2 55.8054 118.4089 61.8797 19.7672 -18.6867 -1.1980
# 3 47.8381 61.8797 160.9134 6.3114 -35.5280 1.1141
# 4 2.9895 19.7672 6.3114 33.9085 0.4233 -12.0318
# 5 -28.3469 -18.6867 -35.5280 0.4233 39.4869 -3.5244
# 6 1.8263 -1.1980 1.1141 -12.0318 -3.5244 33.1489
#
#
#
# Elastic Compliance Matrix: (Units=1/GPa)
#
#
# Indices 1 2 3 4 5 6 
#
# 1 0.025722 -0.010233 -0.001075 0.004129 0.012709 0.001099
# 2 -0.010233 0.015981 -0.003406 -0.008504 -0.002948 -0.002144
# 3 -0.001075 -0.003406 0.009114 0.000459 0.005849 0.000418
# 4 0.004129 -0.008504 0.000459 0.038805 0.000147 0.013550
# 5 0.012709 -0.002948 0.005849 0.000147 0.038596 0.003153
# 6 0.001099 -0.002144 0.000418 0.013550 0.003153 0.035268
#
#
# Mechanical properties :
#
#
# Convention : Reuss Voigt Hill
#
# Bulk Modulus (GPa) = 46.75388 76.32180 61.53784
# Shear Modulus (GPa) = 24.99452 33.99727 29.49590
#
# Velocity S-wave (km/s) = 3.52716 4.11362 3.83163
# Velocity P-wave (km/s) = 6.31341 7.78146 7.08556
#
# Compressibility (1/GPa) = 0.02138860
#
# Stress axis : x y z
#
# Youngs Moduli (GPa) = 38.87782 62.57573 109.71604
#
# Poissons Ratio (x) = 0.64035 0.11797
# Poissons Ratio (y) = 0.39784 0.37366
# Poissons Ratio (z) = 0.04180 0.21311
#
# Static dielectric constant tensor:
#      x y z
#    x 3.522980 0.106060 -0.400160 
#    y 0.106060 3.719530 -0.233480 
#    z -0.400160 -0.233480 4.162610 
# 
# 
# High freq. dielectric constant tensor:
#      x y z
#    x 1.761240 -0.009690 -0.022230 
#    y -0.009690 1.767680 -0.017530 
#    z -0.022230 -0.017530 1.803050 
# 
# From -- ./inp_files/75475.got.cif
#   From: 2010.06.25/outbox.cif.g09.slc.cpg/sg2_38_cif.got.tgz:75475.got - 2010.06.27 13:26:56.
