data_PCOD8008391
_publ_section_title
;
Structure prediction by ZEFSAII (Michael W. Deem and Ramdas Pophale) SiO2 
 PCOD8008391
Probable space group: P -1
;
_chemical_formula_sum "Si O2"
_cell_formula_units_Z 14
_cell_length_a 9.674348
_cell_length_b 24.046838
_cell_length_c 13.953177
_cell_angle_alpha 29.888502
_cell_angle_beta 130.200951
_cell_angle_gamma 150.495436
_cell_volume 713.596510
_symmetry_space_group_name_H-M "P -1"
_symmetry_group_IT_number 2
_symmetry_cell_setting 'triclinic'
loop_
_space_group_symop_operation_xyz
x,y,z
-x,-y,-z
loop_
_atom_site_type_symbol
_atom_site_label
_atom_site_fract_x
_atom_site_fract_y
_atom_site_fract_z
Si Si1 0.191910 0.252383 0.473743
Si Si2 0.731952 0.402555 0.595905
Si Si3 0.164525 0.086821 0.545529
Si Si4 0.114232 0.462626 0.178199
Si Si5 0.829410 0.862507 0.911411
Si Si6 0.649997 0.009702 0.962851
Si Si7 0.804843 0.289925 0.498741
O O1 0.520736 0.391004 0.467003
O O2 0.197355 0.226034 0.401183
O O3 0.097752 0.333265 0.315688
O O4 0.933102 0.040254 0.724321
O O5 0.000000 0.500000 0.500000
O O6 0.884902 0.529346 0.570533
O O7 0.541587 0.195761 0.845860
O O8 0.521697 0.228232 0.490257
O O9 0.000000 0.000000 0.500000
O O10 0.946131 0.901707 0.794706
O O11 0.885627 0.345233 0.341596
O O12 0.465175 0.667435 0.058717
O O13 0.000000 0.500000 0.000000
O O14 0.997639 0.850925 0.064179
O O15 0.679198 0.102439 0.744327
O O16 0.500000 0.000000 0.000000
#
# Coordination Sequence:
#
# PCOD8008391 Si02
#       7
#     2   2   2   2   2   2   2
#     4   9  22  42  69  88 133 176 207 278 332 371
#     4  11  19  38  68 103 131 157 218 278 330 387
#     4  10  20  43  66  91 128 176 226 261 314 393
#     4  12  27  45  62  94 139 179 223 265 323 392
#     4   9  21  41  65  90 132 170 210 270 332 377
#     4  11  19  37  67 100 129 163 209 279 335 377
#     4  12  24  40  67 102 128 170 221 273 324 391
#
# _framework density 19.618929999999999
#
# number of rings (size 3 to 8) (size 9 to 14) (size 15 to 20)
#    0.857    0.571    4.286    1.714    0.000    4.000 
#    2.571    4.286    0.000    0.000    0.000    0.000 
#    0.000    0.000    0.000    0.000    0.000    0.000 
#
# Total GULP energy -173484.195495 kJ/mol
# GULP energy per Si atom -12391.728250 kJ/mol
# Density = 1.957428 g / cm^3
# Si number density = 19.618930 Si / 1000 Ang^3
#
#
#
# Elastic Constant Matrix: (Units=GPa)
#
#
# Indices 1 2 3 4 5 6 
#
# 1 75.1396 17.1152 46.5518 17.3402 10.7028 3.0071
# 2 17.1152 76.8532 27.6561 4.7515 10.6440 -3.9884
# 3 46.5518 27.6561 107.0759 13.5136 0.3096 5.8491
# 4 17.3402 4.7515 13.5136 32.4792 0.5730 -5.2364
# 5 10.7028 10.6440 0.3096 0.5730 41.5036 0.3000
# 6 3.0071 -3.9884 5.8491 -5.2364 0.3000 34.3602
#
#
#
# Elastic Compliance Matrix: (Units=1/GPa)
#
#
# Indices 1 2 3 4 5 6 
#
# 1 0.020944 -0.000763 -0.007784 -0.008029 -0.005024 -0.001776
# 2 -0.000763 0.015154 -0.003737 0.000218 -0.003683 0.002527
# 3 -0.007784 -0.003737 0.014009 -0.001565 0.002900 -0.002401
# 4 -0.008029 0.000218 -0.001565 0.036730 0.001472 0.006579
# 5 -0.005024 -0.003683 0.002900 0.001472 0.026296 -0.000487
# 6 -0.001776 0.002527 -0.002401 0.006579 -0.000487 0.030968
#
#
# Mechanical properties :
#
#
# Convention : Reuss Voigt Hill
#
# Bulk Modulus (GPa) = 39.15565 49.07944 44.11755
# Shear Modulus (GPa) = 28.21961 32.85164 30.53562
#
# Velocity S-wave (km/s) = 3.79672 4.09649 3.94945
# Velocity P-wave (km/s) = 6.26271 6.88808 6.58283
#
# Compressibility (1/GPa) = 0.02553910
#
# Stress axis : x y z
#
# Youngs Moduli (GPa) = 47.74581 65.98718 71.38476
#
# Poissons Ratio (x) = 0.05037 0.55563
# Poissons Ratio (y) = 0.03645 0.26678
# Poissons Ratio (z) = 0.37163 0.24661
#
# Static dielectric constant tensor:
#      x y z
#    x 3.113360 0.367640 -0.147380 
#    y 0.367640 3.176140 0.122610 
#    z -0.147380 0.122610 3.499430 
# 
# 
# High freq. dielectric constant tensor:
#      x y z
#    x 1.753920 0.010230 0.002910 
#    y 0.010230 1.766840 -0.006900 
#    z 0.002910 -0.006900 1.764220 
# 
# From -- ./inp_files/508592.got.cif
#   From: 2010.06.25/outbox.cif.g09.slc.cpg/sg2_255_cif.got.tgz:508592.got - 2010.06.27 13:26:56.
