data_PCOD8008059
_publ_section_title
;
Structure prediction by ZEFSAII (Michael W. Deem and Ramdas Pophale) SiO2 
 PCOD8008059
Probable space group: P -1
;
_chemical_formula_sum "Si O2"
_cell_formula_units_Z 12
_cell_length_a 16.637149
_cell_length_b 8.411830
_cell_length_c 7.842804
_cell_angle_alpha 93.512618
_cell_angle_beta 47.047495
_cell_angle_gamma 61.043089
_cell_volume 556.559992
_symmetry_space_group_name_H-M "P -1"
_symmetry_group_IT_number 2
_symmetry_cell_setting 'triclinic'
loop_
_space_group_symop_operation_xyz
x,y,z
-x,-y,-z
loop_
_atom_site_type_symbol
_atom_site_label
_atom_site_fract_x
_atom_site_fract_y
_atom_site_fract_z
Si Si1 0.651107 0.274985 0.673596
Si Si2 0.791960 0.274336 0.157563
Si Si3 0.140268 0.457620 0.872162
Si Si4 0.068369 0.851475 0.558740
Si Si5 0.559783 0.017330 0.744323
Si Si6 0.247691 0.447974 0.049551
O O1 0.658471 0.337723 0.475020
O O2 0.804555 0.161323 0.549159
O O3 0.645560 0.091944 0.667144
O O4 0.500000 0.500000 0.000000
O O5 0.878011 0.334947 0.135965
O O6 0.715018 0.427700 0.104652
O O7 0.920848 0.000152 0.913636
O O8 0.312525 0.228990 0.542670
O O9 0.145575 0.437786 0.071828
O O10 0.000000 0.500000 0.000000
O O11 0.147426 0.598594 0.376091
O O12 0.000000 0.000000 0.500000
O O13 0.411357 0.194883 0.845153
O O14 0.500000 0.000000 0.000000
#
# Coordination Sequence:
#
# PCOD8008059 Si02
#       6
#     2   2   2   2   2   2
#     4  12  23  41  68  98 127 175 222 268 324 379
#     4   9  22  41  72  93 132 169 220 270 320 383
#     4  10  22  43  67  94 131 170 215 265 331 387
#     4  10  20  42  65 100 131 163 218 275 319 384
#     4  12  25  44  65  94 139 172 216 267 329 396
#     4   9  22  42  69  95 133 171 219 268 324 388
#
# _framework density 21.561017
#
# number of rings (size 3 to 8) (size 9 to 14) (size 15 to 20)
#    1.000    0.667    1.667    3.000    0.000    0.667 
#    0.000    2.500    0.000    0.000    0.000    0.000 
#    0.000    0.000    0.000    0.000    0.000    0.000 
#
# Total GULP energy -148679.922530 kJ/mol
# GULP energy per Si atom -12389.993544 kJ/mol
# Density = 2.151194 g / cm^3
# Si number density = 21.561017 Si / 1000 Ang^3
#
#
#
# Elastic Constant Matrix: (Units=GPa)
#
#
# Indices 1 2 3 4 5 6 
#
# 1 118.5576 32.3784 44.9106 5.2135 5.8048 -0.7798
# 2 32.3784 78.5711 51.1561 -4.9559 4.3970 -7.2909
# 3 44.9106 51.1561 156.2377 11.6519 25.8502 -2.0988
# 4 5.2135 -4.9559 11.6519 39.5495 3.9556 -4.6104
# 5 5.8048 4.3970 25.8502 3.9556 37.6168 12.2071
# 6 -0.7798 -7.2909 -2.0988 -4.6104 12.2071 32.3076
#
#
#
# Elastic Compliance Matrix: (Units=1/GPa)
#
#
# Indices 1 2 3 4 5 6 
#
# 1 0.010018 -0.003122 -0.001864 -0.001334 0.000560 -0.000986
# 2 -0.003122 0.018215 -0.005391 0.004768 0.000158 0.004306
# 3 -0.001864 -0.005391 0.009912 -0.002595 -0.006041 0.001295
# 4 -0.001334 0.004768 -0.002595 0.027894 -0.003507 0.006181
# 5 0.000560 0.000158 -0.006041 -0.003507 0.035643 -0.014311
# 6 -0.000986 0.004306 0.001295 0.006181 -0.014311 0.038274
#
#
# Mechanical properties :
#
#
# Convention : Reuss Voigt Hill
#
# Bulk Modulus (GPa) = 57.49759 67.80632 62.65195
# Shear Modulus (GPa) = 30.02904 36.88954 33.45929
#
# Velocity S-wave (km/s) = 3.73600 4.14083 3.94362
# Velocity P-wave (km/s) = 6.73317 7.37420 7.06096
#
# Compressibility (1/GPa) = 0.01739203
#
# Stress axis : x y z
#
# Youngs Moduli (GPa) = 99.81930 54.90006 100.89023
#
# Poissons Ratio (x) = 0.17138 0.18807
# Poissons Ratio (y) = 0.31160 0.54387
# Poissons Ratio (z) = 0.18607 0.29595
#
# Static dielectric constant tensor:
#      x y z
#    x 4.119940 0.057380 0.565530 
#    y 0.057380 3.806310 0.336880 
#    z 0.565530 0.336880 4.345970 
# 
# 
# High freq. dielectric constant tensor:
#      x y z
#    x 1.850820 -0.009750 0.023450 
#    y -0.009750 1.831860 0.022760 
#    z 0.023450 0.022760 1.852520 
# 
# From -- ./inp_files/324592.got.cif
#   From: 2010.06.25/outbox.cif.g09.slc.cpg/sg2_163_cif.got.tgz:324592.got - 2010.06.27 13:26:56.
