data_PCOD8008021
_publ_section_title
;
Structure prediction by ZEFSAII (Michael W. Deem and Ramdas Pophale) SiO2 
 PCOD8008021
Probable space group: P -1
;
_chemical_formula_sum "Si O2"
_cell_formula_units_Z 14
_cell_length_a 13.558321
_cell_length_b 11.738767
_cell_length_c 21.902784
_cell_angle_alpha 158.111828
_cell_angle_beta 30.753543
_cell_angle_gamma 150.315851
_cell_volume 616.235620
_symmetry_space_group_name_H-M "P -1"
_symmetry_group_IT_number 2
_symmetry_cell_setting 'triclinic'
loop_
_space_group_symop_operation_xyz
x,y,z
-x,-y,-z
loop_
_atom_site_type_symbol
_atom_site_label
_atom_site_fract_x
_atom_site_fract_y
_atom_site_fract_z
Si Si1 0.549576 0.565165 0.649216
Si Si2 0.641218 0.990521 0.975701
Si Si3 0.211864 0.952075 0.473979
Si Si4 0.732520 0.661886 0.479393
Si Si5 0.903087 0.740108 0.638825
Si Si6 0.226896 0.007738 0.883324
Si Si7 0.572627 0.524558 0.884445
O O1 0.437092 0.205271 0.501535
O O2 0.720411 0.783331 0.616069
O O3 0.675002 0.538547 0.630312
O O4 0.365384 0.707344 0.828937
O O5 0.866359 0.998759 0.835630
O O6 0.539976 0.650598 0.897989
O O7 0.500000 0.000000 0.000000
O O8 0.143163 0.044594 0.489313
O O9 0.235854 0.602406 0.280922
O O10 0.049822 0.946638 0.609763
O O11 0.500000 0.500000 0.500000
O O12 0.822467 0.376848 0.289245
O O13 0.000000 0.500000 0.500000
O O14 0.357004 0.232096 0.870219
O O15 0.359813 0.162624 0.950364
O O16 0.000000 0.000000 0.000000
#
# Coordination Sequence:
#
# PCOD8008021 Si02
#       7
#     2   2   2   2   2   2   2
#     4  10  23  42  66  91 131 164 207 270 319 371
#     4  10  23  44  65  90 129 172 215 263 308 371
#     4  11  23  40  70  95 124 173 207 258 327 376
#     4  10  20  42  63  96 131 161 205 258 331 377
#     4  11  24  43  63  96 124 168 224 259 302 376
#     4  11  25  39  66 101 130 163 209 262 321 387
#     4  11  22  42  66  92 133 167 206 263 322 371
#
# _framework density 22.718582000000001
#
# number of rings (size 3 to 8) (size 9 to 14) (size 15 to 20)
#    0.000    1.429    4.286    1.714    4.000    4.000 
#    0.000    0.000    0.000    0.000    0.000    0.000 
#    0.000    0.000    0.000    0.000    0.000    0.000 
#
# Total GULP energy -173473.695898 kJ/mol
# GULP energy per Si atom -12390.978278 kJ/mol
# Density = 2.266687 g / cm^3
# Si number density = 22.718582 Si / 1000 Ang^3
#
#
#
# Elastic Constant Matrix: (Units=GPa)
#
#
# Indices 1 2 3 4 5 6 
#
# 1 103.2948 34.2533 40.6008 0.0337 -20.7999 -32.3689
# 2 34.2533 96.7555 33.6325 -21.6292 -7.1831 -35.3013
# 3 40.6008 33.6325 134.7961 -33.4593 -11.3438 -20.6341
# 4 0.0337 -21.6292 -33.4593 37.3474 -1.6906 1.2384
# 5 -20.7999 -7.1831 -11.3438 -1.6906 38.4753 -0.7682
# 6 -32.3689 -35.3013 -20.6341 1.2384 -0.7682 38.2187
#
#
#
# Elastic Compliance Matrix: (Units=1/GPa)
#
#
# Indices 1 2 3 4 5 6 
#
# 1 0.016449 -0.000403 -0.003072 -0.003041 0.008020 0.012160
# 2 -0.000403 0.019845 0.001496 0.012439 0.004844 0.018490
# 3 -0.003072 0.001496 0.011752 0.011360 0.002679 0.004810
# 4 -0.003041 0.012439 0.011360 0.043986 0.006235 0.013748
# 5 0.008020 0.004844 0.002679 0.006235 0.032557 0.013165
# 6 0.012160 0.018490 0.004810 0.013748 0.013165 0.055959
#
#
# Mechanical properties :
#
#
# Convention : Reuss Voigt Hill
#
# Bulk Modulus (GPa) = 22.68265 61.31330 41.99797
# Shear Modulus (GPa) = 25.10008 37.89892 31.49950
#
# Velocity S-wave (km/s) = 3.32750 4.08878 3.72762
# Velocity P-wave (km/s) = 4.97683 7.02407 6.08714
#
# Compressibility (1/GPa) = 0.04408657
#
# Stress axis : x y z
#
# Youngs Moduli (GPa) = 60.79500 50.39135 85.09030
#
# Poissons Ratio (x) = 0.02031 0.26142
# Poissons Ratio (y) = 0.02450 -0.12728
# Poissons Ratio (z) = 0.18678 -0.07538
#
# Static dielectric constant tensor:
#      x y z
#    x 4.249070 -0.637480 0.101750 
#    y -0.637480 4.468980 -0.226360 
#    z 0.101750 -0.226360 4.908000 
# 
# 
# High freq. dielectric constant tensor:
#      x y z
#    x 1.894230 -0.024700 -0.005850 
#    y -0.024700 1.884330 -0.023890 
#    z -0.005850 -0.023890 1.910090 
# 
# From -- ./inp_files/179867.got.cif
#   From: 2010.06.25/outbox.cif.g09.slc.cpg/sg2_90_cif.got.tgz:179867.got - 2010.06.27 13:26:56.
