data_PCOD8008200
_publ_section_title
;
Structure prediction by ZEFSAII (Michael W. Deem and Ramdas Pophale) SiO2 
 PCOD8008200
Probable space group: P -1
;
_chemical_formula_sum "Si O2"
_cell_formula_units_Z 16
_cell_length_a 26.519546
_cell_length_b 7.874160
_cell_length_c 11.553594
_cell_angle_alpha 137.006201
_cell_angle_beta 32.425917
_cell_angle_gamma 147.046591
_cell_volume 701.478161
_symmetry_space_group_name_H-M "P -1"
_symmetry_group_IT_number 2
_symmetry_cell_setting 'triclinic'
loop_
_space_group_symop_operation_xyz
x,y,z
-x,-y,-z
loop_
_atom_site_type_symbol
_atom_site_label
_atom_site_fract_x
_atom_site_fract_y
_atom_site_fract_z
Si Si1 0.046253 0.292469 0.134974
Si Si2 0.828764 0.260241 0.514353
Si Si3 0.154114 0.417017 0.575523
Si Si4 0.184680 0.761929 0.906741
Si Si5 0.905892 0.842722 0.783566
Si Si6 0.583671 0.229450 0.787279
Si Si7 0.541839 0.892415 0.466621
Si Si8 0.425429 0.245203 0.265939
O O1 0.110193 0.276929 0.113759
O O2 0.933233 0.276658 0.381945
O O3 0.138685 0.618909 0.051961
O O4 0.000000 0.000000 0.000000
O O5 0.848650 0.337847 0.377063
O O6 0.825582 0.533981 0.707952
O O7 0.707712 0.913599 0.600776
O O8 0.132669 0.474316 0.776197
O O9 0.279685 0.472907 0.351558
O O10 0.044315 0.056539 0.581590
O O11 0.325048 0.981262 0.743266
O O12 0.144140 0.964523 0.042519
O O13 0.522649 0.012405 0.683236
O O14 0.583915 0.026744 0.785134
O O15 0.511174 0.351213 0.039634
O O16 0.463578 0.517291 0.419337
O O17 0.500000 0.000000 0.500000
#
# Coordination Sequence:
#
# PCOD8008200 Si02
#       8
#     2   2   2   2   2   2   2   2
#     4  12  25  43  70 100 139 180 221 280 345 411
#     4  11  25  41  66 105 137 178 229 282 342 411
#     4  10  20  42  67  97 136 177 221 282 341 404
#     4  11  25  45  68 103 134 179 233 279 343 412
#     4  12  24  42  71  99 140 178 225 280 348 410
#     4   9  22  42  70 101 128 182 231 282 340 406
#     4  11  26  44  68 101 137 181 229 285 345 409
#     4  10  23  45  70  96 138 178 235 283 339 404
#
# _framework density 22.808976999999999
#
# number of rings (size 3 to 8) (size 9 to 14) (size 15 to 20)
#    0.000    1.250    2.500    2.250    7.000    1.500 
#    0.000    0.000    0.000    0.000    0.000    0.000 
#    0.000    0.000    0.000    0.000    0.000    0.000 
#
# Total GULP energy -198395.359927 kJ/mol
# GULP energy per Si atom -12399.709995 kJ/mol
# Density = 2.275706 g / cm^3
# Si number density = 22.808977 Si / 1000 Ang^3
#
#
#
# Elastic Constant Matrix: (Units=GPa)
#
#
# Indices 1 2 3 4 5 6 
#
# 1 103.6504 28.9248 38.8470 -13.1092 4.8505 -6.8691
# 2 28.9248 96.2125 25.6620 -5.8717 0.3656 26.5967
# 3 38.8470 25.6620 79.5249 -7.9857 14.9808 4.4543
# 4 -13.1092 -5.8717 -7.9857 25.5121 3.5186 2.7812
# 5 4.8505 0.3656 14.9808 3.5186 18.2613 5.3718
# 6 -6.8691 26.5967 4.4543 2.7812 5.3718 35.0041
#
#
#
# Elastic Compliance Matrix: (Units=1/GPa)
#
#
# Indices 1 2 3 4 5 6 
#
# 1 0.013776 -0.004466 -0.004793 0.004149 -0.002422 0.006749
# 2 -0.004466 0.016781 -0.003873 0.000810 0.008120 -0.014445
# 3 -0.004793 -0.003873 0.019600 0.004831 -0.016129 0.001599
# 4 0.004149 0.000810 0.004831 0.045061 -0.013183 -0.001973
# 5 -0.002422 0.008120 -0.016129 -0.013183 0.075463 -0.015126
# 6 0.006749 -0.014445 0.001599 -0.001973 -0.015126 0.043142
#
#
# Mechanical properties :
#
#
# Convention : Reuss Voigt Hill
#
# Bulk Modulus (GPa) = 41.85477 51.80614 46.83046
# Shear Modulus (GPa) = 20.15716 28.15244 24.15480
#
# Velocity S-wave (km/s) = 2.97600 3.51703 3.25776
# Velocity P-wave (km/s) = 5.49534 6.26538 5.89295
#
# Compressibility (1/GPa) = 0.02389214
#
# Stress axis : x y z
#
# Youngs Moduli (GPa) = 72.59008 59.59170 51.02106
#
# Poissons Ratio (x) = 0.26616 0.24456
# Poissons Ratio (y) = 0.32421 0.19758
# Poissons Ratio (z) = 0.34794 0.23078
#
# Static dielectric constant tensor:
#      x y z
#    x 4.829980 -0.375340 -0.067230 
#    y -0.375340 4.466740 -0.038120 
#    z -0.067230 -0.038120 4.461660 
# 
# 
# High freq. dielectric constant tensor:
#      x y z
#    x 1.903230 0.008640 0.003080 
#    y 0.008640 1.899330 -0.005320 
#    z 0.003080 -0.005320 1.896710 
# 
# From -- ./inp_files/476403.got.cif
#   From: 2010.06.25/outbox.cif.g09.slc.cpg/sg2_239_cif.got.tgz:476403.got - 2010.06.27 13:26:56.
