data_PCOD8008748
_publ_section_title
;
Structure prediction by ZEFSAII (Michael W. Deem and Ramdas Pophale) SiO2 
 PCOD8008748
Probable space group: P -1
;
_chemical_formula_sum "Si O2"
_cell_formula_units_Z 14
_cell_length_a 13.808345
_cell_length_b 5.156981
_cell_length_c 11.736571
_cell_angle_alpha 68.756807
_cell_angle_beta 125.999347
_cell_angle_gamma 91.586925
_cell_volume 610.882309
_symmetry_space_group_name_H-M "P -1"
_symmetry_group_IT_number 2
_symmetry_cell_setting 'triclinic'
loop_
_space_group_symop_operation_xyz
x,y,z
-x,-y,-z
loop_
_atom_site_type_symbol
_atom_site_label
_atom_site_fract_x
_atom_site_fract_y
_atom_site_fract_z
Si Si1 0.332251 0.361923 0.875395
Si Si2 0.459630 0.412205 0.609569
Si Si3 0.374598 0.008649 0.477227
Si Si4 0.062308 0.659672 0.607836
Si Si5 0.410663 0.716069 0.060060
Si Si6 0.129737 0.083847 0.175465
Si Si7 0.004050 0.590557 0.164320
O O1 0.210404 0.574151 0.702423
O O2 0.449697 0.346704 0.879224
O O3 0.349499 0.483267 0.994934
O O4 0.322702 0.032249 0.926873
O O5 0.500000 0.500000 0.500000
O O6 0.374801 0.187463 0.565906
O O7 0.578081 0.305983 0.790633
O O8 0.371593 0.689486 0.564725
O O9 0.263792 0.121990 0.295736
O O10 0.500000 0.000000 0.500000
O O11 0.043437 0.519348 0.736760
O O12 0.000000 0.500000 0.500000
O O13 0.000000 0.000000 0.500000
O O14 0.037640 0.306168 0.156725
O O15 0.105628 0.176014 0.012048
O O16 0.112728 0.759079 0.233353
#
# Coordination Sequence:
#
# PCOD8008748 Si02
#       7
#     2   2   2   2   2   2   2
#     4  10  23  42  65  87 117 164 208 260 306 364
#     4  10  21  34  55  91 127 156 190 242 310 376
#     4  10  21  36  56  91 127 158 192 243 313 376
#     4  12  26  43  64  94 128 166 216 267 320 374
#     4  10  21  41  64  90 120 158 209 250 311 377
#     4  10  21  41  64  90 124 161 211 254 310 382
#     4  10  23  41  64  89 119 168 211 259 310 367
#
# _framework density 22.917670000000001
#
# number of rings (size 3 to 8) (size 9 to 14) (size 15 to 20)
#    0.000    1.714    0.000    3.429    0.000    8.000 
#    0.000    2.857    0.000    0.000    0.000    0.000 
#    0.000    0.000    0.000    0.000    0.000    0.000 
#
# Total GULP energy -173436.031304 kJ/mol
# GULP energy per Si atom -12388.287950 kJ/mol
# Density = 2.286551 g / cm^3
# Si number density = 22.917670 Si / 1000 Ang^3
#
#
#
# Elastic Constant Matrix: (Units=GPa)
#
#
# Indices 1 2 3 4 5 6 
#
# 1 49.4389 18.1655 32.4056 -6.9369 4.0285 -1.0146
# 2 18.1655 195.8602 50.2452 5.5880 3.9410 -4.8604
# 3 32.4056 50.2452 122.9412 5.6041 20.0627 -8.1769
# 4 -6.9369 5.5880 5.6041 50.0464 0.1623 4.2814
# 5 4.0285 3.9410 20.0627 0.1623 42.7209 -0.5484
# 6 -1.0146 -4.8604 -8.1769 4.2814 -0.5484 18.7403
#
#
#
# Elastic Compliance Matrix: (Units=1/GPa)
#
#
# Indices 1 2 3 4 5 6 
#
# 1 0.025617 -0.000811 -0.006970 0.004668 0.000877 -0.002905
# 2 -0.000811 0.005757 -0.002163 -0.000571 0.000572 0.000653
# 3 -0.006970 -0.002163 0.012056 -0.002465 -0.004735 0.004747
# 4 0.004668 -0.000571 -0.002465 0.021467 0.000614 -0.005858
# 5 0.000877 0.000572 -0.004735 0.000614 0.025477 -0.001265
# 6 -0.002905 0.000653 0.004747 -0.005858 -0.001265 0.056745
#
#
# Mechanical properties :
#
#
# Convention : Reuss Voigt Hill
#
# Bulk Modulus (GPa) = 42.47677 63.31922 52.89800
# Shear Modulus (GPa) = 28.59510 40.12978 34.36244
#
# Velocity S-wave (km/s) = 3.53616 4.18908 3.87639
# Velocity P-wave (km/s) = 5.93694 7.14751 6.57017
#
# Compressibility (1/GPa) = 0.02354228
#
# Stress axis : x y z
#
# Youngs Moduli (GPa) = 39.03585 173.71032 82.94674
#
# Poissons Ratio (x) = 0.14084 0.57816
# Poissons Ratio (y) = 0.03165 0.17941
# Poissons Ratio (z) = 0.27209 0.37572
#
# Static dielectric constant tensor:
#      x y z
#    x 3.673930 -0.201400 0.025480 
#    y -0.201400 2.977630 -0.289070 
#    z 0.025480 -0.289070 4.193660 
# 
# 
# High freq. dielectric constant tensor:
#      x y z
#    x 1.861730 -0.005290 0.001800 
#    y -0.005290 1.939270 0.006760 
#    z 0.001800 0.006760 1.913980 
# 
# From -- ./inp_files/441756.got.cif
#   From: 2010.06.25/outbox.cif.g09.slc.cpg/sg2_221_cif.got.tgz:441756.got - 2010.06.27 13:26:56.
