data_PCOD8008992
_publ_section_title
;
Structure prediction by ZEFSAII (Michael W. Deem and Ramdas Pophale) SiO2 
 PCOD8008992
Probable space group: P -1
;
_chemical_formula_sum "Si O2"
_cell_formula_units_Z 14
_cell_length_a 16.225921
_cell_length_b 12.806950
_cell_length_c 20.386229
_cell_angle_alpha 155.556646
_cell_angle_beta 158.747547
_cell_angle_gamma 34.467613
_cell_volume 627.218927
_symmetry_space_group_name_H-M "P -1"
_symmetry_group_IT_number 2
_symmetry_cell_setting 'triclinic'
loop_
_space_group_symop_operation_xyz
x,y,z
-x,-y,-z
loop_
_atom_site_type_symbol
_atom_site_label
_atom_site_fract_x
_atom_site_fract_y
_atom_site_fract_z
Si Si1 0.861219 0.607007 0.833392
Si Si2 0.710936 0.008135 0.612022
Si Si3 0.333339 0.519087 0.786719
Si Si4 0.804056 0.678366 0.291398
Si Si5 0.163785 0.799386 0.529170
Si Si6 0.117707 0.820333 0.295537
Si Si7 0.669510 0.955253 0.973407
O O1 0.809022 0.418954 0.627382
O O2 0.650401 0.754943 0.782612
O O3 0.920782 0.459317 0.859895
O O4 0.070252 0.831283 0.097267
O O5 0.739909 0.718109 0.451847
O O6 0.500000 0.000000 0.500000
O O7 0.702053 0.151343 0.616231
O O8 0.206427 0.480680 0.740589
O O9 0.608090 0.563227 0.028290
O O10 0.249358 0.758176 0.827145
O O11 0.051950 0.664441 0.434626
O O12 0.773335 0.973206 0.450789
O O13 0.422377 0.938185 0.816022
O O14 0.000000 0.000000 0.500000
O O15 0.869530 0.894992 0.135391
#
# Coordination Sequence:
#
# PCOD8008992 Si02
#       7
#     2   2   2   2   2   2   2
#     4  11  23  43  63  90 130 165 206 255 316 363
#     4  10  21  35  62  89 121 164 205 249 299 368
#     4  10  21  40  62  89 126 168 204 245 318 366
#     4  10  21  39  63  90 123 163 206 253 306 367
#     4  12  22  40  67  94 119 160 216 261 302 365
#     4  10  22  42  62  90 128 166 204 254 318 362
#     4  11  23  39  64  92 124 167 205 257 309 371
#
# _framework density 22.320757
#
# number of rings (size 3 to 8) (size 9 to 14) (size 15 to 20)
#    0.000    1.429    2.857    3.000    0.000    5.714 
#    0.000    9.286    0.000    0.000    0.000    0.000 
#    0.000    0.000    0.000    0.000    0.000    0.000 
#
# Total GULP energy -173512.719916 kJ/mol
# GULP energy per Si atom -12393.765708 kJ/mol
# Density = 2.226995 g / cm^3
# Si number density = 22.320757 Si / 1000 Ang^3
#
#
#
# Elastic Constant Matrix: (Units=GPa)
#
#
# Indices 1 2 3 4 5 6 
#
# 1 115.9321 37.2173 44.0491 -4.6362 35.7774 -15.3726
# 2 37.2173 94.9050 50.2321 14.2631 24.8618 4.3335
# 3 44.0491 50.2321 114.0165 11.5652 24.4809 -2.4665
# 4 -4.6362 14.2631 11.5652 39.4327 -10.5850 6.0274
# 5 35.7774 24.8618 24.4809 -10.5850 47.1146 -3.4762
# 6 -15.3726 4.3335 -2.4665 6.0274 -3.4762 23.7547
#
#
#
# Elastic Compliance Matrix: (Units=1/GPa)
#
#
# Indices 1 2 3 4 5 6 
#
# 1 0.013638 -0.002572 -0.002450 0.000125 -0.007110 0.007968
# 2 -0.002572 0.016653 -0.004514 -0.005960 -0.006165 -0.004561
# 3 -0.002450 -0.004514 0.012721 -0.003352 -0.003050 0.000963
# 4 0.000125 -0.005960 -0.003352 0.032522 0.011676 -0.005723
# 5 -0.007110 -0.006165 -0.003050 0.011676 0.033954 -0.001787
# 6 0.007968 -0.004561 0.000963 -0.005723 -0.001787 0.049376
#
#
# Mechanical properties :
#
#
# Convention : Reuss Voigt Hill
#
# Bulk Modulus (GPa) = 41.76638 65.31676 53.54157
# Shear Modulus (GPa) = 26.89386 34.95074 30.92230
#
# Velocity S-wave (km/s) = 3.47491 3.96136 3.72608
# Velocity P-wave (km/s) = 5.90360 7.08869 6.52311
#
# Compressibility (1/GPa) = 0.02394270
#
# Stress axis : x y z
#
# Youngs Moduli (GPa) = 73.32506 60.04754 78.60709
#
# Poissons Ratio (x) = 0.15442 0.19255
# Poissons Ratio (y) = 0.18857 0.35482
# Poissons Ratio (z) = 0.17961 0.27105
#
# Static dielectric constant tensor:
#      x y z
#    x 4.199800 -0.139700 0.165110 
#    y -0.139700 3.704050 0.263940 
#    z 0.165110 0.263940 4.369710 
# 
# 
# High freq. dielectric constant tensor:
#      x y z
#    x 1.877580 -0.011030 0.008320 
#    y -0.011030 1.848330 0.017440 
#    z 0.008320 0.017440 1.908220 
# 
# From -- ./inp_files/298112.got.cif
#   From: 2010.06.25/outbox.cif.g09.slc.cpg/sg2_150_cif.got.tgz:298112.got - 2010.06.27 13:26:56.
