data_PCOD8008327
_publ_section_title
;
Structure prediction by ZEFSAII (Michael W. Deem and Ramdas Pophale) SiO2 
 PCOD8008327
Probable space group: P -1
;
_chemical_formula_sum "Si O2"
_cell_formula_units_Z 16
_cell_length_a 17.462927
_cell_length_b 7.639975
_cell_length_c 8.912883
_cell_angle_alpha 49.027149
_cell_angle_beta 88.494986
_cell_angle_gamma 115.949570
_cell_volume 716.261576
_symmetry_space_group_name_H-M "P -1"
_symmetry_group_IT_number 2
_symmetry_cell_setting 'triclinic'
loop_
_space_group_symop_operation_xyz
x,y,z
-x,-y,-z
loop_
_atom_site_type_symbol
_atom_site_label
_atom_site_fract_x
_atom_site_fract_y
_atom_site_fract_z
Si Si1 0.614605 0.310012 0.174860
Si Si2 0.148798 0.293624 0.446357
Si Si3 0.503621 0.703443 0.036441
Si Si4 0.834822 0.742892 0.873654
Si Si5 0.083870 0.684257 0.274612
Si Si6 0.996827 0.166692 0.044646
Si Si7 0.632677 0.342455 0.708598
Si Si8 0.537839 0.338273 0.447807
O O1 0.609288 0.319899 0.348682
O O2 0.558095 0.973899 0.323618
O O3 0.553309 0.432357 0.046259
O O4 0.722966 0.480505 0.019545
O O5 0.128153 0.160858 0.353843
O O6 0.142958 0.560187 0.312052
O O7 0.254710 0.419253 0.419657
O O8 0.074638 0.038937 0.704923
O O9 0.419241 0.723328 0.092295
O O10 0.511466 0.524733 0.261726
O O11 0.602086 0.028609 0.825719
O O12 0.895330 0.638556 0.001301
O O13 0.848011 0.995498 0.834476
O O14 0.000000 0.500000 0.500000
O O15 0.038704 0.659424 0.125959
O O16 0.000000 0.000000 0.000000
O O17 0.597659 0.481214 0.517030
#
# Coordination Sequence:
#
# PCOD8008327 Si02
#       8
#     2   2   2   2   2   2   2   2
#     4  10  22  41  59  97 128 166 222 267 321 382
#     4  12  24  46  67  98 136 173 219 273 328 385
#     4  10  20  43  60  89 130 171 216 269 322 381
#     4  11  24  46  68  97 139 168 220 282 315 396
#     4  11  25  46  71  96 130 177 216 265 342 393
#     4  10  23  44  69  97 133 167 217 274 322 395
#     4  10  23  37  65  92 128 172 216 267 322 385
#     4  10  22  39  64  88 131 174 215 268 323 384
#
# _framework density 22.338207000000001
#
# number of rings (size 3 to 8) (size 9 to 14) (size 15 to 20)
#    0.000    1.500    3.750    1.125    5.250    0.500 
#    4.500    0.000    0.000    0.000    0.000    0.000 
#    0.000    0.000    0.000    0.000    0.000    0.000 
#
# Total GULP energy -198231.612846 kJ/mol
# GULP energy per Si atom -12389.475803 kJ/mol
# Density = 2.228736 g / cm^3
# Si number density = 22.338207 Si / 1000 Ang^3
#
#
#
# Elastic Constant Matrix: (Units=GPa)
#
#
# Indices 1 2 3 4 5 6 
#
# 1 90.5585 30.9985 51.3815 1.7607 7.1729 29.6720
# 2 30.9985 44.9198 16.0453 15.0265 16.1395 25.9556
# 3 51.3815 16.0453 117.3384 15.9488 16.8796 20.2946
# 4 1.7607 15.0265 15.9488 32.4379 0.5548 0.1966
# 5 7.1729 16.1395 16.8796 0.5548 39.9251 3.4801
# 6 29.6720 25.9556 20.2946 0.1966 3.4801 37.3336
#
#
#
# Elastic Compliance Matrix: (Units=1/GPa)
#
#
# Indices 1 2 3 4 5 6 
#
# 1 0.022170 -0.018277 -0.009852 0.011982 0.007432 -0.000313
# 2 -0.018277 0.084979 0.015893 -0.045324 -0.032809 -0.049896
# 3 -0.009852 0.015893 0.015984 -0.014445 -0.010264 -0.010875
# 4 0.011982 -0.045324 -0.014445 0.057782 0.019054 0.027759
# 5 0.007432 -0.032809 -0.010264 0.019054 0.039418 0.018708
# 6 -0.000313 -0.049896 -0.010875 0.027759 0.018708 0.065746
#
#
# Mechanical properties :
#
#
# Convention : Reuss Voigt Hill
#
# Bulk Modulus (GPa) = 10.13582 49.96303 30.04942
# Shear Modulus (GPa) = 14.55866 32.23209 23.39538
#
# Velocity S-wave (km/s) = 2.55569 3.80269 3.23975
# Velocity P-wave (km/s) = 3.64088 6.45723 5.24175
#
# Compressibility (1/GPa) = 0.09866001
#
# Stress axis : x y z
#
# Youngs Moduli (GPa) = 45.10575 11.76767 62.56196
#
# Poissons Ratio (x) = 0.21508 0.61638
# Poissons Ratio (y) = 0.82442 -0.99432
# Poissons Ratio (z) = 0.44440 -0.18703
#
# Static dielectric constant tensor:
#      x y z
#    x 4.902580 0.122950 1.048700 
#    y 0.122950 4.402560 0.573230 
#    z 1.048700 0.573230 5.256730 
# 
# 
# High freq. dielectric constant tensor:
#      x y z
#    x 1.881250 0.007890 0.000490 
#    y 0.007890 1.880290 0.033370 
#    z 0.000490 0.033370 1.888450 
# 
# From -- ./inp_files/214841.got.cif
#   From: 2010.06.25/outbox.cif.g09.slc.cpg/sg2_108_cif.got.tgz:214841.got - 2010.06.27 13:26:56.
