data_PCOD8008500
_publ_section_title
;
Structure prediction by ZEFSAII (Michael W. Deem and Ramdas Pophale) SiO2 
 PCOD8008500
Probable space group: P -1
;
_chemical_formula_sum "Si O2"
_cell_formula_units_Z 16
_cell_length_a 15.079804
_cell_length_b 14.328005
_cell_length_c 7.942327
_cell_angle_alpha 47.571949
_cell_angle_beta 130.128574
_cell_angle_gamma 147.235656
_cell_volume 672.580279
_symmetry_space_group_name_H-M "P -1"
_symmetry_group_IT_number 2
_symmetry_cell_setting 'triclinic'
loop_
_space_group_symop_operation_xyz
x,y,z
-x,-y,-z
loop_
_atom_site_type_symbol
_atom_site_label
_atom_site_fract_x
_atom_site_fract_y
_atom_site_fract_z
Si Si1 0.293437 0.550377 0.654478
Si Si2 0.610288 0.946574 0.623977
Si Si3 0.608908 0.586763 0.275893
Si Si4 0.450524 0.017392 0.138339
Si Si5 0.943094 0.660747 0.076119
Si Si6 0.143906 0.632274 0.153159
Si Si7 0.608272 0.406734 0.807816
Si Si8 0.121702 0.027646 0.985843
O O1 0.425249 0.744533 0.667681
O O2 0.390909 0.496210 0.793839
O O3 0.134113 0.410198 0.747539
O O4 0.216305 0.551724 0.388447
O O5 0.603061 0.039222 0.344555
O O6 0.750857 0.950361 0.763094
O O7 0.648113 0.041330 0.734067
O O8 0.576185 0.465418 0.535247
O O9 0.465115 0.581456 0.126541
O O10 0.785642 0.798454 0.232469
O O11 0.311448 0.847770 0.045423
O O12 0.522050 0.202819 0.922373
O O13 0.065163 0.640277 0.209820
O O14 0.804818 0.547639 0.898913
O O15 0.033879 0.867710 0.936910
O O16 0.000000 0.500000 0.000000
O O17 0.000000 0.000000 0.000000
#
# Coordination Sequence:
#
# PCOD8008500 Si02
#       8
#     2   2   2   2   2   2   2   2
#     4  11  23  41  68  99 136 182 233 280 340 415
#     4  10  21  40  71 100 131 174 234 287 331 409
#     4  11  24  44  64  99 143 182 233 277 349 423
#     4  10  20  43  71  96 131 181 234 280 341 406
#     4  12  23  40  69  98 134 180 234 289 346 398
#     4  11  24  43  67 101 143 178 223 292 352 406
#     4  11  24  43  70  97 140 190 227 284 344 418
#     4  12  24  41  67 104 141 175 229 292 349 404
#
# _framework density 23.788982000000001
#
# number of rings (size 3 to 8) (size 9 to 14) (size 15 to 20)
#    0.000    1.000    5.000    1.125    1.750    2.500 
#    0.000    9.375    0.000    0.000    0.000    0.000 
#    0.000    0.000    0.000    0.000    0.000    0.000 
#
# Total GULP energy -198275.427383 kJ/mol
# GULP energy per Si atom -12392.214211 kJ/mol
# Density = 2.373484 g / cm^3
# Si number density = 23.788982 Si / 1000 Ang^3
#
#
#
# Elastic Constant Matrix: (Units=GPa)
#
#
# Indices 1 2 3 4 5 6 
#
# 1 110.5357 5.9242 15.6869 -8.2245 26.1331 -3.8107
# 2 5.9242 134.6272 41.2429 -7.4785 7.6808 -12.3254
# 3 15.6869 41.2429 93.5743 -14.9621 18.4118 1.4893
# 4 -8.2245 -7.4785 -14.9621 46.3302 1.0487 2.1346
# 5 26.1331 7.6808 18.4118 1.0487 33.3272 3.9667
# 6 -3.8107 -12.3254 1.4893 2.1346 3.9667 33.5282
#
#
#
# Elastic Compliance Matrix: (Units=1/GPa)
#
#
# Indices 1 2 3 4 5 6 
#
# 1 0.011515 0.000349 0.000111 0.002241 -0.009529 0.002417
# 2 0.000349 0.008988 -0.003946 0.000087 -0.000594 0.003584
# 3 0.000111 -0.003946 0.014529 0.004306 -0.007159 -0.001511
# 4 0.002241 0.000087 0.004306 0.023534 -0.004797 -0.000836
# 5 -0.009529 -0.000594 -0.007159 -0.004797 0.042399 -0.005694
# 6 0.002417 0.003584 -0.001511 -0.000836 -0.005694 0.032212
#
#
# Mechanical properties :
#
#
# Convention : Reuss Voigt Hill
#
# Bulk Modulus (GPa) = 35.63961 51.60500 43.62231
# Shear Modulus (GPa) = 33.44400 41.02936 37.23668
#
# Velocity S-wave (km/s) = 3.75355 4.15748 3.96067
# Velocity P-wave (km/s) = 5.81374 6.69224 6.26840
#
# Compressibility (1/GPa) = 0.02805867
#
# Stress axis : x y z
#
# Youngs Moduli (GPa) = 86.83989 111.25485 68.82865
#
# Poissons Ratio (x) = -0.03880 -0.00761
# Poissons Ratio (y) = -0.03029 0.27162
# Poissons Ratio (z) = -0.00961 0.43906
#
# Static dielectric constant tensor:
#      x y z
#    x 4.539980 -0.025740 0.426770 
#    y -0.025740 4.332600 -0.108060 
#    z 0.426770 -0.108060 4.210520 
# 
# 
# High freq. dielectric constant tensor:
#      x y z
#    x 1.954900 -0.003600 0.022470 
#    y -0.003600 1.948920 -0.008250 
#    z 0.022470 -0.008250 1.930330 
# 
# From -- ./inp_files/314746.got.cif
#   From: 2010.06.25/outbox.cif.g09.slc.cpg/sg2_158_cif.got.tgz:314746.got - 2010.06.27 13:26:56.
