data_PCOD8008722
_publ_section_title
;
Structure prediction by ZEFSAII (Michael W. Deem and Ramdas Pophale) SiO2 
 PCOD8008722
Probable space group: P -1
;
_chemical_formula_sum "Si O2"
_cell_formula_units_Z 16
_cell_length_a 10.075974
_cell_length_b 11.805882
_cell_length_c 17.456407
_cell_angle_alpha 149.548243
_cell_angle_beta 87.622808
_cell_angle_gamma 108.122496
_cell_volume 882.543731
_symmetry_space_group_name_H-M "P -1"
_symmetry_group_IT_number 2
_symmetry_cell_setting 'triclinic'
loop_
_space_group_symop_operation_xyz
x,y,z
-x,-y,-z
loop_
_atom_site_type_symbol
_atom_site_label
_atom_site_fract_x
_atom_site_fract_y
_atom_site_fract_z
Si Si1 0.238925 0.852299 0.258417
Si Si2 0.623571 0.137601 0.009627
Si Si3 0.258808 0.367422 0.963222
Si Si4 0.360127 0.198012 0.318418
Si Si5 0.091954 0.357255 0.641885
Si Si6 0.551832 0.489582 0.111963
Si Si7 0.768559 0.958232 0.476321
Si Si8 0.066185 0.078612 0.331378
O O1 0.365196 0.023714 0.287425
O O2 0.310175 0.992007 0.420010
O O3 0.080286 0.857334 0.250672
O O4 0.192051 0.552048 0.090967
O O5 0.630220 0.919370 0.831144
O O6 0.797589 0.332364 0.156459
O O7 0.562363 0.288450 0.049559
O O8 0.500000 0.000000 0.000000
O O9 0.357778 0.483187 0.951657
O O10 0.367722 0.372914 0.031909
O O11 0.110160 0.064611 0.781530
O O12 0.500000 0.500000 0.500000
O O13 0.196158 0.191030 0.325444
O O14 0.158620 0.213915 0.605480
O O15 0.101056 0.316856 0.526787
O O16 0.909221 0.237858 0.599444
O O17 0.628343 0.784196 0.317874
#
# Coordination Sequence:
#
# PCOD8008722 Si02
#       8
#     2   2   2   2   2   2   2   2
#     4   9  20  30  55  80 109 134 177 224 270 310
#     4  11  22  35  57  79 104 140 185 223 260 315
#     4  11  19  34  54  83 114 140 169 217 276 325
#     4  10  21  34  52  82 104 136 180 224 268 302
#     4   9  17  30  51  79 104 134 171 224 262 306
#     4  10  21  34  54  80 114 143 171 215 269 328
#     4   9  17  30  50  78 110 134 170 217 270 311
#     4   9  18  32  54  79 111 135 177 223 266 310
#
# _framework density 18.129413
#
# number of rings (size 3 to 8) (size 9 to 14) (size 15 to 20)
#    0.750    1.500    2.500    1.125    5.250    0.500 
#    0.000    0.000    0.000    5.250    0.000    0.000 
#    0.000    0.000    0.000    0.000    0.000    0.000 
#
# Total GULP energy -198281.576210 kJ/mol
# GULP energy per Si atom -12392.598513 kJ/mol
# Density = 1.808815 g / cm^3
# Si number density = 18.129413 Si / 1000 Ang^3
#
#
#
# Elastic Constant Matrix: (Units=GPa)
#
#
# Indices 1 2 3 4 5 6 
#
# 1 58.0406 28.5624 48.1087 -10.4307 23.7293 8.6808
# 2 28.5624 78.0234 42.3122 -12.9095 7.8220 19.8002
# 3 48.1087 42.3122 150.6986 -20.3582 21.8198 8.8924
# 4 -10.4307 -12.9095 -20.3582 31.8567 6.7342 -1.1901
# 5 23.7293 7.8220 21.8198 6.7342 31.7521 -4.6991
# 6 8.6808 19.8002 8.8924 -1.1901 -4.6991 25.1050
#
#
#
# Elastic Compliance Matrix: (Units=1/GPa)
#
#
# Indices 1 2 3 4 5 6 
#
# 1 0.040551 -0.002630 -0.004533 0.015527 -0.032147 -0.015623
# 2 -0.002630 0.020456 -0.002443 0.006357 -0.004962 -0.014987
# 3 -0.004533 -0.002443 0.010023 0.004754 -0.003992 -0.000578
# 4 0.015527 0.006357 0.004754 0.047605 -0.028782 -0.015197
# 5 -0.032147 -0.004962 -0.003992 -0.028782 0.069752 0.028135
# 6 -0.015623 -0.014987 -0.000578 -0.015197 0.028135 0.061806
#
#
# Mechanical properties :
#
#
# Convention : Reuss Voigt Hill
#
# Bulk Modulus (GPa) = 19.29769 58.30324 38.80046
# Shear Modulus (GPa) = 17.44123 28.92803 23.18463
#
# Velocity S-wave (km/s) = 3.10504 3.99888 3.57997
# Velocity P-wave (km/s) = 4.85001 7.31783 6.20779
#
# Compressibility (1/GPa) = 0.05181967
#
# Stress axis : x y z
#
# Youngs Moduli (GPa) = 24.66033 48.88445 99.77082
#
# Poissons Ratio (x) = 0.12856 0.45225
# Poissons Ratio (y) = 0.06485 0.24370
# Poissons Ratio (z) = 0.11178 0.11941
#
# Static dielectric constant tensor:
#      x y z
#    x 3.109620 0.154460 0.140040 
#    y 0.154460 3.219150 -0.275520 
#    z 0.140040 -0.275520 3.482330 
# 
# 
# High freq. dielectric constant tensor:
#      x y z
#    x 1.670040 0.026320 0.009640 
#    y 0.026320 1.678180 -0.024010 
#    z 0.009640 -0.024010 1.711620 
# 
# From -- ./inp_files/568346.got.cif
#   From: 2010.06.25/outbox.cif.g09.slc.cpg/sg2_285_cif.got.tgz:568346.got - 2010.06.27 13:26:56.
