data_PCOD8008744
_publ_section_title
;
Structure prediction by ZEFSAII (Michael W. Deem and Ramdas Pophale) SiO2 
 PCOD8008744
Probable space group: P -1
;
_chemical_formula_sum "Si O2"
_cell_formula_units_Z 16
_cell_length_a 11.267518
_cell_length_b 12.938936
_cell_length_c 14.142715
_cell_angle_alpha 104.506027
_cell_angle_beta 29.640446
_cell_angle_gamma 121.079801
_cell_volume 771.813592
_symmetry_space_group_name_H-M "P -1"
_symmetry_group_IT_number 2
_symmetry_cell_setting 'triclinic'
loop_
_space_group_symop_operation_xyz
x,y,z
-x,-y,-z
loop_
_atom_site_type_symbol
_atom_site_label
_atom_site_fract_x
_atom_site_fract_y
_atom_site_fract_z
Si Si1 0.271081 0.792077 0.382789
Si Si2 0.038776 0.648409 0.334657
Si Si3 0.612626 0.278843 0.443848
Si Si4 0.027278 0.443728 0.834356
Si Si5 0.228302 0.209753 0.873093
Si Si6 0.558190 0.042559 0.359866
Si Si7 0.335605 0.470080 0.811795
Si Si8 0.847506 0.563072 0.755875
O O1 0.232698 0.788565 0.294071
O O2 0.559726 0.796622 0.204137
O O3 0.955472 0.648386 0.603363
O O4 0.306825 0.917742 0.436800
O O5 0.113657 0.553117 0.304515
O O6 0.116851 0.672460 0.174019
O O7 0.684739 0.579578 0.568664
O O8 0.674413 0.408398 0.378471
O O9 0.322721 0.208984 0.699150
O O10 0.543787 0.167171 0.388567
O O11 0.918526 0.328490 0.300955
O O12 0.127086 0.403086 0.846053
O O13 0.761354 0.453956 0.044340
O O14 0.276757 0.349397 0.888404
O O15 0.879393 0.082533 0.109758
O O16 0.500000 0.000000 0.500000
O O17 0.500000 0.500000 0.000000
#
# Coordination Sequence:
#
# PCOD8008744 Si02
#       8
#     2   2   2   2   2   2   2   2
#     4  11  24  36  54  88 124 161 192 236 297 361
#     4  11  23  36  56  87 127 149 190 243 311 352
#     4  10  21  38  59  89 115 157 203 240 294 345
#     4  10  22  39  62  94 113 153 199 253 309 343
#     4  11  22  38  59  89 119 155 202 246 287 356
#     4  12  23  40  57  83 123 164 208 234 282 356
#     4  11  21  39  65  90 117 150 203 254 299 358
#     4  10  21  34  55  84 122 157 185 237 301 358
#
# _framework density 20.730394
#
# number of rings (size 3 to 8) (size 9 to 14) (size 15 to 20)
#    0.000    1.250    7.500    1.125    5.250    0.000 
#    0.000    0.000    0.000    1.500    0.000    0.000 
#    0.000    0.000    0.000    0.000    0.000    0.000 
#
# Total GULP energy -198332.412531 kJ/mol
# GULP energy per Si atom -12395.775783 kJ/mol
# Density = 2.068321 g / cm^3
# Si number density = 20.730394 Si / 1000 Ang^3
#
#
#
# Elastic Constant Matrix: (Units=GPa)
#
#
# Indices 1 2 3 4 5 6 
#
# 1 35.8176 28.4993 4.2416 9.8646 8.4607 19.8531
# 2 28.4993 108.2105 16.4186 13.2545 -4.5852 34.9092
# 3 4.2416 16.4186 126.4287 20.6670 1.2690 6.6093
# 4 9.8646 13.2545 20.6670 23.4264 -1.8817 5.8708
# 5 8.4607 -4.5852 1.2690 -1.8817 22.9309 7.7659
# 6 19.8531 34.9092 6.6093 5.8708 7.7659 34.2643
#
#
#
# Elastic Compliance Matrix: (Units=1/GPa)
#
#
# Indices 1 2 3 4 5 6 
#
# 1 0.050829 -0.007286 0.003069 -0.017312 -0.016405 -0.015935
# 2 -0.007286 0.016734 -0.001134 -0.000747 0.011116 -0.014999
# 3 0.003069 -0.001134 0.009491 -0.009148 -0.002529 -0.000313
# 4 -0.017312 -0.000747 -0.009148 0.059486 0.011725 -0.000293
# 5 -0.016405 0.011116 -0.002529 0.011725 0.058617 -0.016626
# 6 -0.015935 -0.014999 -0.000313 -0.000293 -0.016626 0.057578
#
#
# Mechanical properties :
#
#
# Convention : Reuss Voigt Hill
#
# Bulk Modulus (GPa) = 15.07146 40.97511 28.02329
# Shear Modulus (GPa) = 17.50977 30.87747 24.19362
#
# Velocity S-wave (km/s) = 2.90943 3.86356 3.41993
# Velocity P-wave (km/s) = 4.30957 6.30170 5.39832
#
# Compressibility (1/GPa) = 0.06635055
#
# Stress axis : x y z
#
# Youngs Moduli (GPa) = 19.67391 59.75967 105.36170
#
# Poissons Ratio (x) = 0.43542 -0.32331
# Poissons Ratio (y) = 0.14335 0.11947
# Poissons Ratio (z) = -0.06037 0.06776
#
# Static dielectric constant tensor:
#      x y z
#    x 3.741140 0.195790 0.158850 
#    y 0.195790 3.892240 0.210690 
#    z 0.158850 0.210690 3.837390 
# 
# 
# High freq. dielectric constant tensor:
#      x y z
#    x 1.781570 0.015070 0.005700 
#    y 0.015070 1.801340 0.028800 
#    z 0.005700 0.028800 1.811570 
# 
# From -- ./inp_files/475071.got.cif
#   From: 2010.06.25/outbox.cif.g09.slc.cpg/sg2_238_cif.got.tgz:475071.got - 2010.06.27 13:26:56.
