data_PCOD8008716
_publ_section_title
;
Structure prediction by ZEFSAII (Michael W. Deem and Ramdas Pophale) SiO2 
 PCOD8008716
Probable space group: P -1
;
_chemical_formula_sum "Si O2"
_cell_formula_units_Z 16
_cell_length_a 14.817740
_cell_length_b 16.035969
_cell_length_c 15.361023
_cell_angle_alpha 151.190530
_cell_angle_beta 152.366034
_cell_angle_gamma 34.423893
_cell_volume 796.315751
_symmetry_space_group_name_H-M "P -1"
_symmetry_group_IT_number 2
_symmetry_cell_setting 'triclinic'
loop_
_space_group_symop_operation_xyz
x,y,z
-x,-y,-z
loop_
_atom_site_type_symbol
_atom_site_label
_atom_site_fract_x
_atom_site_fract_y
_atom_site_fract_z
Si Si1 0.815659 0.123345 0.842955
Si Si2 0.511549 0.148774 0.036700
Si Si3 0.157038 0.198484 0.305405
Si Si4 0.423228 0.518098 0.210862
Si Si5 0.440562 0.411232 0.783560
Si Si6 0.375769 0.171071 0.292482
Si Si7 0.842594 0.944191 0.250806
Si Si8 0.980923 0.255654 0.944293
O O1 0.586256 0.217823 0.725487
O O2 0.909553 0.111388 0.814997
O O3 0.832359 0.931339 0.722309
O O4 0.933593 0.238020 0.111318
O O5 0.502109 0.348610 0.182048
O O6 0.700092 0.104404 0.222618
O O7 0.303233 0.154522 0.911788
O O8 0.535803 0.009144 0.849785
O O9 0.216050 0.376353 0.556753
O O10 0.312866 0.119624 0.288507
O O11 0.530809 0.469961 0.165963
O O12 0.468705 0.700417 0.455459
O O13 0.183908 0.559756 0.030498
O O14 0.500000 0.500000 0.000000
O O15 0.185441 0.290661 0.190189
O O16 0.982531 0.813988 0.185457
O O17 0.000000 0.000000 0.500000
#
# Coordination Sequence:
#
# PCOD8008716 Si02
#       8
#     2   2   2   2   2   2   2   2
#     4   9  18  34  56  79 105 148 196 222 274 344
#     4  10  22  38  61  88 111 146 195 232 281 347
#     4   9  18  34  57  78 108 152 188 227 277 333
#     4  10  21  38  58  85 115 152 191 228 284 341
#     4  10  21  34  50  82 120 145 182 235 278 326
#     4   9  19  37  59  81 117 152 184 237 281 329
#     4  10  21  40  59  85 117 144 186 243 288 334
#     4   9  19  37  57  80 116 149 185 236 285 334
#
# _framework density 20.092533
#
# number of rings (size 3 to 8) (size 9 to 14) (size 15 to 20)
#    0.000    2.500    0.000    1.125    1.750    2.000 
#    2.250    8.750    0.000    0.000    0.000    0.000 
#    0.000    0.000    0.000    0.000    0.000    0.000 
#
# Total GULP energy -198281.974724 kJ/mol
# GULP energy per Si atom -12392.623420 kJ/mol
# Density = 2.004680 g / cm^3
# Si number density = 20.092533 Si / 1000 Ang^3
#
#
#
# Elastic Constant Matrix: (Units=GPa)
#
#
# Indices 1 2 3 4 5 6 
#
# 1 87.1447 27.5709 47.6455 2.2355 -4.3647 18.0207
# 2 27.5709 87.7755 30.4456 -0.8901 11.6762 20.2520
# 3 47.6455 30.4456 101.5087 -10.5836 -6.8864 6.9492
# 4 2.2355 -0.8901 -10.5836 26.0183 1.5262 2.1156
# 5 -4.3647 11.6762 -6.8864 1.5262 28.8701 -4.8063
# 6 18.0207 20.2520 6.9492 2.1156 -4.8063 25.9169
#
#
#
# Elastic Compliance Matrix: (Units=1/GPa)
#
#
# Indices 1 2 3 4 5 6 
#
# 1 0.018232 -0.000664 -0.008143 -0.004094 -0.000316 -0.009699
# 2 -0.000664 0.018071 -0.004808 0.000539 -0.010991 -0.014452
# 3 -0.008143 -0.004808 0.015717 0.006172 0.005076 0.005643
# 4 -0.004094 0.000539 0.006172 0.041682 -0.002070 -0.003016
# 5 -0.000316 -0.010991 0.005076 -0.002070 0.042949 0.015581
# 6 -0.009699 -0.014452 0.005643 -0.003016 0.015581 0.058245
#
#
# Mechanical properties :
#
#
# Convention : Reuss Voigt Hill
#
# Bulk Modulus (GPa) = 40.33904 54.19479 47.26691
# Shear Modulus (GPa) = 21.70222 27.54550 24.62386
#
# Velocity S-wave (km/s) = 3.29007 3.70663 3.50454
# Velocity P-wave (km/s) = 5.87818 6.73424 6.32072
#
# Compressibility (1/GPa) = 0.02478988
#
# Stress axis : x y z
#
# Youngs Moduli (GPa) = 54.84778 55.33686 63.62463
#
# Poissons Ratio (x) = 0.03675 0.51809
# Poissons Ratio (y) = 0.03642 0.30593
# Poissons Ratio (z) = 0.44662 0.26608
#
# Static dielectric constant tensor:
#      x y z
#    x 3.987430 -0.090820 0.057530 
#    y -0.090820 3.772540 -0.410560 
#    z 0.057530 -0.410560 3.622490 
# 
# 
# High freq. dielectric constant tensor:
#      x y z
#    x 1.792950 0.009360 0.005950 
#    y 0.009360 1.768480 -0.034970 
#    z 0.005950 -0.034970 1.778380 
# 
# From -- ./inp_files/53312.got.cif
#   From: 2010.06.25/outbox.cif.g09.slc.cpg/sg2_27_cif.got.tgz:53312.got - 2010.06.27 13:26:56.
