data_PCOD8008419
_publ_section_title
;
Structure prediction by ZEFSAII (Michael W. Deem and Ramdas Pophale) SiO2 
 PCOD8008419
Probable space group: P -1
;
_chemical_formula_sum "Si O2"
_cell_formula_units_Z 16
_cell_length_a 9.316168
_cell_length_b 16.910258
_cell_length_c 9.142844
_cell_angle_alpha 117.610294
_cell_angle_beta 135.082308
_cell_angle_gamma 88.471957
_cell_volume 789.655417
_symmetry_space_group_name_H-M "P -1"
_symmetry_group_IT_number 2
_symmetry_cell_setting 'triclinic'
loop_
_space_group_symop_operation_xyz
x,y,z
-x,-y,-z
loop_
_atom_site_type_symbol
_atom_site_label
_atom_site_fract_x
_atom_site_fract_y
_atom_site_fract_z
Si Si1 0.452037 0.403649 0.473290
Si Si2 0.060723 0.603681 0.547888
Si Si3 0.340644 0.468639 0.002896
Si Si4 0.565688 0.693094 0.900001
Si Si5 0.975829 0.740659 0.815940
Si Si6 0.369116 0.899963 0.416848
Si Si7 0.809138 0.899026 0.851030
Si Si8 0.043606 0.093224 0.713725
O O1 0.500000 0.500000 0.500000
O O2 0.582495 0.433459 0.750083
O O3 0.513190 0.334211 0.351102
O O4 0.175176 0.340840 0.240126
O O5 0.334668 0.677907 0.799311
O O6 0.971162 0.675249 0.618247
O O7 0.000000 0.500000 0.500000
O O8 0.925922 0.569704 0.267067
O O9 0.356068 0.381333 0.030372
O O10 0.500000 0.500000 0.000000
O O11 0.780359 0.806421 0.163625
O O12 0.848886 0.807168 0.741893
O O13 0.229639 0.809476 0.123979
O O14 0.550375 0.875415 0.608418
O O15 0.197716 0.908236 0.420249
O O16 0.500000 0.000000 0.500000
O O17 0.835763 0.913093 0.055995
O O18 0.000000 0.000000 0.000000
O O19 0.000000 0.000000 0.500000
#
# Coordination Sequence:
#
# PCOD8008419 Si02
#       8
#     2   2   2   2   2   2   2   2
#     4  10  20  43  67  90 137 173 217 288 330 394
#     4  12  25  42  68 106 138 182 232 278 343 414
#     4  11  22  42  69  95 134 182 228 278 336 404
#     4  11  24  44  64 100 143 170 224 286 340 403
#     4  11  23  42  69 101 138 177 231 280 337 404
#     4  11  23  45  73  99 134 186 231 273 346 415
#     4  11  23  44  73 101 132 181 237 276 334 418
#     4  11  26  45  67 106 143 173 221 296 345 396
#
# _framework density 20.262003
#
# number of rings (size 3 to 8) (size 9 to 14) (size 15 to 20)
#    0.000    1.000    7.500    0.750    1.750    5.000 
#    0.000    0.000    0.000    0.000    0.000    0.000 
#    0.000    0.000    0.000    0.000    0.000    0.000 
#
# Total GULP energy -198299.641176 kJ/mol
# GULP energy per Si atom -12393.727573 kJ/mol
# Density = 2.021589 g / cm^3
# Si number density = 20.262003 Si / 1000 Ang^3
#
#
#
# Elastic Constant Matrix: (Units=GPa)
#
#
# Indices 1 2 3 4 5 6 
#
# 1 110.1542 59.3747 52.6479 10.7591 8.5387 -3.2501
# 2 59.3747 106.8880 79.1980 4.1075 5.6391 -0.0798
# 3 52.6479 79.1980 133.0061 3.7085 4.6788 -9.8846
# 4 10.7591 4.1075 3.7085 47.6085 -2.8197 10.1245
# 5 8.5387 5.6391 4.6788 -2.8197 52.4069 6.8056
# 6 -3.2501 -0.0798 -9.8846 10.1245 6.8056 40.4670
#
#
#
# Elastic Compliance Matrix: (Units=1/GPa)
#
#
# Indices 1 2 3 4 5 6 
#
# 1 0.013626 -0.006389 -0.001311 -0.002915 -0.001805 0.001794
# 2 -0.006389 0.019999 -0.009654 0.001155 0.000223 -0.003159
# 3 -0.001311 -0.009654 0.014093 -0.000764 -0.000514 0.003595
# 4 -0.002915 0.001155 -0.000764 0.023186 0.002529 -0.006645
# 5 -0.001805 0.000223 -0.000514 0.002529 0.020090 -0.004281
# 6 0.001794 -0.003159 0.003595 -0.006645 -0.004281 0.028110
#
#
# Mechanical properties :
#
#
# Convention : Reuss Voigt Hill
#
# Bulk Modulus (GPa) = 76.86964 81.38771 79.12867
# Shear Modulus (GPa) = 31.61564 38.68499 35.15031
#
# Velocity S-wave (km/s) = 3.95440 4.37422 4.16960
# Velocity P-wave (km/s) = 7.67267 8.10966 7.89419
#
# Compressibility (1/GPa) = 0.01300904
#
# Stress axis : x y z
#
# Youngs Moduli (GPa) = 73.38784 50.00136 70.95861
#
# Poissons Ratio (x) = 0.31946 0.09304
# Poissons Ratio (y) = 0.46888 0.68506
# Poissons Ratio (z) = 0.09623 0.48273
#
# Static dielectric constant tensor:
#      x y z
#    x 3.509610 0.461220 -0.702570 
#    y 0.461220 3.471480 0.718580 
#    z -0.702570 0.718580 3.241990 
# 
# 
# High freq. dielectric constant tensor:
#      x y z
#    x 1.794010 0.011510 0.003600 
#    y 0.011510 1.788720 0.014300 
#    z 0.003600 0.014300 1.804130 
# 
# From -- ./inp_files/218406.got.cif
#   From: 2010.06.25/outbox.cif.g09.slc.cpg/sg2_110_cif.got.tgz:218406.got - 2010.06.27 13:26:56.
