data_PCOD8008584
_publ_section_title
;
Structure prediction by ZEFSAII (Michael W. Deem and Ramdas Pophale) SiO2 
 PCOD8008584
Probable space group: P -1
;
_chemical_formula_sum "Si O2"
_cell_formula_units_Z 12
_cell_length_a 11.789694
_cell_length_b 7.798499
_cell_length_c 19.744451
_cell_angle_alpha 134.096871
_cell_angle_beta 31.310899
_cell_angle_gamma 146.004556
_cell_volume 526.995268
_symmetry_space_group_name_H-M "P -1"
_symmetry_group_IT_number 2
_symmetry_cell_setting 'triclinic'
loop_
_space_group_symop_operation_xyz
x,y,z
-x,-y,-z
loop_
_atom_site_type_symbol
_atom_site_label
_atom_site_fract_x
_atom_site_fract_y
_atom_site_fract_z
Si Si1 0.216151 0.796001 0.825791
Si Si2 0.707452 0.702692 0.712698
Si Si3 0.116117 0.206754 0.741497
Si Si4 0.327864 0.640662 0.485451
Si Si5 0.815184 0.093603 0.646926
Si Si6 0.890599 0.856113 0.115513
O O1 0.049098 0.429539 0.812621
O O2 0.552218 0.989616 0.706642
O O3 0.128115 0.880279 0.826605
O O4 0.135774 0.892126 0.959753
O O5 0.759972 0.500042 0.584904
O O6 0.405413 0.477465 0.840874
O O7 0.949082 0.892281 0.697752
O O8 0.709461 0.950044 0.735947
O O9 0.451990 0.410615 0.615571
O O10 0.034989 0.105818 0.833031
O O11 0.050444 0.467499 0.626904
O O12 0.500000 0.000000 0.500000
O O13 0.000000 0.000000 0.500000
#
# Coordination Sequence:
#
# PCOD8008584 Si02
#       6
#     2   2   2   2   2   2
#     4  11  22  45  73  94 143 177 224 288 324 408
#     4  10  23  42  68  99 134 175 227 275 337 404
#     4  11  23  44  68  98 139 181 217 286 337 399
#     4  10  23  43  67 101 133 176 229 274 335 402
#     4  10  20  44  68  99 131 181 225 271 344 401
#     4  10  24  45  67 104 133 179 232 273 340 390
#
# _framework density 22.770603999999999
#
# number of rings (size 3 to 8) (size 9 to 14) (size 15 to 20)
#    0.000    1.667    5.000    0.500    2.333    4.667 
#    9.000    1.667    0.000    0.000    0.000    0.000 
#    0.000    0.000    0.000    0.000    0.000    0.000 
#
# Total GULP energy -148715.669489 kJ/mol
# GULP energy per Si atom -12392.972457 kJ/mol
# Density = 2.271878 g / cm^3
# Si number density = 22.770604 Si / 1000 Ang^3
#
#
#
# Elastic Constant Matrix: (Units=GPa)
#
#
# Indices 1 2 3 4 5 6 
#
# 1 104.6594 74.9059 32.8614 10.8229 4.0325 -10.6235
# 2 74.9059 153.3050 50.8901 3.9435 13.5363 -4.0432
# 3 32.8614 50.8901 86.8174 -7.2054 -11.7035 -4.0890
# 4 10.8229 3.9435 -7.2054 34.6463 -4.2980 1.6886
# 5 4.0325 13.5363 -11.7035 -4.2980 23.2581 1.0066
# 6 -10.6235 -4.0432 -4.0890 1.6886 1.0066 51.6205
#
#
#
# Elastic Compliance Matrix: (Units=1/GPa)
#
#
# Indices 1 2 3 4 5 6 
#
# 1 0.015967 -0.006606 -0.002640 -0.005082 -0.001310 0.002751
# 2 -0.006606 0.012845 -0.006566 -0.001971 -0.009972 -0.000615
# 3 -0.002640 -0.006566 0.019032 0.007424 0.015232 -0.000090
# 4 -0.005082 -0.001971 0.007424 0.033815 0.012097 -0.001954
# 5 -0.001310 -0.009972 0.015232 0.012097 0.058987 -0.001390
# 6 0.002751 -0.000615 -0.000090 -0.001954 -0.001390 0.019974
#
#
# Mechanical properties :
#
#
# Convention : Reuss Voigt Hill
#
# Bulk Modulus (GPa) = 61.65352 73.56627 67.60990
# Shear Modulus (GPa) = 25.29701 34.31328 29.80515
#
# Velocity S-wave (km/s) = 3.33671 3.88611 3.62184
# Velocity P-wave (km/s) = 6.47916 7.24662 6.87361
#
# Compressibility (1/GPa) = 0.01621967
#
# Stress axis : x y z
#
# Youngs Moduli (GPa) = 62.62821 77.84844 52.54379
#
# Poissons Ratio (x) = 0.51430 0.13872
# Poissons Ratio (y) = 0.41375 0.34500
# Poissons Ratio (z) = 0.16534 0.51115
#
# Static dielectric constant tensor:
#      x y z
#    x 4.088510 -0.408640 -0.013870 
#    y -0.408640 4.603660 -0.361810 
#    z -0.013870 -0.361810 4.202490 
# 
# 
# High freq. dielectric constant tensor:
#      x y z
#    x 1.890480 -0.017860 -0.005400 
#    y -0.017860 1.908230 -0.012660 
#    z -0.005400 -0.012660 1.883310 
# 
# From -- ./inp_files/593822.got.cif
#   From: 2010.06.25/outbox.cif.g09.slc.cpg/sg2_297_cif.got.tgz:593822.got - 2010.06.27 13:26:56.
