data_PCOD8008314
_publ_section_title
;
Structure prediction by ZEFSAII (Michael W. Deem and Ramdas Pophale) SiO2 
 PCOD8008314
Probable space group: P -1
;
_chemical_formula_sum "Si O2"
_cell_formula_units_Z 16
_cell_length_a 9.872492
_cell_length_b 18.940004
_cell_length_c 13.369380
_cell_angle_alpha 156.263128
_cell_angle_beta 74.151019
_cell_angle_gamma 119.968612
_cell_volume 740.263255
_symmetry_space_group_name_H-M "P -1"
_symmetry_group_IT_number 2
_symmetry_cell_setting 'triclinic'
loop_
_space_group_symop_operation_xyz
x,y,z
-x,-y,-z
loop_
_atom_site_type_symbol
_atom_site_label
_atom_site_fract_x
_atom_site_fract_y
_atom_site_fract_z
Si Si1 0.521965 0.354309 0.880075
Si Si2 0.474548 0.634455 0.797784
Si Si3 0.977853 0.675068 0.968539
Si Si4 0.781297 0.850680 0.157334
Si Si5 0.680009 0.208796 0.342277
Si Si6 0.060390 0.355957 0.829021
Si Si7 0.606343 0.054405 0.762898
Si Si8 0.542826 0.755571 0.716824
O O1 0.393779 0.282532 0.907051
O O2 0.466563 0.125657 0.544722
O O3 0.500000 0.500000 0.000000
O O4 0.732690 0.513448 0.080035
O O5 0.449798 0.644321 0.698010
O O6 0.377594 0.368391 0.500446
O O7 0.691838 0.792381 0.989143
O O8 0.390211 0.738393 0.005506
O O9 0.874716 0.412733 0.617651
O O10 0.890045 0.759390 0.031952
O O11 0.954459 0.693312 0.114047
O O12 0.189652 0.836445 0.104854
O O13 0.922319 0.121033 0.493259
O O14 0.620333 0.309862 0.407218
O O15 0.523488 0.073423 0.282011
O O16 0.697380 0.032763 0.055521
O O17 0.000000 0.500000 0.000000
#
# Coordination Sequence:
#
# PCOD8008314 Si02
#       8
#     2   2   2   2   2   2   2   2
#     4  12  23  41  65  94 131 177 217 252 307 393
#     4  10  22  41  66  95 124 168 209 267 324 368
#     4  12  23  42  63  96 130 169 210 259 315 384
#     4  12  24  42  66  91 136 174 208 260 316 377
#     4  10  20  42  72  92 121 170 210 265 317 378
#     4  12  26  39  61  96 134 170 212 257 313 378
#     4  11  23  39  65  95 131 162 213 259 318 379
#     4   9  20  42  70  89 122 166 217 263 322 372
#
# _framework density 21.613932999999999
#
# number of rings (size 3 to 8) (size 9 to 14) (size 15 to 20)
#    0.000    1.000    5.000    1.875    3.500    1.000 
#    0.000    6.250    0.000    0.000    0.000    0.000 
#    0.000    0.000    0.000    0.000    0.000    0.000 
#
# Total GULP energy -198354.608749 kJ/mol
# GULP energy per Si atom -12397.163047 kJ/mol
# Density = 2.156474 g / cm^3
# Si number density = 21.613933 Si / 1000 Ang^3
#
#
#
# Elastic Constant Matrix: (Units=GPa)
#
#
# Indices 1 2 3 4 5 6 
#
# 1 109.7082 18.4312 24.7925 15.2195 -5.6006 5.9045
# 2 18.4312 32.3454 14.3096 12.3917 11.1980 0.1366
# 3 24.7925 14.3096 126.6448 8.1189 -8.6783 8.1063
# 4 15.2195 12.3917 8.1189 26.6980 2.4528 8.7347
# 5 -5.6006 11.1980 -8.6783 2.4528 53.7931 7.0899
# 6 5.9045 0.1366 8.1063 8.7347 7.0899 32.0831
#
#
#
# Elastic Compliance Matrix: (Units=1/GPa)
#
#
# Indices 1 2 3 4 5 6 
#
# 1 0.010892 -0.005340 -0.001073 -0.003174 0.002399 -0.001377
# 2 -0.005340 0.047482 -0.004473 -0.019796 -0.011558 0.009855
# 3 -0.001073 -0.004473 0.008927 0.000647 0.002598 -0.002789
# 4 -0.003174 -0.019796 0.000647 0.052721 0.003416 -0.014603
# 5 0.002399 -0.011558 0.002598 0.003416 0.022423 -0.006934
# 6 -0.001377 0.009855 -0.002789 -0.014603 -0.006934 0.037593
#
#
# Mechanical properties :
#
#
# Convention : Reuss Voigt Hill
#
# Bulk Modulus (GPa) = 21.96473 42.64054 32.30263
# Shear Modulus (GPa) = 23.04297 36.59250 29.81774
#
# Velocity S-wave (km/s) = 3.26869 4.11908 3.71827
# Velocity P-wave (km/s) = 4.94268 6.51103 5.78029
#
# Compressibility (1/GPa) = 0.04552753
#
# Stress axis : x y z
#
# Youngs Moduli (GPa) = 91.81406 21.06052 112.02467
#
# Poissons Ratio (x) = 0.11247 0.12018
# Poissons Ratio (y) = 0.49032 0.50112
# Poissons Ratio (z) = 0.09850 0.09421
#
# Static dielectric constant tensor:
#      x y z
#    x 4.182620 -0.186220 -0.167160 
#    y -0.186220 3.717690 -0.280080 
#    z -0.167160 -0.280080 4.797590 
# 
# 
# High freq. dielectric constant tensor:
#      x y z
#    x 1.854450 -0.024550 -0.008700 
#    y -0.024550 1.817760 -0.006460 
#    z -0.008700 -0.006460 1.877900 
# 
# From -- ./inp_files/186438.got.cif
#   From: 2010.06.25/outbox.cif.g09.slc.cpg/sg2_94_cif.got.tgz:186438.got - 2010.06.27 13:26:56.
