data_PCOD8008667
_publ_section_title
;
Structure prediction by ZEFSAII (Michael W. Deem and Ramdas Pophale) SiO2 
 PCOD8008667
Probable space group: P -1
;
_chemical_formula_sum "Si O2"
_cell_formula_units_Z 16
_cell_length_a 24.005947
_cell_length_b 15.177140
_cell_length_c 11.459428
_cell_angle_alpha 138.605645
_cell_angle_beta 150.975321
_cell_angle_gamma 24.030794
_cell_volume 799.747987
_symmetry_space_group_name_H-M "P -1"
_symmetry_group_IT_number 2
_symmetry_cell_setting 'triclinic'
loop_
_space_group_symop_operation_xyz
x,y,z
-x,-y,-z
loop_
_atom_site_type_symbol
_atom_site_label
_atom_site_fract_x
_atom_site_fract_y
_atom_site_fract_z
Si Si1 0.999235 0.701219 0.773780
Si Si2 0.366788 0.906725 0.376619
Si Si3 0.240514 0.528403 0.245258
Si Si4 0.104286 0.494571 0.533670
Si Si5 0.496927 0.690247 0.169393
Si Si6 0.093497 0.400332 0.945782
Si Si7 0.215023 0.753417 0.621585
Si Si8 0.479103 0.088087 0.720621
O O1 0.982353 0.562151 0.634964
O O2 0.027595 0.683632 0.667604
O O3 0.814860 0.951897 0.733715
O O4 0.181202 0.599495 0.071745
O O5 0.543232 0.725409 0.607851
O O6 0.379685 0.792350 0.178823
O O7 0.372889 0.045754 0.462989
O O8 0.213561 0.690287 0.427731
O O9 0.101329 0.545867 0.063056
O O10 0.339070 0.284824 0.758182
O O11 0.032330 0.575304 0.347754
O O12 0.703203 0.427052 0.310306
O O13 0.534327 0.807241 0.315126
O O14 0.364372 0.738838 0.879638
O O15 0.000000 0.500000 0.000000
O O16 0.301686 0.135652 0.062933
O O17 0.000000 0.000000 0.500000
#
# Coordination Sequence:
#
# PCOD8008667 Si02
#       8
#     2   2   2   2   2   2   2   2
#     4   9  17  33  51  71 105 139 178 206 243 314
#     4   9  18  31  52  78 105 138 166 213 260 304
#     4   9  19  33  50  77 100 137 176 209 256 304
#     4   9  20  32  48  77 106 141 170 205 257 305
#     4  10  21  33  50  79 106 135 173 210 267 313
#     4  10  22  31  51  82 109 136 167 205 264 320
#     4  10  21  34  50  73 105 139 174 216 256 304
#     4  10  21  32  52  77 112 137 161 213 265 313
#
# _framework density 20.006302000000002
#
# number of rings (size 3 to 8) (size 9 to 14) (size 15 to 20)
#    0.000    2.500    0.000    1.125   12.250    1.000 
#    0.000    5.000    0.000    0.750    0.000   13.125 
#    0.000    0.000    0.000    0.000    0.000    0.000 
#
# Total GULP energy -198211.976067 kJ/mol
# GULP energy per Si atom -12388.248504 kJ/mol
# Density = 1.996077 g / cm^3
# Si number density = 20.006302 Si / 1000 Ang^3
#
#
#
# Elastic Constant Matrix: (Units=GPa)
#
#
# Indices 1 2 3 4 5 6 
#
# 1 51.7150 41.0981 43.3683 4.2440 -20.2595 -22.0179
# 2 41.0981 119.8872 53.3625 -9.5521 -11.1948 -25.4270
# 3 43.3683 53.3625 117.5112 -4.2636 -27.3791 -23.9053
# 4 4.2440 -9.5521 -4.2636 21.1913 -7.6228 -6.2369
# 5 -20.2595 -11.1948 -27.3791 -7.6228 24.3183 7.9823
# 6 -22.0179 -25.4270 -23.9053 -6.2369 7.9823 29.7920
#
#
#
# Elastic Compliance Matrix: (Units=1/GPa)
#
#
# Indices 1 2 3 4 5 6 
#
# 1 0.046142 -0.007955 -0.004152 0.000281 0.024452 0.017488
# 2 -0.007955 0.013950 -0.002268 0.008561 -0.002242 0.006600
# 3 -0.004152 -0.002268 0.016150 0.010206 0.014875 0.006106
# 4 0.000281 0.008561 0.010206 0.070571 0.030462 0.022316
# 5 0.024452 -0.002242 0.014875 0.030462 0.082716 0.012309
# 6 0.017488 0.006600 0.006106 0.022316 0.012309 0.058397
#
#
# Mechanical properties :
#
#
# Convention : Reuss Voigt Hill
#
# Bulk Modulus (GPa) = 21.05583 62.75238 41.90411
# Shear Modulus (GPa) = 15.03724 25.14595 20.09160
#
# Velocity S-wave (km/s) = 2.74455 3.54913 3.17245
# Velocity P-wave (km/s) = 4.53772 6.94474 5.86602
#
# Compressibility (1/GPa) = 0.04749277
#
# Stress axis : x y z
#
# Youngs Moduli (GPa) = 21.67222 71.68245 61.91846
#
# Poissons Ratio (x) = 0.57025 0.25707
# Poissons Ratio (y) = 0.17241 0.14044
# Poissons Ratio (z) = 0.08998 0.16258
#
# Static dielectric constant tensor:
#      x y z
#    x 3.359440 -0.187710 -0.194020 
#    y -0.187710 3.819180 -0.022450 
#    z -0.194020 -0.022450 3.750140 
# 
# 
# High freq. dielectric constant tensor:
#      x y z
#    x 1.729490 -0.018870 -0.011630 
#    y -0.018870 1.785790 -0.011060 
#    z -0.011630 -0.011060 1.780400 
# 
# From -- ./inp_files/463760.got.cif
#   From: 2010.06.25/outbox.cif.g09.slc.cpg/sg2_232_cif.got.tgz:463760.got - 2010.06.27 13:26:56.
