data_PCOD8008043
_publ_section_title
;
Structure prediction by ZEFSAII (Michael W. Deem and Ramdas Pophale) SiO2 
 PCOD8008043
Probable space group: P -1
;
_chemical_formula_sum "Si O2"
_cell_formula_units_Z 16
_cell_length_a 9.225607
_cell_length_b 9.836935
_cell_length_c 12.147843
_cell_angle_alpha 88.685939
_cell_angle_beta 97.649569
_cell_angle_gamma 41.926233
_cell_volume 717.574026
_symmetry_space_group_name_H-M "P -1"
_symmetry_group_IT_number 2
_symmetry_cell_setting 'triclinic'
loop_
_space_group_symop_operation_xyz
x,y,z
-x,-y,-z
loop_
_atom_site_type_symbol
_atom_site_label
_atom_site_fract_x
_atom_site_fract_y
_atom_site_fract_z
Si Si1 0.710610 0.851430 0.102205
Si Si2 0.208424 0.113240 0.276308
Si Si3 0.498604 0.160369 0.245608
Si Si4 0.736254 0.534325 0.160504
Si Si5 0.813139 0.418629 0.920596
Si Si6 0.705774 0.243392 0.793397
Si Si7 0.194377 0.034412 0.511762
Si Si8 0.753559 0.296169 0.562015
O O1 0.708370 0.714240 0.174214
O O2 0.936227 0.700424 0.057085
O O3 0.694465 0.992334 0.180127
O O4 0.500000 0.000000 0.000000
O O5 0.356744 0.121145 0.231233
O O6 0.274250 0.065773 0.413603
O O7 0.956998 0.334148 0.245121
O O8 0.213873 0.967472 0.211813
O O9 0.346686 0.393541 0.188173
O O10 0.609850 0.108293 0.375660
O O11 0.554345 0.578442 0.209180
O O12 0.719714 0.512575 0.030116
O O13 0.819416 0.250784 0.903308
O O14 0.758200 0.301471 0.693447
O O15 0.951472 0.254341 0.532291
O O16 0.166217 0.906547 0.461724
O O17 0.500000 0.500000 0.500000
#
# Coordination Sequence:
#
# PCOD8008043 Si02
#       8
#     2   2   2   2   2   2   2   2
#     4  12  24  44  69  96 132 178 222 267 332 390
#     4  11  24  44  66  95 141 169 213 276 333 385
#     4  12  23  43  69  97 135 171 225 270 321 398
#     4  12  24  44  67  97 133 176 219 269 333 388
#     4  12  26  42  70 100 129 176 225 270 322 396
#     4  11  25  42  65 100 131 173 215 273 330 387
#     4  10  23  39  67  98 127 174 219 267 328 386
#     4  10  20  42  64  92 134 174 216 270 327 386
#
# _framework density 22.297352
#
# number of rings (size 3 to 8) (size 9 to 14) (size 15 to 20)
#    0.000    0.750    3.750    4.125    0.000    3.500 
#    0.000    0.625    0.000    0.000    0.000    0.000 
#    0.000    0.000    0.000    0.000    0.000    0.000 
#
# Total GULP energy -198311.252664 kJ/mol
# GULP energy per Si atom -12394.453291 kJ/mol
# Density = 2.224660 g / cm^3
# Si number density = 22.297352 Si / 1000 Ang^3
#
#
#
# Elastic Constant Matrix: (Units=GPa)
#
#
# Indices 1 2 3 4 5 6 
#
# 1 63.6201 23.8741 4.0466 9.9292 -4.5658 -10.0080
# 2 23.8741 96.0347 40.5687 0.0764 -1.8495 -18.0270
# 3 4.0466 40.5687 87.6522 0.3048 8.4337 -1.0388
# 4 9.9292 0.0764 0.3048 36.2571 -7.5998 4.9134
# 5 -4.5658 -1.8495 8.4337 -7.5998 31.6438 -0.2619
# 6 -10.0080 -18.0270 -1.0388 4.9134 -0.2619 35.5802
#
#
#
# Elastic Compliance Matrix: (Units=1/GPa)
#
#
# Indices 1 2 3 4 5 6 
#
# 1 0.018832 -0.004428 0.001162 -0.005500 0.000860 0.003853
# 2 -0.004428 0.015862 -0.007304 0.000888 0.002502 0.006474
# 3 0.001162 -0.007304 0.015144 -0.001003 -0.004560 -0.002827
# 4 -0.005500 0.000888 -0.001003 0.031291 0.006996 -0.005396
# 5 0.000860 0.002502 -0.004560 0.006996 0.034773 0.000666
# 6 0.003853 0.006474 -0.002827 -0.005396 0.000666 0.033137
#
#
# Mechanical properties :
#
#
# Convention : Reuss Voigt Hill
#
# Bulk Modulus (GPa) = 34.84542 42.69843 38.77193
# Shear Modulus (GPa) = 27.81695 32.61740 30.21717
#
# Velocity S-wave (km/s) = 3.53589 3.82886 3.68529
# Velocity P-wave (km/s) = 5.68609 6.22398 5.96110
#
# Compressibility (1/GPa) = 0.02869818
#
# Stress axis : x y z
#
# Youngs Moduli (GPa) = 53.09997 63.04368 66.03086
#
# Poissons Ratio (x) = 0.27919 -0.07675
# Poissons Ratio (y) = 0.23515 0.48230
# Poissons Ratio (z) = -0.06172 0.46048
#
# Static dielectric constant tensor:
#      x y z
#    x 4.186340 -0.145050 -0.333100 
#    y -0.145050 4.268590 0.291610 
#    z -0.333100 0.291610 4.192760 
# 
# 
# High freq. dielectric constant tensor:
#      x y z
#    x 1.877720 -0.013490 -0.006290 
#    y -0.013490 1.884640 0.012760 
#    z -0.006290 0.012760 1.881260 
# 
# From -- ./inp_files/141596.got.cif
#   From: 2010.06.25/outbox.cif.g09.slc.cpg/sg2_71_cif.got.tgz:141596.got - 2010.06.27 13:26:56.
