data_PCOD8008916
_publ_section_title
;
Structure prediction by ZEFSAII (Michael W. Deem and Ramdas Pophale) SiO2 
 PCOD8008916
Probable space group: P -1
;
_chemical_formula_sum "Si O2"
_cell_formula_units_Z 14
_cell_length_a 5.295074
_cell_length_b 11.892489
_cell_length_c 9.528819
_cell_angle_alpha 119.757077
_cell_angle_beta 102.626215
_cell_angle_gamma 83.399753
_cell_volume 508.309374
_symmetry_space_group_name_H-M "P -1"
_symmetry_group_IT_number 2
_symmetry_cell_setting 'triclinic'
loop_
_space_group_symop_operation_xyz
x,y,z
-x,-y,-z
loop_
_atom_site_type_symbol
_atom_site_label
_atom_site_fract_x
_atom_site_fract_y
_atom_site_fract_z
Si Si1 0.332243 0.577180 0.824269
Si Si2 0.105525 0.943910 0.761454
Si Si3 0.818481 0.614781 0.101172
Si Si4 0.661885 0.313742 0.394423
Si Si5 0.895170 0.195823 0.923105
Si Si6 0.391809 0.092181 0.661427
Si Si7 0.786686 0.732627 0.485136
O O1 0.556021 0.612154 0.980741
O O2 0.109970 0.687987 0.891244
O O3 0.235726 0.430635 0.765147
O O4 0.411861 0.585180 0.676203
O O5 0.178311 0.008348 0.661573
O O6 0.056013 0.071935 0.933291
O O7 0.322866 0.835073 0.762126
O O8 0.833838 0.871738 0.654192
O O9 0.962265 0.750633 0.168198
O O10 0.000000 0.500000 0.000000
O O11 0.450643 0.332984 0.502415
O O12 0.940776 0.347936 0.517389
O O13 0.611836 0.143256 0.823743
O O14 0.281045 0.227924 0.662026
O O15 0.500000 0.000000 0.500000
#
# Coordination Sequence:
#
# PCOD8008916 Si02
#       7
#     2   2   2   2   2   2   2
#     4  10  22  42  62  88 124 156 209 260 316 366
#     4  10  21  35  58  92 125 164 205 243 307 359
#     4   9  21  40  64  88 111 162 209 262 311 359
#     4  10  22  38  62  90 126 168 201 250 312 374
#     4  11  22  35  62  94 122 160 211 254 306 362
#     4  12  19  37  58  87 130 164 211 250 292 370
#     4  10  22  36  59  91 120 174 203 240 305 362
#
# _framework density 27.542280000000002
#
# number of rings (size 3 to 8) (size 9 to 14) (size 15 to 20)
#    0.857    0.857    2.857    1.286    6.000    0.571 
#    0.000    3.571    0.000    1.714    0.000    0.000 
#    0.000    0.000    0.000    0.000    0.000    0.000 
#
# Total GULP energy -173442.952943 kJ/mol
# GULP energy per Si atom -12388.782353 kJ/mol
# Density = 2.747959 g / cm^3
# Si number density = 27.542280 Si / 1000 Ang^3
#
#
#
# Elastic Constant Matrix: (Units=GPa)
#
#
# Indices 1 2 3 4 5 6 
#
# 1 130.5433 43.7957 21.7676 -20.8686 -3.6903 17.0190
# 2 43.7957 173.1058 39.2337 -9.0658 -6.7509 12.1746
# 3 21.7676 39.2337 47.0587 -19.2388 5.1201 12.7591
# 4 -20.8686 -9.0658 -19.2388 59.4375 3.5759 -9.0100
# 5 -3.6903 -6.7509 5.1201 3.5759 28.4564 -1.0696
# 6 17.0190 12.1746 12.7591 -9.0100 -1.0696 30.5340
#
#
#
# Elastic Compliance Matrix: (Units=1/GPa)
#
#
# Indices 1 2 3 4 5 6 
#
# 1 0.009205 -0.001699 -0.001164 0.002053 0.000617 -0.003340
# 2 -0.001699 0.007759 -0.006816 -0.001761 0.003079 0.000290
# 3 -0.001164 -0.006816 0.034539 0.008973 -0.009439 -0.008749
# 4 0.002053 -0.001761 0.008973 0.020708 -0.004302 0.001768
# 5 0.000617 0.003079 -0.009439 -0.004302 0.038283 0.002445
# 6 -0.003340 0.000290 -0.008749 0.001768 0.002445 0.038760
#
#
# Mechanical properties :
#
#
# Convention : Reuss Voigt Hill
#
# Bulk Modulus (GPa) = 31.10943 62.25574 46.68259
# Shear Modulus (GPa) = 27.88209 40.07964 33.98086
#
# Velocity S-wave (km/s) = 3.18518 3.81885 3.51632
# Velocity P-wave (km/s) = 4.98466 6.48827 5.78552
#
# Compressibility (1/GPa) = 0.03214460
#
# Stress axis : x y z
#
# Youngs Moduli (GPa) = 108.63332 128.88305 28.95282
#
# Poissons Ratio (x) = 0.21892 0.03371
# Poissons Ratio (y) = 0.18453 0.19736
# Poissons Ratio (z) = 0.12648 0.87852
#
# Static dielectric constant tensor:
#      x y z
#    x 5.472490 -0.398580 -0.741490 
#    y -0.398580 6.315060 0.807910 
#    z -0.741490 0.807910 5.074730 
# 
# 
# High freq. dielectric constant tensor:
#      x y z
#    x 2.108960 -0.000630 -0.028910 
#    y -0.000630 2.159340 0.030150 
#    z -0.028910 0.030150 2.094370 
# 
# From -- ./inp_files/76871.got.cif
#   From: 2010.06.25/outbox.cif.g09.slc.cpg/sg2_39_cif.got.tgz:76871.got - 2010.06.27 13:26:56.
