data_PCOD8008342
_publ_section_title
;
Structure prediction by ZEFSAII (Michael W. Deem and Ramdas Pophale) SiO2 
 PCOD8008342
Probable space group: P -1
;
_chemical_formula_sum "Si O2"
_cell_formula_units_Z 14
_cell_length_a 8.881198
_cell_length_b 13.583922
_cell_length_c 13.910952
_cell_angle_alpha 30.646933
_cell_angle_beta 97.362458
_cell_angle_gamma 118.156563
_cell_volume 592.857956
_symmetry_space_group_name_H-M "P -1"
_symmetry_group_IT_number 2
_symmetry_cell_setting 'triclinic'
loop_
_space_group_symop_operation_xyz
x,y,z
-x,-y,-z
loop_
_atom_site_type_symbol
_atom_site_label
_atom_site_fract_x
_atom_site_fract_y
_atom_site_fract_z
Si Si1 0.192366 0.111985 0.044782
Si Si2 0.650779 0.931549 0.645185
Si Si3 0.746134 0.068837 0.191830
Si Si4 0.943580 0.935256 0.439858
Si Si5 0.589181 0.305959 0.365568
Si Si6 0.600386 0.341321 0.967841
Si Si7 0.265679 0.205371 0.748556
O O1 0.241986 0.365294 0.886016
O O2 0.352430 0.092577 0.116466
O O3 0.234047 0.140696 0.911157
O O4 0.933748 0.839606 0.269674
O O5 0.596400 0.819133 0.625459
O O6 0.702967 0.208706 0.424079
O O7 0.437795 0.674828 0.906461
O O8 0.863493 0.015063 0.633562
O O9 0.930818 0.126933 0.221364
O O10 0.515297 0.816114 0.435558
O O11 0.747677 0.006035 0.134229
O O12 0.769551 0.321146 0.980858
O O13 0.704963 0.616608 0.687424
O O14 0.000000 0.000000 0.500000
O O15 0.500000 0.500000 0.500000
#
# Coordination Sequence:
#
# PCOD8008342 Si02
#       7
#     2   2   2   2   2   2   2
#     4  11  23  42  67  96 130 173 222 270 334 390
#     4  10  23  40  64  97 137 174 213 268 326 390
#     4  11  23  43  66  95 135 171 223 275 320 394
#     4  12  23  42  65  99 137 173 223 271 316 399
#     4  10  20  43  62  95 137 170 218 267 319 402
#     4  11  25  42  66  99 132 180 219 262 340 390
#     4  11  23  42  71  95 127 174 221 280 333 384
#
# _framework density 23.614425000000001
#
# number of rings (size 3 to 8) (size 9 to 14) (size 15 to 20)
#    0.000    1.143    4.286    0.857    2.000    4.571 
#    0.000    0.714    0.000    0.000    0.000    0.000 
#    0.000    0.000    0.000    0.000    0.000    0.000 
#
# Total GULP energy -173478.259107 kJ/mol
# GULP energy per Si atom -12391.304222 kJ/mol
# Density = 2.356068 g / cm^3
# Si number density = 23.614425 Si / 1000 Ang^3
#
#
#
# Elastic Constant Matrix: (Units=GPa)
#
#
# Indices 1 2 3 4 5 6 
#
# 1 155.7315 52.6488 36.6849 -3.4807 -0.8916 16.1345
# 2 52.6488 113.6495 17.4043 -1.9963 -0.2455 -5.7987
# 3 36.6849 17.4043 51.0146 -2.2850 -8.4391 4.0948
# 4 -3.4807 -1.9963 -2.2850 15.6761 8.5044 -6.0435
# 5 -0.8916 -0.2455 -8.4391 8.5044 43.0070 2.0410
# 6 16.1345 -5.7987 4.0948 -6.0435 2.0410 44.5718
#
#
#
# Elastic Compliance Matrix: (Units=1/GPa)
#
#
# Indices 1 2 3 4 5 6 
#
# 1 0.009225 -0.003643 -0.005242 -0.000085 -0.000684 -0.003312
# 2 -0.003643 0.010898 -0.001402 0.002062 -0.000847 0.003184
# 3 -0.005242 -0.001402 0.024701 -0.000751 0.004921 -0.000881
# 4 -0.000085 0.002062 -0.000751 0.077006 -0.015912 0.011538
# 5 -0.000684 -0.000847 0.004921 -0.015912 0.027522 -0.003732
# 6 -0.003312 0.003184 -0.000881 0.011538 -0.003732 0.025865
#
#
# Mechanical properties :
#
#
# Convention : Reuss Voigt Hill
#
# Bulk Modulus (GPa) = 41.23568 59.31908 50.27738
# Shear Modulus (GPa) = 24.52489 34.89484 29.70986
#
# Velocity S-wave (km/s) = 3.22616 3.84825 3.55085
# Velocity P-wave (km/s) = 5.60156 6.70222 6.17645
#
# Compressibility (1/GPa) = 0.02425084
#
# Stress axis : x y z
#
# Youngs Moduli (GPa) = 108.40141 91.76016 40.48379
#
# Poissons Ratio (x) = 0.33425 0.21222
# Poissons Ratio (y) = 0.39487 0.05675
# Poissons Ratio (z) = 0.56826 0.12863
#
# Static dielectric constant tensor:
#      x y z
#    x 5.417200 -0.827000 -1.604270 
#    y -0.827000 5.389620 1.634300 
#    z -1.604270 1.634300 6.914350 
# 
# 
# High freq. dielectric constant tensor:
#      x y z
#    x 1.959720 -0.003200 -0.021740 
#    y -0.003200 1.931160 0.019690 
#    z -0.021740 0.019690 1.907610 
# 
# From -- ./inp_files/313598.got.cif
#   From: 2010.06.25/outbox.cif.g09.slc.cpg/sg2_157_cif.got.tgz:313598.got - 2010.06.27 13:26:56.
