data_PCOD8008600
_publ_section_title
;
Structure prediction by ZEFSAII (Michael W. Deem and Ramdas Pophale) SiO2 
 PCOD8008600
Probable space group: P -1
;
_chemical_formula_sum "Si O2"
_cell_formula_units_Z 14
_cell_length_a 12.237436
_cell_length_b 10.048177
_cell_length_c 10.002073
_cell_angle_alpha 137.011686
_cell_angle_beta 116.306429
_cell_angle_gamma 58.810025
_cell_volume 713.007660
_symmetry_space_group_name_H-M "P -1"
_symmetry_group_IT_number 2
_symmetry_cell_setting 'triclinic'
loop_
_space_group_symop_operation_xyz
x,y,z
-x,-y,-z
loop_
_atom_site_type_symbol
_atom_site_label
_atom_site_fract_x
_atom_site_fract_y
_atom_site_fract_z
Si Si1 0.507909 0.289350 0.419741
Si Si2 0.742383 0.165124 0.620374
Si Si3 0.218918 0.411807 0.400132
Si Si4 0.857058 0.158248 0.196474
Si Si5 0.736454 0.960756 0.206884
Si Si6 0.853832 0.946732 0.771899
Si Si7 0.141421 0.488479 0.114809
O O1 0.500000 0.500000 0.500000
O O2 0.590272 0.278519 0.593016
O O3 0.367240 0.275942 0.360194
O O4 0.584983 0.096465 0.224915
O O5 0.821060 0.326016 0.795449
O O6 0.802225 0.014262 0.416512
O O7 0.750185 0.035592 0.664751
O O8 0.213688 0.604415 0.632469
O O9 0.149807 0.269095 0.330826
O O10 0.148571 0.498328 0.286692
O O11 0.008818 0.097180 0.255813
O O12 0.806451 0.008956 0.150286
O O13 0.827890 0.120403 0.999332
O O14 0.753997 0.719745 0.035095
O O15 0.000000 0.500000 0.000000
#
# Coordination Sequence:
#
# PCOD8008600 Si02
#       7
#     2   2   2   2   2   2   2
#     4  10  20  44  70  91 125 169 223 259 318 371
#     4  10  24  44  64  94 131 162 216 276 302 381
#     4  12  23  43  66  94 132 170 210 267 317 386
#     4  11  22  42  65  92 134 172 205 259 331 385
#     4  10  22  42  70  95 121 177 211 267 318 368
#     4  11  26  40  62  98 132 168 211 259 333 380
#     4  12  24  37  68 101 125 166 221 259 317 384
#
# _framework density 19.635134000000001
#
# number of rings (size 3 to 8) (size 9 to 14) (size 15 to 20)
#    0.857    0.286    5.714    1.286    4.000    3.429 
#    2.571    0.714    0.000    0.000    0.000    0.000 
#    0.000    0.000    0.000    0.000    0.000    0.000 
#
# Total GULP energy -173593.684158 kJ/mol
# GULP energy per Si atom -12399.548868 kJ/mol
# Density = 1.959044 g / cm^3
# Si number density = 19.635134 Si / 1000 Ang^3
#
#
#
# Elastic Constant Matrix: (Units=GPa)
#
#
# Indices 1 2 3 4 5 6 
#
# 1 80.1777 10.6307 16.3534 -11.8140 -7.7629 -2.2017
# 2 10.6307 89.0447 22.4562 -12.4194 -8.5841 3.4405
# 3 16.3534 22.4562 66.1304 6.2093 -12.8168 0.6364
# 4 -11.8140 -12.4194 6.2093 44.2323 -8.6235 5.3397
# 5 -7.7629 -8.5841 -12.8168 -8.6235 30.5901 3.0782
# 6 -2.2017 3.4405 0.6364 5.3397 3.0782 26.1789
#
#
#
# Elastic Compliance Matrix: (Units=1/GPa)
#
#
# Indices 1 2 3 4 5 6 
#
# 1 0.014230 0.000223 -0.003348 0.005088 0.003728 -0.000227
# 2 0.000223 0.013616 -0.004412 0.005670 0.003958 -0.003285
# 3 -0.003348 -0.004412 0.018712 -0.003862 0.004655 0.000084
# 4 0.005088 0.005670 -0.003862 0.028968 0.010167 -0.007327
# 5 0.003728 0.003958 0.004655 0.010167 0.040281 -0.007130
# 6 -0.000227 -0.003285 0.000084 -0.007327 -0.007130 0.040942
#
#
# Mechanical properties :
#
#
# Convention : Reuss Voigt Hill
#
# Bulk Modulus (GPa) = 31.76259 37.13705 34.44982
# Shear Modulus (GPa) = 27.42474 32.59443 30.00959
#
# Velocity S-wave (km/s) = 3.74132 4.07874 3.91367
# Velocity P-wave (km/s) = 5.90549 6.41374 6.16486
#
# Compressibility (1/GPa) = 0.03148358
#
# Stress axis : x y z
#
# Youngs Moduli (GPa) = 70.27476 73.44422 53.44204
#
# Poissons Ratio (x) = -0.01639 0.17890
# Poissons Ratio (y) = -0.01568 0.23581
# Poissons Ratio (z) = 0.23525 0.32407
#
# Static dielectric constant tensor:
#      x y z
#    x 3.699420 -0.130750 0.000610 
#    y -0.130750 3.495770 0.022730 
#    z 0.000610 0.022730 3.612780 
# 
# 
# High freq. dielectric constant tensor:
#      x y z
#    x 1.755030 -0.002050 0.000540 
#    y -0.002050 1.764290 0.005800 
#    z 0.000540 0.005800 1.770350 
# 
# From -- ./inp_files/241576.got.cif
#   From: 2010.06.25/outbox.cif.g09.slc.cpg/sg2_121_cif.got.tgz:241576.got - 2010.06.27 13:26:56.
