data_PCOD8008731
_publ_section_title
;
Structure prediction by ZEFSAII (Michael W. Deem and Ramdas Pophale) SiO2 
 PCOD8008731
Probable space group: P -1
;
_chemical_formula_sum "Si O2"
_cell_formula_units_Z 14
_cell_length_a 13.180115
_cell_length_b 5.320617
_cell_length_c 12.381222
_cell_angle_alpha 92.933324
_cell_angle_beta 60.783185
_cell_angle_gamma 65.749936
_cell_volume 655.465281
_symmetry_space_group_name_H-M "P -1"
_symmetry_group_IT_number 2
_symmetry_cell_setting 'triclinic'
loop_
_space_group_symop_operation_xyz
x,y,z
-x,-y,-z
loop_
_atom_site_type_symbol
_atom_site_label
_atom_site_fract_x
_atom_site_fract_y
_atom_site_fract_z
Si Si1 0.844475 0.139499 0.612439
Si Si2 0.922086 0.418205 0.256217
Si Si3 0.303454 0.654208 0.523512
Si Si4 0.571126 0.105199 0.383939
Si Si5 0.905753 0.582750 0.654430
Si Si6 0.788530 0.697741 0.114681
Si Si7 0.110812 0.913824 0.028665
O O1 0.763135 0.171435 0.546521
O O2 0.806784 0.447165 0.696076
O O3 0.817782 0.936236 0.704229
O O4 0.000000 0.000000 0.500000
O O5 0.782672 0.481706 0.383936
O O6 0.897685 0.565634 0.153425
O O7 0.997735 0.541266 0.293730
O O8 0.026533 0.067050 0.185045
O O9 0.454084 0.411284 0.405913
O O10 0.312157 0.862314 0.614625
O O11 0.500000 0.000000 0.500000
O O12 0.639806 0.870549 0.247746
O O13 0.000000 0.500000 0.500000
O O14 0.799146 0.438953 0.025542
O O15 0.801460 0.934507 0.042175
O O16 0.000000 0.000000 0.000000
#
# Coordination Sequence:
#
# PCOD8008731 Si02
#       7
#     2   2   2   2   2   2   2
#     4  10  21  35  53  82 123 146 188 235 295 350
#     4  11  20  37  62  85 126 153 187 250 298 354
#     4  11  23  37  55  88 124 153 194 239 297 357
#     4  11  24  36  58  84 116 167 195 235 296 348
#     4  10  21  34  53  88 117 151 185 230 308 348
#     4  11  23  39  55  83 122 153 206 228 285 362
#     4  10  22  37  56  85 114 161 192 240 292 345
#
# _framework density 21.358875000000001
#
# number of rings (size 3 to 8) (size 9 to 14) (size 15 to 20)
#    0.000    1.429    4.286    3.429    8.000    3.429 
#    0.000    0.000    0.000    0.000    0.000    6.000 
#    0.000    0.000    0.000    0.000    0.000    0.000 
#
# Total GULP energy -173483.455445 kJ/mol
# GULP energy per Si atom -12391.675389 kJ/mol
# Density = 2.131026 g / cm^3
# Si number density = 21.358875 Si / 1000 Ang^3
#
#
#
# Elastic Constant Matrix: (Units=GPa)
#
#
# Indices 1 2 3 4 5 6 
#
# 1 90.0396 37.1822 19.7301 3.8153 6.6511 -1.7100
# 2 37.1822 111.1560 9.1710 7.8349 -3.2155 27.1622
# 3 19.7301 9.1710 60.2960 27.5355 -6.3441 5.2394
# 4 3.8153 7.8349 27.5355 35.5635 1.8887 3.9791
# 5 6.6511 -3.2155 -6.3441 1.8887 23.6677 -3.1785
# 6 -1.7100 27.1622 5.2394 3.9791 -3.1785 39.1234
#
#
#
# Elastic Compliance Matrix: (Units=1/GPa)
#
#
# Indices 1 2 3 4 5 6 
#
# 1 0.015985 -0.006559 -0.008111 0.005823 -0.007330 0.005151
# 2 -0.006559 0.013626 0.002966 -0.003721 0.003513 -0.009480
# 3 -0.008111 0.002966 0.031629 -0.024598 0.012705 -0.003116
# 4 0.005823 -0.003721 -0.024598 0.047999 -0.012535 0.000232
# 5 -0.007330 0.003513 0.012705 -0.012535 0.049305 0.000820
# 6 0.005151 -0.009480 -0.003116 0.000232 0.000820 0.032827
#
#
# Mechanical properties :
#
#
# Convention : Reuss Voigt Hill
#
# Bulk Modulus (GPa) = 26.43246 43.73979 35.08613
# Shear Modulus (GPa) = 21.98882 32.69814 27.34348
#
# Velocity S-wave (km/s) = 3.21205 3.91691 3.58186
# Velocity P-wave (km/s) = 5.11455 6.40150 5.79387
#
# Compressibility (1/GPa) = 0.03783227
#
# Stress axis : x y z
#
# Youngs Moduli (GPa) = 62.56022 73.38859 31.61694
#
# Poissons Ratio (x) = 0.48134 0.25644
# Poissons Ratio (y) = 0.41032 -0.09378
# Poissons Ratio (z) = 0.50742 -0.21769
#
# Static dielectric constant tensor:
#      x y z
#    x 4.046500 0.694350 0.057800 
#    y 0.694350 5.442570 0.301860 
#    z 0.057800 0.301860 3.999160 
# 
# 
# High freq. dielectric constant tensor:
#      x y z
#    x 1.808230 0.023860 0.013460 
#    y 0.023860 1.850340 0.012360 
#    z 0.013460 0.012360 1.806280 
# 
# From -- ./inp_files/410709.got.cif
#   From: 2010.06.25/outbox.cif.g09.slc.cpg/sg2_206_cif.got.tgz:410709.got - 2010.06.27 13:26:56.
