data_PCOD8008854
_publ_section_title
;
Structure prediction by ZEFSAII (Michael W. Deem and Ramdas Pophale) SiO2 
 PCOD8008854
Probable space group: P -1
;
_chemical_formula_sum "Si O2"
_cell_formula_units_Z 16
_cell_length_a 18.094078
_cell_length_b 14.545565
_cell_length_c 10.580501
_cell_angle_alpha 49.484848
_cell_angle_beta 128.679132
_cell_angle_gamma 159.081597
_cell_volume 754.161693
_symmetry_space_group_name_H-M "P -1"
_symmetry_group_IT_number 2
_symmetry_cell_setting 'triclinic'
loop_
_space_group_symop_operation_xyz
x,y,z
-x,-y,-z
loop_
_atom_site_type_symbol
_atom_site_label
_atom_site_fract_x
_atom_site_fract_y
_atom_site_fract_z
Si Si1 0.620593 0.935658 0.857099
Si Si2 0.697829 0.366416 0.866187
Si Si3 0.493898 0.156461 0.468259
Si Si4 0.154081 0.571630 0.278695
Si Si5 0.540332 0.609274 0.755318
Si Si6 0.811325 0.910281 0.022248
Si Si7 0.285845 0.834828 0.767259
Si Si8 0.275578 0.407656 0.121008
O O1 0.558832 0.915138 0.670721
O O2 0.795431 0.031619 0.941973
O O3 0.421597 0.653942 0.965474
O O4 0.720916 0.159519 0.842950
O O5 0.852442 0.499036 0.802458
O O6 0.462117 0.097514 0.806175
O O7 0.738817 0.330037 0.065331
O O8 0.743919 0.554765 0.794266
O O9 0.732284 0.387071 0.536547
O O10 0.456312 0.246834 0.407296
O O11 0.350036 0.904833 0.625201
O O12 0.923132 0.326725 0.298514
O O13 0.694991 0.758886 0.902066
O O14 0.302994 0.306668 0.805561
O O15 0.626947 0.615946 0.734595
O O16 0.048921 0.142143 0.053636
#
# Coordination Sequence:
#
# PCOD8008854 Si02
#       8
#     2   2   2   2   2   2   2   2
#     4  10  21  35  55  87 116 138 180 229 270 329
#     4  10  22  38  56  84 108 136 194 234 258 324
#     4  10  22  37  53  83 117 142 179 223 271 338
#     4  11  22  37  58  81 111 149 181 223 276 322
#     4   9  20  36  53  82 115 140 182 229 263 322
#     4   9  19  35  57  83 109 143 184 224 272 324
#     4  10  21  38  59  78 110 149 178 226 282 318
#     4  11  20  35  61  82 108 150 182 224 278 312
#
# _framework density 21.215609000000001
#
# number of rings (size 3 to 8) (size 9 to 14) (size 15 to 20)
#    0.000    2.000    0.000    4.875    0.000    5.500 
#    0.000    2.500    0.000    4.500    0.000    0.000 
#    0.000    0.000    0.000    0.000    0.000    0.000 
#
# Total GULP energy -198370.614382 kJ/mol
# GULP energy per Si atom -12398.163399 kJ/mol
# Density = 2.116732 g / cm^3
# Si number density = 21.215609 Si / 1000 Ang^3
#
#
#
# Elastic Constant Matrix: (Units=GPa)
#
#
# Indices 1 2 3 4 5 6 
#
# 1 111.9684 22.5414 8.1573 4.8798 0.7731 2.0709
# 2 22.5414 82.2052 3.3731 12.2051 1.8438 28.6483
# 3 8.1573 3.3731 46.2330 7.0210 -4.2723 9.3329
# 4 4.8798 12.2051 7.0210 14.2862 6.7289 8.7189
# 5 0.7731 1.8438 -4.2723 6.7289 27.9908 1.4112
# 6 2.0709 28.6483 9.3329 8.7189 1.4112 42.6010
#
#
#
# Elastic Compliance Matrix: (Units=1/GPa)
#
#
# Indices 1 2 3 4 5 6 
#
# 1 0.009718 -0.003250 -0.001819 -0.000959 -0.000218 0.002315
# 2 -0.003250 0.018170 0.003253 -0.010673 0.002493 -0.010672
# 3 -0.001819 0.003253 0.025759 -0.015521 0.007742 -0.004823
# 4 -0.000959 -0.010673 -0.015521 0.105769 -0.026555 -0.010143
# 5 -0.000218 0.002493 0.007742 -0.026555 0.043101 0.000645
# 6 0.002315 -0.010672 -0.004823 -0.010143 0.000645 0.033649
#
#
# Mechanical properties :
#
#
# Convention : Reuss Voigt Hill
#
# Bulk Modulus (GPa) = 19.99355 34.28335 27.13845
# Shear Modulus (GPa) = 19.49546 30.73125 25.11336
#
# Velocity S-wave (km/s) = 3.03466 3.81007 3.44426
# Velocity P-wave (km/s) = 4.66083 5.96239 5.35133
#
# Compressibility (1/GPa) = 0.05001612
#
# Stress axis : x y z
#
# Youngs Moduli (GPa) = 102.89794 55.03499 38.82119
#
# Poissons Ratio (x) = 0.17885 0.07063
# Poissons Ratio (y) = 0.33439 -0.12630
# Poissons Ratio (z) = 0.18722 -0.17905
#
# Static dielectric constant tensor:
#      x y z
#    x 4.079260 0.035770 0.245470 
#    y 0.035770 3.679170 0.030230 
#    z 0.245470 0.030230 3.695430 
# 
# 
# High freq. dielectric constant tensor:
#      x y z
#    x 1.848740 0.007360 0.014250 
#    y 0.007360 1.821780 0.006410 
#    z 0.014250 0.006410 1.806900 
# 
# From -- ./inp_files/466057.got.cif
#   From: 2010.06.25/outbox.cif.g09.slc.cpg/sg2_234_cif.got.tgz:466057.got - 2010.06.27 13:26:56.
