data_PCOD8008657
_publ_section_title
;
Structure prediction by ZEFSAII (Michael W. Deem and Ramdas Pophale) SiO2 
 PCOD8008657
Probable space group: P -1
;
_chemical_formula_sum "Si O2"
_cell_formula_units_Z 12
_cell_length_a 5.170190
_cell_length_b 13.439901
_cell_length_c 14.027623
_cell_angle_alpha 51.156904
_cell_angle_beta 70.299281
_cell_angle_gamma 77.928143
_cell_volume 714.746950
_symmetry_space_group_name_H-M "P -1"
_symmetry_group_IT_number 2
_symmetry_cell_setting 'triclinic'
loop_
_space_group_symop_operation_xyz
x,y,z
-x,-y,-z
loop_
_atom_site_type_symbol
_atom_site_label
_atom_site_fract_x
_atom_site_fract_y
_atom_site_fract_z
Si Si1 0.594094 0.727450 0.837853
Si Si2 0.006893 0.376977 0.007684
Si Si3 0.956352 0.566820 0.747910
Si Si4 0.312938 0.003366 0.428423
Si Si5 0.087930 0.394104 0.478604
Si Si6 0.646872 0.264688 0.502977
O O1 0.744547 0.710857 0.931923
O O2 0.718195 0.630768 0.802392
O O3 0.628260 0.871793 0.714601
O O4 0.273430 0.701829 0.904545
O O5 0.052277 0.431116 0.862320
O O6 0.000000 0.500000 0.000000
O O7 0.216330 0.664831 0.649030
O O8 0.841156 0.539687 0.672093
O O9 0.500000 0.000000 0.500000
O O10 0.382116 0.884628 0.423488
O O11 0.000000 0.000000 0.500000
O O12 0.349599 0.320337 0.530485
O O13 0.000000 0.500000 0.500000
O O14 0.840141 0.291787 0.554794
#
# Coordination Sequence:
#
# PCOD8008657 Si02
#       6
#     2   2   2   2   2   2
#     4  11  21  32  49  77 108 145 169 194 255 319
#     4  10  21  31  48  73 108 141 172 205 246 311
#     4   9  20  31  54  72 110 130 173 209 263 296
#     4  12  21  34  52  76 111 145 174 204 252 323
#     4  10  21  35  54  78 103 130 178 225 272 301
#     4  10  21  33  53  77 106 134 172 212 269 304
#
# _framework density 16.789158
#
# number of rings (size 3 to 8) (size 9 to 14) (size 15 to 20)
#    1.000    0.667    1.667    5.500    9.333    0.000 
#    0.000    0.000    0.000    0.000    0.000    7.000 
#    0.000    0.000    0.000    0.000    0.000    0.000 
#
# Total GULP energy -148724.334940 kJ/mol
# GULP energy per Si atom -12393.694578 kJ/mol
# Density = 1.675094 g / cm^3
# Si number density = 16.789158 Si / 1000 Ang^3
#
#
#
# Elastic Constant Matrix: (Units=GPa)
#
#
# Indices 1 2 3 4 5 6 
#
# 1 117.6249 20.2805 18.1070 -12.1932 0.6777 7.2758
# 2 20.2805 82.5057 16.3521 -6.3431 0.8502 3.4153
# 3 18.1070 16.3521 92.9114 -22.2452 0.7939 7.0009
# 4 -12.1932 -6.3431 -22.2452 23.5792 3.7250 -0.5633
# 5 0.6777 0.8502 0.7939 3.7250 21.7952 -4.3909
# 6 7.2758 3.4153 7.0009 -0.5633 -4.3909 24.0504
#
#
#
# Elastic Compliance Matrix: (Units=1/GPa)
#
#
# Indices 1 2 3 4 5 6 
#
# 1 0.009481 -0.001816 -0.000276 0.004326 -0.001498 -0.002702
# 2 -0.001816 0.013017 -0.001576 0.001177 -0.000788 -0.000957
# 3 -0.000276 -0.001576 0.014769 0.013849 -0.003710 -0.004345
# 4 0.004326 0.001177 0.013849 0.059803 -0.012181 -0.006331
# 5 -0.001498 -0.000788 -0.003710 -0.012181 0.050300 0.010543
# 6 -0.002702 -0.000957 -0.004345 -0.006331 0.010543 0.045574
#
#
# Mechanical properties :
#
#
# Convention : Reuss Voigt Hill
#
# Bulk Modulus (GPa) = 33.41026 44.72457 39.06741
# Shear Modulus (GPa) = 23.78027 29.77179 26.77603
#
# Velocity S-wave (km/s) = 3.76760 4.21560 3.99788
# Velocity P-wave (km/s) = 6.23454 7.09872 6.68062
#
# Compressibility (1/GPa) = 0.02993093
#
# Stress axis : x y z
#
# Youngs Moduli (GPa) = 105.46927 76.82018 67.70918
#
# Poissons Ratio (x) = 0.13951 0.01869
# Poissons Ratio (y) = 0.19153 0.10674
# Poissons Ratio (z) = 0.02911 0.12111
#
# Static dielectric constant tensor:
#      x y z
#    x 3.487370 0.064130 0.273080 
#    y 0.064130 2.816240 -0.185890 
#    z 0.273080 -0.185890 3.719520 
# 
# 
# High freq. dielectric constant tensor:
#      x y z
#    x 1.668260 0.008320 0.008120 
#    y 0.008320 1.604980 -0.012470 
#    z 0.008120 -0.012470 1.638020 
# 
# From -- ./inp_files/481006.got.cif
#   From: 2010.06.25/outbox.cif.g09.slc.cpg/sg2_241_cif.got.tgz:481006.got - 2010.06.27 13:26:56.
