data_PCOD8008855
_publ_section_title
;
Structure prediction by ZEFSAII (Michael W. Deem and Ramdas Pophale) SiO2 
 PCOD8008855
Probable space group: P -1
;
_chemical_formula_sum "Si O2"
_cell_formula_units_Z 16
_cell_length_a 15.401469
_cell_length_b 24.365128
_cell_length_c 24.092192
_cell_angle_alpha 168.176260
_cell_angle_beta 27.667253
_cell_angle_gamma 152.563534
_cell_volume 839.657522
_symmetry_space_group_name_H-M "P -1"
_symmetry_group_IT_number 2
_symmetry_cell_setting 'triclinic'
loop_
_space_group_symop_operation_xyz
x,y,z
-x,-y,-z
loop_
_atom_site_type_symbol
_atom_site_label
_atom_site_fract_x
_atom_site_fract_y
_atom_site_fract_z
Si Si1 0.275974 0.553558 0.518644
Si Si2 0.623015 0.111199 0.594099
Si Si3 0.455335 0.210211 0.307612
Si Si4 0.736963 0.334977 0.171851
Si Si5 0.042766 0.979704 0.105828
Si Si6 0.225995 0.522822 0.391599
Si Si7 0.692921 0.950061 0.198850
Si Si8 0.125657 0.299070 0.962660
O O1 0.472048 0.706849 0.589332
O O2 0.315754 0.502156 0.381061
O O3 0.200519 0.262099 0.303703
O O4 0.123333 0.746110 0.797600
O O5 0.492817 0.160478 0.768023
O O6 0.500000 0.000000 0.500000
O O7 0.742501 0.887708 0.324841
O O8 0.754750 0.403830 0.792546
O O9 0.642100 0.268229 0.219910
O O10 0.294919 0.372334 0.540221
O O11 0.358119 0.889516 0.042127
O O12 0.962279 0.344341 0.057331
O O13 0.874307 0.055383 0.239896
O O14 0.968103 0.871355 0.100322
O O15 0.000000 0.500000 0.500000
O O16 0.336525 0.800980 0.575995
O O17 0.272361 0.281623 0.090695
#
# Coordination Sequence:
#
# PCOD8008855 Si02
#       8
#     2   2   2   2   2   2   2   2
#     4  12  23  36  58  89 119 160 192 229 293 353
#     4  12  26  39  60  86 118 159 203 238 283 341
#     4  10  21  35  55  87 118 150 186 240 290 350
#     4  10  21  36  57  83 119 152 188 236 292 350
#     4  12  22  34  59  85 123 156 195 232 277 345
#     4  12  23  39  59  85 116 160 196 234 288 349
#     4  12  24  40  56  84 121 155 199 243 274 334
#     4  12  24  39  59  88 118 165 194 231 291 351
#
# _framework density 19.055388000000001
#
# number of rings (size 3 to 8) (size 9 to 14) (size 15 to 20)
#    0.000    0.500    5.000    4.500    5.250    0.000 
#    0.000    0.000    0.000    0.000    0.000   17.500 
#    0.000    0.000    0.000    0.000    0.000    0.000 
#
# Total GULP energy -198488.935699 kJ/mol
# GULP energy per Si atom -12405.558481 kJ/mol
# Density = 1.901202 g / cm^3
# Si number density = 19.055388 Si / 1000 Ang^3
#
#
#
# Elastic Constant Matrix: (Units=GPa)
#
#
# Indices 1 2 3 4 5 6 
#
# 1 103.4290 45.5803 27.5307 -3.7861 14.9923 4.6905
# 2 45.5803 80.3865 49.0357 -4.9519 -1.8460 -0.9272
# 3 27.5307 49.0357 138.0307 -4.1487 2.4862 4.9131
# 4 -3.7861 -4.9519 -4.1487 42.8250 1.5484 -5.3738
# 5 14.9923 -1.8460 2.4862 1.5484 28.0594 -0.0172
# 6 4.6905 -0.9272 4.9131 -5.3738 -0.0172 21.3502
#
#
#
# Elastic Compliance Matrix: (Units=1/GPa)
#
#
# Indices 1 2 3 4 5 6 
#
# 1 0.014929 -0.009012 0.000518 0.000169 -0.008627 -0.003755
# 2 -0.009012 0.021575 -0.006111 0.001453 0.006699 0.004694
# 3 0.000518 -0.006111 0.009430 -0.000013 -0.001515 -0.002554
# 4 0.000169 0.001453 -0.000013 0.024353 -0.001334 0.006158
# 5 -0.008627 0.006699 -0.001515 -0.001334 0.040898 0.002232
# 6 -0.003755 0.004694 -0.002554 0.006158 0.002232 0.050006
#
#
# Mechanical properties :
#
#
# Convention : Reuss Voigt Hill
#
# Bulk Modulus (GPa) = 59.79416 62.90439 61.34927
# Shear Modulus (GPa) = 25.51318 31.76022 28.63670
#
# Velocity S-wave (km/s) = 3.66306 4.08699 3.88082
# Velocity P-wave (km/s) = 7.02410 7.44005 7.23506
#
# Compressibility (1/GPa) = 0.01672404
#
# Stress axis : x y z
#
# Youngs Moduli (GPa) = 66.98341 46.34961 106.04137
#
# Poissons Ratio (x) = 0.41770 -0.05493
# Poissons Ratio (y) = 0.60365 0.64804
# Poissons Ratio (z) = -0.03470 0.28325
#
# Static dielectric constant tensor:
#      x y z
#    x 3.635200 0.208040 -0.099560 
#    y 0.208040 3.485740 -0.110070 
#    z -0.099560 -0.110070 3.762610 
# 
# 
# High freq. dielectric constant tensor:
#      x y z
#    x 1.732840 0.008440 0.000230 
#    y 0.008440 1.708170 0.005510 
#    z 0.000230 0.005510 1.769020 
# 
# From -- ./inp_files/76083.got.cif
#   From: 2010.06.25/outbox.cif.g09.slc.cpg/sg2_39_cif.got.tgz:76083.got - 2010.06.27 13:26:56.
