data_PCOD8008411
_publ_section_title
;
Structure prediction by ZEFSAII (Michael W. Deem and Ramdas Pophale) SiO2 
 PCOD8008411
Probable space group: P -1
;
_chemical_formula_sum "Si O2"
_cell_formula_units_Z 16
_cell_length_a 10.956260
_cell_length_b 10.562514
_cell_length_c 7.952809
_cell_angle_alpha 65.910375
_cell_angle_beta 118.857409
_cell_angle_gamma 90.057472
_cell_volume 713.407454
_symmetry_space_group_name_H-M "P -1"
_symmetry_group_IT_number 2
_symmetry_cell_setting 'triclinic'
loop_
_space_group_symop_operation_xyz
x,y,z
-x,-y,-z
loop_
_atom_site_type_symbol
_atom_site_label
_atom_site_fract_x
_atom_site_fract_y
_atom_site_fract_z
Si Si1 0.482953 0.222901 0.336345
Si Si2 0.161711 0.198027 0.575882
Si Si3 0.851663 0.504770 0.488681
Si Si4 0.763287 0.032243 0.025265
Si Si5 0.659074 0.506482 0.057700
Si Si6 0.452270 0.028367 0.708808
Si Si7 0.148444 0.798039 0.700895
Si Si8 0.209347 0.786427 0.365235
O O1 0.353392 0.363552 0.151312
O O2 0.421298 0.118351 0.468418
O O3 0.618190 0.269711 0.481517
O O4 0.526845 0.139401 0.232737
O O5 0.177037 0.360371 0.477203
O O6 0.306334 0.083146 0.682549
O O7 0.020554 0.188302 0.383165
O O8 0.154435 0.136905 0.798155
O O9 0.852897 0.350347 0.655428
O O10 0.000000 0.500000 0.500000
O O11 0.724566 0.546346 0.250273
O O12 0.795548 0.109533 0.174949
O O13 0.590682 0.054851 0.884075
O O14 0.829013 0.090667 0.870760
O O15 0.500000 0.500000 0.000000
O O16 0.758717 0.363592 0.123263
O O17 0.158322 0.846448 0.485395
#
# Coordination Sequence:
#
# PCOD8008411 Si02
#       8
#     2   2   2   2   2   2   2   2
#     4  10  20  43  67 102 131 177 232 278 337 397
#     4  12  24  42  67  99 140 178 218 288 344 398
#     4  11  22  43  62  98 138 179 223 275 344 403
#     4  11  25  43  70 102 129 184 231 272 337 407
#     4  11  21  38  71  94 127 188 223 274 336 402
#     4  10  24  41  69 100 137 171 229 287 330 406
#     4  11  24  44  65 101 140 173 226 279 342 397
#     4  10  22  44  70  95 138 175 228 280 327 408
#
# _framework density 22.427575999999998
#
# number of rings (size 3 to 8) (size 9 to 14) (size 15 to 20)
#    0.000    1.250    5.000    2.250    1.750    1.500 
#    2.250    5.000    0.000    0.000    0.000    0.000 
#    0.000    0.000    0.000    0.000    0.000    0.000 
#
# Total GULP energy -198224.344376 kJ/mol
# GULP energy per Si atom -12389.021523 kJ/mol
# Density = 2.237653 g / cm^3
# Si number density = 22.427576 Si / 1000 Ang^3
#
#
#
# Elastic Constant Matrix: (Units=GPa)
#
#
# Indices 1 2 3 4 5 6 
#
# 1 72.6095 40.1547 40.1768 0.0501 13.5630 12.5768
# 2 40.1547 120.6149 41.8666 2.4477 -2.6032 11.1886
# 3 40.1768 41.8666 94.2867 -0.3194 10.0883 5.3339
# 4 0.0501 2.4477 -0.3194 36.0645 2.6763 1.0408
# 5 13.5630 -2.6032 10.0883 2.6763 38.2890 2.8573
# 6 12.5768 11.1886 5.3339 1.0408 2.8573 33.9655
#
#
#
# Elastic Compliance Matrix: (Units=1/GPa)
#
#
# Indices 1 2 3 4 5 6 
#
# 1 0.021910 -0.004801 -0.006261 0.000840 -0.006119 -0.005059
# 2 -0.004801 0.011267 -0.003241 -0.000999 0.003517 -0.001690
# 3 -0.006261 -0.003241 0.014865 0.000477 -0.002043 0.001209
# 4 0.000840 -0.000999 0.000477 0.027997 -0.002395 -0.000713
# 5 -0.006119 0.003517 -0.002043 -0.002395 0.029301 -0.000963
# 6 -0.005059 -0.001690 0.001209 -0.000713 -0.000963 0.031785
#
#
# Mechanical properties :
#
#
# Convention : Reuss Voigt Hill
#
# Bulk Modulus (GPa) = 51.44999 59.10082 55.27540
# Shear Modulus (GPa) = 29.03424 32.68468 30.85946
#
# Velocity S-wave (km/s) = 3.60193 3.82166 3.71342
# Velocity P-wave (km/s) = 6.34735 6.77366 6.56397
#
# Compressibility (1/GPa) = 0.01943635
#
# Stress axis : x y z
#
# Youngs Moduli (GPa) = 45.64057 88.75310 67.27312
#
# Poissons Ratio (x) = 0.42610 0.42118
# Poissons Ratio (y) = 0.21912 0.21805
# Poissons Ratio (z) = 0.28574 0.28768
#
# Static dielectric constant tensor:
#      x y z
#    x 4.067140 0.229180 -0.024670 
#    y 0.229180 4.475350 -0.341370 
#    z -0.024670 -0.341370 4.569180 
# 
# 
# High freq. dielectric constant tensor:
#      x y z
#    x 1.871440 0.025290 0.016010 
#    y 0.025290 1.888280 -0.009050 
#    z 0.016010 -0.009050 1.887960 
# 
# From -- ./inp_files/257176.got.cif
#   From: 2010.06.25/outbox.cif.g09.slc.cpg/sg2_129_cif.got.tgz:257176.got - 2010.06.27 13:26:56.
