data_PCOD8008193
_publ_section_title
;
Structure prediction by ZEFSAII (Michael W. Deem and Ramdas Pophale) SiO2 
 PCOD8008193
Probable space group: P -1
;
_chemical_formula_sum "Si O2"
_cell_formula_units_Z 16
_cell_length_a 14.905117
_cell_length_b 8.884325
_cell_length_c 9.705879
_cell_angle_alpha 100.888102
_cell_angle_beta 47.612067
_cell_angle_gamma 71.061185
_cell_volume 729.156599
_symmetry_space_group_name_H-M "P -1"
_symmetry_group_IT_number 2
_symmetry_cell_setting 'triclinic'
loop_
_space_group_symop_operation_xyz
x,y,z
-x,-y,-z
loop_
_atom_site_type_symbol
_atom_site_label
_atom_site_fract_x
_atom_site_fract_y
_atom_site_fract_z
Si Si1 0.333862 0.696788 0.669156
Si Si2 0.030698 0.796431 0.959077
Si Si3 0.023750 0.354125 0.281476
Si Si4 0.329993 0.690672 0.165011
Si Si5 0.496097 0.047605 0.853691
Si Si6 0.703456 0.060884 0.002401
Si Si7 0.794096 0.524386 0.782925
Si Si8 0.252522 0.949429 0.534673
O O1 0.500000 0.500000 0.500000
O O2 0.266571 0.848397 0.889298
O O3 0.341183 0.801591 0.546784
O O4 0.215973 0.643875 0.768094
O O5 0.916104 0.848483 0.214076
O O6 0.992347 0.706826 0.862445
O O7 0.000000 0.000000 0.000000
O O8 0.097670 0.468762 0.218221
O O9 0.860344 0.492632 0.553358
O O10 0.139364 0.160200 0.222695
O O11 0.222980 0.643346 0.197559
O O12 0.236340 0.827736 0.417724
O O13 0.500000 0.500000 0.000000
O O14 0.348119 0.813827 0.060787
O O15 0.657474 0.975215 0.608035
O O16 0.434991 0.947692 0.815658
O O17 0.380976 0.280098 0.996848
O O18 0.500000 0.000000 0.000000
#
# Coordination Sequence:
#
# PCOD8008193 Si02
#       8
#     2   2   2   2   2   2   2   2
#     4  11  24  42  67 103 135 175 225 279 343 414
#     4  10  20  42  67  95 135 173 223 271 344 406
#     4  10  21  43  65  96 131 184 222 286 343 399
#     4  12  22  39  64 101 134 178 229 284 337 395
#     4  11  22  42  64  99 136 177 229 277 338 404
#     4  11  23  40  65  96 133 176 234 279 330 408
#     4  10  22  38  65  95 135 175 228 282 336 396
#     4  11  22  41  69  97 135 184 218 274 349 397
#
# _framework density 21.943158
#
# number of rings (size 3 to 8) (size 9 to 14) (size 15 to 20)
#    0.000    1.250    5.000    2.250    0.000    2.000 
#    0.000    0.000    0.000    2.250    0.000    0.000 
#    0.000    0.000    0.000    0.000    0.000    0.000 
#
# Total GULP energy -198311.423395 kJ/mol
# GULP energy per Si atom -12394.463962 kJ/mol
# Density = 2.189321 g / cm^3
# Si number density = 21.943158 Si / 1000 Ang^3
#
#
#
# Elastic Constant Matrix: (Units=GPa)
#
#
# Indices 1 2 3 4 5 6 
#
# 1 137.6548 37.7511 60.5466 2.5757 1.5289 19.9983
# 2 37.7511 63.8369 32.0681 -8.2666 -6.4846 -2.7749
# 3 60.5466 32.0681 131.7224 -12.8942 -5.5857 13.7842
# 4 2.5757 -8.2666 -12.8942 28.6921 6.2319 6.8159
# 5 1.5289 -6.4846 -5.5857 6.2319 48.5107 0.5196
# 6 19.9983 -2.7749 13.7842 6.8159 0.5196 28.1185
#
#
#
# Elastic Compliance Matrix: (Units=1/GPa)
#
#
# Indices 1 2 3 4 5 6 
#
# 1 0.011306 -0.005660 -0.003449 -0.002456 -0.001127 -0.006293
# 2 -0.005660 0.021411 -0.002897 0.003299 0.002211 0.006718
# 3 -0.003449 -0.002897 0.010890 0.005359 0.000335 -0.004477
# 4 -0.002456 0.003299 0.005359 0.041852 -0.004127 -0.010624
# 5 -0.001127 0.002211 0.000335 -0.004127 0.021498 0.001459
# 6 -0.006293 0.006718 -0.004477 -0.010624 0.001459 0.045445
#
#
# Mechanical properties :
#
#
# Convention : Reuss Voigt Hill
#
# Bulk Modulus (GPa) = 51.03281 65.99396 58.51339
# Shear Modulus (GPa) = 27.33033 34.58747 30.95890
#
# Velocity S-wave (km/s) = 3.53300 3.97448 3.76023
# Velocity P-wave (km/s) = 6.32061 7.15558 6.75101
#
# Compressibility (1/GPa) = 0.01959524
#
# Stress axis : x y z
#
# Youngs Moduli (GPa) = 88.44580 46.70429 91.83042
#
# Poissons Ratio (x) = 0.26434 0.31670
# Poissons Ratio (y) = 0.50059 0.26608
# Poissons Ratio (z) = 0.30503 0.13532
#
# Static dielectric constant tensor:
#      x y z
#    x 4.846730 -0.174820 0.152170 
#    y -0.174820 4.408280 -0.299180 
#    z 0.152170 -0.299180 4.480110 
# 
# 
# High freq. dielectric constant tensor:
#      x y z
#    x 1.877090 0.022070 -0.005560 
#    y 0.022070 1.840000 0.007480 
#    z -0.005560 0.007480 1.864760 
# 
# From -- ./inp_files/298694.got.cif
#   From: 2010.06.25/outbox.cif.g09.slc.cpg/sg2_150_cif.got.tgz:298694.got - 2010.06.27 13:26:56.
