data_PCOD8008315
_publ_section_title
;
Structure prediction by ZEFSAII (Michael W. Deem and Ramdas Pophale) SiO2 
 PCOD8008315
Probable space group: P -1
;
_chemical_formula_sum "Si O2"
_cell_formula_units_Z 12
_cell_length_a 7.792776
_cell_length_b 7.294822
_cell_length_c 13.513738
_cell_angle_alpha 77.162917
_cell_angle_beta 70.727434
_cell_angle_gamma 126.594538
_cell_volume 485.172982
_symmetry_space_group_name_H-M "P -1"
_symmetry_group_IT_number 2
_symmetry_cell_setting 'triclinic'
loop_
_space_group_symop_operation_xyz
x,y,z
-x,-y,-z
loop_
_atom_site_type_symbol
_atom_site_label
_atom_site_fract_x
_atom_site_fract_y
_atom_site_fract_z
Si Si1 0.443494 0.506151 0.761985
Si Si2 0.136341 0.821058 0.761062
Si Si3 0.025385 0.218038 0.418396
Si Si4 0.955641 0.299141 0.796779
Si Si5 0.759932 0.778288 0.965756
Si Si6 0.303631 0.910840 0.332909
O O1 0.656455 0.507570 0.687809
O O2 0.613153 0.809589 0.736224
O O3 0.254252 0.435029 0.717493
O O4 0.245202 0.271856 0.910606
O O5 0.439579 0.023269 0.708663
O O6 0.124135 0.894998 0.644190
O O7 0.971537 0.500932 0.834933
O O8 0.017041 0.878067 0.854856
O O9 0.000000 0.000000 0.500000
O O10 0.886260 0.259669 0.514575
O O11 0.759856 0.003335 0.921903
O O12 0.859697 0.284803 0.707646
O O13 0.500000 0.500000 0.000000
#
# Coordination Sequence:
#
# PCOD8008315 Si02
#       6
#     2   2   2   2   2   2
#     4  10  22  43  66 101 132 175 225 266 326 392
#     4  11  25  43  68 101 132 172 221 273 330 394
#     4  10  20  42  72  93 133 176 216 274 326 388
#     4  11  25  43  67 100 135 174 220 271 330 391
#     4  12  22  46  69  95 136 175 220 273 330 389
#     4  10  22  42  65  98 136 173 218 271 330 387
#
# _framework density 24.733446000000001
#
# number of rings (size 3 to 8) (size 9 to 14) (size 15 to 20)
#    0.000    1.333    3.333    2.000    0.000    6.000 
#    3.000    1.667    0.000    0.000    0.000    0.000 
#    0.000    0.000    0.000    0.000    0.000    0.000 
#
# Total GULP energy -148812.252121 kJ/mol
# GULP energy per Si atom -12401.021010 kJ/mol
# Density = 2.467715 g / cm^3
# Si number density = 24.733446 Si / 1000 Ang^3
#
#
#
# Elastic Constant Matrix: (Units=GPa)
#
#
# Indices 1 2 3 4 5 6 
#
# 1 141.9651 33.0666 62.4574 9.9002 5.9848 26.5139
# 2 33.0666 89.8403 17.4481 15.6697 8.8205 1.6290
# 3 62.4574 17.4481 150.6024 16.7283 -2.9101 2.1748
# 4 9.9002 15.6697 16.7283 18.4147 5.0504 10.0475
# 5 5.9848 8.8205 -2.9101 5.0504 38.0240 0.6240
# 6 26.5139 1.6290 2.1748 10.0475 0.6240 47.2524
#
#
#
# Elastic Compliance Matrix: (Units=1/GPa)
#
#
# Indices 1 2 3 4 5 6 
#
# 1 0.011004 -0.003876 -0.004721 0.006053 -0.001882 -0.007086
# 2 -0.003876 0.014731 0.001365 -0.013935 -0.000927 0.004580
# 3 -0.004721 0.001365 0.009576 -0.010361 0.002465 0.004332
# 4 0.006053 -0.013935 -0.010361 0.086226 -0.009627 -0.020647
# 5 -0.001882 -0.000927 0.002465 -0.009627 0.028234 0.002649
# 6 -0.007086 0.004580 0.004332 -0.020647 0.002649 0.029137
#
#
# Mechanical properties :
#
#
# Convention : Reuss Voigt Hill
#
# Bulk Modulus (GPa) = 47.96997 67.59466 57.78231
# Shear Modulus (GPa) = 24.95981 38.70061 31.83021
#
# Velocity S-wave (km/s) = 3.18016 3.95993 3.59127
# Velocity P-wave (km/s) = 5.73772 6.94958 6.37252
#
# Compressibility (1/GPa) = 0.02084638
#
# Stress axis : x y z
#
# Youngs Moduli (GPa) = 90.87252 67.88438 104.43011
#
# Poissons Ratio (x) = 0.26311 0.49302
# Poissons Ratio (y) = 0.35221 -0.14250
# Poissons Ratio (z) = 0.42902 -0.09263
#
# Static dielectric constant tensor:
#      x y z
#    x 4.765900 0.043740 -0.178530 
#    y 0.043740 4.383740 -0.161120 
#    z -0.178530 -0.161120 4.992250 
# 
# 
# High freq. dielectric constant tensor:
#      x y z
#    x 2.001730 0.004020 0.005460 
#    y 0.004020 1.995330 -0.012470 
#    z 0.005460 -0.012470 1.971100 
# 
# From -- ./inp_files/341536.got.cif
#   From: 2010.06.25/outbox.cif.g09.slc.cpg/sg2_171_cif.got.tgz:341536.got - 2010.06.27 13:26:56.
