data_PCOD8008254
_publ_section_title
;
Structure prediction by ZEFSAII (Michael W. Deem and Ramdas Pophale) SiO2 
 PCOD8008254
Probable space group: P -1
;
_chemical_formula_sum "Si O2"
_cell_formula_units_Z 16
_cell_length_a 11.878376
_cell_length_b 8.573019
_cell_length_c 14.157762
_cell_angle_alpha 100.279635
_cell_angle_beta 50.733218
_cell_angle_gamma 132.303682
_cell_volume 744.393117
_symmetry_space_group_name_H-M "P -1"
_symmetry_group_IT_number 2
_symmetry_cell_setting 'triclinic'
loop_
_space_group_symop_operation_xyz
x,y,z
-x,-y,-z
loop_
_atom_site_type_symbol
_atom_site_label
_atom_site_fract_x
_atom_site_fract_y
_atom_site_fract_z
Si Si1 0.172257 0.575029 0.988690
Si Si2 0.605286 0.372006 0.747749
Si Si3 0.572497 0.077418 0.864760
Si Si4 0.806137 0.274594 0.520052
Si Si5 0.748316 0.680083 0.359954
Si Si6 0.792132 0.750857 0.122826
Si Si7 0.978949 0.550883 0.278713
Si Si8 0.967781 0.080829 0.433301
O O1 0.211683 0.423801 0.938286
O O2 0.400648 0.839431 0.870343
O O3 0.084055 0.536226 0.136453
O O4 0.000000 0.500000 0.000000
O O5 0.564427 0.256474 0.858254
O O6 0.610496 0.228611 0.654076
O O7 0.413481 0.328216 0.816471
O O8 0.815033 0.649524 0.674088
O O9 0.820831 0.216000 0.740388
O O10 0.500000 0.000000 0.000000
O O11 0.000000 0.500000 0.500000
O O12 0.841999 0.323671 0.393818
O O13 0.781038 0.067465 0.537991
O O14 0.500000 0.500000 0.500000
O O15 0.786889 0.750015 0.238294
O O16 0.819517 0.557372 0.327483
O O17 0.902449 0.916130 0.364221
O O18 0.000000 0.000000 0.000000
O O19 0.000000 0.000000 0.500000
#
# Coordination Sequence:
#
# PCOD8008254 Si02
#       8
#     2   2   2   2   2   2   2   2
#     4  11  24  47  70 100 142 197 232 281 364 426
#     4  11  24  46  72 105 144 181 239 299 355 427
#     4  10  23  41  73 101 134 187 240 290 349 417
#     4  10  20  42  69 103 135 171 228 296 352 414
#     4  12  27  47  69 106 146 188 241 296 360 426
#     4  12  28  47  68 106 152 190 237 294 356 433
#     4  11  22  45  73 101 138 181 243 290 347 426
#     4  11  24  43  74 106 139 186 235 299 362 421
#
# _framework density 21.494019000000002
#
# number of rings (size 3 to 8) (size 9 to 14) (size 15 to 20)
#    0.000    1.000    3.750    3.750    5.250    1.000 
#    2.250    4.375    0.000    0.000    0.000    0.000 
#    0.000    0.000    0.000    0.000    0.000    0.000 
#
# Total GULP energy -198287.419992 kJ/mol
# GULP energy per Si atom -12392.963749 kJ/mol
# Density = 2.144510 g / cm^3
# Si number density = 21.494019 Si / 1000 Ang^3
#
#
#
# Elastic Constant Matrix: (Units=GPa)
#
#
# Indices 1 2 3 4 5 6 
#
# 1 182.0676 67.3744 82.5065 -5.4098 -2.3694 -20.0564
# 2 67.3744 128.2417 64.8407 -6.1877 2.0500 -12.1660
# 3 82.5065 64.8407 131.8906 7.5423 8.8222 -13.0298
# 4 -5.4098 -6.1877 7.5423 33.0044 -5.7025 -0.3332
# 5 -2.3694 2.0500 8.8222 -5.7025 54.4594 -1.9927
# 6 -20.0564 -12.1660 -13.0298 -0.3332 -1.9927 41.3490
#
#
#
# Elastic Compliance Matrix: (Units=1/GPa)
#
#
# Indices 1 2 3 4 5 6 
#
# 1 0.008547 -0.001969 -0.004385 0.002313 0.001482 0.002274
# 2 -0.001969 0.011299 -0.004425 0.002912 0.000548 0.001025
# 3 -0.004385 -0.004425 0.013011 -0.004972 -0.002634 0.000504
# 4 0.002313 0.002912 -0.004972 0.033111 0.004296 0.000886
# 5 0.001482 0.000548 -0.002634 0.004296 0.019320 0.001016
# 6 0.002274 0.001025 0.000504 0.000886 0.001016 0.025804
#
#
# Mechanical properties :
#
#
# Convention : Reuss Voigt Hill
#
# Bulk Modulus (GPa) = 88.51159 96.84922 92.68041
# Shear Modulus (GPa) = 36.65263 40.92778 38.79020
#
# Velocity S-wave (km/s) = 4.13394 4.36839 4.25278
# Velocity P-wave (km/s) = 8.00344 8.40240 8.20534
#
# Compressibility (1/GPa) = 0.01129795
#
# Stress axis : x y z
#
# Youngs Moduli (GPa) = 116.99965 88.50726 76.85931
#
# Poissons Ratio (x) = 0.17431 0.33704
# Poissons Ratio (y) = 0.23043 0.34007
# Poissons Ratio (z) = 0.51307 0.39160
#
# Static dielectric constant tensor:
#      x y z
#    x 4.320800 0.020440 -0.110250 
#    y 0.020440 4.031150 -0.307970 
#    z -0.110250 -0.307970 4.651120 
# 
# 
# High freq. dielectric constant tensor:
#      x y z
#    x 1.868300 -0.005660 0.003680 
#    y -0.005660 1.835940 -0.003650 
#    z 0.003680 -0.003650 1.849980 
# 
# From -- ./inp_files/515761.got.cif
#   From: 2010.06.25/outbox.cif.g09.slc.cpg/sg2_258_cif.got.tgz:515761.got - 2010.06.27 13:26:56.
