data_PCOD8008364
_publ_section_title
;
Structure prediction by ZEFSAII (Michael W. Deem and Ramdas Pophale) SiO2 
 PCOD8008364
Probable space group: P -1
;
_chemical_formula_sum "Si O2"
_cell_formula_units_Z 16
_cell_length_a 22.700410
_cell_length_b 8.097399
_cell_length_c 11.454322
_cell_angle_alpha 36.435348
_cell_angle_beta 35.350528
_cell_angle_gamma 48.582397
_cell_volume 723.405572
_symmetry_space_group_name_H-M "P -1"
_symmetry_group_IT_number 2
_symmetry_cell_setting 'triclinic'
loop_
_space_group_symop_operation_xyz
x,y,z
-x,-y,-z
loop_
_atom_site_type_symbol
_atom_site_label
_atom_site_fract_x
_atom_site_fract_y
_atom_site_fract_z
Si Si1 0.287502 0.351042 0.125771
Si Si2 0.796821 0.057731 0.034325
Si Si3 0.900901 0.193704 0.549943
Si Si4 0.971792 0.798477 0.056174
Si Si5 0.571349 0.758922 0.254638
Si Si6 0.481196 0.217755 0.010714
Si Si7 0.828934 0.162988 0.424985
Si Si8 0.343938 0.396175 0.553240
O O1 0.245159 0.660208 0.001134
O O2 0.193393 0.144090 0.415101
O O3 0.341051 0.247771 0.979893
O O4 0.365649 0.335399 0.118644
O O5 0.827911 0.104459 0.823552
O O6 0.892031 0.952966 0.014156
O O7 0.708634 0.829268 0.316673
O O8 0.839050 0.157848 0.551016
O O9 0.929851 0.514500 0.338757
O O10 0.000000 0.000000 0.500000
O O11 0.069523 0.721451 0.863174
O O12 0.000000 0.000000 0.000000
O O13 0.500000 0.500000 0.500000
O O14 0.622623 0.763865 0.293804
O O15 0.502253 0.042033 0.194518
O O16 0.556996 0.477020 0.739611
O O17 0.500000 0.000000 0.000000
O O18 0.735666 0.359791 0.424873
#
# Coordination Sequence:
#
# PCOD8008364 Si02
#       8
#     2   2   2   2   2   2   2   2
#     4  11  24  43  68 100 139 174 228 281 340 400
#     4  12  28  45  66 104 141 179 224 283 351 395
#     4  12  25  48  71  96 138 182 235 279 330 409
#     4  12  28  46  67 103 143 174 223 291 343 400
#     4  11  20  41  72  97 129 182 227 273 332 401
#     4  10  20  43  64  99 135 166 230 278 317 412
#     4  12  23  45  73  98 130 187 232 274 332 410
#     4  12  23  42  71  98 133 176 231 273 333 409
#
# _framework density 22.117607
#
# number of rings (size 3 to 8) (size 9 to 14) (size 15 to 20)
#    0.000    0.500    7.500    2.625    3.500    1.500 
#    2.250    0.625    0.000    0.000    0.000    0.000 
#    0.000    0.000    0.000    0.000    0.000    0.000 
#
# Total GULP energy -198468.279930 kJ/mol
# GULP energy per Si atom -12404.267496 kJ/mol
# Density = 2.206727 g / cm^3
# Si number density = 22.117607 Si / 1000 Ang^3
#
#
#
# Elastic Constant Matrix: (Units=GPa)
#
#
# Indices 1 2 3 4 5 6 
#
# 1 135.4388 22.1408 48.4022 -8.8689 -1.9239 -16.3060
# 2 22.1408 62.7750 22.4098 -25.8053 -5.6745 -13.0502
# 3 48.4022 22.4098 123.8942 -23.8771 -17.5980 -3.1730
# 4 -8.8689 -25.8053 -23.8771 33.8068 0.7380 -1.0029
# 5 -1.9239 -5.6745 -17.5980 0.7380 46.9875 -8.5729
# 6 -16.3060 -13.0502 -3.1730 -1.0029 -8.5729 34.3557
#
#
#
# Elastic Compliance Matrix: (Units=1/GPa)
#
#
# Indices 1 2 3 4 5 6 
#
# 1 0.009247 -0.002035 -0.003546 -0.001527 -0.000607 0.003092
# 2 -0.002035 0.028320 0.001011 0.022029 0.005542 0.011911
# 3 -0.003546 0.001011 0.011429 0.007850 0.004328 0.001066
# 4 -0.001527 0.022029 0.007850 0.051733 0.006839 0.011585
# 5 -0.000607 0.005542 0.004328 0.006839 0.025020 0.008660
# 6 0.003092 0.011911 0.001066 0.011585 0.008660 0.037697
#
#
# Mechanical properties :
#
#
# Convention : Reuss Voigt Hill
#
# Bulk Modulus (GPa) = 25.09138 56.44594 40.76866
# Shear Modulus (GPa) = 26.90020 38.30703 32.60361
#
# Velocity S-wave (km/s) = 3.49124 4.16621 3.84357
# Velocity P-wave (km/s) = 5.25555 6.97992 6.17819
#
# Compressibility (1/GPa) = 0.03985433
#
# Stress axis : x y z
#
# Youngs Moduli (GPa) = 108.14384 35.31097 87.49781
#
# Poissons Ratio (x) = 0.07187 0.31024
# Poissons Ratio (y) = 0.22012 -0.08842
# Poissons Ratio (z) = 0.38345 -0.03568
#
# Static dielectric constant tensor:
#      x y z
#    x 3.997590 -0.394090 -0.355270 
#    y -0.394090 3.925420 -0.175440 
#    z -0.355270 -0.175440 3.748640 
# 
# 
# High freq. dielectric constant tensor:
#      x y z
#    x 1.881210 -0.022780 -0.008850 
#    y -0.022780 1.856210 -0.015590 
#    z -0.008850 -0.015590 1.885370 
# 
# From -- ./inp_files/52160.got.cif
#   From: 2010.06.25/outbox.cif.g09.slc.cpg/sg2_27_cif.got.tgz:52160.got - 2010.06.27 13:26:56.
