data_PCOD8008431
_publ_section_title
;
Structure prediction by ZEFSAII (Michael W. Deem and Ramdas Pophale) SiO2 
 PCOD8008431
Probable space group: P -1
;
_chemical_formula_sum "Si O2"
_cell_formula_units_Z 14
_cell_length_a 7.363158
_cell_length_b 7.391783
_cell_length_c 12.376449
_cell_angle_alpha 67.156314
_cell_angle_beta 115.972542
_cell_angle_gamma 109.271063
_cell_volume 547.573330
_symmetry_space_group_name_H-M "P -1"
_symmetry_group_IT_number 2
_symmetry_cell_setting 'triclinic'
loop_
_space_group_symop_operation_xyz
x,y,z
-x,-y,-z
loop_
_atom_site_type_symbol
_atom_site_label
_atom_site_fract_x
_atom_site_fract_y
_atom_site_fract_z
Si Si1 0.124694 0.870500 0.270656
Si Si2 0.324478 0.354898 0.765568
Si Si3 0.313294 0.673665 0.989874
Si Si4 0.117584 0.268555 0.089959
Si Si5 0.279121 0.774847 0.717406
Si Si6 0.835284 0.778618 0.651715
Si Si7 0.544695 0.787498 0.391120
O O1 0.295821 0.730629 0.338351
O O2 0.904550 0.729216 0.231991
O O3 0.154583 0.040680 0.142742
O O4 0.140373 0.985481 0.363626
O O5 0.479396 0.260018 0.903253
O O6 0.365794 0.594559 0.727448
O O7 0.351070 0.296620 0.663193
O O8 0.264209 0.429037 0.013914
O O9 0.333310 0.789472 0.855485
O O10 0.122283 0.727916 0.995347
O O11 0.175259 0.348974 0.210432
O O12 0.035685 0.755123 0.640278
O O13 0.401028 0.971880 0.645970
O O14 0.634474 0.702931 0.542688
#
# Coordination Sequence:
#
# PCOD8008431 Si02
#       7
#     2   2   2   2   2   2   2
#     4  10  23  44  67 101 134 177 223 272 335 397
#     4  12  26  42  67 108 133 173 230 272 335 398
#     4  10  20  43  67  98 138 173 226 275 329 399
#     4   8  19  40  72  94 127 184 219 266 337 395
#     4  11  24  44  71  95 137 181 216 281 336 392
#     4   9  21  46  72  94 134 180 224 269 341 397
#     4  12  24  46  71  96 138 179 219 279 334 400
#
# _framework density 25.567352
#
# number of rings (size 3 to 8) (size 9 to 14) (size 15 to 20)
#    0.857    0.857    1.429    2.143    0.000    6.286 
#    0.000    3.571    0.000    0.000    0.000    0.000 
#    0.000    0.000    0.000    0.000    0.000    0.000 
#
# Total GULP energy -173597.474898 kJ/mol
# GULP energy per Si atom -12399.819636 kJ/mol
# Density = 2.550916 g / cm^3
# Si number density = 25.567352 Si / 1000 Ang^3
#
#
#
# Elastic Constant Matrix: (Units=GPa)
#
#
# Indices 1 2 3 4 5 6 
#
# 1 77.9903 -1.5661 43.3835 3.0957 34.7964 18.0683
# 2 -1.5661 21.2320 7.2459 4.3543 1.7966 -6.4198
# 3 43.3835 7.2459 114.6568 7.9823 26.6521 14.6663
# 4 3.0957 4.3543 7.9823 30.2976 6.0977 10.5940
# 5 34.7964 1.7966 26.6521 6.0977 39.4007 2.6355
# 6 18.0683 -6.4198 14.6663 10.5940 2.6355 26.5789
#
#
#
# Elastic Compliance Matrix: (Units=1/GPa)
#
#
# Indices 1 2 3 4 5 6 
#
# 1 0.029925 -0.002979 -0.003597 0.010458 -0.024083 -0.020859
# 2 -0.002979 0.059766 -0.005906 -0.016752 0.004759 0.025925
# 3 -0.003597 -0.005906 0.012167 0.000883 -0.004547 -0.005596
# 4 0.010458 -0.016752 0.000883 0.047160 -0.014427 -0.029010
# 5 -0.024083 0.004759 -0.004547 -0.014427 0.050350 0.020788
# 6 -0.020859 0.025925 -0.005596 -0.029010 0.020788 0.070655
#
#
# Mechanical properties :
#
#
# Convention : Reuss Voigt Hill
#
# Bulk Modulus (GPa) = 13.00479 34.66730 23.83604
# Shear Modulus (GPa) = 15.59490 30.24316 22.91903
#
# Velocity S-wave (km/s) = 2.47240 3.44304 2.99727
# Velocity P-wave (km/s) = 3.63977 5.42168 4.61750
#
# Compressibility (1/GPa) = 0.07689475
#
# Stress axis : x y z
#
# Youngs Moduli (GPa) = 33.41690 16.73186 82.18850
#
# Poissons Ratio (x) = 0.04985 0.29560
# Poissons Ratio (y) = 0.09955 0.48541
# Poissons Ratio (z) = 0.12019 0.09882
#
# Static dielectric constant tensor:
#      x y z
#    x 4.359100 0.049610 0.313270 
#    y 0.049610 4.259770 -0.153200 
#    z 0.313270 -0.153200 4.552840 
# 
# 
# High freq. dielectric constant tensor:
#      x y z
#    x 2.017910 0.005280 0.022820 
#    y 0.005280 1.998090 -0.008150 
#    z 0.022820 -0.008150 2.021050 
# 
# From -- ./inp_files/490680.got.cif
#   From: 2010.06.25/outbox.cif.g09.slc.cpg/sg2_246_cif.got.tgz:490680.got - 2010.06.27 13:26:56.
