data_PCOD8008361
_publ_section_title
;
Structure prediction by ZEFSAII (Michael W. Deem and Ramdas Pophale) SiO2 
 PCOD8008361
Probable space group: P -1
;
_chemical_formula_sum "Si O2"
_cell_formula_units_Z 16
_cell_length_a 13.394012
_cell_length_b 30.067935
_cell_length_c 10.177335
_cell_angle_alpha 152.115383
_cell_angle_beta 35.232420
_cell_angle_gamma 155.814957
_cell_volume 784.159742
_symmetry_space_group_name_H-M "P -1"
_symmetry_group_IT_number 2
_symmetry_cell_setting 'triclinic'
loop_
_space_group_symop_operation_xyz
x,y,z
-x,-y,-z
loop_
_atom_site_type_symbol
_atom_site_label
_atom_site_fract_x
_atom_site_fract_y
_atom_site_fract_z
Si Si1 0.794548 0.790059 0.729832
Si Si2 0.252065 0.418390 0.627299
Si Si3 0.032758 0.960503 0.666778
Si Si4 0.245099 0.606722 0.254561
Si Si5 0.226687 0.723019 0.331497
Si Si6 0.562872 0.011098 0.810016
Si Si7 0.498343 0.802812 0.730786
Si Si8 0.291190 0.638564 0.782020
O O1 0.866062 0.722426 0.552319
O O2 0.524264 0.664079 0.633526
O O3 0.979844 0.880850 0.648262
O O4 0.804333 0.884026 0.064511
O O5 0.500000 0.500000 0.500000
O O6 0.066826 0.383610 0.623237
O O7 0.284192 0.508859 0.944048
O O8 0.185828 0.951299 0.381010
O O9 0.785387 0.899568 0.702964
O O10 0.317635 0.683531 0.239236
O O11 0.429807 0.715291 0.448515
O O12 0.960816 0.518950 0.365864
O O13 0.342176 0.870239 0.612702
O O14 0.285467 0.716226 0.102521
O O15 0.575314 0.117073 0.003290
O O16 0.500000 0.000000 0.000000
O O17 0.330970 0.704452 0.772851
#
# Coordination Sequence:
#
# PCOD8008361 Si02
#       8
#     2   2   2   2   2   2   2   2
#     4  10  20  43  64  98 126 163 223 277 322 374
#     4  11  23  36  66  96 124 174 217 266 324 385
#     4  10  24  42  68  95 132 166 218 281 319 387
#     4  11  23  42  61  93 137 168 211 267 325 395
#     4  11  22  41  63  93 126 170 222 265 317 387
#     4  12  25  42  67  95 131 175 214 271 330 392
#     4  11  25  44  65  99 132 173 212 267 343 382
#     4  10  21  41  69  89 126 169 213 272 316 384
#
# _framework density 20.404005999999999
#
# number of rings (size 3 to 8) (size 9 to 14) (size 15 to 20)
#    0.000    1.250    2.500    4.125    3.500    2.000 
#    2.250    1.250    0.000    0.000    0.000    0.000 
#    0.000    0.000    0.000    0.000    0.000    0.000 
#
# Total GULP energy -198403.533576 kJ/mol
# GULP energy per Si atom -12400.220849 kJ/mol
# Density = 2.035757 g / cm^3
# Si number density = 20.404006 Si / 1000 Ang^3
#
#
#
# Elastic Constant Matrix: (Units=GPa)
#
#
# Indices 1 2 3 4 5 6 
#
# 1 101.2348 21.6538 43.1728 -0.8705 2.2646 -7.3332
# 2 21.6538 69.6354 32.0018 -4.6386 -5.1392 7.5083
# 3 43.1728 32.0018 107.5640 1.6957 -3.9245 -5.3702
# 4 -0.8705 -4.6386 1.6957 39.2902 1.8038 0.0947
# 5 2.2646 -5.1392 -3.9245 1.8038 30.2844 6.1735
# 6 -7.3332 7.5083 -5.3702 0.0947 6.1735 32.9503
#
#
#
# Elastic Compliance Matrix: (Units=1/GPa)
#
#
# Indices 1 2 3 4 5 6 
#
# 1 0.012490 -0.002448 -0.004226 0.000280 -0.002551 0.003126
# 2 -0.002448 0.018374 -0.004688 0.002156 0.003833 -0.006220
# 3 -0.004226 -0.004688 0.012538 -0.001230 0.000806 0.002024
# 4 0.000280 0.002156 -0.001230 0.025824 -0.001257 -0.000468
# 5 -0.002551 0.003833 0.000806 -0.001257 0.035669 -0.007989
# 6 0.003126 -0.006220 0.002024 -0.000468 -0.007989 0.034290
#
#
# Mechanical properties :
#
#
# Convention : Reuss Voigt Hill
#
# Bulk Modulus (GPa) = 48.36627 52.45454 50.41040
# Shear Modulus (GPa) = 29.62046 32.61205 31.11625
#
# Velocity S-wave (km/s) = 3.81425 4.00223 3.90937
# Velocity P-wave (km/s) = 6.56915 6.86447 6.71843
#
# Compressibility (1/GPa) = 0.02067557
#
# Stress axis : x y z
#
# Youngs Moduli (GPa) = 80.06492 54.42568 79.75960
#
# Poissons Ratio (x) = 0.13326 0.33706
# Poissons Ratio (y) = 0.19603 0.37394
# Poissons Ratio (z) = 0.33836 0.25517
#
# Static dielectric constant tensor:
#      x y z
#    x 3.890640 0.069560 -0.131050 
#    y 0.069560 3.910370 0.190090 
#    z -0.131050 0.190090 4.178330 
# 
# 
# High freq. dielectric constant tensor:
#      x y z
#    x 1.799830 0.001090 0.001020 
#    y 0.001090 1.812050 0.004620 
#    z 0.001020 0.004620 1.790420 
# 
# From -- ./inp_files/272482.got.cif
#   From: 2010.06.25/outbox.cif.g09.slc.cpg/sg2_137_cif.got.tgz:272482.got - 2010.06.27 13:26:56.
