data_PCOD8009504
_publ_section_title
;
Structure prediction by ZEFSAII (Michael W. Deem and Ramdas Pophale) SiO2 
 PCOD8009504
Probable space group: P -1
;
_chemical_formula_sum "Si O2"
_cell_formula_units_Z 14
_cell_length_a 8.107966
_cell_length_b 14.400292
_cell_length_c 13.764965
_cell_angle_alpha 38.780442
_cell_angle_beta 114.660731
_cell_angle_gamma 87.784072
_cell_volume 703.410103
_symmetry_space_group_name_H-M "P -1"
_symmetry_group_IT_number 2
_symmetry_cell_setting 'triclinic'
loop_
_space_group_symop_operation_xyz
x,y,z
-x,-y,-z
loop_
_atom_site_type_symbol
_atom_site_label
_atom_site_fract_x
_atom_site_fract_y
_atom_site_fract_z
Si Si1 0.244632 0.419901 0.516965
Si Si2 0.260691 0.204543 0.245220
Si Si3 0.667199 0.475861 0.200517
Si Si4 0.206834 0.578883 0.937219
Si Si5 0.816430 0.727623 0.047257
Si Si6 0.347024 0.990483 0.047353
Si Si7 0.070748 0.694673 0.411696
O O1 0.263416 0.534277 0.512604
O O2 0.096161 0.561559 0.273742
O O3 0.108069 0.346655 0.580135
O O4 0.513363 0.233733 0.706909
O O5 0.051025 0.252781 0.221759
O O6 0.500000 0.000000 0.500000
O O7 0.283753 0.367671 0.134178
O O8 0.203743 0.194008 0.128638
O O9 0.794034 0.367669 0.218585
O O10 0.680263 0.642856 0.090090
O O11 0.800478 0.316878 0.449444
O O12 0.393674 0.574063 0.049996
O O13 0.688305 0.900038 0.951743
O O14 0.090804 0.091296 0.851772
O O15 0.500000 0.000000 0.000000
#
# Coordination Sequence:
#
# PCOD8009504 Si02
#       7
#     2   2   2   2   2   2   2
#     4   8  14  26  42  69 100 127 155 190 238 290
#     4  10  21  37  52  71  97 132 171 202 240 299
#     4   9  16  33  53  75 102 127 160 207 253 287
#     4   9  20  36  53  71  99 132 164 205 249 291
#     4   9  18  30  49  74 100 126 161 203 242 286
#     4   9  15  24  43  73 101 128 157 194 241 288
#     4   8  14  24  42  70 101 121 152 198 240 286
#
# _framework density 19.903039
#
# number of rings (size 3 to 8) (size 9 to 14) (size 15 to 20)
#    0.000    3.143    0.000    2.571    0.000    5.714 
#    0.000   12.143    0.000    3.429    0.000    9.000 
#    0.000    0.000    0.000    0.000    0.000    0.000 
#
# Total GULP energy -173501.141818 kJ/mol
# GULP energy per Si atom -12392.938701 kJ/mol
# Density = 1.985774 g / cm^3
# Si number density = 19.903039 Si / 1000 Ang^3
#
#
#
# Elastic Constant Matrix: (Units=GPa)
#
#
# Indices 1 2 3 4 5 6 
#
# 1 51.1845 38.7621 41.4118 6.8773 18.0069 -11.1884
# 2 38.7621 117.6364 94.3098 20.6448 19.3509 -21.2515
# 3 41.4118 94.3098 194.7881 9.8298 26.9593 -23.1402
# 4 6.8773 20.6448 9.8298 37.0721 -5.4855 5.9618
# 5 18.0069 19.3509 26.9593 -5.4855 23.0119 -0.0256
# 6 -11.1884 -21.2515 -23.1402 5.9618 -0.0256 22.8140
#
#
#
# Elastic Compliance Matrix: (Units=1/GPa)
#
#
# Indices 1 2 3 4 5 6 
#
# 1 0.038730 -0.000488 0.000171 -0.015619 -0.033794 0.022757
# 2 -0.000488 0.021437 -0.005146 -0.015747 -0.015349 0.018608
# 3 0.000171 -0.005146 0.009218 -0.001444 -0.006945 0.005010
# 4 -0.015619 -0.015747 -0.001444 0.050780 0.039218 -0.037018
# 5 -0.033794 -0.015349 -0.006945 0.039218 0.100238 -0.048051
# 6 0.022757 0.018608 0.005010 -0.037018 -0.048051 0.087028
#
#
# Mechanical properties :
#
#
# Convention : Reuss Voigt Hill
#
# Bulk Modulus (GPa) = 17.10574 79.17516 48.14045
# Shear Modulus (GPa) = 14.79983 29.18796 21.99390
#
# Velocity S-wave (km/s) = 2.72986 3.83366 3.32784
# Velocity P-wave (km/s) = 4.30689 7.71121 6.24548
#
# Compressibility (1/GPa) = 0.05845990
#
# Stress axis : x y z
#
# Youngs Moduli (GPa) = 25.81974 46.64884 108.48429
#
# Poissons Ratio (x) = 0.02276 -0.01856
# Poissons Ratio (y) = 0.01259 0.55823
# Poissons Ratio (z) = -0.00442 0.24004
#
# Static dielectric constant tensor:
#      x y z
#    x 3.264000 -0.197260 0.173540 
#    y -0.197260 3.652490 0.103130 
#    z 0.173540 0.103130 4.226270 
# 
# 
# High freq. dielectric constant tensor:
#      x y z
#    x 1.736040 -0.018450 0.009920 
#    y -0.018450 1.772920 0.013890 
#    z 0.009920 0.013890 1.782610 
# 
# From -- ./inp_files/267997.got.cif
#   From: 2010.06.25/outbox.cif.g09.slc.cpg/sg2_134_cif.got.tgz:267997.got - 2010.06.27 13:26:56.
