data_PCOD8009660
_publ_section_title
;
Structure prediction by ZEFSAII (Michael W. Deem and Ramdas Pophale) SiO2 
 PCOD8009660
Probable space group: P -1
;
_chemical_formula_sum "Si O2"
_cell_formula_units_Z 14
_cell_length_a 7.726257
_cell_length_b 16.597493
_cell_length_c 13.617201
_cell_angle_alpha 22.043248
_cell_angle_beta 94.174402
_cell_angle_gamma 85.059811
_cell_volume 596.071934
_symmetry_space_group_name_H-M "P -1"
_symmetry_group_IT_number 2
_symmetry_cell_setting 'triclinic'
loop_
_space_group_symop_operation_xyz
x,y,z
-x,-y,-z
loop_
_atom_site_type_symbol
_atom_site_label
_atom_site_fract_x
_atom_site_fract_y
_atom_site_fract_z
Si Si1 0.859117 0.762270 0.721655
Si Si2 0.879460 0.816506 0.362722
Si Si3 0.908305 0.194618 0.156616
Si Si4 0.305703 0.703973 0.294662
Si Si5 0.982722 0.359375 0.773199
Si Si6 0.251123 0.872754 0.320215
Si Si7 0.635395 0.667409 0.675355
O O1 0.891516 0.812102 0.780884
O O2 0.653645 0.770241 0.668731
O O3 0.905997 0.941606 0.452228
O O4 0.000000 0.500000 0.000000
O O5 0.759422 0.750247 0.512566
O O6 0.974476 0.611444 0.516899
O O7 0.062199 0.847192 0.380770
O O8 0.735051 0.050422 0.038259
O O9 0.885903 0.269795 0.957997
O O10 0.729164 0.383014 0.997798
O O11 0.500000 0.500000 0.500000
O O12 0.318054 0.743100 0.366296
O O13 0.139159 0.618740 0.356080
O O14 0.195134 0.155592 0.992778
O O15 0.415697 0.761506 0.532485
#
# Coordination Sequence:
#
# PCOD8009660 Si02
#       7
#     2   2   2   2   2   2   2
#     4   9  17  32  59  87 114 150 189 234 289 340
#     4  10  22  40  60  83 119 157 192 241 292 337
#     4   9  18  35  59  86 114 149 194 238 283 344
#     4  11  23  38  58  87 117 152 200 243 284 346
#     4  10  21  38  59  83 117 155 192 241 293 339
#     4  11  24  38  57  88 118 151 198 240 285 348
#     4  10  21  37  59  86 115 154 193 233 289 343
#
# _framework density 23.487099000000001
#
# number of rings (size 3 to 8) (size 9 to 14) (size 15 to 20)
#    0.000    2.000    0.000    5.143    0.000    6.857 
#    0.000    0.714    0.000   35.143    0.000    0.000 
#    0.000    0.000    0.000    0.000    0.000    0.000 
#
# Total GULP energy -173443.900112 kJ/mol
# GULP energy per Si atom -12388.850008 kJ/mol
# Density = 2.343364 g / cm^3
# Si number density = 23.487099 Si / 1000 Ang^3
#
#
#
# Elastic Constant Matrix: (Units=GPa)
#
#
# Indices 1 2 3 4 5 6 
#
# 1 77.0112 21.3737 47.6055 -3.0775 24.8935 20.2059
# 2 21.3737 78.0286 24.2440 -15.9924 19.6820 30.7284
# 3 47.6055 24.2440 127.5316 -21.9646 20.5677 19.6859
# 4 -3.0775 -15.9924 -21.9646 44.2667 2.0168 2.3570
# 5 24.8935 19.6820 20.5677 2.0168 37.9227 6.8795
# 6 20.2059 30.7284 19.6859 2.3570 6.8795 43.8972
#
#
#
# Elastic Compliance Matrix: (Units=1/GPa)
#
#
# Indices 1 2 3 4 5 6 
#
# 1 0.021025 0.000979 -0.005423 -0.000073 -0.010217 -0.006326
# 2 0.000979 0.023584 0.001311 0.010620 -0.011190 -0.016364
# 3 -0.005423 0.001311 0.011754 0.006262 -0.003188 -0.003529
# 4 -0.000073 0.010620 0.006262 0.030479 -0.008576 -0.010501
# 5 -0.010217 -0.011190 -0.003188 -0.008576 0.039577 0.008224
# 6 -0.006326 -0.016364 -0.003529 -0.010501 0.008224 0.038005
#
#
# Mechanical properties :
#
#
# Convention : Reuss Voigt Hill
#
# Bulk Modulus (GPa) = 19.96125 52.11307 36.03716
# Shear Modulus (GPa) = 26.68267 37.84054 32.26160
#
# Velocity S-wave (km/s) = 3.37420 4.01823 3.71022
# Velocity P-wave (km/s) = 4.86801 6.61546 5.80784
#
# Compressibility (1/GPa) = 0.05009705
#
# Stress axis : x y z
#
# Youngs Moduli (GPa) = 47.56231 42.40211 85.08056
#
# Poissons Ratio (x) = -0.04152 0.46137
# Poissons Ratio (y) = -0.04658 -0.11152
# Poissons Ratio (z) = 0.25792 -0.05558
#
# Static dielectric constant tensor:
#      x y z
#    x 3.846750 0.558200 0.073660 
#    y 0.558200 4.779610 -0.215130 
#    z 0.073660 -0.215130 4.606080 
# 
# 
# High freq. dielectric constant tensor:
#      x y z
#    x 1.883740 0.028420 0.002800 
#    y 0.028420 1.949140 -0.013630 
#    z 0.002800 -0.013630 1.949950 
# 
# From -- ./inp_files/225037.got.cif
#   From: 2010.06.25/outbox.cif.g09.slc.cpg/sg2_113_cif.got.tgz:225037.got - 2010.06.27 13:26:56.
