data_PCOD8009759
_publ_section_title
;
Structure prediction by ZEFSAII (Michael W. Deem and Ramdas Pophale) SiO2 
 PCOD8009759
Probable space group: P -1
;
_chemical_formula_sum "Si O2"
_cell_formula_units_Z 16
_cell_length_a 27.292913
_cell_length_b 8.842488
_cell_length_c 13.790125
_cell_angle_alpha 52.911787
_cell_angle_beta 22.891449
_cell_angle_gamma 40.909234
_cell_volume 789.009017
_symmetry_space_group_name_H-M "P -1"
_symmetry_group_IT_number 2
_symmetry_cell_setting 'triclinic'
loop_
_space_group_symop_operation_xyz
x,y,z
-x,-y,-z
loop_
_atom_site_type_symbol
_atom_site_label
_atom_site_fract_x
_atom_site_fract_y
_atom_site_fract_z
Si Si1 0.990301 0.764160 0.002796
Si Si2 0.217762 0.183770 0.812829
Si Si3 0.430253 0.016405 0.821336
Si Si4 0.894866 0.449337 0.774280
Si Si5 0.867375 0.348537 0.670980
Si Si6 0.874669 0.970567 0.340024
Si Si7 0.220297 0.974413 0.091006
Si Si8 0.626932 0.934380 0.874100
O O1 0.865612 0.854325 0.106535
O O2 0.878543 0.930868 0.233460
O O3 0.101162 0.474793 0.936324
O O4 0.111759 0.821933 0.736499
O O5 0.398742 0.075531 0.495638
O O6 0.241868 0.028964 0.922036
O O7 0.284468 0.308735 0.958010
O O8 0.372312 0.886759 0.917031
O O9 0.455156 0.956093 0.913638
O O10 0.876059 0.294389 0.791435
O O11 0.000000 0.500000 0.500000
O O12 0.979098 0.292854 0.777405
O O13 0.764508 0.639348 0.733420
O O14 0.047849 0.222907 0.349169
O O15 0.784243 0.249881 0.808679
O O16 0.701611 0.065874 0.659835
O O17 0.500000 0.000000 0.000000
#
# Coordination Sequence:
#
# PCOD8009759 Si02
#       8
#     2   2   2   2   2   2   2   2
#     4  10  24  39  61  85 117 165 196 234 292 364
#     4  11  23  41  56  86 125 156 194 237 303 346
#     4  11  22  37  60  89 114 155 198 240 302 349
#     4  11  18  38  65  85 113 152 200 245 292 338
#     4  10  21  37  60  92 110 151 204 237 300 344
#     4  11  20  40  64  86 113 157 205 238 290 350
#     4  11  21  37  62  85 119 151 193 252 287 350
#     4  11  22  39  60  84 120 153 191 250 291 348
#
# _framework density 20.278603
#
# number of rings (size 3 to 8) (size 9 to 14) (size 15 to 20)
#    0.000    1.250    3.750    3.375    0.000    3.000 
#    0.000    9.375    0.000    0.000    0.000    0.000 
#    0.000    0.000    0.000    0.000    0.000    0.000 
#
# Total GULP energy -198356.894891 kJ/mol
# GULP energy per Si atom -12397.305931 kJ/mol
# Density = 2.023245 g / cm^3
# Si number density = 20.278603 Si / 1000 Ang^3
#
#
#
# Elastic Constant Matrix: (Units=GPa)
#
#
# Indices 1 2 3 4 5 6 
#
# 1 137.8559 20.6013 29.7608 -12.6047 -18.2679 4.4676
# 2 20.6013 41.9338 10.2563 -17.0482 -4.7749 9.8656
# 3 29.7608 10.2563 101.6270 -10.9295 -12.9709 7.1762
# 4 -12.6047 -17.0482 -10.9295 26.2216 1.8870 2.5819
# 5 -18.2679 -4.7749 -12.9709 1.8870 28.9079 -4.5333
# 6 4.4676 9.8656 7.1762 2.5819 -4.5333 29.2998
#
#
#
# Elastic Compliance Matrix: (Units=1/GPa)
#
#
# Indices 1 2 3 4 5 6 
#
# 1 0.008718 -0.003099 -0.001618 0.001125 0.004304 0.000677
# 2 -0.003099 0.039335 0.000903 0.025888 0.000880 -0.015138
# 3 -0.001618 0.000903 0.011349 0.004554 0.003499 -0.002697
# 4 0.001125 0.025888 0.004554 0.058830 0.000829 -0.015060
# 5 0.004304 0.000880 0.003499 0.000829 0.039640 0.004250
# 6 0.000677 -0.015138 -0.002697 -0.015060 0.004250 0.041769
#
#
# Mechanical properties :
#
#
# Convention : Reuss Voigt Hill
#
# Bulk Modulus (GPa) = 19.31420 44.73928 32.02674
# Shear Modulus (GPa) = 22.26906 31.60576 26.93741
#
# Velocity S-wave (km/s) = 3.31744 3.95216 3.64863
# Velocity P-wave (km/s) = 4.92128 6.55258 5.79462
#
# Compressibility (1/GPa) = 0.05177538
#
# Stress axis : x y z
#
# Youngs Moduli (GPa) = 114.71119 25.42245 88.11156
#
# Poissons Ratio (x) = 0.07878 0.14253
# Poissons Ratio (y) = 0.35549 -0.07958
# Poissons Ratio (z) = 0.18556 -0.02296
#
# Static dielectric constant tensor:
#      x y z
#    x 0.347960 1.253870 0.602230 
#    y 1.253870 3.224190 -0.326170 
#    z 0.602230 -0.326170 3.529220 
# 
# 
# High freq. dielectric constant tensor:
#      x y z
#    x 1.818390 0.012890 -0.001810 
#    y 0.012890 1.776400 -0.009940 
#    z -0.001810 -0.009940 1.789120 
# 
# From -- ./inp_files/205009.got.cif
#   From: 2010.06.25/outbox.cif.g09.slc.cpg/sg2_103_cif.got.tgz:205009.got - 2010.06.27 13:26:56.
