data_PCOD8009103
_publ_section_title
;
Structure prediction by ZEFSAII (Michael W. Deem and Ramdas Pophale) SiO2 
 PCOD8009103
Probable space group: P -1
;
_chemical_formula_sum "Si O2"
_cell_formula_units_Z 16
_cell_length_a 12.109793
_cell_length_b 4.822222
_cell_length_c 13.212117
_cell_angle_alpha 89.999852
_cell_angle_beta 110.521139
_cell_angle_gamma 90.000111
_cell_volume 722.576802
_symmetry_space_group_name_H-M "P -1"
_symmetry_group_IT_number 2
_symmetry_cell_setting 'triclinic'
loop_
_space_group_symop_operation_xyz
x,y,z
-x,-y,-z
loop_
_atom_site_type_symbol
_atom_site_label
_atom_site_fract_x
_atom_site_fract_y
_atom_site_fract_z
Si Si1 0.133752 0.304200 0.281403
Si Si2 0.249349 0.787095 0.226905
Si Si3 0.589875 0.746504 0.042697
Si Si4 0.410122 0.746513 0.457304
Si Si5 0.249347 0.212908 0.726906
Si Si6 0.866248 0.304197 0.218595
Si Si7 0.300622 0.229957 0.510657
Si Si8 0.300627 0.770055 0.010658
O O1 0.139427 0.595287 0.224433
O O2 0.192382 0.350460 0.410709
O O3 0.000000 0.204256 0.249997
O O4 0.210424 0.099363 0.236269
O O5 0.367511 0.708293 0.327964
O O6 0.280354 0.731640 0.121417
O O7 0.632487 0.708294 0.172038
O O8 0.581420 0.432242 0.984330
O O9 0.694590 0.901868 0.012846
O O10 0.500000 0.000000 0.000000
O O11 0.418575 0.432255 0.515672
O O12 0.500000 0.000000 0.500000
O O13 0.305408 0.901883 0.487154
O O14 0.139426 0.404713 0.724439
O O15 0.280344 0.268367 0.621414
O O16 0.210422 0.900639 0.736268
O O17 0.807614 0.350452 0.089288
#
# Coordination Sequence:
#
# PCOD8009103 Si02
#       8
#     2   2   2   2   2   2   2   2
#     4  10  21  36  56  83 114 148 187 230 276 330
#     4  10  21  37  56  82 113 146 187 232 277 330
#     4  10  21  38  57  81 111 144 186 232 278 330
#     4  10  21  38  57  81 111 144 186 232 278 330
#     4  10  21  37  56  82 113 146 187 232 277 330
#     4  10  21  36  56  83 114 148 187 230 276 330
#     4  10  21  37  57  82 113 146 185 231 276 329
#     4  10  21  37  57  82 113 146 185 231 276 329
#
# _framework density 22.142976000000001
#
# number of rings (size 3 to 8) (size 9 to 14) (size 15 to 20)
#    0.000    2.000    0.000    3.000    0.000    3.000 
#    0.000    2.500    0.000    0.000    0.000    0.000 
#    0.000    0.000    0.000    0.000    0.000    0.000 
#
# Total GULP energy -198254.935620 kJ/mol
# GULP energy per Si atom -12390.933476 kJ/mol
# Density = 2.209258 g / cm^3
# Si number density = 22.142976 Si / 1000 Ang^3
#
#
#
# Elastic Constant Matrix: (Units=GPa)
#
#
# Indices 1 2 3 4 5 6 
#
# 1 79.6298 34.8194 58.4377 -0.4433 1.5808 -1.1435
# 2 34.8194 142.1513 59.2863 0.5322 -2.2117 -4.9374
# 3 58.4377 59.2863 186.5486 -3.8608 -25.9771 0.4344
# 4 -0.4433 0.5322 -3.8608 25.9202 0.5009 0.8271
# 5 1.5808 -2.2117 -25.9771 0.5009 26.4026 0.3129
# 6 -1.1435 -4.9374 0.4344 0.8271 0.3129 28.5668
#
#
#
# Elastic Compliance Matrix: (Units=1/GPa)
#
#
# Indices 1 2 3 4 5 6 
#
# 1 0.017985 -0.001990 -0.006008 -0.000426 -0.007153 0.000558
# 2 -0.001990 0.008510 -0.002296 -0.000570 -0.001433 0.001458
# 3 -0.006008 -0.002296 0.009294 0.001178 0.009300 -0.000915
# 4 -0.000426 -0.000570 0.001178 0.038792 0.000416 -0.001261
# 5 -0.007153 -0.001433 0.009300 0.000416 0.047340 -0.001206
# 6 0.000558 0.001458 -0.000915 -0.001261 -0.001206 0.035344
#
#
# Mechanical properties :
#
#
# Convention : Reuss Voigt Hill
#
# Bulk Modulus (GPa) = 65.78347 79.26851 72.52599
# Shear Modulus (GPa) = 27.33463 33.23032 30.28247
#
# Velocity S-wave (km/s) = 3.51730 3.87811 3.70210
# Velocity P-wave (km/s) = 6.80207 7.47858 7.14834
#
# Compressibility (1/GPa) = 0.01520139
#
# Stress axis : x y z
#
# Youngs Moduli (GPa) = 55.60301 117.50486 107.60069
#
# Poissons Ratio (x) = 0.23384 0.64641
# Poissons Ratio (y) = 0.11065 0.24705
# Poissons Ratio (z) = 0.33404 0.26979
#
# Static dielectric constant tensor:
#      x y z
#    x 5.268250 -1.002100 0.543200 
#    y -1.002100 15.471490 0.259940 
#    z 0.543200 0.259940 3.982560 
# 
# 
# High freq. dielectric constant tensor:
#      x y z
#    x 1.866310 -0.004390 0.004490 
#    y -0.004390 1.910660 0.001390 
#    z 0.004490 0.001390 1.857660 
# 
# From -- ./inp_files/410580.got.cif
#   From: 2010.06.25/outbox.cif.g09.slc.cpg/sg2_206_cif.got.tgz:410580.got - 2010.06.27 13:26:56.
