data_PCOD8009853
_publ_section_title
;
Structure prediction by ZEFSAII (Michael W. Deem and Ramdas Pophale) SiO2 
 PCOD8009853
Probable space group: P -1
;
_chemical_formula_sum "Si O2"
_cell_formula_units_Z 16
_cell_length_a 6.308693
_cell_length_b 15.882983
_cell_length_c 12.151402
_cell_angle_alpha 91.871688
_cell_angle_beta 129.516383
_cell_angle_gamma 111.542638
_cell_volume 811.281493
_symmetry_space_group_name_H-M "P -1"
_symmetry_group_IT_number 2
_symmetry_cell_setting 'triclinic'
loop_
_space_group_symop_operation_xyz
x,y,z
-x,-y,-z
loop_
_atom_site_type_symbol
_atom_site_label
_atom_site_fract_x
_atom_site_fract_y
_atom_site_fract_z
Si Si1 0.794062 0.037848 0.379348
Si Si2 0.109615 0.405824 0.594785
Si Si3 0.891861 0.116285 0.779583
Si Si4 0.859735 0.547893 0.871919
Si Si5 0.781638 0.244104 0.904388
Si Si6 0.889547 0.786171 0.372764
Si Si7 0.376895 0.060342 0.900135
Si Si8 0.141330 0.474206 0.377722
O O1 0.953640 0.153046 0.461163
O O2 0.438732 0.978033 0.305477
O O3 0.824986 0.018001 0.262701
O O4 0.000000 0.000000 0.500000
O O5 0.480400 0.484970 0.737249
O O6 0.046478 0.302570 0.610701
O O7 0.987382 0.398968 0.427047
O O8 0.898628 0.432880 0.604882
O O9 0.946381 0.213993 0.862345
O O10 0.927736 0.139921 0.663104
O O11 0.156267 0.088041 0.901388
O O12 0.002164 0.562145 0.794355
O O13 0.000000 0.500000 0.000000
O O14 0.955047 0.653805 0.954045
O O15 0.486523 0.252217 0.758432
O O16 0.667222 0.160938 0.955225
O O17 0.500000 0.000000 0.000000
O O18 0.500000 0.500000 0.500000
#
# Coordination Sequence:
#
# PCOD8009853 Si02
#       8
#     2   2   2   2   2   2   2   2
#     4  11  20  38  60  89 118 148 196 248 293 357
#     4  10  22  40  62  89 119 163 200 242 303 354
#     4  10  21  37  62  85 123 151 194 250 301 343
#     4  11  22  38  63  91 124 158 199 250 299 353
#     4  10  22  38  57  92 123 151 199 246 296 357
#     4  11  21  35  61  91 116 152 201 245 295 356
#     4  10  23  41  60  86 122 159 194 243 299 357
#     4   9  22  43  59  81 126 158 198 249 293 349
#
# _framework density 19.721885
#
# number of rings (size 3 to 8) (size 9 to 14) (size 15 to 20)
#    0.000    1.750    5.000    0.375    1.750    5.500 
#    0.000    6.250    0.000    0.000    0.000    0.000 
#    0.000    0.000    0.000    0.000    0.000    0.000 
#
# Total GULP energy -198263.455378 kJ/mol
# GULP energy per Si atom -12391.465961 kJ/mol
# Density = 1.967700 g / cm^3
# Si number density = 19.721885 Si / 1000 Ang^3
#
#
#
# Elastic Constant Matrix: (Units=GPa)
#
#
# Indices 1 2 3 4 5 6 
#
# 1 96.0778 30.2071 30.6230 -4.8590 -4.6861 -31.8889
# 2 30.2071 127.3809 49.6769 -3.7803 2.9628 -32.9401
# 3 30.6230 49.6769 101.5614 -2.2967 -16.0743 -11.6734
# 4 -4.8590 -3.7803 -2.2967 44.4455 -4.3853 2.6394
# 5 -4.6861 2.9628 -16.0743 -4.3853 25.4766 1.5862
# 6 -31.8889 -32.9401 -11.6734 2.6394 1.5862 32.0796
#
#
#
# Elastic Compliance Matrix: (Units=1/GPa)
#
#
# Indices 1 2 3 4 5 6 
#
# 1 0.016871 0.002232 -0.004284 0.000693 -0.000829 0.017487
# 2 0.002232 0.013808 -0.006818 -0.000418 -0.006458 0.014270
# 3 -0.004284 -0.006818 0.015412 0.001137 0.010314 -0.006255
# 4 0.000693 -0.000418 0.001137 0.023177 0.004975 -0.001480
# 5 -0.000829 -0.006458 0.010314 0.004975 0.047617 -0.006466
# 6 0.017487 0.014270 -0.006255 -0.001480 -0.006466 0.061374
#
#
# Mechanical properties :
#
#
# Convention : Reuss Voigt Hill
#
# Bulk Modulus (GPa) = 35.27321 60.67047 47.97184
# Shear Modulus (GPa) = 24.33676 34.70123 29.51899
#
# Velocity S-wave (km/s) = 3.51664 4.19922 3.87300
# Velocity P-wave (km/s) = 5.86627 7.37164 6.66162
#
# Compressibility (1/GPa) = 0.02835013
#
# Stress axis : x y z
#
# Youngs Moduli (GPa) = 59.27417 72.42084 64.88285
#
# Poissons Ratio (x) = -0.16165 0.27798
# Poissons Ratio (y) = -0.13230 0.44240
# Poissons Ratio (z) = 0.25395 0.49380
#
# Static dielectric constant tensor:
#      x y z
#    x 3.837910 -0.254510 -0.241920 
#    y -0.254510 3.582160 -0.127480 
#    z -0.241920 -0.127480 3.543110 
# 
# 
# High freq. dielectric constant tensor:
#      x y z
#    x 1.775010 -0.019860 -0.007680 
#    y -0.019860 1.767870 -0.004330 
#    z -0.007680 -0.004330 1.761440 
# 
# From -- ./inp_files/38875.got.cif
#   From: 2010.06.25/outbox.cif.g09.slc.cpg/sg2_20_cif.got.tgz:38875.got - 2010.06.27 13:26:56.
