data_PCOD8009071
_publ_section_title
;
Structure prediction by ZEFSAII (Michael W. Deem and Ramdas Pophale) SiO2 
 PCOD8009071
Probable space group: P -1
;
_chemical_formula_sum "Si O2"
_cell_formula_units_Z 14
_cell_length_a 5.184109
_cell_length_b 21.929676
_cell_length_c 6.291644
_cell_angle_alpha 117.085669
_cell_angle_beta 56.287414
_cell_angle_gamma 106.361056
_cell_volume 529.325769
_symmetry_space_group_name_H-M "P -1"
_symmetry_group_IT_number 2
_symmetry_cell_setting 'triclinic'
loop_
_space_group_symop_operation_xyz
x,y,z
-x,-y,-z
loop_
_atom_site_type_symbol
_atom_site_label
_atom_site_fract_x
_atom_site_fract_y
_atom_site_fract_z
Si Si1 0.484433 0.805614 0.932570
Si Si2 0.699467 0.451913 0.979005
Si Si3 0.874332 0.711228 0.896282
Si Si4 0.517278 0.323425 0.607651
Si Si5 0.471746 0.919841 0.419541
Si Si6 0.301667 0.415570 0.473370
Si Si7 0.120216 0.151423 0.548448
O O1 0.593829 0.880756 0.092523
O O2 0.096140 0.804063 0.117492
O O3 0.616859 0.749225 0.939347
O O4 0.652068 0.798995 0.617460
O O5 0.577133 0.457502 0.287856
O O6 0.500000 0.500000 0.000000
O O7 0.674241 0.371811 0.793746
O O8 0.071190 0.467482 0.787241
O O9 0.874437 0.630667 0.699400
O O10 0.241186 0.731227 0.698360
O O11 0.770596 0.716071 0.200363
O O12 0.420330 0.367504 0.524844
O O13 0.669863 0.900260 0.501971
O O14 0.111430 0.893506 0.570872
O O15 0.500000 0.000000 0.500000
#
# Coordination Sequence:
#
# PCOD8009071 Si02
#       7
#     2   2   2   2   2   2   2
#     4  10  24  39  63  91 123 160 208 255 311 372
#     4  10  21  36  54  82 116 147 195 240 285 352
#     4  10  21  39  57  85 114 148 195 240 294 354
#     4  10  21  36  60  82 115 152 189 241 294 352
#     4  10  24  43  65  94 127 166 208 258 314 374
#     4  10  21  36  56  82 111 153 191 236 298 344
#     4  10  24  40  65  91 126 163 208 254 317 368
#
# _framework density 26.448743
#
# number of rings (size 3 to 8) (size 9 to 14) (size 15 to 20)
#    0.857    1.143    0.000    2.571    2.000    4.571 
#    0.000    0.000    0.000    0.000    0.000    0.000 
#    0.000    0.000    0.000    0.000    0.000    0.000 
#
# Total GULP energy -173533.002998 kJ/mol
# GULP energy per Si atom -12395.214500 kJ/mol
# Density = 2.638854 g / cm^3
# Si number density = 26.448743 Si / 1000 Ang^3
#
#
#
# Elastic Constant Matrix: (Units=GPa)
#
#
# Indices 1 2 3 4 5 6 
#
# 1 149.3596 66.2444 78.4830 -22.6063 -41.2101 -17.9148
# 2 66.2444 124.8114 118.2368 -15.0211 -19.0893 -10.7745
# 3 78.4830 118.2368 257.4204 -23.8349 -14.7131 4.6217
# 4 -22.6063 -15.0211 -23.8349 50.9275 6.6559 6.6264
# 5 -41.2101 -19.0893 -14.7131 6.6559 39.9954 -3.5347
# 6 -17.9148 -10.7745 4.6217 6.6264 -3.5347 63.0627
#
#
#
# Elastic Compliance Matrix: (Units=1/GPa)
#
#
# Indices 1 2 3 4 5 6 
#
# 1 0.012683 -0.002703 -0.001870 0.002030 0.011078 0.003686
# 2 -0.002703 0.016320 -0.006574 -0.000185 0.002854 0.002682
# 3 -0.001870 -0.006574 0.007493 0.001426 -0.002767 -0.002509
# 4 0.002030 -0.000185 0.001426 0.021556 -0.001227 -0.001893
# 5 0.011078 0.002854 -0.002767 -0.001227 0.037501 0.006068
# 6 0.003686 0.002682 -0.002509 -0.001893 0.006068 0.018085
#
#
# Mechanical properties :
#
#
# Convention : Reuss Voigt Hill
#
# Bulk Modulus (GPa) = 70.41488 117.50221 93.95855
# Shear Modulus (GPa) = 35.54467 48.70560 42.12513
#
# Velocity S-wave (km/s) = 3.66991 4.29594 3.99520
# Velocity P-wave (km/s) = 6.68121 8.31442 7.54216
#
# Compressibility (1/GPa) = 0.01420154
#
# Stress axis : x y z
#
# Youngs Moduli (GPa) = 78.84853 61.27329 133.44948
#
# Poissons Ratio (x) = 0.16561 0.24959
# Poissons Ratio (y) = 0.21311 0.87733
# Poissons Ratio (z) = 0.14747 0.40283
#
# Static dielectric constant tensor:
#      x y z
#    x 5.009730 0.609230 -0.187110 
#    y 0.609230 4.658890 0.192760 
#    z -0.187110 0.192760 5.922310 
# 
# 
# High freq. dielectric constant tensor:
#      x y z
#    x 2.079310 0.046120 -0.002740 
#    y 0.046120 2.068390 0.017500 
#    z -0.002740 0.017500 2.107890 
# 
# From -- ./inp_files/11769.got.cif
#   From: 2010.06.25/outbox.cif.g09.slc.cpg/sg2_6_cif.got.tgz:11769.got - 2010.06.27 13:26:56.
