data_PCOD8009106
_publ_section_title
;
Structure prediction by ZEFSAII (Michael W. Deem and Ramdas Pophale) SiO2 
 PCOD8009106
Probable space group: P -1
;
_chemical_formula_sum "Si O2"
_cell_formula_units_Z 14
_cell_length_a 13.591963
_cell_length_b 8.775156
_cell_length_c 14.016625
_cell_angle_alpha 56.634312
_cell_angle_beta 30.832952
_cell_angle_gamma 78.226241
_cell_volume 557.741527
_symmetry_space_group_name_H-M "P -1"
_symmetry_group_IT_number 2
_symmetry_cell_setting 'triclinic'
loop_
_space_group_symop_operation_xyz
x,y,z
-x,-y,-z
loop_
_atom_site_type_symbol
_atom_site_label
_atom_site_fract_x
_atom_site_fract_y
_atom_site_fract_z
Si Si1 0.882211 0.374029 0.437507
Si Si2 0.502017 0.920818 0.789906
Si Si3 0.643867 0.579764 0.495388
Si Si4 0.294544 0.370995 0.024082
Si Si5 0.903659 0.914068 0.386261
Si Si6 0.705892 0.419943 0.760414
Si Si7 0.255923 0.122185 0.857777
O O1 0.856384 0.556206 0.345731
O O2 0.818909 0.352730 0.609491
O O3 0.682889 0.118885 0.647684
O O4 0.157206 0.460589 0.156887
O O5 0.644286 0.864720 0.622816
O O6 0.376853 0.994361 0.800373
O O7 0.289915 0.690067 0.106379
O O8 0.524972 0.577047 0.695546
O O9 0.421310 0.361825 0.695962
O O10 0.768055 0.819609 0.250720
O O11 0.421457 0.313379 0.016029
O O12 0.108561 0.140439 0.197569
O O13 0.877483 0.700406 0.529424
O O14 0.988377 0.950770 0.191681
#
# Coordination Sequence:
#
# PCOD8009106 Si02
#       7
#     2   2   2   2   2   2   2
#     4   9  19  35  58  83 110 150 188 226 283 334
#     4  10  21  36  56  85 115 148 190 229 276 337
#     4   8  16  34  58  82 110 144 186 233 278 330
#     4   9  20  38  58  84 115 146 184 233 281 329
#     4  10  22  37  56  84 114 150 190 226 278 336
#     4  11  22  37  57  84 117 148 187 232 275 335
#     4   9  18  34  56  83 113 144 185 235 278 326
#
# _framework density 25.101230999999999
#
# number of rings (size 3 to 8) (size 9 to 14) (size 15 to 20)
#    0.000    2.571    0.000    1.714    0.000    6.286 
#    0.000    8.571    0.000    5.143    0.000    0.000 
#    0.000    0.000    0.000    0.000    0.000    0.000 
#
# Total GULP energy -173637.768807 kJ/mol
# GULP energy per Si atom -12402.697772 kJ/mol
# Density = 2.504410 g / cm^3
# Si number density = 25.101231 Si / 1000 Ang^3
#
#
#
# Elastic Constant Matrix: (Units=GPa)
#
#
# Indices 1 2 3 4 5 6 
#
# 1 36.0388 44.5162 32.5840 -4.9641 25.2407 -20.0818
# 2 44.5162 155.3507 64.8790 31.6764 18.7251 -22.7113
# 3 32.5840 64.8790 143.5590 16.1766 7.8354 -30.0159
# 4 -4.9641 31.6764 16.1766 39.1227 -21.0284 0.4158
# 5 25.2407 18.7251 7.8354 -21.0284 39.2715 -6.3163
# 6 -20.0818 -22.7113 -30.0159 0.4158 -6.3163 41.7076
#
#
#
# Elastic Compliance Matrix: (Units=1/GPa)
#
#
# Indices 1 2 3 4 5 6 
#
# 1 0.117971 -0.018780 -0.008681 0.001586 -0.059246 0.031339
# 2 -0.018780 0.016437 -0.001146 -0.018167 -0.005519 -0.001571
# 3 -0.008681 -0.001146 0.010239 -0.002781 0.003087 0.003060
# 4 0.001586 -0.018167 -0.002781 0.064046 0.041613 -0.005467
# 5 -0.059246 -0.005519 0.003087 0.041613 0.085133 -0.016833
# 6 0.031339 -0.001571 0.003060 -0.005467 -0.016833 0.037918
#
#
# Mechanical properties :
#
#
# Convention : Reuss Voigt Hill
#
# Bulk Modulus (GPa) = 11.43749 68.76741 40.10245
# Shear Modulus (GPa) = 11.95883 36.88500 24.42191
#
# Velocity S-wave (km/s) = 2.18508 3.83750 3.12258
# Velocity P-wave (km/s) = 3.30644 6.86227 5.38624
#
# Compressibility (1/GPa) = 0.08743178
#
# Stress axis : x y z
#
# Youngs Moduli (GPa) = 8.47669 60.83850 97.66809
#
# Poissons Ratio (x) = 1.14253 0.84790
# Poissons Ratio (y) = 0.15919 0.11193
# Poissons Ratio (z) = 0.07359 0.06972
#
# Static dielectric constant tensor:
#      x y z
#    x 4.467080 0.058070 -0.032760 
#    y 0.058070 4.721990 0.161510 
#    z -0.032760 0.161510 4.864850 
# 
# 
# High freq. dielectric constant tensor:
#      x y z
#    x 2.005630 0.016750 -0.025260 
#    y 0.016750 2.011320 -0.004720 
#    z -0.025260 -0.004720 2.017320 
# 
# From -- ./inp_files/214643.got.cif
#   From: 2010.06.25/outbox.cif.g09.slc.cpg/sg2_108_cif.got.tgz:214643.got - 2010.06.27 13:26:56.
