data_PCOD8009305
_publ_section_title
;
Structure prediction by ZEFSAII (Michael W. Deem and Ramdas Pophale) SiO2 
 PCOD8009305
Probable space group: P -1
;
_chemical_formula_sum "Si O2"
_cell_formula_units_Z 16
_cell_length_a 6.352960
_cell_length_b 25.560144
_cell_length_c 27.662002
_cell_angle_alpha 9.747363
_cell_angle_beta 101.710871
_cell_angle_gamma 100.083991
_cell_volume 736.172342
_symmetry_space_group_name_H-M "P -1"
_symmetry_group_IT_number 2
_symmetry_cell_setting 'triclinic'
loop_
_space_group_symop_operation_xyz
x,y,z
-x,-y,-z
loop_
_atom_site_type_symbol
_atom_site_label
_atom_site_fract_x
_atom_site_fract_y
_atom_site_fract_z
Si Si1 0.932938 0.573997 0.260074
Si Si2 0.666664 0.193152 0.781159
Si Si3 0.082082 0.885939 0.407720
Si Si4 0.951569 0.802106 0.632359
Si Si5 0.733205 0.227200 0.651943
Si Si6 0.753231 0.196315 0.182386
Si Si7 0.342543 0.711715 0.201655
Si Si8 0.280560 0.491428 0.857888
O O1 0.971025 0.304421 0.467919
O O2 0.860206 0.431753 0.436434
O O3 0.154627 0.721034 0.144622
O O4 0.760145 0.862931 0.968481
O O5 0.500000 0.500000 0.500000
O O6 0.829030 0.224355 0.714852
O O7 0.777196 0.166570 0.863764
O O8 0.532060 0.915222 0.014177
O O9 0.276397 0.691046 0.626304
O O10 0.862366 0.959681 0.361778
O O11 0.145827 0.210645 0.096911
O O12 0.171077 0.727653 0.678829
O O13 0.757452 0.997642 0.413199
O O14 0.887940 0.477164 0.943310
O O15 0.000000 0.000000 0.500000
O O16 0.475911 0.357341 0.527439
O O17 0.516840 0.343761 0.020274
#
# Coordination Sequence:
#
# PCOD8009305 Si02
#       8
#     2   2   2   2   2   2   2   2
#     4  12  26  39  66  90 120 159 209 258 322 363
#     4   9  20  43  65  87 129 157 195 251 311 387
#     4  10  23  41  57  88 117 156 213 263 294 360
#     4  10  21  36  60  98 133 156 207 261 292 361
#     4  11  24  43  60  95 121 154 201 253 310 386
#     4  10  21  39  62  87 121 175 205 239 320 354
#     4  10  23  44  63  92 125 159 198 256 309 387
#     4  10  21  41  63  84 125 166 210 252 301 367
#
# _framework density 21.73404
#
# number of rings (size 3 to 8) (size 9 to 14) (size 15 to 20)
#    0.000    1.750    1.250    1.875    3.500    4.000 
#    0.000    0.000    0.000    0.000    0.000    0.000 
#    0.000    0.000    0.000    0.000    0.000    0.000 
#
# Total GULP energy -198273.269027 kJ/mol
# GULP energy per Si atom -12392.079314 kJ/mol
# Density = 2.168457 g / cm^3
# Si number density = 21.734040 Si / 1000 Ang^3
#
#
#
# Elastic Constant Matrix: (Units=GPa)
#
#
# Indices 1 2 3 4 5 6 
#
# 1 59.2495 46.7253 18.6309 -6.9187 17.2412 2.6400
# 2 46.7253 117.3907 44.1552 -19.1466 7.1258 -3.3832
# 3 18.6309 44.1552 113.0400 -5.6288 11.3887 -8.3046
# 4 -6.9187 -19.1466 -5.6288 46.5524 -0.6440 1.1666
# 5 17.2412 7.1258 11.3887 -0.6440 30.5131 7.0484
# 6 2.6400 -3.3832 -8.3046 1.1666 7.0484 21.5477
#
#
#
# Elastic Compliance Matrix: (Units=1/GPa)
#
#
# Indices 1 2 3 4 5 6 
#
# 1 0.029725 -0.011381 0.000960 -0.000339 -0.014429 -0.000321
# 2 -0.011381 0.015032 -0.004213 0.004032 0.004474 0.000449
# 3 0.000960 -0.004213 0.011190 -0.000435 -0.004939 0.005173
# 4 -0.000339 0.004032 -0.000435 0.023057 0.000076 -0.000766
# 5 -0.014429 0.004474 -0.004939 0.000076 0.044996 -0.014156
# 6 -0.000321 0.000449 0.005173 -0.000766 -0.014156 0.053184
#
#
# Mechanical properties :
#
#
# Convention : Reuss Voigt Hill
#
# Bulk Modulus (GPa) = 37.48350 56.52258 47.00304
# Shear Modulus (GPa) = 23.21848 31.73390 27.47619
#
# Velocity S-wave (km/s) = 3.27203 3.82527 3.55942
# Velocity P-wave (km/s) = 5.61772 6.75079 6.21015
#
# Compressibility (1/GPa) = 0.02667840
#
# Stress axis : x y z
#
# Youngs Moduli (GPa) = 33.64180 66.52321 89.36654
#
# Poissons Ratio (x) = 0.75711 -0.08577
# Poissons Ratio (y) = 0.38288 0.37651
# Poissons Ratio (z) = -0.03229 0.28027
#
# Static dielectric constant tensor:
#      x y z
#    x 3.604900 -0.339460 0.171740 
#    y -0.339460 4.130400 0.093840 
#    z 0.171740 0.093840 4.170000 
# 
# 
# High freq. dielectric constant tensor:
#      x y z
#    x 1.825710 -0.015880 0.016080 
#    y -0.015880 1.845170 0.007640 
#    z 0.016080 0.007640 1.881240 
# 
# From -- ./inp_files/14982.got.cif
#   From: 2010.06.25/outbox.cif.g09.slc.cpg/sg2_8_cif.got.tgz:14982.got - 2010.06.27 13:26:56.
