data_PCOD8009081
_publ_section_title
;
Structure prediction by ZEFSAII (Michael W. Deem and Ramdas Pophale) SiO2 
 PCOD8009081
Probable space group: P -1
;
_chemical_formula_sum "Si O2"
_cell_formula_units_Z 16
_cell_length_a 18.434961
_cell_length_b 19.869980
_cell_length_c 9.270383
_cell_angle_alpha 143.382984
_cell_angle_beta 132.225350
_cell_angle_gamma 21.564635
_cell_volume 700.261261
_symmetry_space_group_name_H-M "P -1"
_symmetry_group_IT_number 2
_symmetry_cell_setting 'triclinic'
loop_
_space_group_symop_operation_xyz
x,y,z
-x,-y,-z
loop_
_atom_site_type_symbol
_atom_site_label
_atom_site_fract_x
_atom_site_fract_y
_atom_site_fract_z
Si Si1 0.657611 0.272585 0.072142
Si Si2 0.630414 0.891976 0.213525
Si Si3 0.439924 0.387902 0.461748
Si Si4 0.829304 0.874271 0.630911
Si Si5 0.206962 0.866395 0.670231
Si Si6 0.424219 0.263829 0.947333
Si Si7 0.288666 0.340109 0.345287
Si Si8 0.217570 0.638650 0.127965
O O1 0.704916 0.355826 0.242446
O O2 0.646309 0.275599 0.237478
O O3 0.430546 0.466045 0.038272
O O4 0.827723 0.005429 0.789781
O O5 0.775833 0.846988 0.379279
O O6 0.608841 0.832342 0.220080
O O7 0.398369 0.171984 0.340932
O O8 0.733298 0.727054 0.929553
O O9 0.673764 0.197040 0.415682
O O10 0.431162 0.303604 0.430584
O O11 0.364655 0.402468 0.241774
O O12 0.057236 0.614994 0.552782
O O13 0.663098 0.035055 0.816690
O O14 0.159296 0.784327 0.430369
O O15 0.983309 0.158917 0.899462
O O16 0.263234 0.466375 0.954684
#
# Coordination Sequence:
#
# PCOD8009081 Si02
#       8
#     2   2   2   2   2   2   2   2
#     4  10  19  35  60  88 126 145 186 246 289 341
#     4  10  23  45  59  80 116 155 203 243 283 345
#     4  10  18  39  60  87 121 156 189 232 288 352
#     4  11  22  38  61  90 114 153 191 244 298 336
#     4  10  16  31  56  88 120 145 187 231 286 339
#     4  10  19  38  63  89 117 147 196 248 283 331
#     4  10  24  43  61  79 118 159 196 239 289 350
#     4   9  17  29  53  90 115 147 182 236 281 333
#
# _framework density 22.848614999999999
#
# number of rings (size 3 to 8) (size 9 to 14) (size 15 to 20)
#    0.000    2.000    3.750    1.500    0.000    3.000 
#   11.250    0.625    0.000    0.000    0.000    0.000 
#    0.000    0.000    0.000    0.000    0.000    0.000 
#
# Total GULP energy -198222.927192 kJ/mol
# GULP energy per Si atom -12388.932949 kJ/mol
# Density = 2.279661 g / cm^3
# Si number density = 22.848615 Si / 1000 Ang^3
#
#
#
# Elastic Constant Matrix: (Units=GPa)
#
#
# Indices 1 2 3 4 5 6 
#
# 1 64.1456 5.6091 35.2745 2.4655 24.0598 8.8363
# 2 5.6091 51.1657 14.4112 28.1480 8.8711 -4.0373
# 3 35.2745 14.4112 91.7579 14.7689 35.3127 4.0837
# 4 2.4655 28.1480 14.7689 36.1542 1.8646 3.6851
# 5 24.0598 8.8711 35.3127 1.8646 27.7725 6.9320
# 6 8.8363 -4.0373 4.0837 3.6851 6.9320 22.3601
#
#
#
# Elastic Compliance Matrix: (Units=1/GPa)
#
#
# Indices 1 2 3 4 5 6 
#
# 1 0.023672 0.000466 -0.002896 0.000425 -0.016044 -0.003838
# 2 0.000466 0.046273 0.009950 -0.040842 -0.030738 0.022614
# 3 -0.002896 0.009950 0.026959 -0.017925 -0.036837 0.012392
# 4 0.000425 -0.040842 -0.017925 0.067568 0.037695 -0.027090
# 5 -0.016044 -0.030738 -0.036837 0.037695 0.112404 -0.033542
# 6 -0.003838 0.022614 0.012392 -0.027090 -0.033542 0.062922
#
#
# Mechanical properties :
#
#
# Convention : Reuss Voigt Hill
#
# Bulk Modulus (GPa) = 8.93306 35.29543 22.11424
# Shear Modulus (GPa) = 13.80936 27.37567 20.59252
#
# Velocity S-wave (km/s) = 2.46109 3.46516 3.00535
# Velocity P-wave (km/s) = 3.46325 5.61167 4.66288
#
# Compressibility (1/GPa) = 0.11194366
#
# Stress axis : x y z
#
# Youngs Moduli (GPa) = 42.24474 21.61078 37.09293
#
# Poissons Ratio (x) = -0.01007 0.10744
# Poissons Ratio (y) = -0.01969 -0.36908
# Poissons Ratio (z) = 0.12236 -0.21503
#
# Static dielectric constant tensor:
#      x y z
#    x 3.908020 0.143910 0.524170 
#    y 0.143910 3.936460 0.230760 
#    z 0.524170 0.230760 4.325480 
# 
# 
# High freq. dielectric constant tensor:
#      x y z
#    x 1.867360 0.003660 0.032940 
#    y 0.003660 1.886710 0.012830 
#    z 0.032940 0.012830 1.913570 
# 
# From -- ./inp_files/349609.got.cif
#   From: 2010.06.25/outbox.cif.g09.slc.cpg/sg2_175_cif.got.tgz:349609.got - 2010.06.27 13:26:56.
