data_PCOD8009226
_publ_section_title
;
Structure prediction by ZEFSAII (Michael W. Deem and Ramdas Pophale) SiO2 
 PCOD8009226
Probable space group: P -1
;
_chemical_formula_sum "Si O2"
_cell_formula_units_Z 16
_cell_length_a 12.054596
_cell_length_b 13.212857
_cell_length_c 16.318065
_cell_angle_alpha 153.260876
_cell_angle_beta 135.330678
_cell_angle_gamma 54.554054
_cell_volume 809.491012
_symmetry_space_group_name_H-M "P -1"
_symmetry_group_IT_number 2
_symmetry_cell_setting 'triclinic'
loop_
_space_group_symop_operation_xyz
x,y,z
-x,-y,-z
loop_
_atom_site_type_symbol
_atom_site_label
_atom_site_fract_x
_atom_site_fract_y
_atom_site_fract_z
Si Si1 0.733703 0.181620 0.209119
Si Si2 0.401636 0.060450 0.875986
Si Si3 0.177137 0.133365 0.675538
Si Si4 0.103497 0.575507 0.987471
Si Si5 0.493997 0.663125 0.537522
Si Si6 0.833070 0.683500 0.657213
Si Si7 0.778699 0.305411 0.695380
Si Si8 0.980294 0.931947 0.069409
O O1 0.849205 0.425990 0.454510
O O2 0.701980 0.078047 0.207317
O O3 0.819845 0.011091 0.076935
O O4 0.562025 0.220968 0.110564
O O5 0.276807 0.182936 0.849366
O O6 0.468633 0.901053 0.731313
O O7 0.172659 0.394927 0.832401
O O8 0.255585 0.971716 0.538061
O O9 0.000000 0.000000 0.500000
O O10 0.947848 0.426383 0.837614
O O11 0.231204 0.661893 0.188753
O O12 0.066308 0.799203 0.085391
O O13 0.500000 0.500000 0.500000
O O14 0.651339 0.697172 0.590517
O O15 0.350069 0.572210 0.332638
O O16 0.939042 0.758086 0.846853
O O17 0.893547 0.847183 0.731516
#
# Coordination Sequence:
#
# PCOD8009226 Si02
#       8
#     2   2   2   2   2   2   2   2
#     4  11  23  37  62  90 122 152 194 251 302 350
#     4  10  22  35  60  96 120 147 193 252 304 350
#     4   9  20  35  53  86 124 150 188 239 299 350
#     4  10  21  36  59  84 119 155 195 241 287 359
#     4  11  19  37  62  90 121 150 194 251 305 344
#     4  11  24  41  61  85 120 162 196 249 295 356
#     4   9  21  33  57  89 117 150 190 248 299 346
#     4  11  25  41  59  87 119 163 206 234 295 362
#
# _framework density 19.765506999999999
#
# number of rings (size 3 to 8) (size 9 to 14) (size 15 to 20)
#    0.000    1.750    2.500    1.125   10.500    0.000 
#    0.000    0.625    0.000    1.500    0.000    0.000 
#    0.000    0.000    0.000    0.000    0.000    0.000 
#
# Total GULP energy -198273.537508 kJ/mol
# GULP energy per Si atom -12392.096094 kJ/mol
# Density = 1.972052 g / cm^3
# Si number density = 19.765507 Si / 1000 Ang^3
#
#
#
# Elastic Constant Matrix: (Units=GPa)
#
#
# Indices 1 2 3 4 5 6 
#
# 1 55.1141 34.9681 22.2903 5.4634 -1.8978 -3.5247
# 2 34.9681 119.2866 56.2843 -4.1859 -0.9113 -6.2308
# 3 22.2903 56.2843 99.1689 3.5322 2.0677 8.3902
# 4 5.4634 -4.1859 3.5322 33.3392 -3.6107 1.8313
# 5 -1.8978 -0.9113 2.0677 -3.6107 19.2668 -4.0064
# 6 -3.5247 -6.2308 8.3902 1.8313 -4.0064 20.7137
#
#
#
# Elastic Compliance Matrix: (Units=1/GPa)
#
#
# Indices 1 2 3 4 5 6 
#
# 1 0.023456 -0.005739 -0.002249 -0.004296 0.002307 0.004002
# 2 -0.005739 0.014048 -0.007417 0.003446 0.002894 0.006509
# 3 -0.002249 -0.007417 0.015799 -0.002212 -0.004705 -0.009728
# 4 -0.004296 0.003446 -0.002212 0.032029 0.005877 -0.000494
# 5 0.002307 0.002894 -0.004705 0.005877 0.056705 0.013617
# 6 0.004002 0.006509 -0.009728 -0.000494 0.013617 0.057534
#
#
# Mechanical properties :
#
#
# Convention : Reuss Voigt Hill
#
# Bulk Modulus (GPa) = 44.45707 55.62833 50.04270
# Shear Modulus (GPa) = 21.01914 25.33240 23.17577
#
# Velocity S-wave (km/s) = 3.26456 3.58389 3.42795
# Velocity P-wave (km/s) = 6.06225 6.73283 6.40632
#
# Compressibility (1/GPa) = 0.02249361
#
# Stress axis : x y z
#
# Youngs Moduli (GPa) = 42.63270 71.18350 63.29630
#
# Poissons Ratio (x) = 0.40853 0.14233
# Poissons Ratio (y) = 0.24467 0.46947
# Poissons Ratio (z) = 0.09587 0.52797
#
# Static dielectric constant tensor:
#      x y z
#    x 3.602850 -0.289030 -0.231630 
#    y -0.289030 3.888480 -0.092540 
#    z -0.231630 -0.092540 3.940950 
# 
# 
# High freq. dielectric constant tensor:
#      x y z
#    x 1.741900 -0.022140 -0.022560 
#    y -0.022140 1.768180 -0.009020 
#    z -0.022560 -0.009020 1.783280 
# 
# From -- ./inp_files/425317.got.cif
#   From: 2010.06.25/outbox.cif.g09.slc.cpg/sg2_213_cif.got.tgz:425317.got - 2010.06.27 13:26:56.
