data_PCOD8009320
_publ_section_title
;
Structure prediction by ZEFSAII (Michael W. Deem and Ramdas Pophale) SiO2 
 PCOD8009320
Probable space group: P -1
;
_chemical_formula_sum "Si O2"
_cell_formula_units_Z 14
_cell_length_a 9.093368
_cell_length_b 8.043386
_cell_length_c 12.857403
_cell_angle_alpha 47.906603
_cell_angle_beta 50.993296
_cell_angle_gamma 73.514529
_cell_volume 526.474733
_symmetry_space_group_name_H-M "P -1"
_symmetry_group_IT_number 2
_symmetry_cell_setting 'triclinic'
loop_
_space_group_symop_operation_xyz
x,y,z
-x,-y,-z
loop_
_atom_site_type_symbol
_atom_site_label
_atom_site_fract_x
_atom_site_fract_y
_atom_site_fract_z
Si Si1 0.526603 0.260979 0.171567
Si Si2 0.426536 0.749020 0.087976
Si Si3 0.759221 0.924574 0.199982
Si Si4 0.911882 0.754064 0.593886
Si Si5 0.257885 0.316485 0.903054
Si Si6 0.940181 0.437256 0.893688
Si Si7 0.961218 0.170362 0.724807
O O1 0.326149 0.309399 0.283391
O O2 0.730932 0.457275 0.028506
O O3 0.568955 0.013876 0.289239
O O4 0.510371 0.267357 0.051353
O O5 0.532246 0.579010 0.178683
O O6 0.190216 0.679730 0.228439
O O7 0.500000 0.000000 0.000000
O O8 0.687316 0.764901 0.200825
O O9 0.841800 0.787645 0.311626
O O10 0.919566 0.160881 0.991253
O O11 0.994433 0.741709 0.448102
O O12 0.991748 0.583842 0.705349
O O13 0.000000 0.000000 0.500000
O O14 0.122819 0.500558 0.867160
O O15 0.138702 0.103040 0.116116
#
# Coordination Sequence:
#
# PCOD8009320 Si02
#       7
#     2   2   2   2   2   2   2
#     4  10  20  38  63  83 119 158 200 228 290 359
#     4  10  16  31  61  90 113 150 195 232 288 350
#     4   9  18  36  64  86 113 153 201 234 284 351
#     4  12  25  38  58  88 125 153 192 251 302 334
#     4  10  17  36  64  92 113 154 199 243 283 354
#     4   9  20  39  61  82 118 161 197 234 287 361
#     4  10  19  34  58  89 113 150 196 244 290 339
#
# _framework density 26.591968000000001
#
# number of rings (size 3 to 8) (size 9 to 14) (size 15 to 20)
#    0.857    1.143    2.857    4.714    0.000    0.571 
#    0.000   13.571    3.143    0.000    0.000    0.000 
#    0.000    0.000    0.000    0.000    0.000    0.000 
#
# Total GULP energy -173451.694551 kJ/mol
# GULP energy per Si atom -12389.406754 kJ/mol
# Density = 2.653144 g / cm^3
# Si number density = 26.591968 Si / 1000 Ang^3
#
#
#
# Elastic Constant Matrix: (Units=GPa)
#
#
# Indices 1 2 3 4 5 6 
#
# 1 219.1686 52.9598 54.9210 -5.5431 37.0247 -51.8167
# 2 52.9598 99.6092 42.9570 14.6900 12.9898 -46.9889
# 3 54.9210 42.9570 113.2915 9.6413 23.5791 -28.1959
# 4 -5.5431 14.6900 9.6413 35.7756 -2.2567 -4.7265
# 5 37.0247 12.9898 23.5791 -2.2567 33.1266 -18.4403
# 6 -51.8167 -46.9889 -28.1959 -4.7265 -18.4403 59.7105
#
#
#
# Elastic Compliance Matrix: (Units=1/GPa)
#
#
# Indices 1 2 3 4 5 6 
#
# 1 0.006682 -0.001338 -0.001282 0.002060 -0.004220 0.003000
# 2 -0.001338 0.018345 -0.003523 -0.004968 0.003280 0.012231
# 3 -0.001282 -0.003523 0.012226 -0.002465 -0.006175 -0.000214
# 4 0.002060 -0.004968 -0.002465 0.031254 0.003716 0.000336
# 5 -0.004220 0.003280 -0.006175 0.003716 0.043721 0.009799
# 6 0.003000 0.012231 -0.000214 0.000336 0.009799 0.031928
#
#
# Mechanical properties :
#
#
# Convention : Reuss Voigt Hill
#
# Bulk Modulus (GPa) = 40.05461 81.52722 60.79091
# Shear Modulus (GPa) = 30.34659 44.47129 37.40894
#
# Velocity S-wave (km/s) = 3.38182 4.09388 3.75477
# Velocity P-wave (km/s) = 5.50857 7.28503 6.45817
#
# Compressibility (1/GPa) = 0.02496592
#
# Stress axis : x y z
#
# Youngs Moduli (GPa) = 149.66624 54.51183 81.79446
#
# Poissons Ratio (x) = 0.07293 0.10487
# Poissons Ratio (y) = 0.20024 0.28816
# Poissons Ratio (z) = 0.19189 0.19204
#
# Static dielectric constant tensor:
#      x y z
#    x 5.900420 -0.455180 0.136940 
#    y -0.455180 5.286870 -0.234400 
#    z 0.136940 -0.234400 4.430770 
# 
# 
# High freq. dielectric constant tensor:
#      x y z
#    x 2.101770 -0.014580 0.032580 
#    y -0.014580 2.102410 0.012970 
#    z 0.032580 0.012970 2.006490 
# 
# From -- ./inp_files/388732.got.cif
#   From: 2010.06.25/outbox.cif.g09.slc.cpg/sg2_195_cif.got.tgz:388732.got - 2010.06.27 13:26:56.
