data_PCOD8009866
_publ_section_title
;
Structure prediction by ZEFSAII (Michael W. Deem and Ramdas Pophale) SiO2 
 PCOD8009866
Probable space group: P -1
;
_chemical_formula_sum "Si O2"
_cell_formula_units_Z 16
_cell_length_a 18.033005
_cell_length_b 6.909013
_cell_length_c 9.605593
_cell_angle_alpha 44.262876
_cell_angle_beta 81.382810
_cell_angle_gamma 78.580317
_cell_volume 818.690254
_symmetry_space_group_name_H-M "P -1"
_symmetry_group_IT_number 2
_symmetry_cell_setting 'triclinic'
loop_
_space_group_symop_operation_xyz
x,y,z
-x,-y,-z
loop_
_atom_site_type_symbol
_atom_site_label
_atom_site_fract_x
_atom_site_fract_y
_atom_site_fract_z
Si Si1 0.460949 0.738180 0.984675
Si Si2 0.284707 0.951596 0.230803
Si Si3 0.452468 0.733709 0.302545
Si Si4 0.959966 0.338345 0.978752
Si Si5 0.951360 0.712187 0.303822
Si Si6 0.204469 0.444350 0.182298
Si Si7 0.294166 0.958166 0.905000
Si Si8 0.208468 0.419174 0.515805
O O1 0.510687 0.986439 0.839067
O O2 0.500000 0.500000 0.000000
O O3 0.455180 0.620400 0.202614
O O4 0.377483 0.828288 0.902436
O O5 0.365268 0.799059 0.342804
O O6 0.293368 0.055067 0.016484
O O7 0.222606 0.738984 0.365447
O O8 0.257353 0.217633 0.195314
O O9 0.500000 0.500000 0.500000
O O10 0.880565 0.518748 0.870028
O O11 0.015133 0.309620 0.847428
O O12 0.000000 0.500000 0.000000
O O13 0.948417 0.030122 0.196289
O O14 0.868491 0.622481 0.363913
O O15 0.000000 0.500000 0.500000
O O16 0.235426 0.739614 0.008781
O O17 0.205320 0.340041 0.394948
O O18 0.275295 0.222363 0.674044
#
# Coordination Sequence:
#
# PCOD8009866 Si02
#       8
#     2   2   2   2   2   2   2   2
#     4  10  21  37  62  88 116 157 200 241 289 352
#     4  10  24  38  61  89 122 157 194 246 293 347
#     4  10  21  39  59  89 123 154 198 244 292 345
#     4  11  26  40  64  89 116 157 196 243 297 349
#     4  11  24  44  62  86 122 153 195 246 291 348
#     4  11  23  40  58  90 121 150 203 242 289 356
#     4  10  22  41  59  85 122 158 194 241 301 343
#     4  11  23  40  61  86 119 159 194 242 295 349
#
# _framework density 19.543409
#
# number of rings (size 3 to 8) (size 9 to 14) (size 15 to 20)
#    0.000    1.500    2.500    1.500    3.500    4.000 
#    0.000    0.000    0.000    0.000    0.000    0.000 
#    0.000    0.000    0.000    0.000    0.000    0.000 
#
# Total GULP energy -198472.398598 kJ/mol
# GULP energy per Si atom -12404.524912 kJ/mol
# Density = 1.949893 g / cm^3
# Si number density = 19.543409 Si / 1000 Ang^3
#
#
#
# Elastic Constant Matrix: (Units=GPa)
#
#
# Indices 1 2 3 4 5 6 
#
# 1 111.6195 25.2978 25.8885 7.1075 8.5485 -4.4803
# 2 25.2978 91.2525 23.5888 5.2642 9.5513 -12.9382
# 3 25.8885 23.5888 91.0887 -3.2508 20.3078 -3.9846
# 4 7.1075 5.2642 -3.2508 16.2056 -0.7310 0.3324
# 5 8.5485 9.5513 20.3078 -0.7310 44.6789 -0.6811
# 6 -4.4803 -12.9382 -3.9846 0.3324 -0.6811 32.7272
#
#
#
# Elastic Compliance Matrix: (Units=1/GPa)
#
#
# Indices 1 2 3 4 5 6 
#
# 1 0.010289 -0.001845 -0.002472 -0.004441 -0.000517 0.000413
# 2 -0.001845 0.013161 -0.002537 -0.004129 -0.001304 0.004656
# 3 -0.002472 -0.002537 0.013642 0.004411 -0.005111 0.000168
# 4 -0.004441 -0.004129 0.004411 0.065964 0.000771 -0.002357
# 5 -0.000517 -0.001304 -0.005111 0.000771 0.025085 -0.000694
# 6 0.000413 0.004656 0.000168 -0.002357 -0.000694 0.032483
#
#
# Mechanical properties :
#
#
# Convention : Reuss Voigt Hill
#
# Bulk Modulus (GPa) = 42.76177 49.27899 46.02038
# Shear Modulus (GPa) = 27.45363 33.33471 30.39417
#
# Velocity S-wave (km/s) = 3.75207 4.13446 3.94790
# Velocity P-wave (km/s) = 6.37954 6.93265 6.66184
#
# Compressibility (1/GPa) = 0.02338537
#
# Stress axis : x y z
#
# Youngs Moduli (GPa) = 97.18780 75.98395 73.30333
#
# Poissons Ratio (x) = 0.14017 0.18119
# Poissons Ratio (y) = 0.17928 0.18596
# Poissons Ratio (z) = 0.24023 0.19276
#
# Static dielectric constant tensor:
#      x y z
#    x 3.789110 0.029290 0.016620 
#    y 0.029290 3.451560 0.025580 
#    z 0.016620 0.025580 3.692770 
# 
# 
# High freq. dielectric constant tensor:
#      x y z
#    x 1.783800 -0.000040 -0.001340 
#    y -0.000040 1.756250 -0.001170 
#    z -0.001340 -0.001170 1.766330 
# 
# From -- ./inp_files/10726.got.cif
#   From: 2010.06.25/outbox.cif.g09.slc.cpg/sg2_6_cif.got.tgz:10726.got - 2010.06.27 13:26:56.
