data_PCOD8009229
_publ_section_title
;
Structure prediction by ZEFSAII (Michael W. Deem and Ramdas Pophale) SiO2 
 PCOD8009229
Probable space group: P -1
;
_chemical_formula_sum "Si O2"
_cell_formula_units_Z 16
_cell_length_a 12.094972
_cell_length_b 12.021160
_cell_length_c 6.393298
_cell_angle_alpha 91.850438
_cell_angle_beta 82.117411
_cell_angle_gamma 123.707046
_cell_volume 764.895350
_symmetry_space_group_name_H-M "P -1"
_symmetry_group_IT_number 2
_symmetry_cell_setting 'triclinic'
loop_
_space_group_symop_operation_xyz
x,y,z
-x,-y,-z
loop_
_atom_site_type_symbol
_atom_site_label
_atom_site_fract_x
_atom_site_fract_y
_atom_site_fract_z
Si Si1 0.906359 0.252929 0.435007
Si Si2 0.050896 0.233213 0.777500
Si Si3 0.094087 0.459787 0.064022
Si Si4 0.504004 0.586093 0.812757
Si Si5 0.274632 0.736923 0.194702
Si Si6 0.790833 0.087570 0.064495
Si Si7 0.451738 0.209265 0.871924
Si Si8 0.334589 0.329660 0.616316
O O1 0.815502 0.293990 0.578442
O O2 0.806055 0.126212 0.306781
O O3 0.980467 0.213631 0.573953
O O4 0.024994 0.375200 0.283899
O O5 0.177531 0.221883 0.704160
O O6 0.113668 0.377994 0.876960
O O7 0.935070 0.119169 0.950791
O O8 0.234741 0.595564 0.094865
O O9 0.000000 0.500000 0.000000
O O10 0.380110 0.478780 0.691521
O O11 0.639773 0.657682 0.639517
O O12 0.500000 0.500000 0.000000
O O13 0.499345 0.706640 0.918895
O O14 0.430366 0.811101 0.226577
O O15 0.250260 0.824392 0.046215
O O16 0.681427 0.932929 0.051168
O O17 0.422677 0.282070 0.701012
#
# Coordination Sequence:
#
# PCOD8009229 Si02
#       8
#     2   2   2   2   2   2   2   2
#     4  10  21  36  59  85 123 153 197 245 301 344
#     4  10  22  38  62  87 122 155 196 250 296 347
#     4  11  19  37  60  95 120 147 196 247 301 356
#     4   9  21  42  61  86 120 149 194 245 297 350
#     4  11  22  37  60  89 120 160 196 245 301 351
#     4  10  23  41  57  88 121 157 205 246 290 350
#     4  11  24  40  62  85 122 163 198 243 294 351
#     4  10  22  41  63  92 116 153 201 242 298 360
#
# _framework density 20.917895000000001
#
# number of rings (size 3 to 8) (size 9 to 14) (size 15 to 20)
#    0.000    1.750    3.750    1.500    0.000   11.000 
#    0.000    1.250    0.000    0.000    0.000    0.000 
#    0.000    0.000    0.000    0.000    0.000    0.000 
#
# Total GULP energy -198301.442564 kJ/mol
# GULP energy per Si atom -12393.840160 kJ/mol
# Density = 2.087028 g / cm^3
# Si number density = 20.917895 Si / 1000 Ang^3
#
#
#
# Elastic Constant Matrix: (Units=GPa)
#
#
# Indices 1 2 3 4 5 6 
#
# 1 115.7439 13.6029 39.6892 -0.6481 -15.7947 20.7645
# 2 13.6029 99.1507 28.5306 -1.9512 -2.8503 15.2306
# 3 39.6892 28.5306 112.7663 4.2878 4.5120 1.3073
# 4 -0.6481 -1.9512 4.2878 19.7762 5.5409 -3.6978
# 5 -15.7947 -2.8503 4.5120 5.5409 18.4066 -5.5115
# 6 20.7645 15.2306 1.3073 -3.6978 -5.5115 22.7373
#
#
#
# Elastic Compliance Matrix: (Units=1/GPa)
#
#
# Indices 1 2 3 4 5 6 
#
# 1 0.013853 0.001667 -0.005481 -0.003428 0.011134 -0.011311
# 2 0.001667 0.012375 -0.003667 -0.000079 0.001500 -0.009250
# 3 -0.005481 -0.003667 0.011941 -0.000332 -0.006562 0.005131
# 4 -0.003428 -0.000079 -0.000332 0.056974 -0.017564 0.008210
# 5 0.011134 0.001500 -0.006562 -0.017564 0.072160 0.003840
# 6 -0.011311 -0.009250 0.005131 0.008210 0.003840 0.062477
#
#
# Mechanical properties :
#
#
# Convention : Reuss Voigt Hill
#
# Bulk Modulus (GPa) = 43.09516 54.58956 48.84236
# Shear Modulus (GPa) = 19.80370 28.57324 24.18847
#
# Velocity S-wave (km/s) = 3.08024 3.69991 3.40421
# Velocity P-wave (km/s) = 5.77038 6.66380 6.23312
#
# Compressibility (1/GPa) = 0.02320446
#
# Stress axis : x y z
#
# Youngs Moduli (GPa) = 72.18771 80.81017 83.74735
#
# Poissons Ratio (x) = -0.13470 0.45905
# Poissons Ratio (y) = -0.12032 0.30713
# Poissons Ratio (z) = 0.39569 0.29635
#
# Static dielectric constant tensor:
#      x y z
#    x 3.592660 0.107330 -0.046770 
#    y 0.107330 3.243070 0.220820 
#    z -0.046770 0.220820 3.904480 
# 
# 
# High freq. dielectric constant tensor:
#      x y z
#    x 1.807400 0.015890 -0.006220 
#    y 0.015890 1.808290 0.001730 
#    z -0.006220 0.001730 1.828920 
# 
# From -- ./inp_files/70499.got.cif
#   From: 2010.06.25/outbox.cif.g09.slc.cpg/sg2_36_cif.got.tgz:70499.got - 2010.06.27 13:26:56.
