data_PCOD8009934
_publ_section_title
;
Structure prediction by ZEFSAII (Michael W. Deem and Ramdas Pophale) SiO2 
 PCOD8009934
Probable space group: P -1
;
_chemical_formula_sum "Si O2"
_cell_formula_units_Z 16
_cell_length_a 17.002362
_cell_length_b 10.684902
_cell_length_c 5.148328
_cell_angle_alpha 109.230185
_cell_angle_beta 58.720507
_cell_angle_gamma 119.115651
_cell_volume 694.637889
_symmetry_space_group_name_H-M "P -1"
_symmetry_group_IT_number 2
_symmetry_cell_setting 'triclinic'
loop_
_space_group_symop_operation_xyz
x,y,z
-x,-y,-z
loop_
_atom_site_type_symbol
_atom_site_label
_atom_site_fract_x
_atom_site_fract_y
_atom_site_fract_z
Si Si1 0.882666 0.445649 0.137728
Si Si2 0.066286 0.902346 0.287882
Si Si3 0.018521 0.166388 0.114276
Si Si4 0.257731 0.884208 0.834291
Si Si5 0.822327 0.559423 0.816484
Si Si6 0.380266 0.445307 0.943919
Si Si7 0.584305 0.686537 0.722779
Si Si8 0.387717 0.992824 0.168095
O O1 0.821180 0.277631 0.188347
O O2 0.849959 0.537790 0.462207
O O3 0.858185 0.472402 0.902751
O O4 0.000000 0.500000 0.000000
O O5 0.055372 0.819282 0.523391
O O6 0.185985 0.975576 0.068946
O O7 0.000000 0.000000 0.500000
O O8 0.013395 0.785946 0.070941
O O9 0.130390 0.269658 0.072859
O O10 0.000000 0.000000 0.000000
O O11 0.328992 0.942493 0.504275
O O12 0.326992 0.888802 0.967192
O O13 0.704368 0.508307 0.994059
O O14 0.471043 0.596257 0.946466
O O15 0.403874 0.349643 0.619715
O O16 0.348506 0.355007 0.207308
O O17 0.608678 0.853150 0.816144
O O18 0.500000 0.000000 0.000000
#
# Coordination Sequence:
#
# PCOD8009934 Si02
#       8
#     2   2   2   2   2   2   2   2
#     4  12  27  45  68 102 147 189 244 290 341 440
#     4  10  22  41  65  97 137 180 221 284 359 426
#     4  10  21  37  62  97 134 176 217 286 342 417
#     4  12  26  46  71 105 140 195 238 295 367 421
#     4  12  24  42  69  98 137 190 239 281 355 429
#     4  10  23  43  69 103 130 187 224 294 358 420
#     4  10  23  44  69  98 144 166 234 302 354 411
#     4  12  28  48  73 107 142 191 247 303 361 428
#
# _framework density 23.033584999999999
#
# number of rings (size 3 to 8) (size 9 to 14) (size 15 to 20)
#    0.000    1.000    0.000    6.000    3.500    6.000 
#    0.000    0.000    0.000    0.000    0.000    0.000 
#    0.000    0.000    0.000    0.000    0.000    0.000 
#
# Total GULP energy -198254.726486 kJ/mol
# GULP energy per Si atom -12390.920405 kJ/mol
# Density = 2.298116 g / cm^3
# Si number density = 23.033585 Si / 1000 Ang^3
#
#
#
# Elastic Constant Matrix: (Units=GPa)
#
#
# Indices 1 2 3 4 5 6 
#
# 1 152.8742 33.0360 65.2343 -7.5294 -3.2089 16.3346
# 2 33.0360 107.0270 28.3298 -6.0206 -3.4871 6.1163
# 3 65.2343 28.3298 141.0461 -20.8153 12.9058 8.5904
# 4 -7.5294 -6.0206 -20.8153 28.9962 2.4393 5.7045
# 5 -3.2089 -3.4871 12.9058 2.4393 58.8153 -1.4363
# 6 16.3346 6.1163 8.5904 5.7045 -1.4363 29.0730
#
#
#
# Elastic Compliance Matrix: (Units=1/GPa)
#
#
# Indices 1 2 3 4 5 6 
#
# 1 0.008833 -0.001521 -0.003680 -0.000072 0.001117 -0.003486
# 2 -0.001521 0.010278 -0.001207 0.001032 0.000721 -0.001118
# 3 -0.003680 -0.001207 0.010476 0.007011 -0.002918 -0.002293
# 4 -0.000072 0.001032 0.007011 0.042111 -0.003488 -0.010683
# 5 0.001117 0.000721 -0.002918 -0.003488 0.017931 0.001653
# 6 -0.003486 -0.001118 -0.002293 -0.010683 0.001653 0.039445
#
#
# Mechanical properties :
#
#
# Convention : Reuss Voigt Hill
#
# Bulk Modulus (GPa) = 59.62676 72.68305 66.15490
# Shear Modulus (GPa) = 33.90316 41.66670 37.78493
#
# Velocity S-wave (km/s) = 3.84070 4.25779 4.05461
# Velocity P-wave (km/s) = 6.75359 7.46964 7.12062
#
# Compressibility (1/GPa) = 0.01677099
#
# Stress axis : x y z
#
# Youngs Moduli (GPa) = 113.21471 97.29839 95.45956
#
# Poissons Ratio (x) = 0.14796 0.35132
# Poissons Ratio (y) = 0.17217 0.11517
# Poissons Ratio (z) = 0.41667 0.11739
#
# Static dielectric constant tensor:
#      x y z
#    x 2.547100 0.596880 -1.549100 
#    y 0.596880 4.079350 0.493490 
#    z -1.549100 0.493490 2.929390 
# 
# 
# High freq. dielectric constant tensor:
#      x y z
#    x 1.924180 0.011120 0.020870 
#    y 0.011120 1.902280 -0.005840 
#    z 0.020870 -0.005840 1.924520 
# 
# From -- ./inp_files/109811.got.cif
#   From: 2010.06.25/outbox.cif.g09.slc.cpg/sg2_55_cif.got.tgz:109811.got - 2010.06.27 13:26:56.
