data_PCOD8009529
_publ_section_title
;
Structure prediction by ZEFSAII (Michael W. Deem and Ramdas Pophale) SiO2 
 PCOD8009529
Probable space group: P -1
;
_chemical_formula_sum "Si O2"
_cell_formula_units_Z 16
_cell_length_a 8.850176
_cell_length_b 12.363578
_cell_length_c 19.274286
_cell_angle_alpha 138.958001
_cell_angle_beta 45.553735
_cell_angle_gamma 145.876583
_cell_volume 760.178756
_symmetry_space_group_name_H-M "P -1"
_symmetry_group_IT_number 2
_symmetry_cell_setting 'triclinic'
loop_
_space_group_symop_operation_xyz
x,y,z
-x,-y,-z
loop_
_atom_site_type_symbol
_atom_site_label
_atom_site_fract_x
_atom_site_fract_y
_atom_site_fract_z
Si Si1 0.666078 0.625487 0.790927
Si Si2 0.843475 0.943779 0.770411
Si Si3 0.858104 0.594755 0.069184
Si Si4 0.219040 0.845089 0.558135
Si Si5 0.874521 0.709607 0.910645
Si Si6 0.430512 0.887246 0.770785
Si Si7 0.110877 0.597162 0.604663
Si Si8 0.447150 0.694500 0.104227
O O1 0.347911 0.443527 0.823416
O O2 0.831428 0.763476 0.873656
O O3 0.808848 0.530145 0.672607
O O4 0.669313 0.761034 0.794989
O O5 0.921292 0.150714 0.884789
O O6 0.111800 0.973325 0.675202
O O7 0.656510 0.889774 0.737364
O O8 0.709897 0.485310 0.991964
O O9 0.000000 0.500000 0.000000
O O10 0.280063 0.765621 0.568791
O O11 0.966321 0.632426 0.494251
O O12 0.500000 0.000000 0.500000
O O13 0.697123 0.448873 0.849162
O O14 0.199417 0.833053 0.874442
O O15 0.766956 0.794128 0.041428
O O16 0.289126 0.705077 0.669134
O O17 0.576390 0.120453 0.802259
#
# Coordination Sequence:
#
# PCOD8009529 Si02
#       8
#     2   2   2   2   2   2   2   2
#     4   9  21  39  59  84 116 156 199 240 289 347
#     4  11  24  38  61  89 119 155 196 243 299 350
#     4  11  22  37  54  84 123 161 197 236 284 344
#     4  10  21  42  66  86 111 152 195 241 295 356
#     4   9  21  37  57  80 114 161 202 244 280 338
#     4  11  22  37  58  88 121 152 189 245 297 342
#     4   9  21  40  62  88 114 148 196 241 291 357
#     4  10  21  37  56  82 117 161 209 236 280 340
#
# _framework density 21.047678999999999
#
# number of rings (size 3 to 8) (size 9 to 14) (size 15 to 20)
#    0.000    2.000    1.250    1.125    1.750   14.000 
#    0.000    0.625    0.000    0.000    0.000    0.000 
#    0.000    0.000    0.000    0.000    0.000    0.000 
#
# Total GULP energy -198308.701640 kJ/mol
# GULP energy per Si atom -12394.293853 kJ/mol
# Density = 2.099977 g / cm^3
# Si number density = 21.047679 Si / 1000 Ang^3
#
#
#
# Elastic Constant Matrix: (Units=GPa)
#
#
# Indices 1 2 3 4 5 6 
#
# 1 85.8642 39.0099 21.0230 4.9152 1.3849 -4.2349
# 2 39.0099 66.9464 22.3342 1.8415 3.5265 -8.1512
# 3 21.0230 22.3342 53.8525 10.9979 3.3950 -2.1866
# 4 4.9152 1.8415 10.9979 42.1245 2.0994 0.3379
# 5 1.3849 3.5265 3.3950 2.0994 29.8590 4.6475
# 6 -4.2349 -8.1512 -2.1866 0.3379 4.6475 29.5477
#
#
#
# Elastic Compliance Matrix: (Units=1/GPa)
#
#
# Indices 1 2 3 4 5 6 
#
# 1 0.016237 -0.008635 -0.002639 -0.000859 0.000681 -0.000348
# 2 -0.008635 0.022661 -0.006011 0.001670 -0.002479 0.004940
# 3 -0.002639 -0.006011 0.023292 -0.005439 -0.001430 -0.000026
# 4 -0.000859 0.001670 -0.005439 0.025252 -0.001291 -0.000151
# 5 0.000681 -0.002479 -0.001430 -0.001291 0.034967 -0.006177
# 6 -0.000348 0.004940 -0.000026 -0.000151 -0.006177 0.036128
#
#
# Mechanical properties :
#
#
# Convention : Reuss Voigt Hill
#
# Bulk Modulus (GPa) = 36.20721 41.26638 38.73679
# Shear Modulus (GPa) = 24.71418 28.59265 26.65342
#
# Velocity S-wave (km/s) = 3.43038 3.68974 3.56242
# Velocity P-wave (km/s) = 5.73845 6.14825 5.94688
#
# Compressibility (1/GPa) = 0.02761881
#
# Stress axis : x y z
#
# Youngs Moduli (GPa) = 61.58897 44.12928 42.93279
#
# Poissons Ratio (x) = 0.38108 0.11329
# Poissons Ratio (y) = 0.53185 0.25808
# Poissons Ratio (z) = 0.16252 0.26527
#
# Static dielectric constant tensor:
#      x y z
#    x 6.319660 -0.204920 0.617280 
#    y -0.204920 3.959950 -0.175330 
#    z 0.617280 -0.175330 3.928750 
# 
# 
# High freq. dielectric constant tensor:
#      x y z
#    x 1.810710 -0.011920 -0.001810 
#    y -0.011920 1.833300 -0.000520 
#    z -0.001810 -0.000520 1.811180 
# 
# From -- ./inp_files/589610.got.cif
#   From: 2010.06.25/outbox.cif.g09.slc.cpg/sg2_295_cif.got.tgz:589610.got - 2010.06.27 13:26:56.
