data_PCOD8009047
_publ_section_title
;
Structure prediction by ZEFSAII (Michael W. Deem and Ramdas Pophale) SiO2 
 PCOD8009047
Probable space group: P -1
;
_chemical_formula_sum "Si O2"
_cell_formula_units_Z 16
_cell_length_a 9.750862
_cell_length_b 14.801369
_cell_length_c 14.745727
_cell_angle_alpha 43.170572
_cell_angle_beta 118.401059
_cell_angle_gamma 83.282626
_cell_volume 816.023107
_symmetry_space_group_name_H-M "P -1"
_symmetry_group_IT_number 2
_symmetry_cell_setting 'triclinic'
loop_
_space_group_symop_operation_xyz
x,y,z
-x,-y,-z
loop_
_atom_site_type_symbol
_atom_site_label
_atom_site_fract_x
_atom_site_fract_y
_atom_site_fract_z
Si Si1 0.423193 0.828482 0.105402
Si Si2 0.496147 0.512346 0.666503
Si Si3 0.258329 0.888449 0.198524
Si Si4 0.889458 0.414864 0.957967
Si Si5 0.305658 0.170047 0.387818
Si Si6 0.851846 0.644215 0.249059
Si Si7 0.003736 0.714535 0.396690
Si Si8 0.282956 0.130571 0.134956
O O1 0.384097 0.696963 0.184438
O O2 0.403102 0.869814 0.176682
O O3 0.670676 0.719339 0.219141
O O4 0.214763 0.043446 0.827788
O O5 0.434366 0.658985 0.461532
O O6 0.690878 0.434407 0.858540
O O7 0.249722 0.635063 0.552284
O O8 0.213363 0.026269 0.161698
O O9 0.000000 0.000000 0.000000
O O10 0.736030 0.646387 0.759178
O O11 0.044508 0.273906 0.201274
O O12 0.083065 0.308911 0.014571
O O13 0.500000 0.000000 0.500000
O O14 0.433277 0.044807 0.614197
O O15 0.001956 0.668850 0.322045
O O16 0.012162 0.406566 0.456347
O O17 0.724912 0.764717 0.028161
#
# Coordination Sequence:
#
# PCOD8009047 Si02
#       8
#     2   2   2   2   2   2   2   2
#     4  11  22  36  56  78 120 164 194 232 275 319
#     4  11  22  35  55  85 114 153 192 230 292 346
#     4  12  21  34  53  85 124 153 186 232 280 338
#     4  10  21  36  60  88 114 144 184 238 304 346
#     4   9  20  39  59  86 114 142 183 241 301 344
#     4  10  22  37  53  79 113 161 206 227 267 334
#     4  10  21  36  52  75 117 155 196 240 263 322
#     4  11  21  36  57  85 117 150 190 237 283 339
#
# _framework density 19.607288
#
# number of rings (size 3 to 8) (size 9 to 14) (size 15 to 20)
#    0.000    1.500    3.750    1.500    0.000    4.000 
#    0.000    0.000    0.000    3.000    0.000   33.250 
#    0.000    0.000    0.000    0.000    0.000    0.000 
#
# Total GULP energy -198234.516785 kJ/mol
# GULP energy per Si atom -12389.657299 kJ/mol
# Density = 1.956266 g / cm^3
# Si number density = 19.607288 Si / 1000 Ang^3
#
#
#
# Elastic Constant Matrix: (Units=GPa)
#
#
# Indices 1 2 3 4 5 6 
#
# 1 61.4355 25.5675 32.9523 8.0812 -1.8996 9.0408
# 2 25.5675 86.7721 55.5127 -2.5922 0.7253 6.4373
# 3 32.9523 55.5127 164.4701 9.4048 -13.2177 18.1602
# 4 8.0812 -2.5922 9.4048 52.0364 7.1515 4.6379
# 5 -1.8996 0.7253 -13.2177 7.1515 31.6486 3.6313
# 6 9.0408 6.4373 18.1602 4.6379 3.6313 17.9867
#
#
#
# Elastic Compliance Matrix: (Units=1/GPa)
#
#
# Indices 1 2 3 4 5 6 
#
# 1 0.020449 -0.004718 -0.001408 -0.002843 0.002179 -0.006875
# 2 -0.004718 0.016210 -0.005182 0.002819 -0.003664 0.001815
# 3 -0.001408 -0.005182 0.009478 -0.001799 0.005272 -0.007607
# 4 -0.002843 0.002819 -0.001799 0.021067 -0.005508 -0.002084
# 5 0.002179 -0.003664 0.005272 -0.005508 0.036527 -0.011061
# 6 -0.006875 0.001815 -0.007607 -0.002084 -0.011061 0.068854
#
#
# Mechanical properties :
#
#
# Convention : Reuss Voigt Hill
#
# Bulk Modulus (GPa) = 42.51461 60.08253 51.29857
# Shear Modulus (GPa) = 24.62564 33.57736 29.10150
#
# Velocity S-wave (km/s) = 3.54777 4.14272 3.85674
# Velocity P-wave (km/s) = 6.20584 7.32068 6.78619
#
# Compressibility (1/GPa) = 0.02352133
#
# Stress axis : x y z
#
# Youngs Moduli (GPa) = 48.90269 61.69056 105.50948
#
# Poissons Ratio (x) = 0.29103 0.14854
# Poissons Ratio (y) = 0.23071 0.54676
# Poissons Ratio (z) = 0.06885 0.31968
#
# Static dielectric constant tensor:
#      x y z
#    x 3.228060 0.184530 0.008020 
#    y 0.184530 3.774180 -0.040770 
#    z 0.008020 -0.040770 4.206500 
# 
# 
# High freq. dielectric constant tensor:
#      x y z
#    x 1.723150 0.016200 0.006530 
#    y 0.016200 1.756260 -0.016780 
#    z 0.006530 -0.016780 1.795530 
# 
# From -- ./inp_files/472194.got.cif
#   From: 2010.06.25/outbox.cif.g09.slc.cpg/sg2_237_cif.got.tgz:472194.got - 2010.06.27 13:26:56.
