data_PCOD8009740
_publ_section_title
;
Structure prediction by ZEFSAII (Michael W. Deem and Ramdas Pophale) SiO2 
 PCOD8009740
Probable space group: P -1
;
_chemical_formula_sum "Si O2"
_cell_formula_units_Z 16
_cell_length_a 13.145926
_cell_length_b 9.182414
_cell_length_c 22.638527
_cell_angle_alpha 135.542501
_cell_angle_beta 153.656028
_cell_angle_gamma 47.774508
_cell_volume 844.701572
_symmetry_space_group_name_H-M "P -1"
_symmetry_group_IT_number 2
_symmetry_cell_setting 'triclinic'
loop_
_space_group_symop_operation_xyz
x,y,z
-x,-y,-z
loop_
_atom_site_type_symbol
_atom_site_label
_atom_site_fract_x
_atom_site_fract_y
_atom_site_fract_z
Si Si1 0.126467 0.852545 0.235401
Si Si2 0.663436 0.791457 0.017376
Si Si3 0.492164 0.567107 0.387333
Si Si4 0.567143 0.502421 0.102532
Si Si5 0.352106 0.529004 0.181695
Si Si6 0.320755 0.808033 0.139261
Si Si7 0.151732 0.276579 0.186808
Si Si8 0.068374 0.312740 0.288477
O O1 0.363922 0.805410 0.383092
O O2 0.122277 0.653920 0.129387
O O3 0.110644 0.068052 0.254042
O O4 0.921940 0.851968 0.176426
O O5 0.605747 0.631774 0.991007
O O6 0.659270 0.692668 0.920631
O O7 0.500000 0.000000 0.000000
O O8 0.535783 0.481113 0.317546
O O9 0.319065 0.434598 0.294270
O O10 0.730726 0.563969 0.544556
O O11 0.505750 0.737950 0.163282
O O12 0.831695 0.413631 0.224211
O O13 0.500000 0.500000 0.000000
O O14 0.427221 0.697116 0.221860
O O15 0.305760 0.055429 0.208415
O O16 0.066604 0.734525 0.973025
O O17 0.058307 0.347795 0.223354
#
# Coordination Sequence:
#
# PCOD8009740 Si02
#       8
#     2   2   2   2   2   2   2   2
#     4  10  21  38  61  85 116 153 197 245 288 340
#     4  11  21  36  60  92 115 145 196 250 295 340
#     4  10  23  37  62  85 119 154 204 239 281 348
#     4  11  23  38  57  86 124 150 187 242 301 346
#     4   9  21  36  59  84 116 149 191 242 292 335
#     4  10  21  37  60  89 114 151 194 248 297 339
#     4  11  21  36  63  88 114 152 200 245 291 339
#     4  12  22  40  59  85 119 164 193 233 295 357
#
# _framework density 18.941600999999999
#
# number of rings (size 3 to 8) (size 9 to 14) (size 15 to 20)
#    0.750    0.750    3.750    2.625    1.750    1.000 
#    0.000    3.125    2.750    0.000    0.000    0.000 
#    0.000    0.000    0.000    0.000    0.000    0.000 
#
# Total GULP energy -198214.230099 kJ/mol
# GULP energy per Si atom -12388.389381 kJ/mol
# Density = 1.889849 g / cm^3
# Si number density = 18.941601 Si / 1000 Ang^3
#
#
#
# Elastic Constant Matrix: (Units=GPa)
#
#
# Indices 1 2 3 4 5 6 
#
# 1 109.1779 26.9502 26.3823 1.0539 -0.1376 0.3201
# 2 26.9502 73.5775 14.5943 4.4006 2.4072 -13.2106
# 3 26.3823 14.5943 59.3557 -2.0307 6.2200 7.3645
# 4 1.0539 4.4006 -2.0307 19.6172 0.3088 -0.7515
# 5 -0.1376 2.4072 6.2200 0.3088 21.3430 -1.1369
# 6 0.3201 -13.2106 7.3645 -0.7515 -1.1369 42.6910
#
#
#
# Elastic Compliance Matrix: (Units=1/GPa)
#
#
# Indices 1 2 3 4 5 6 
#
# 1 0.010997 -0.003284 -0.004225 -0.000330 0.001660 -0.000332
# 2 -0.003284 0.016742 -0.003435 -0.003707 -0.000550 0.005718
# 3 -0.004225 -0.003435 0.020895 0.003074 -0.006026 -0.004742
# 4 -0.000330 -0.003707 0.003074 0.052133 -0.001276 -0.000791
# 5 0.001660 -0.000550 -0.006026 -0.001276 0.048815 0.002134
# 6 -0.000332 0.005718 -0.004742 -0.000791 0.002134 0.026057
#
#
# Mechanical properties :
#
#
# Convention : Reuss Voigt Hill
#
# Bulk Modulus (GPa) = 37.38899 41.99607 39.69253
# Shear Modulus (GPa) = 24.21982 28.34253 26.28118
#
# Velocity S-wave (km/s) = 3.57971 3.87241 3.72894
# Velocity P-wave (km/s) = 6.07188 6.49720 6.28814
#
# Compressibility (1/GPa) = 0.02674584
#
# Stress axis : x y z
#
# Youngs Moduli (GPa) = 90.93272 59.73057 47.85824
#
# Poissons Ratio (x) = 0.19617 0.20218
# Poissons Ratio (y) = 0.29864 0.16441
# Poissons Ratio (z) = 0.38415 0.20520
#
# Static dielectric constant tensor:
#      x y z
#    x 3.734570 -0.142130 -0.029170 
#    y -0.142130 3.733310 -0.014130 
#    z -0.029170 -0.014130 3.162460 
# 
# 
# High freq. dielectric constant tensor:
#      x y z
#    x 1.747500 0.001610 -0.002350 
#    y 0.001610 1.743990 -0.003330 
#    z -0.002350 -0.003330 1.698070 
# 
# From -- ./inp_files/594218.got.cif
#   From: 2010.06.25/outbox.cif.g09.slc.cpg/sg2_298_cif.got.tgz:594218.got - 2010.06.27 13:26:56.
