data_PCOD8009344
_publ_section_title
;
Structure prediction by ZEFSAII (Michael W. Deem and Ramdas Pophale) SiO2 
 PCOD8009344
Probable space group: P -1
;
_chemical_formula_sum "Si O2"
_cell_formula_units_Z 16
_cell_length_a 8.615526
_cell_length_b 14.049270
_cell_length_c 11.503889
_cell_angle_alpha 56.186485
_cell_angle_beta 76.800492
_cell_angle_gamma 42.553895
_cell_volume 740.422070
_symmetry_space_group_name_H-M "P -1"
_symmetry_group_IT_number 2
_symmetry_cell_setting 'triclinic'
loop_
_space_group_symop_operation_xyz
x,y,z
-x,-y,-z
loop_
_atom_site_type_symbol
_atom_site_label
_atom_site_fract_x
_atom_site_fract_y
_atom_site_fract_z
Si Si1 0.948951 0.007593 0.138049
Si Si2 0.296532 0.695300 0.446668
Si Si3 0.774837 0.435055 0.886015
Si Si4 0.057166 0.686464 0.697424
Si Si5 0.075599 0.431344 0.360941
Si Si6 0.495433 0.366078 0.976460
Si Si7 0.616705 0.739031 0.357736
Si Si8 0.846509 0.890079 0.828250
O O1 0.092530 0.820579 0.293543
O O2 0.019399 0.071742 0.169828
O O3 0.000000 0.000000 0.000000
O O4 0.652728 0.162618 0.085150
O O5 0.500000 0.500000 0.500000
O O6 0.167285 0.718633 0.567846
O O7 0.428919 0.741789 0.425235
O O8 0.795549 0.519768 0.727017
O O9 0.672313 0.372184 0.893663
O O10 0.576182 0.580359 0.914517
O O11 0.043079 0.276536 0.005469
O O12 0.261885 0.492636 0.848877
O O13 0.883880 0.689488 0.659467
O O14 0.910078 0.837218 0.716915
O O15 0.205669 0.316948 0.532428
O O16 0.786259 0.606509 0.312116
O O17 0.444246 0.941128 0.217998
#
# Coordination Sequence:
#
# PCOD8009344 Si02
#       8
#     2   2   2   2   2   2   2   2
#     4  10  21  36  61  94 124 151 203 253 300 357
#     4  11  21  39  66  90 119 164 201 251 303 354
#     4   9  19  39  63  86 118 160 196 245 306 351
#     4  11  22  39  65  91 124 158 203 249 305 357
#     4  11  23  38  61  86 123 167 198 249 300 363
#     4   9  19  37  62  90 117 151 203 248 296 360
#     4  10  23  41  58  87 124 158 208 246 298 363
#     4   9  22  40  60  91 121 156 204 253 298 360
#
# _framework density 21.609297000000002
#
# number of rings (size 3 to 8) (size 9 to 14) (size 15 to 20)
#    0.000    2.000    1.250    2.250    1.750    7.000 
#    0.000    1.250    0.000    0.000    0.000    0.000 
#    0.000    0.000    0.000    0.000    0.000    0.000 
#
# Total GULP energy -198256.952138 kJ/mol
# GULP energy per Si atom -12391.059509 kJ/mol
# Density = 2.156011 g / cm^3
# Si number density = 21.609297 Si / 1000 Ang^3
#
#
#
# Elastic Constant Matrix: (Units=GPa)
#
#
# Indices 1 2 3 4 5 6 
#
# 1 55.5399 10.5875 -0.5850 2.7875 3.3648 5.5117
# 2 10.5875 98.5521 27.1209 -20.8908 16.3153 8.8802
# 3 -0.5850 27.1209 62.4445 -11.5719 10.9513 1.1849
# 4 2.7875 -20.8908 -11.5719 40.4526 -5.9251 10.2834
# 5 3.3648 16.3153 10.9513 -5.9251 30.2705 5.4520
# 6 5.5117 8.8802 1.1849 10.2834 5.4520 31.4415
#
#
#
# Elastic Compliance Matrix: (Units=1/GPa)
#
#
# Indices 1 2 3 4 5 6 
#
# 1 0.018821 -0.002358 0.001101 -0.001921 -0.001267 -0.001827
# 2 -0.002358 0.014065 -0.004112 0.007025 -0.003540 -0.005088
# 3 0.001101 -0.004112 0.019042 0.002575 -0.004320 0.000157
# 4 -0.001921 0.007025 0.002575 0.033269 0.004419 -0.013392
# 5 -0.001267 -0.003540 -0.004320 0.004419 0.038733 -0.006777
# 6 -0.001827 -0.005088 0.000157 -0.013392 -0.006777 0.039112
#
#
# Mechanical properties :
#
#
# Convention : Reuss Voigt Hill
#
# Bulk Modulus (GPa) = 24.27684 32.30925 28.29304
# Shear Modulus (GPa) = 26.66548 32.39378 29.52963
#
# Velocity S-wave (km/s) = 3.51662 3.87598 3.70066
# Velocity P-wave (km/s) = 5.26760 5.91734 5.60190
#
# Compressibility (1/GPa) = 0.04119153
#
# Stress axis : x y z
#
# Youngs Moduli (GPa) = 53.13339 71.09658 52.51499
#
# Poissons Ratio (x) = 0.16763 -0.05783
# Poissons Ratio (y) = 0.12528 0.21593
# Poissons Ratio (z) = -0.05851 0.29233
#
# Static dielectric constant tensor:
#      x y z
#    x 3.604650 -0.055800 0.219500 
#    y -0.055800 4.204820 -0.437680 
#    z 0.219500 -0.437680 4.261980 
# 
# 
# High freq. dielectric constant tensor:
#      x y z
#    x 1.818410 0.001620 0.023230 
#    y 0.001620 1.858440 -0.010550 
#    z 0.023230 -0.010550 1.848940 
# 
# From -- ./inp_files/357717.got.cif
#   From: 2010.06.25/outbox.cif.g09.slc.cpg/sg2_179_cif.got.tgz:357717.got - 2010.06.27 13:26:56.
