data_PCOD8009353
_publ_section_title
;
Structure prediction by ZEFSAII (Michael W. Deem and Ramdas Pophale) SiO2 
 PCOD8009353
Probable space group: P -1
;
_chemical_formula_sum "Si O2"
_cell_formula_units_Z 14
_cell_length_a 18.031059
_cell_length_b 23.832455
_cell_length_c 5.218955
_cell_angle_alpha 72.856863
_cell_angle_beta 115.596453
_cell_angle_gamma 161.833463
_cell_volume 574.714515
_symmetry_space_group_name_H-M "P -1"
_symmetry_group_IT_number 2
_symmetry_cell_setting 'triclinic'
loop_
_space_group_symop_operation_xyz
x,y,z
-x,-y,-z
loop_
_atom_site_type_symbol
_atom_site_label
_atom_site_fract_x
_atom_site_fract_y
_atom_site_fract_z
Si Si1 0.879087 0.576918 0.064475
Si Si2 0.691439 0.802000 0.031265
Si Si3 0.114871 0.547421 0.857927
Si Si4 0.881436 0.169175 0.599356
Si Si5 0.616960 0.480387 0.417775
Si Si6 0.126082 0.178398 0.375933
Si Si7 0.281267 0.001228 0.901794
O O1 0.573008 0.354169 0.004305
O O2 0.855750 0.614521 0.774812
O O3 0.993480 0.593846 0.100732
O O4 0.088605 0.742451 0.379418
O O5 0.825808 0.835845 0.311166
O O6 0.590424 0.714014 0.715871
O O7 0.910389 0.004471 0.077583
O O8 0.000000 0.500000 0.500000
O O9 0.000000 0.500000 0.000000
O O10 0.446311 0.774693 0.035032
O O11 0.713698 0.045382 0.250959
O O12 0.207146 0.372004 0.755879
O O13 0.728602 0.029076 0.782215
O O14 0.420407 0.393322 0.386139
O O15 0.996152 0.148362 0.347865
#
# Coordination Sequence:
#
# PCOD8009353 Si02
#       7
#     2   2   2   2   2   2   2
#     4  10  22  47  73  99 143 187 230 288 345 426
#     4   9  19  37  63 103 140 190 236 278 342 409
#     4  12  29  51  79 109 131 174 240 305 363 408
#     4  11  25  45  71 103 149 193 226 268 364 416
#     4  10  21  39  68 102 143 198 229 267 334 430
#     4  10  21  36  62 105 146 187 238 279 339 402
#     4  12  26  47  71 105 147 181 231 302 341 410
#
# _framework density 24.359922000000001
#
# number of rings (size 3 to 8) (size 9 to 14) (size 15 to 20)
#    0.000    1.429    2.857    1.286    6.000    2.286 
#    0.000    4.286    0.000    0.000    0.000    0.000 
#    0.000    0.000    0.000    0.000    0.000    0.000 
#
# Total GULP energy -173466.992972 kJ/mol
# GULP energy per Si atom -12390.499498 kJ/mol
# Density = 2.430448 g / cm^3
# Si number density = 24.359922 Si / 1000 Ang^3
#
#
#
# Elastic Constant Matrix: (Units=GPa)
#
#
# Indices 1 2 3 4 5 6 
#
# 1 136.4675 31.0327 34.4324 -8.9424 -11.9111 11.5739
# 2 31.0327 87.9288 0.3473 -13.0191 -10.1456 13.5637
# 3 34.4324 0.3473 69.3940 -2.6050 -22.0257 6.3904
# 4 -8.9424 -13.0191 -2.6050 27.6071 -0.6537 -11.3333
# 5 -11.9111 -10.1456 -22.0257 -0.6537 41.0263 3.0879
# 6 11.5739 13.5637 6.3904 -11.3333 3.0879 28.2118
#
#
#
# Elastic Compliance Matrix: (Units=1/GPa)
#
#
# Indices 1 2 3 4 5 6 
#
# 1 0.009276 -0.003054 -0.004618 0.000728 -0.000459 -0.000948
# 2 -0.003054 0.014483 0.003747 0.004061 0.005185 -0.005495
# 3 -0.004618 0.003747 0.020766 0.000120 0.011172 -0.005786
# 4 0.000728 0.004061 0.000120 0.044825 0.000817 0.015639
# 5 -0.000459 0.005185 0.011172 0.000817 0.032139 -0.008025
# 6 -0.000948 -0.005495 -0.005786 0.015639 -0.008025 0.046948
#
#
# Mechanical properties :
#
#
# Convention : Reuss Voigt Hill
#
# Bulk Modulus (GPa) = 27.26646 47.26834 37.26740
# Shear Modulus (GPa) = 26.52348 34.56754 30.54551
#
# Velocity S-wave (km/s) = 3.30330 3.77109 3.54492
# Velocity P-wave (km/s) = 5.07607 6.19740 5.66455
#
# Compressibility (1/GPa) = 0.03667510
#
# Stress axis : x y z
#
# Youngs Moduli (GPa) = 107.81007 69.04534 48.15449
#
# Poissons Ratio (x) = 0.21088 0.22238
# Poissons Ratio (y) = 0.32928 -0.18044
# Poissons Ratio (z) = 0.49787 -0.25873
#
# Static dielectric constant tensor:
#      x y z
#    x 4.416860 0.019460 -0.363800 
#    y 0.019460 4.482330 0.194830 
#    z -0.363800 0.194830 4.140510 
# 
# 
# High freq. dielectric constant tensor:
#      x y z
#    x 1.966260 0.001780 -0.037070 
#    y 0.001780 1.976640 0.010900 
#    z -0.037070 0.010900 1.935030 
# 
# From -- ./inp_files/112669.got.cif
#   From: 2010.06.25/outbox.cif.g09.slc.cpg/sg2_57_cif.got.tgz:112669.got - 2010.06.27 13:26:56.
