data_PCOD8009812
_publ_section_title
;
Structure prediction by ZEFSAII (Michael W. Deem and Ramdas Pophale) SiO2 
 PCOD8009812
Probable space group: P -1
;
_chemical_formula_sum "Si O2"
_cell_formula_units_Z 12
_cell_length_a 8.624634
_cell_length_b 9.787108
_cell_length_c 9.084113
_cell_angle_alpha 103.964868
_cell_angle_beta 66.932576
_cell_angle_gamma 58.165586
_cell_volume 491.149931
_symmetry_space_group_name_H-M "P -1"
_symmetry_group_IT_number 2
_symmetry_cell_setting 'triclinic'
loop_
_space_group_symop_operation_xyz
x,y,z
-x,-y,-z
loop_
_atom_site_type_symbol
_atom_site_label
_atom_site_fract_x
_atom_site_fract_y
_atom_site_fract_z
Si Si1 0.867869 0.815482 0.054949
Si Si2 0.199604 0.808225 0.116432
Si Si3 0.368520 0.263303 0.699970
Si Si4 0.594528 0.417647 0.729690
Si Si5 0.995783 0.771115 0.680125
Si Si6 0.637837 0.866266 0.624090
O O1 0.014952 0.702101 0.821643
O O2 0.982418 0.867909 0.126929
O O3 0.849850 0.677226 0.112168
O O4 0.604374 0.024598 0.168838
O O5 0.442419 0.641722 0.892692
O O6 0.219706 0.727815 0.249571
O O7 0.154462 0.998706 0.200008
O O8 0.406683 0.401478 0.770717
O O9 0.314666 0.285451 0.551179
O O10 0.605060 0.033610 0.589208
O O11 0.740630 0.362380 0.513005
O O12 0.855584 0.743070 0.622607
#
# Coordination Sequence:
#
# PCOD8009812 Si02
#       6
#     2   2   2   2   2   2
#     4  10  21  37  61  90 121 160 195 248 304 354
#     4  11  23  40  61  92 122 157 205 241 301 358
#     4   9  19  38  60  90 114 158 208 236 295 352
#     4  11  24  39  65  90 119 160 202 253 288 358
#     4  12  22  39  66  89 125 155 196 253 304 355
#     4   9  19  36  63  90 114 158 208 237 295 357
#
# _framework density 24.432459000000001
#
# number of rings (size 3 to 8) (size 9 to 14) (size 15 to 20)
#    1.000    0.667    1.667    3.500    0.000    1.333 
#    0.000    1.667    0.000   11.000    0.000    0.000 
#    0.000    0.000    0.000    0.000    0.000    0.000 
#
# Total GULP energy -148791.010392 kJ/mol
# GULP energy per Si atom -12399.250866 kJ/mol
# Density = 2.437685 g / cm^3
# Si number density = 24.432459 Si / 1000 Ang^3
#
#
#
# Elastic Constant Matrix: (Units=GPa)
#
#
# Indices 1 2 3 4 5 6 
#
# 1 120.9018 16.0690 36.2383 -21.1919 12.4280 -20.1228
# 2 16.0690 -6.7787 30.2190 10.2278 -2.3876 -7.3102
# 3 36.2383 30.2190 172.3770 -23.8834 -7.4074 15.6618
# 4 -21.1919 10.2278 -23.8834 39.9862 0.3764 11.9329
# 5 12.4280 -2.3876 -7.4074 0.3764 38.0638 -5.8164
# 6 -20.1228 -7.3102 15.6618 11.9329 -5.8164 13.2024
#
#
#
# Elastic Compliance Matrix: (Units=1/GPa)
#
#
# Indices 1 2 3 4 5 6 
#
# 1 0.014147 -0.006032 -0.003945 0.000271 -0.002472 0.021568
# 2 -0.006032 -0.013856 0.011674 0.023569 -0.005157 -0.054289
# 3 -0.003945 0.011674 0.004742 -0.001448 0.002538 -0.002748
# 4 0.000271 0.023569 -0.001448 0.018661 0.000714 -0.001371
# 5 -0.002472 -0.005157 0.002538 0.000714 0.027524 0.001847
# 6 0.021568 -0.054289 -0.002748 -0.001371 0.001847 0.083871
#
#
# Mechanical properties :
#
#
# Convention : Reuss Voigt Hill
#
# Bulk Modulus (GPa) = 118.66713 50.17251 84.41982
# Shear Modulus (GPa) = 37.17341 31.84875 34.51108
#
# Velocity S-wave (km/s) = 3.90484 3.61438 3.76241
# Velocity P-wave (km/s) = 8.30694 6.16426 7.31448
#
# Compressibility (1/GPa) = 0.00842693
#
# Stress axis : x y z
#
# Youngs Moduli (GPa) = 70.68796 -72.17269 210.87262
#
# Poissons Ratio (x) = -0.43533 0.83189
# Poissons Ratio (y) = 0.42638 -2.46165
# Poissons Ratio (z) = 0.27886 0.84252
#
# Static dielectric constant tensor:
#      x y z
#    x 4.138020 -0.094950 0.148730 
#    y -0.094950 3.897060 -0.113370 
#    z 0.148730 -0.113370 4.369440 
# 
# 
# High freq. dielectric constant tensor:
#      x y z
#    x 1.968450 -0.010870 0.009770 
#    y -0.010870 1.943200 0.003880 
#    z 0.009770 0.003880 1.979920 
# 
# From -- ./inp_files/165399.got.cif
#   From: 2010.06.25/outbox.cif.g09.slc.cpg/sg2_83_cif.got.tgz:165399.got - 2010.06.27 13:26:56.
