data_PCOD8009561
_publ_section_title
;
Structure prediction by ZEFSAII (Michael W. Deem and Ramdas Pophale) SiO2 
 PCOD8009561
Probable space group: P -1
;
_chemical_formula_sum "Si O2"
_cell_formula_units_Z 16
_cell_length_a 20.187586
_cell_length_b 7.297607
_cell_length_c 8.510066
_cell_angle_alpha 96.802924
_cell_angle_beta 127.929263
_cell_angle_gamma 53.069835
_cell_volume 725.220755
_symmetry_space_group_name_H-M "P -1"
_symmetry_group_IT_number 2
_symmetry_cell_setting 'triclinic'
loop_
_space_group_symop_operation_xyz
x,y,z
-x,-y,-z
loop_
_atom_site_type_symbol
_atom_site_label
_atom_site_fract_x
_atom_site_fract_y
_atom_site_fract_z
Si Si1 0.161832 0.375490 0.821616
Si Si2 0.288293 0.837975 0.972675
Si Si3 0.865520 0.318420 0.750799
Si Si4 0.521389 0.606997 0.401855
Si Si5 0.787672 0.743776 0.466623
Si Si6 0.039959 0.197911 0.220464
Si Si7 0.707007 0.510334 0.822441
Si Si8 0.377785 0.714241 0.771828
O O1 0.157647 0.403648 0.631517
O O2 0.042399 0.621031 0.739041
O O3 0.268858 0.334032 0.039732
O O4 0.181463 0.132075 0.873258
O O5 0.400344 0.804165 0.159151
O O6 0.280378 0.675379 0.055307
O O7 0.290380 0.768357 0.784620
O O8 0.783819 0.572388 0.556494
O O9 0.800801 0.336720 0.809511
O O10 0.906362 0.081462 0.685529
O O11 0.973125 0.278774 0.965606
O O12 0.500000 0.500000 0.500000
O O13 0.579715 0.700623 0.578311
O O14 0.621090 0.390933 0.404628
O O15 0.861649 0.797810 0.657601
O O16 0.659486 0.015880 0.285593
O O17 0.500000 0.500000 0.000000
#
# Coordination Sequence:
#
# PCOD8009561 Si02
#       8
#     2   2   2   2   2   2   2   2
#     4  10  23  37  57  88 115 156 203 242 295 353
#     4   9  20  39  60  82 117 158 198 242 296 354
#     4  10  23  38  59  92 119 154 201 246 301 351
#     4   9  18  34  60  86 113 154 192 237 299 348
#     4  11  22  39  64  88 119 159 199 244 298 357
#     4  10  22  40  58  85 123 158 199 248 296 351
#     4  10  21  37  57  85 121 154 197 252 293 347
#     4   9  19  38  63  89 116 152 196 240 293 354
#
# _framework density 22.062249000000001
#
# number of rings (size 3 to 8) (size 9 to 14) (size 15 to 20)
#    0.000    2.250    0.000    1.500    0.000   13.000 
#    0.000    2.500    0.000   18.750    0.000    0.000 
#    0.000    0.000    0.000    0.000    0.000    0.000 
#
# Total GULP energy -198219.259848 kJ/mol
# GULP energy per Si atom -12388.703740 kJ/mol
# Density = 2.201203 g / cm^3
# Si number density = 22.062249 Si / 1000 Ang^3
#
#
#
# Elastic Constant Matrix: (Units=GPa)
#
#
# Indices 1 2 3 4 5 6 
#
# 1 81.0592 51.6326 23.6793 -3.0127 -20.0381 -4.7287
# 2 51.6326 125.0232 27.8824 -16.8942 -19.9783 -10.9299
# 3 23.6793 27.8824 61.9685 -2.1503 -10.0221 -3.9948
# 4 -3.0127 -16.8942 -2.1503 38.4392 6.2204 -4.0930
# 5 -20.0381 -19.9783 -10.0221 6.2204 38.7299 -0.4422
# 6 -4.7287 -10.9299 -3.9948 -4.0930 -0.4422 22.6385
#
#
#
# Elastic Compliance Matrix: (Units=1/GPa)
#
#
# Indices 1 2 3 4 5 6 
#
# 1 0.018776 -0.006387 -0.003435 -0.002498 0.005931 -0.000104
# 2 -0.006387 0.012632 -0.002428 0.005188 0.001811 0.005310
# 3 -0.003435 -0.002428 0.018934 -0.000444 0.001957 0.001409
# 4 -0.002498 0.005188 -0.000444 0.029381 -0.003369 0.007151
# 5 0.005931 0.001811 0.001957 -0.003369 0.030898 0.002453
# 6 -0.000104 0.005310 0.001409 0.007151 0.002453 0.048304
#
#
# Mechanical properties :
#
#
# Convention : Reuss Voigt Hill
#
# Bulk Modulus (GPa) = 38.69637 52.71549 45.70593
# Shear Modulus (GPa) = 26.03636 30.95195 28.49416
#
# Velocity S-wave (km/s) = 3.43903 3.74964 3.59769
# Velocity P-wave (km/s) = 5.77468 6.53393 6.16601
#
# Compressibility (1/GPa) = 0.02584222
#
# Stress axis : x y z
#
# Youngs Moduli (GPa) = 53.26059 79.16197 52.81417
#
# Poissons Ratio (x) = 0.50561 0.18141
# Poissons Ratio (y) = 0.34017 0.12824
# Poissons Ratio (z) = 0.18295 0.19221
#
# Static dielectric constant tensor:
#      x y z
#    x 3.881850 -0.245670 0.030830 
#    y -0.245670 3.974200 0.188410 
#    z 0.030830 0.188410 4.550790 
# 
# 
# High freq. dielectric constant tensor:
#      x y z
#    x 1.850170 -0.015340 -0.007240 
#    y -0.015340 1.858820 0.004110 
#    z -0.007240 0.004110 1.882440 
# 
# From -- ./inp_files/340508.got.cif
#   From: 2010.06.25/outbox.cif.g09.slc.cpg/sg2_171_cif.got.tgz:340508.got - 2010.06.27 13:26:56.
