data_PCOD8009865
_publ_section_title
;
Structure prediction by ZEFSAII (Michael W. Deem and Ramdas Pophale) SiO2 
 PCOD8009865
Probable space group: P -1
;
_chemical_formula_sum "Si O2"
_cell_formula_units_Z 16
_cell_length_a 13.557287
_cell_length_b 11.119545
_cell_length_c 9.575693
_cell_angle_alpha 84.735273
_cell_angle_beta 113.653058
_cell_angle_gamma 138.113129
_cell_volume 830.766127
_symmetry_space_group_name_H-M "P -1"
_symmetry_group_IT_number 2
_symmetry_cell_setting 'triclinic'
loop_
_space_group_symop_operation_xyz
x,y,z
-x,-y,-z
loop_
_atom_site_type_symbol
_atom_site_label
_atom_site_fract_x
_atom_site_fract_y
_atom_site_fract_z
Si Si1 0.613561 0.569790 0.763971
Si Si2 0.742678 0.775834 0.531099
Si Si3 0.188543 0.923985 0.322360
Si Si4 0.489212 0.259127 0.264247
Si Si5 0.617736 0.194766 0.122967
Si Si6 0.817807 0.585774 0.096133
Si Si7 0.845591 0.656240 0.427836
Si Si8 0.127021 0.718830 0.556740
O O1 0.726464 0.691079 0.677832
O O2 0.438010 0.357103 0.633739
O O3 0.582031 0.668787 0.816847
O O4 0.707986 0.564726 0.925683
O O5 0.861137 0.801082 0.491859
O O6 0.832055 0.980950 0.591937
O O7 0.198176 0.812618 0.433704
O O8 0.018027 0.765465 0.145695
O O9 0.362053 0.082839 0.317620
O O10 0.499000 0.186081 0.139837
O O11 0.678929 0.440504 0.419833
O O12 0.746873 0.385784 0.079428
O O13 0.715584 0.184074 0.273774
O O14 0.500000 0.000000 0.000000
O O15 0.808794 0.632278 0.242955
O O16 0.018706 0.736679 0.555730
O O17 0.000000 0.500000 0.500000
#
# Coordination Sequence:
#
# PCOD8009865 Si02
#       8
#     2   2   2   2   2   2   2   2
#     4   9  19  37  58  87 121 151 180 240 287 346
#     4   9  19  35  58  91 118 142 194 232 286 345
#     4  10  21  37  62  88 112 149 191 236 286 346
#     4   9  19  38  60  83 114 148 191 226 289 342
#     4  11  24  42  55  82 115 151 197 238 276 341
#     4  10  21  38  60  82 122 151 189 234 297 329
#     4   9  19  38  61  85 118 152 188 234 286 341
#     4  11  20  41  59  78 114 154 190 239 282 330
#
# _framework density 19.259329999999999
#
# number of rings (size 3 to 8) (size 9 to 14) (size 15 to 20)
#    0.000    2.250    3.750    0.750    1.750    9.000 
#    4.500    0.625    0.000    0.000    0.000    0.000 
#    0.000    0.000    0.000    0.000    0.000    0.000 
#
# Total GULP energy -198258.733310 kJ/mol
# GULP energy per Si atom -12391.170832 kJ/mol
# Density = 1.921550 g / cm^3
# Si number density = 19.259330 Si / 1000 Ang^3
#
#
#
# Elastic Constant Matrix: (Units=GPa)
#
#
# Indices 1 2 3 4 5 6 
#
# 1 52.8420 14.7164 35.9808 -0.7834 2.7238 1.4608
# 2 14.7164 113.3922 40.3712 3.5257 7.5736 0.6980
# 3 35.9808 40.3712 120.1963 -3.1154 24.3081 -12.6710
# 4 -0.7834 3.5257 -3.1154 30.0205 -12.1067 -1.4527
# 5 2.7238 7.5736 24.3081 -12.1067 33.5017 5.0882
# 6 1.4608 0.6980 -12.6710 -1.4527 5.0882 31.2983
#
#
#
# Elastic Compliance Matrix: (Units=1/GPa)
#
#
# Indices 1 2 3 4 5 6 
#
# 1 0.025213 -0.000429 -0.009262 0.002043 0.006396 -0.005862
# 2 -0.000429 0.010189 -0.003499 -0.001686 -0.000083 -0.001688
# 3 -0.009262 -0.003499 0.015533 -0.002636 -0.011989 0.008625
# 4 0.002043 -0.001686 -0.002636 0.040002 0.016890 -0.002014
# 5 0.006396 -0.000083 -0.011989 0.016890 0.045948 -0.011836
# 6 -0.005862 -0.001688 0.008625 -0.002014 -0.011836 0.037585
#
#
# Mechanical properties :
#
#
# Convention : Reuss Voigt Hill
#
# Bulk Modulus (GPa) = 40.72454 52.06305 46.39380
# Shear Modulus (GPa) = 23.91958 31.98824 27.95391
#
# Velocity S-wave (km/s) = 3.52799 4.07986 3.81392
# Velocity P-wave (km/s) = 6.14710 7.02033 6.59818
#
# Compressibility (1/GPa) = 0.02455522
#
# Stress axis : x y z
#
# Youngs Moduli (GPa) = 39.66204 98.14886 64.37939
#
# Poissons Ratio (x) = 0.04214 0.59627
# Poissons Ratio (y) = 0.01703 0.22523
# Poissons Ratio (z) = 0.36734 0.34338
#
# Static dielectric constant tensor:
#      x y z
#    x 3.563540 0.073150 -0.084300 
#    y 0.073150 3.762930 0.115880 
#    z -0.084300 0.115880 3.129990 
# 
# 
# High freq. dielectric constant tensor:
#      x y z
#    x 1.740390 0.002330 0.007020 
#    y 0.002330 1.767550 0.008850 
#    z 0.007020 0.008850 1.725420 
# 
# From -- ./inp_files/305168.got.cif
#   From: 2010.06.25/outbox.cif.g09.slc.cpg/sg2_153_cif.got.tgz:305168.got - 2010.06.27 13:26:56.
