data_PCOD8009334
_publ_section_title
;
Structure prediction by ZEFSAII (Michael W. Deem and Ramdas Pophale) SiO2 
 PCOD8009334
Probable space group: P -1
;
_chemical_formula_sum "Si O2"
_cell_formula_units_Z 16
_cell_length_a 17.834128
_cell_length_b 8.450786
_cell_length_c 11.375927
_cell_angle_alpha 53.959493
_cell_angle_beta 149.416659
_cell_angle_gamma 118.348189
_cell_volume 703.263567
_symmetry_space_group_name_H-M "P -1"
_symmetry_group_IT_number 2
_symmetry_cell_setting 'triclinic'
loop_
_space_group_symop_operation_xyz
x,y,z
-x,-y,-z
loop_
_atom_site_type_symbol
_atom_site_label
_atom_site_fract_x
_atom_site_fract_y
_atom_site_fract_z
Si Si1 0.342782 0.332062 0.697034
Si Si2 0.401724 0.171717 0.096506
Si Si3 0.656529 0.399119 0.065566
Si Si4 0.872970 0.950936 0.125898
Si Si5 0.043448 0.614138 0.622703
Si Si6 0.036005 0.244201 0.906359
Si Si7 0.714984 0.240926 0.463400
Si Si8 0.926705 0.717570 0.804380
O O1 0.300261 0.552871 0.581469
O O2 0.221503 0.250269 0.484768
O O3 0.364303 0.191170 0.899888
O O4 0.499457 0.330601 0.839302
O O5 0.578730 0.115001 0.375867
O O6 0.356854 0.376133 0.010864
O O7 0.301159 0.012137 0.090021
O O8 0.779717 0.362718 0.146295
O O9 0.712060 0.265873 0.308925
O O10 0.878120 0.845279 0.051547
O O11 0.950104 0.823294 0.393852
O O12 0.947883 0.153911 0.135508
O O13 0.000368 0.482184 0.733748
O O14 0.000000 0.500000 0.500000
O O15 0.879125 0.142446 0.758786
O O16 0.122395 0.215969 0.158350
O O17 0.000000 0.500000 0.000000
#
# Coordination Sequence:
#
# PCOD8009334 Si02
#       8
#     2   2   2   2   2   2   2   2
#     4   9  19  34  56  85 120 158 188 225 304 352
#     4   9  17  32  60  94 110 141 197 256 280 328
#     4   9  14  30  60  90 115 142 190 250 290 335
#     4  11  22  37  63  92 113 148 207 248 283 333
#     4  10  16  31  62  92 112 134 199 255 287 315
#     4  11  20  38  63  89 118 155 195 240 290 351
#     4   9  15  30  60  88 113 145 192 242 291 333
#     4  12  26  41  54  81 129 169 187 226 298 369
#
# _framework density 22.751072000000001
#
# number of rings (size 3 to 8) (size 9 to 14) (size 15 to 20)
#    0.000    2.000    6.250    2.625    0.000    0.500 
#    0.000    1.875    0.000    0.000    0.000    0.000 
#    0.000    0.000    0.000    0.000    0.000    0.000 
#
# Total GULP energy -198268.280213 kJ/mol
# GULP energy per Si atom -12391.767513 kJ/mol
# Density = 2.269929 g / cm^3
# Si number density = 22.751072 Si / 1000 Ang^3
#
#
#
# Elastic Constant Matrix: (Units=GPa)
#
#
# Indices 1 2 3 4 5 6 
#
# 1 94.6695 30.8587 61.5448 32.0755 20.8962 28.9126
# 2 30.8587 82.1088 21.4019 22.7184 -3.1844 27.0439
# 3 61.5448 21.4019 105.2357 47.7766 11.0964 8.5939
# 4 32.0755 22.7184 47.7766 32.7595 10.9697 10.2465
# 5 20.8962 -3.1844 11.0964 10.9697 42.2484 7.4591
# 6 28.9126 27.0439 8.5939 10.2465 7.4591 31.2627
#
#
#
# Elastic Compliance Matrix: (Units=1/GPa)
#
#
# Indices 1 2 3 4 5 6 
#
# 1 0.026846 -0.001765 -0.016241 0.007236 -0.007600 -0.019395
# 2 -0.001765 0.022310 0.006766 -0.022134 0.009073 -0.014437
# 3 -0.016241 0.006766 0.040961 -0.056216 0.009915 0.013967
# 4 0.007236 -0.022134 -0.056216 0.131487 -0.022906 -0.009722
# 5 -0.007600 0.009073 0.009915 -0.022906 0.032109 -0.003699
# 6 -0.019395 -0.014437 0.013967 -0.009722 -0.003699 0.062642
#
#
# Mechanical properties :
#
#
# Convention : Reuss Voigt Hill
#
# Bulk Modulus (GPa) = 14.78514 56.62496 35.70505
# Shear Modulus (GPa) = 13.83585 32.46804 23.15194
#
# Velocity S-wave (km/s) = 2.46873 3.78179 3.19348
# Velocity P-wave (km/s) = 3.82608 6.63417 5.41531
#
# Compressibility (1/GPa) = 0.06763547
#
# Stress axis : x y z
#
# Youngs Moduli (GPa) = 37.24962 44.82321 24.41374
#
# Poissons Ratio (x) = 0.07911 0.39651
# Poissons Ratio (y) = 0.06575 -0.16518
# Poissons Ratio (z) = 0.60498 -0.30327
#
# Static dielectric constant tensor:
#      x y z
#    x 4.345050 0.532990 0.275680 
#    y 0.532990 4.029410 0.156570 
#    z 0.275680 0.156570 4.437380 
# 
# 
# High freq. dielectric constant tensor:
#      x y z
#    x 1.885710 0.026220 0.016690 
#    y 0.026220 1.871010 0.011160 
#    z 0.016690 0.011160 1.889050 
# 
# From -- ./inp_files/262307.got.cif
#   From: 2010.06.25/outbox.cif.g09.slc.cpg/sg2_132_cif.got.tgz:262307.got - 2010.06.27 13:26:56.
