data_PCOD8009760
_publ_section_title
;
Structure prediction by ZEFSAII (Michael W. Deem and Ramdas Pophale) SiO2 
 PCOD8009760
Probable space group: P -1
;
_chemical_formula_sum "Si O2"
_cell_formula_units_Z 12
_cell_length_a 12.221253
_cell_length_b 7.260544
_cell_length_c 8.710659
_cell_angle_alpha 85.577041
_cell_angle_beta 109.524508
_cell_angle_gamma 120.586044
_cell_volume 622.994504
_symmetry_space_group_name_H-M "P -1"
_symmetry_group_IT_number 2
_symmetry_cell_setting 'triclinic'
loop_
_space_group_symop_operation_xyz
x,y,z
-x,-y,-z
loop_
_atom_site_type_symbol
_atom_site_label
_atom_site_fract_x
_atom_site_fract_y
_atom_site_fract_z
Si Si1 0.987033 0.516327 0.246075
Si Si2 0.216191 0.703573 0.099752
Si Si3 0.934398 0.743650 0.481092
Si Si4 0.614519 0.480820 0.358674
Si Si5 0.456273 0.703758 0.332059
Si Si6 0.483567 0.067352 0.155605
O O1 0.970398 0.673198 0.343479
O O2 0.112746 0.670375 0.187336
O O3 0.008553 0.337031 0.350181
O O4 0.853482 0.391762 0.089095
O O5 0.304516 0.593616 0.194894
O O6 0.321077 0.962150 0.113813
O O7 0.774306 0.635645 0.432055
O O8 0.000000 0.000000 0.500000
O O9 0.542282 0.616450 0.294977
O O10 0.553211 0.330972 0.488781
O O11 0.570821 0.323059 0.201463
O O12 0.536062 0.958896 0.312861
O O13 0.500000 0.000000 0.000000
#
# Coordination Sequence:
#
# PCOD8009760 Si02
#       6
#     2   2   2   2   2   2
#     4  10  21  43  62  81 127 153 197 242 281 359
#     4   9  20  42  61  88 116 161 191 238 300 340
#     4  11  24  39  62  89 115 160 197 240 293 345
#     4  11  21  40  62  87 120 154 195 247 289 347
#     4   9  22  38  61  89 119 151 197 240 292 351
#     4  10  21  37  60  92 117 151 191 243 301 340
#
# _framework density 19.261804999999999
#
# number of rings (size 3 to 8) (size 9 to 14) (size 15 to 20)
#    1.000    1.000    1.667    1.500    0.000    7.333 
#    3.000    1.667    0.000    0.000    0.000    0.000 
#    0.000    0.000    0.000    0.000    0.000    0.000 
#
# Total GULP energy -148698.763436 kJ/mol
# GULP energy per Si atom -12391.563620 kJ/mol
# Density = 1.921796 g / cm^3
# Si number density = 19.261805 Si / 1000 Ang^3
#
#
#
# Elastic Constant Matrix: (Units=GPa)
#
#
# Indices 1 2 3 4 5 6 
#
# 1 102.1450 37.5515 33.0587 8.6253 5.7580 -14.0821
# 2 37.5515 97.8659 20.8383 18.9198 -7.9269 -4.2306
# 3 33.0587 20.8383 77.3874 14.5140 -1.3330 -8.2731
# 4 8.6253 18.9198 14.5140 21.1786 0.1228 -6.2529
# 5 5.7580 -7.9269 -1.3330 0.1228 32.8424 -4.3398
# 6 -14.0821 -4.2306 -8.2731 -6.2529 -4.3398 24.9484
#
#
#
# Elastic Compliance Matrix: (Units=1/GPa)
#
#
# Indices 1 2 3 4 5 6 
#
# 1 0.013812 -0.005038 -0.004693 0.003824 -0.003075 0.005809
# 2 -0.005038 0.014637 0.000255 -0.011978 0.004133 -0.002560
# 3 -0.004693 0.000255 0.016774 -0.009569 0.001714 0.000857
# 4 0.003824 -0.011978 -0.009569 0.066855 -0.002444 0.013285
# 5 -0.003075 0.004133 0.001714 -0.002444 0.032672 0.004604
# 6 0.005809 -0.002560 0.000857 0.013285 0.004604 0.047342
#
#
# Mechanical properties :
#
#
# Convention : Reuss Voigt Hill
#
# Bulk Modulus (GPa) = 38.06516 51.14394 44.60455
# Shear Modulus (GPa) = 22.74785 28.19053 25.46919
#
# Velocity S-wave (km/s) = 3.44027 3.82978 3.64024
# Velocity P-wave (km/s) = 5.96536 6.79455 6.39341
#
# Compressibility (1/GPa) = 0.02627074
#
# Stress axis : x y z
#
# Youngs Moduli (GPa) = 72.39980 68.32199 59.61652
#
# Poissons Ratio (x) = 0.34419 0.27978
# Poissons Ratio (y) = 0.36474 -0.01519
# Poissons Ratio (z) = 0.33977 -0.01741
#
# Static dielectric constant tensor:
#      x y z
#    x 3.625190 0.052500 0.030310 
#    y 0.052500 3.489840 -0.105920 
#    z 0.030310 -0.105920 3.534400 
# 
# 
# High freq. dielectric constant tensor:
#      x y z
#    x 1.760430 0.006740 -0.003930 
#    y 0.006740 1.729510 -0.005260 
#    z -0.003930 -0.005260 1.757920 
# 
# From -- ./inp_files/108927.got.cif
#   From: 2010.06.25/outbox.cif.g09.slc.cpg/sg2_55_cif.got.tgz:108927.got - 2010.06.27 13:26:56.
