data_PCOD8009455
_publ_section_title
;
Structure prediction by ZEFSAII (Michael W. Deem and Ramdas Pophale) SiO2 
 PCOD8009455
Probable space group: P -1
;
_chemical_formula_sum "Si O2"
_cell_formula_units_Z 14
_cell_length_a 9.712754
_cell_length_b 7.432874
_cell_length_c 14.265843
_cell_angle_alpha 75.809309
_cell_angle_beta 142.057537
_cell_angle_gamma 110.332158
_cell_volume 593.056232
_symmetry_space_group_name_H-M "P -1"
_symmetry_group_IT_number 2
_symmetry_cell_setting 'triclinic'
loop_
_space_group_symop_operation_xyz
x,y,z
-x,-y,-z
loop_
_atom_site_type_symbol
_atom_site_label
_atom_site_fract_x
_atom_site_fract_y
_atom_site_fract_z
Si Si1 0.646948 0.818806 0.082517
Si Si2 0.224741 0.947228 0.170908
Si Si3 0.206532 0.548812 0.817856
Si Si4 0.045698 0.514387 0.131281
Si Si5 0.110837 0.117401 0.263008
Si Si6 0.627192 0.942271 0.261158
Si Si7 0.101555 0.218909 0.446254
O O1 0.747169 0.635677 0.184965
O O2 0.556142 0.894247 0.120610
O O3 0.425135 0.741221 0.903115
O O4 0.844733 0.989162 0.119433
O O5 0.208055 0.724598 0.209653
O O6 0.430898 0.018793 0.198582
O O7 0.277509 0.043542 0.290125
O O8 0.000000 0.000000 0.000000
O O9 0.180958 0.506262 0.921834
O O10 0.964483 0.583521 0.644545
O O11 0.157523 0.342303 0.238116
O O12 0.000000 0.500000 0.000000
O O13 0.165493 0.103842 0.404337
O O14 0.683825 0.756143 0.369121
O O15 0.864528 0.102640 0.382078
#
# Coordination Sequence:
#
# PCOD8009455 Si02
#       7
#     2   2   2   2   2   2   2
#     4  10  21  38  66  93 125 165 208 267 306 359
#     4  12  24  38  64  94 127 165 205 257 319 365
#     4  10  21  36  64  96 123 161 218 253 311 371
#     4  11  21  36  58  93 128 158 204 253 309 379
#     4  10  22  40  63  90 130 165 202 261 310 367
#     4  10  23  42  62  91 125 168 206 258 313 367
#     4   9  22  42  65  89 124 166 213 253 307 377
#
# _framework density 23.606529999999999
#
# number of rings (size 3 to 8) (size 9 to 14) (size 15 to 20)
#    0.000    1.714    2.857    0.857    4.000    4.000 
#    2.571    2.857    0.000    0.000    0.000    0.000 
#    0.000    0.000    0.000    0.000    0.000    0.000 
#
# Total GULP energy -173436.578381 kJ/mol
# GULP energy per Si atom -12388.327027 kJ/mol
# Density = 2.355280 g / cm^3
# Si number density = 23.606530 Si / 1000 Ang^3
#
#
#
# Elastic Constant Matrix: (Units=GPa)
#
#
# Indices 1 2 3 4 5 6 
#
# 1 167.2143 27.5035 10.2343 -5.2426 8.9874 -10.2941
# 2 27.5035 108.8912 -5.2536 3.1704 1.6344 -12.5565
# 3 10.2343 -5.2536 64.8950 -22.5526 2.4947 2.8972
# 4 -5.2426 3.1704 -22.5526 23.9251 -1.9250 0.0878
# 5 8.9874 1.6344 2.4947 -1.9250 21.6236 -7.6802
# 6 -10.2941 -12.5565 2.8972 0.0878 -7.6802 39.3578
#
#
#
# Elastic Compliance Matrix: (Units=1/GPa)
#
#
# Indices 1 2 3 4 5 6 
#
# 1 0.006478 -0.001568 -0.000892 0.000613 -0.002116 0.000845
# 2 -0.001568 0.009958 0.000498 -0.001142 0.000763 0.002882
# 3 -0.000892 0.000498 0.023209 0.021531 -0.001158 -0.002057
# 4 0.000613 -0.001142 0.021531 0.062577 0.002400 -0.001460
# 5 -0.002116 0.000763 -0.001158 0.002400 0.050858 0.009694
# 6 0.000845 0.002882 -0.002057 -0.001460 0.009694 0.028595
#
#
# Mechanical properties :
#
#
# Convention : Reuss Voigt Hill
#
# Bulk Modulus (GPa) = 27.99374 45.10766 36.55070
# Shear Modulus (GPa) = 25.31588 37.54904 31.43246
#
# Velocity S-wave (km/s) = 3.27832 3.99259 3.65295
# Velocity P-wave (km/s) = 5.11997 6.35641 5.77139
#
# Compressibility (1/GPa) = 0.03572227
#
# Stress axis : x y z
#
# Youngs Moduli (GPa) = 154.37308 100.42587 43.08615
#
# Poissons Ratio (x) = 0.15745 0.03842
# Poissons Ratio (y) = 0.24202 -0.02147
# Poissons Ratio (z) = 0.13767 -0.05005
#
# Static dielectric constant tensor:
#      x y z
#    x 4.776650 0.092660 -0.256500 
#    y 0.092660 3.545760 -0.255040 
#    z -0.256500 -0.255040 4.141200 
# 
# 
# High freq. dielectric constant tensor:
#      x y z
#    x 1.955000 0.002320 -0.004750 
#    y 0.002320 1.936640 -0.025740 
#    z -0.004750 -0.025740 1.891700 
# 
# From -- ./inp_files/494988.got.cif
#   From: 2010.06.25/outbox.cif.g09.slc.cpg/sg2_248_cif.got.tgz:494988.got - 2010.06.27 13:26:56.
