data_PCOD8009980
_publ_section_title
;
Structure prediction by ZEFSAII (Michael W. Deem and Ramdas Pophale) SiO2 
 PCOD8009980
Probable space group: P -1
;
_chemical_formula_sum "Si O2"
_cell_formula_units_Z 16
_cell_length_a 20.033235
_cell_length_b 9.285464
_cell_length_c 11.862714
_cell_angle_alpha 45.881248
_cell_angle_beta 27.359935
_cell_angle_gamma 51.295258
_cell_volume 727.885644
_symmetry_space_group_name_H-M "P -1"
_symmetry_group_IT_number 2
_symmetry_cell_setting 'triclinic'
loop_
_space_group_symop_operation_xyz
x,y,z
-x,-y,-z
loop_
_atom_site_type_symbol
_atom_site_label
_atom_site_fract_x
_atom_site_fract_y
_atom_site_fract_z
Si Si1 0.209585 0.053038 0.862064
Si Si2 0.868843 0.524705 0.885462
Si Si3 0.301118 0.405747 0.683915
Si Si4 0.607367 0.236946 0.374596
Si Si5 0.065880 0.113639 0.566492
Si Si6 0.580526 0.900774 0.776717
Si Si7 0.691659 0.163219 0.661577
Si Si8 0.868641 0.768454 0.347322
O O1 0.260762 0.263678 0.719088
O O2 0.126583 0.088217 0.847539
O O3 0.351070 0.908170 0.713346
O O4 0.102520 0.940431 0.170114
O O5 0.891866 0.676267 0.665790
O O6 0.027990 0.424890 0.725187
O O7 0.807313 0.639899 0.025026
O O8 0.749973 0.363335 0.117803
O O9 0.470608 0.381024 0.474656
O O10 0.276538 0.635637 0.562434
O O11 0.561506 0.099058 0.622057
O O12 0.083857 0.118938 0.672157
O O13 0.154930 0.928608 0.474764
O O14 0.693877 0.732526 0.647088
O O15 0.637233 0.977688 0.769468
O O16 0.424221 0.797729 0.085065
#
# Coordination Sequence:
#
# PCOD8009980 Si02
#       8
#     2   2   2   2   2   2   2   2
#     4  11  25  44  65  92 134 174 207 259 330 381
#     4  12  24  39  69 102 124 166 219 269 315 370
#     4  12  26  41  63  98 133 171 209 261 325 386
#     4  11  23  42  65  93 131 170 214 265 312 382
#     4  11  23  40  68  97 127 168 216 270 313 377
#     4   9  20  37  63  93 124 167 210 262 311 369
#     4  10  21  37  63  94 129 164 209 264 316 370
#     4  10  22  41  66  94 124 166 219 263 312 376
#
# _framework density 21.981473999999999
#
# number of rings (size 3 to 8) (size 9 to 14) (size 15 to 20)
#    0.000    1.250    2.500    3.000    7.000    2.500 
#    0.000    3.750    0.000    0.000    0.000    0.000 
#    0.000    0.000    0.000    0.000    0.000    0.000 
#
# Total GULP energy -198279.013672 kJ/mol
# GULP energy per Si atom -12392.438355 kJ/mol
# Density = 2.193144 g / cm^3
# Si number density = 21.981474 Si / 1000 Ang^3
#
#
#
# Elastic Constant Matrix: (Units=GPa)
#
#
# Indices 1 2 3 4 5 6 
#
# 1 32.8430 25.7113 40.7174 -3.6725 9.3396 -4.9997
# 2 25.7113 130.8750 41.1603 27.9246 2.5318 -15.1894
# 3 40.7174 41.1603 113.2202 22.3351 12.9605 -1.3876
# 4 -3.6725 27.9246 22.3351 38.6105 -2.6776 -2.3676
# 5 9.3396 2.5318 12.9605 -2.6776 14.0594 0.5518
# 6 -4.9997 -15.1894 -1.3876 -2.3676 0.5518 32.5785
#
#
#
# Elastic Compliance Matrix: (Units=1/GPa)
#
#
# Indices 1 2 3 4 5 6 
#
# 1 0.097502 -0.015070 -0.034540 0.039144 -0.023141 0.009702
# 2 -0.015070 0.012455 0.002941 -0.011788 0.002705 0.002717
# 3 -0.034540 0.002941 0.024552 -0.020147 -0.003887 -0.004282
# 4 0.039144 -0.011788 -0.020147 0.050289 0.004143 0.003238
# 5 -0.023141 0.002705 -0.003887 0.004143 0.090529 -0.003688
# 6 0.009702 0.002717 -0.004282 0.003238 -0.003688 0.033566
#
#
# Mechanical properties :
#
#
# Convention : Reuss Voigt Hill
#
# Bulk Modulus (GPa) = 24.28980 54.67959 39.48470
# Shear Modulus (GPa) = 12.02057 28.33962 20.18009
#
# Velocity S-wave (km/s) = 2.34102 3.59451 3.03322
# Velocity P-wave (km/s) = 4.28734 6.49281 5.50172
#
# Compressibility (1/GPa) = 0.04116954
#
# Stress axis : x y z
#
# Youngs Moduli (GPa) = 10.25624 80.28988 40.73058
#
# Poissons Ratio (x) = 1.21000 1.40683
# Poissons Ratio (y) = 0.15457 -0.11979
# Poissons Ratio (z) = 0.35425 -0.23613
#
# Static dielectric constant tensor:
#      x y z
#    x 3.623010 -0.157420 0.043370 
#    y -0.157420 4.176460 0.644710 
#    z 0.043370 0.644710 4.213140 
# 
# 
# High freq. dielectric constant tensor:
#      x y z
#    x 1.826770 -0.015550 0.008580 
#    y -0.015550 1.871710 0.029210 
#    z 0.008580 0.029210 1.876300 
# 
# From -- ./inp_files/469745.got.cif
#   From: 2010.06.25/outbox.cif.g09.slc.cpg/sg2_235_cif.got.tgz:469745.got - 2010.06.27 13:26:56.
