data_PCOD8009410
_publ_section_title
;
Structure prediction by ZEFSAII (Michael W. Deem and Ramdas Pophale) SiO2 
 PCOD8009410
Probable space group: P -1
;
_chemical_formula_sum "Si O2"
_cell_formula_units_Z 16
_cell_length_a 10.044819
_cell_length_b 14.633414
_cell_length_c 18.713796
_cell_angle_alpha 150.852864
_cell_angle_beta 36.921147
_cell_angle_gamma 145.075025
_cell_volume 731.919339
_symmetry_space_group_name_H-M "P -1"
_symmetry_group_IT_number 2
_symmetry_cell_setting 'triclinic'
loop_
_space_group_symop_operation_xyz
x,y,z
-x,-y,-z
loop_
_atom_site_type_symbol
_atom_site_label
_atom_site_fract_x
_atom_site_fract_y
_atom_site_fract_z
Si Si1 0.279950 0.649584 0.975193
Si Si2 0.585657 0.865911 0.588938
Si Si3 0.055899 0.830799 0.951785
Si Si4 0.760578 0.503960 0.366969
Si Si5 0.494767 0.436447 0.304804
Si Si6 0.166175 0.964589 0.155810
Si Si7 0.360447 0.146441 0.928554
Si Si8 0.013988 0.949250 0.571764
O O1 0.380233 0.691987 0.042026
O O2 0.331863 0.857989 0.047559
O O3 0.431999 0.542936 0.795627
O O4 0.000000 0.500000 0.000000
O O5 0.411092 0.618575 0.488490
O O6 0.766989 0.929208 0.622758
O O7 0.405248 0.978170 0.746349
O O8 0.743077 0.925852 0.490322
O O9 0.180800 0.688440 0.767185
O O10 0.198810 0.052342 0.004853
O O11 0.773167 0.745956 0.989996
O O12 0.058538 0.851679 0.050572
O O13 0.500000 0.500000 0.500000
O O14 0.747516 0.491934 0.277795
O O15 0.983277 0.715364 0.439505
O O16 0.303707 0.210490 0.255809
O O17 0.960926 0.932508 0.282646
#
# Coordination Sequence:
#
# PCOD8009410 Si02
#       8
#     2   2   2   2   2   2   2   2
#     4  12  24  39  64  98 132 167 217 275 328 383
#     4  10  22  39  59  94 130 168 208 270 334 377
#     4  11  24  42  64  98 132 172 216 268 327 385
#     4  11  20  35  62  97 121 163 220 269 313 377
#     4  11  21  35  63  94 122 161 226 273 309 372
#     4  12  21  40  64  99 123 167 227 274 308 379
#     4  11  24  43  64  92 137 175 209 268 335 391
#     4  10  21  36  63  92 127 162 218 275 320 374
#
# _framework density 21.860333000000001
#
# number of rings (size 3 to 8) (size 9 to 14) (size 15 to 20)
#    0.000    1.000    5.000    3.375    3.500    0.000 
#    0.000    5.000    0.000    0.000    0.000    0.000 
#    0.000    0.000    0.000    0.000    0.000    0.000 
#
# Total GULP energy -198242.397653 kJ/mol
# GULP energy per Si atom -12390.149853 kJ/mol
# Density = 2.181058 g / cm^3
# Si number density = 21.860333 Si / 1000 Ang^3
#
#
#
# Elastic Constant Matrix: (Units=GPa)
#
#
# Indices 1 2 3 4 5 6 
#
# 1 108.1689 24.2847 70.4311 -1.2900 2.9440 8.6254
# 2 24.2847 65.1633 28.4975 1.4255 -0.8065 2.3592
# 3 70.4311 28.4975 145.5788 -1.8609 0.3288 0.7665
# 4 -1.2900 1.4255 -1.8609 30.1935 -7.2416 7.3172
# 5 2.9440 -0.8065 0.3288 -7.2416 33.3625 -6.0230
# 6 8.6254 2.3592 0.7665 7.3172 -6.0230 23.2700
#
#
#
# Elastic Compliance Matrix: (Units=1/GPa)
#
#
# Indices 1 2 3 4 5 6 
#
# 1 0.014578 -0.002419 -0.006528 0.001263 -0.002067 -0.005875
# 2 -0.002419 0.017256 -0.002217 -0.000862 0.000392 -0.000407
# 3 -0.006528 -0.002217 0.010447 0.000075 0.000888 0.002506
# 4 0.001263 -0.000862 0.000075 0.037219 0.006046 -0.010522
# 5 -0.002067 0.000392 0.000888 0.006046 0.032784 0.007282
# 6 -0.005875 -0.000407 0.002506 -0.010522 0.007282 0.050303
#
#
# Mechanical properties :
#
#
# Convention : Reuss Voigt Hill
#
# Bulk Modulus (GPa) = 50.11737 62.81530 56.46634
# Shear Modulus (GPa) = 26.10078 30.41172 28.25625
#
# Velocity S-wave (km/s) = 3.45915 3.73390 3.59915
# Velocity P-wave (km/s) = 6.23941 6.88379 6.56951
#
# Compressibility (1/GPa) = 0.01995316
#
# Stress axis : x y z
#
# Youngs Moduli (GPa) = 68.59713 57.95213 95.72120
#
# Poissons Ratio (x) = 0.14016 0.62483
# Poissons Ratio (y) = 0.16591 0.21226
# Poissons Ratio (z) = 0.44777 0.12851
#
# Static dielectric constant tensor:
#      x y z
#    x 3.877250 -0.229400 0.236430 
#    y -0.229400 3.791890 0.159760 
#    z 0.236430 0.159760 4.304080 
# 
# 
# High freq. dielectric constant tensor:
#      x y z
#    x 1.815780 -0.024360 0.024200 
#    y -0.024360 1.843170 0.005130 
#    z 0.024200 0.005130 1.879970 
# 
# From -- ./inp_files/561408.got.cif
#   From: 2010.06.25/outbox.cif.g09.slc.cpg/sg2_281_cif.got.tgz:561408.got - 2010.06.27 13:26:56.
