data_PCOD8009902
_publ_section_title
;
Structure prediction by ZEFSAII (Michael W. Deem and Ramdas Pophale) SiO2 
 PCOD8009902
Probable space group: P -1
;
_chemical_formula_sum "Si O2"
_cell_formula_units_Z 16
_cell_length_a 9.752888
_cell_length_b 23.624041
_cell_length_c 9.326560
_cell_angle_alpha 46.534995
_cell_angle_beta 46.804088
_cell_angle_gamma 26.846254
_cell_volume 687.734949
_symmetry_space_group_name_H-M "P -1"
_symmetry_group_IT_number 2
_symmetry_cell_setting 'triclinic'
loop_
_space_group_symop_operation_xyz
x,y,z
-x,-y,-z
loop_
_atom_site_type_symbol
_atom_site_label
_atom_site_fract_x
_atom_site_fract_y
_atom_site_fract_z
Si Si1 0.216091 0.144589 0.103548
Si Si2 0.001006 0.923150 0.443496
Si Si3 0.627837 0.795260 0.591673
Si Si4 0.172571 0.302499 0.066113
Si Si5 0.746183 0.489745 0.831243
Si Si6 0.837982 0.136579 0.865355
Si Si7 0.660881 0.692262 0.473688
Si Si8 0.851755 0.865567 0.138569
O O1 0.120202 0.241386 0.116607
O O2 0.102496 0.098891 0.318583
O O3 0.587502 0.018564 0.035600
O O4 0.056745 0.206946 0.950569
O O5 0.011833 0.874966 0.365687
O O6 0.349937 0.838129 0.382075
O O7 0.749704 0.077235 0.340417
O O8 0.815631 0.717534 0.738985
O O9 0.724396 0.696885 0.582902
O O10 0.737070 0.842776 0.377611
O O11 0.478298 0.246395 0.896790
O O12 0.883267 0.452461 0.961112
O O13 0.598777 0.618929 0.652814
O O14 0.048099 0.374522 0.713455
O O15 0.500000 0.500000 0.000000
O O16 0.864755 0.181786 0.907985
O O17 0.000000 0.000000 0.000000
#
# Coordination Sequence:
#
# PCOD8009902 Si02
#       8
#     2   2   2   2   2   2   2   2
#     4  10  21  37  62  92 138 187 224 267 340 418
#     4  11  22  39  68 101 144 178 216 277 360 415
#     4  11  24  40  69 106 143 173 221 284 357 419
#     4  12  23  42  68  98 136 182 228 285 348 405
#     4  11  26  50  75  93 132 193 244 288 340 400
#     4  12  22  37  62 101 146 179 221 278 347 417
#     4  11  25  46  70 105 136 183 238 289 338 418
#     4  10  22  37  57  98 141 182 224 272 337 421
#
# _framework density 23.264775
#
# number of rings (size 3 to 8) (size 9 to 14) (size 15 to 20)
#    0.000    1.000    3.750    2.625    1.750    3.500 
#    0.000    0.625    0.000    0.750    0.000    0.000 
#    0.000    0.000    0.000    0.000    0.000    0.000 
#
# Total GULP energy -198263.318323 kJ/mol
# GULP energy per Si atom -12391.457395 kJ/mol
# Density = 2.321182 g / cm^3
# Si number density = 23.264775 Si / 1000 Ang^3
#
#
#
# Elastic Constant Matrix: (Units=GPa)
#
#
# Indices 1 2 3 4 5 6 
#
# 1 139.4627 41.1847 44.9559 9.5312 24.7489 -6.1014
# 2 41.1847 64.1297 28.8915 -2.6792 0.7690 -26.3397
# 3 44.9559 28.8915 123.5741 7.4843 21.7658 -10.6810
# 4 9.5312 -2.6792 7.4843 28.9810 -2.3526 4.3992
# 5 24.7489 0.7690 21.7658 -2.3526 51.0869 0.9297
# 6 -6.1014 -26.3397 -10.6810 4.3992 0.9297 34.4587
#
#
#
# Elastic Compliance Matrix: (Units=1/GPa)
#
#
# Indices 1 2 3 4 5 6 
#
# 1 0.010948 -0.008229 -0.001365 -0.003757 -0.004696 -0.004168
# 2 -0.008229 0.031018 -0.003564 0.003769 0.004838 0.020536
# 3 -0.001365 -0.003564 0.010341 -0.002973 -0.003841 0.000723
# 4 -0.003757 0.003769 -0.002973 0.037806 0.004838 -0.003662
# 5 -0.004696 0.004838 -0.003841 0.004838 0.023628 0.000421
# 6 -0.004168 0.020536 0.000723 -0.003662 0.000421 0.044660
#
#
# Mechanical properties :
#
#
# Convention : Reuss Voigt Hill
#
# Bulk Modulus (GPa) = 38.47245 61.91452 50.19348
# Shear Modulus (GPa) = 25.85599 37.04762 31.45180
#
# Velocity S-wave (km/s) = 3.33735 3.99486 3.68082
# Velocity P-wave (km/s) = 5.60564 6.92454 6.29970
#
# Compressibility (1/GPa) = 0.02599262
#
# Stress axis : x y z
#
# Youngs Moduli (GPa) = 91.34085 32.23980 96.70220
#
# Poissons Ratio (x) = 0.26529 0.13196
# Poissons Ratio (y) = 0.75162 0.34461
# Poissons Ratio (z) = 0.12464 0.11489
#
# Static dielectric constant tensor:
#      x y z
#    x 4.193560 0.090770 0.600940 
#    y 0.090770 4.924520 0.906650 
#    z 0.600940 0.906650 5.593380 
# 
# 
# High freq. dielectric constant tensor:
#      x y z
#    x 1.915620 -0.012780 0.012800 
#    y -0.012780 1.893120 0.003850 
#    z 0.012800 0.003850 1.939950 
# 
# From -- ./inp_files/216415.got.cif
#   From: 2010.06.25/outbox.cif.g09.slc.cpg/sg2_109_cif.got.tgz:216415.got - 2010.06.27 13:26:56.
