data_PCOD8009431
_publ_section_title
;
Structure prediction by ZEFSAII (Michael W. Deem and Ramdas Pophale) SiO2 
 PCOD8009431
Probable space group: P -1
;
_chemical_formula_sum "Si O2"
_cell_formula_units_Z 14
_cell_length_a 9.782044
_cell_length_b 22.566001
_cell_length_c 5.148361
_cell_angle_alpha 98.665709
_cell_angle_beta 72.447672
_cell_angle_gamma 145.352409
_cell_volume 605.993540
_symmetry_space_group_name_H-M "P -1"
_symmetry_group_IT_number 2
_symmetry_cell_setting 'triclinic'
loop_
_space_group_symop_operation_xyz
x,y,z
-x,-y,-z
loop_
_atom_site_type_symbol
_atom_site_label
_atom_site_fract_x
_atom_site_fract_y
_atom_site_fract_z
Si Si1 0.971760 0.723650 0.614372
Si Si2 0.249557 0.198601 0.894364
Si Si3 0.539835 0.105143 0.211723
Si Si4 0.463298 0.588658 0.035740
Si Si5 0.247426 0.119604 0.347978
Si Si6 0.148032 0.876802 0.251747
Si Si7 0.725837 0.532628 0.425182
O O1 0.728251 0.641683 0.893940
O O2 0.968349 0.660205 0.407933
O O3 0.244952 0.818195 0.647352
O O4 0.943330 0.774843 0.492303
O O5 0.329093 0.192873 0.578442
O O6 0.998090 0.151738 0.943744
O O7 0.478204 0.320412 0.932185
O O8 0.190759 0.133004 0.118157
O O9 0.469182 0.147643 0.191917
O O10 0.288508 0.982281 0.374542
O O11 0.644795 0.103598 0.907005
O O12 0.266310 0.506643 0.860211
O O13 0.317029 0.523372 0.338454
O O14 0.000000 0.000000 0.500000
O O15 0.500000 0.500000 0.500000
#
# Coordination Sequence:
#
# PCOD8009431 Si02
#       7
#     2   2   2   2   2   2   2
#     4  11  22  38  67  98 141 170 218 281 345 384
#     4  12  24  45  69  95 134 178 224 271 327 396
#     4  11  26  40  65  99 142 175 223 270 340 395
#     4  11  22  39  67  99 129 173 222 278 328 392
#     4  12  27  44  68  94 139 182 224 266 327 402
#     4  11  24  41  67 100 136 177 222 278 329 401
#     4  10  21  36  64 100 135 163 218 281 338 384
#
# _framework density 23.102558999999999
#
# number of rings (size 3 to 8) (size 9 to 14) (size 15 to 20)
#    0.000    0.857    2.857    6.000    4.000    1.143 
#    0.000    0.000    0.000    5.143    0.000    0.000 
#    0.000    0.000    0.000    0.000    0.000    0.000 
#
# Total GULP energy -173555.877338 kJ/mol
# GULP energy per Si atom -12396.848381 kJ/mol
# Density = 2.304998 g / cm^3
# Si number density = 23.102559 Si / 1000 Ang^3
#
#
#
# Elastic Constant Matrix: (Units=GPa)
#
#
# Indices 1 2 3 4 5 6 
#
# 1 116.5105 22.1833 39.5184 -0.7627 15.7248 -13.4424
# 2 22.1833 155.8872 25.1226 25.8408 24.9024 -7.1164
# 3 39.5184 25.1226 86.8671 13.0698 31.3999 5.2893
# 4 -0.7627 25.8408 13.0698 39.9978 -9.1838 3.2555
# 5 15.7248 24.9024 31.3999 -9.1838 43.3964 4.0805
# 6 -13.4424 -7.1164 5.2893 3.2555 4.0805 18.6027
#
#
#
# Elastic Compliance Matrix: (Units=1/GPa)
#
#
# Indices 1 2 3 4 5 6 
#
# 1 0.011912 -0.000512 -0.006045 0.001677 -0.000224 0.009886
# 2 -0.000512 0.009505 0.001819 -0.009371 -0.009170 0.006401
# 3 -0.006045 0.001819 0.021866 -0.011963 -0.016820 -0.004106
# 4 0.001677 -0.009371 -0.011963 0.041246 0.023216 -0.011282
# 5 -0.000224 -0.009170 -0.016820 0.023216 0.046711 -0.013196
# 6 0.009886 0.006401 -0.004106 -0.011282 -0.013196 0.069385
#
#
# Mechanical properties :
#
#
# Convention : Reuss Voigt Hill
#
# Bulk Modulus (GPa) = 29.57891 59.21261 44.39576
# Shear Modulus (GPa) = 22.58669 38.56206 30.57438
#
# Velocity S-wave (km/s) = 3.13016 4.08998 3.64183
# Velocity P-wave (km/s) = 5.08871 6.92747 6.07803
#
# Compressibility (1/GPa) = 0.03380787
#
# Stress axis : x y z
#
# Youngs Moduli (GPa) = 83.94551 105.20610 45.73373
#
# Poissons Ratio (x) = 0.05386 0.27645
# Poissons Ratio (y) = 0.04298 -0.08319
# Poissons Ratio (z) = 0.50743 -0.19136
#
# Static dielectric constant tensor:
#      x y z
#    x 3.786930 0.194310 0.166360 
#    y 0.194310 4.003770 0.117440 
#    z 0.166360 0.117440 4.131140 
# 
# 
# High freq. dielectric constant tensor:
#      x y z
#    x 1.882140 -0.023510 0.015680 
#    y -0.023510 1.934020 0.017480 
#    z 0.015680 0.017480 1.902650 
# 
# From -- ./inp_files/51458.got.cif
#   From: 2010.06.25/outbox.cif.g09.slc.cpg/sg2_26_cif.got.tgz:51458.got - 2010.06.27 13:26:56.
