data_PCOD8009856
_publ_section_title
;
Structure prediction by ZEFSAII (Michael W. Deem and Ramdas Pophale) SiO2 
 PCOD8009856
Probable space group: P -1
;
_chemical_formula_sum "Si O2"
_cell_formula_units_Z 16
_cell_length_a 8.594485
_cell_length_b 15.391239
_cell_length_c 10.252991
_cell_angle_alpha 80.886850
_cell_angle_beta 43.673164
_cell_angle_gamma 58.982883
_cell_volume 748.159856
_symmetry_space_group_name_H-M "P -1"
_symmetry_group_IT_number 2
_symmetry_cell_setting 'triclinic'
loop_
_space_group_symop_operation_xyz
x,y,z
-x,-y,-z
loop_
_atom_site_type_symbol
_atom_site_label
_atom_site_fract_x
_atom_site_fract_y
_atom_site_fract_z
Si Si1 0.425716 0.229180 0.738608
Si Si2 0.167282 0.180122 0.432648
Si Si3 0.051754 0.065425 0.325795
Si Si4 0.223665 0.453905 0.762049
Si Si5 0.002188 0.799159 0.892154
Si Si6 0.831509 0.368732 0.397711
Si Si7 0.733603 0.124256 0.117177
Si Si8 0.266823 0.829659 0.187655
O O1 0.276629 0.340055 0.717776
O O2 0.472450 0.253301 0.855925
O O3 0.716133 0.145279 0.511173
O O4 0.228280 0.189645 0.874679
O O5 0.198649 0.087437 0.344530
O O6 0.049651 0.288811 0.394044
O O7 0.953806 0.200107 0.671894
O O8 0.459910 0.136936 0.333485
O O9 0.145927 0.088610 0.126933
O O10 0.144453 0.943858 0.309275
O O11 0.521297 0.427852 0.630640
O O12 0.110691 0.541701 0.691989
O O13 0.000000 0.500000 0.000000
O O14 0.140701 0.695683 0.736698
O O15 0.231440 0.792323 0.847548
O O16 0.652727 0.164782 0.007763
O O17 0.000000 0.000000 0.000000
#
# Coordination Sequence:
#
# PCOD8009856 Si02
#       8
#     2   2   2   2   2   2   2   2
#     4  11  21  37  65  92 115 153 202 257 301 352
#     4  10  22  40  59  86 119 163 198 247 303 348
#     4  10  21  37  62  86 117 157 207 250 301 344
#     4  11  20  35  67 104 112 138 199 266 312 343
#     4  11  22  39  54  87 125 159 195 239 302 353
#     4  10  21  40  65  91 119 148 198 257 303 356
#     4  12  27  37  55  88 128 169 204 238 290 362
#     4  11  22  39  61  86 119 162 207 247 297 354
#
# _framework density 21.385802999999999
#
# number of rings (size 3 to 8) (size 9 to 14) (size 15 to 20)
#    0.000    1.250    6.250    3.000    3.500    2.500 
#    0.000    0.000    0.000    6.000    0.000    0.000 
#    0.000    0.000    0.000    0.000    0.000    0.000 
#
# Total GULP energy -198295.412438 kJ/mol
# GULP energy per Si atom -12393.463277 kJ/mol
# Density = 2.133713 g / cm^3
# Si number density = 21.385803 Si / 1000 Ang^3
#
#
#
# Elastic Constant Matrix: (Units=GPa)
#
#
# Indices 1 2 3 4 5 6 
#
# 1 62.3802 14.2406 17.1192 -6.1669 -22.3087 11.2223
# 2 14.2406 135.9672 31.8271 -21.9032 -12.6549 -4.9579
# 3 17.1192 31.8271 85.5575 -15.5592 -29.2662 13.9661
# 4 -6.1669 -21.9032 -15.5592 39.3308 4.9767 -3.3559
# 5 -22.3087 -12.6549 -29.2662 4.9767 36.1347 -8.3670
# 6 11.2223 -4.9579 13.9661 -3.3559 -8.3670 21.2566
#
#
#
# Elastic Compliance Matrix: (Units=1/GPa)
#
#
# Indices 1 2 3 4 5 6 
#
# 1 0.021939 -0.001759 0.002096 0.000993 0.012576 -0.008263
# 2 -0.001759 0.009184 -0.003168 0.004044 0.000384 0.005942
# 3 0.002096 -0.003168 0.018991 0.003691 0.013067 -0.008597
# 4 0.000993 0.004044 0.003691 0.029356 0.001743 0.003315
# 5 0.012576 0.000384 0.013067 0.001743 0.046735 0.003535
# 6 -0.008263 0.005942 -0.008597 0.003315 0.003535 0.060356
#
#
# Mechanical properties :
#
#
# Convention : Reuss Voigt Hill
#
# Bulk Modulus (GPa) = 22.49577 45.58651 34.04114
# Shear Modulus (GPa) = 24.14980 34.05895 29.10437
#
# Velocity S-wave (km/s) = 3.36407 3.99506 3.69307
# Velocity P-wave (km/s) = 5.06272 6.53018 5.84270
#
# Compressibility (1/GPa) = 0.04445281
#
# Stress axis : x y z
#
# Youngs Moduli (GPa) = 45.58005 108.88133 52.65550
#
# Poissons Ratio (x) = 0.19155 -0.11036
# Poissons Ratio (y) = 0.08019 0.16680
# Poissons Ratio (z) = -0.09553 0.34491
#
# Static dielectric constant tensor:
#      x y z
#    x 3.440780 -0.070270 -0.089120 
#    y -0.070270 4.320850 -0.300580 
#    z -0.089120 -0.300580 3.984560 
# 
# 
# High freq. dielectric constant tensor:
#      x y z
#    x 1.784460 -0.011670 -0.017110 
#    y -0.011670 1.848640 -0.027310 
#    z -0.017110 -0.027310 1.852570 
# 
# From -- ./inp_files/397332.got.cif
#   From: 2010.06.25/outbox.cif.g09.slc.cpg/sg2_199_cif.got.tgz:397332.got - 2010.06.27 13:26:56.
