data_PCOD8009584
_publ_section_title
;
Structure prediction by ZEFSAII (Michael W. Deem and Ramdas Pophale) SiO2 
 PCOD8009584
Probable space group: P -1
;
_chemical_formula_sum "Si O2"
_cell_formula_units_Z 14
_cell_length_a 14.105877
_cell_length_b 10.030355
_cell_length_c 10.415293
_cell_angle_alpha 108.557701
_cell_angle_beta 139.202818
_cell_angle_gamma 47.023536
_cell_volume 641.313001
_symmetry_space_group_name_H-M "P -1"
_symmetry_group_IT_number 2
_symmetry_cell_setting 'triclinic'
loop_
_space_group_symop_operation_xyz
x,y,z
-x,-y,-z
loop_
_atom_site_type_symbol
_atom_site_label
_atom_site_fract_x
_atom_site_fract_y
_atom_site_fract_z
Si Si1 0.832643 0.981187 0.074475
Si Si2 0.314703 0.160762 0.953099
Si Si3 0.109079 0.699127 0.054813
Si Si4 0.457645 0.181425 0.571362
Si Si5 0.957564 0.601277 0.680601
Si Si6 0.522182 0.725884 0.651498
Si Si7 0.953853 0.905820 0.708308
O O1 0.036899 0.786111 0.150032
O O2 0.785126 0.917576 0.128516
O O3 0.895647 0.096441 0.222446
O O4 0.645812 0.112358 0.823820
O O5 0.400521 0.185917 0.171035
O O6 0.138302 0.367681 0.756368
O O7 0.500000 0.000000 0.000000
O O8 0.356225 0.496567 0.241779
O O9 0.997599 0.629807 0.875734
O O10 0.042929 0.862164 0.932142
O O11 0.266758 0.315155 0.517104
O O12 0.422505 0.305642 0.451892
O O13 0.500000 0.000000 0.500000
O O14 0.963412 0.732297 0.627918
O O15 0.279034 0.875493 0.470458
#
# Coordination Sequence:
#
# PCOD8009584 Si02
#       7
#     2   2   2   2   2   2   2
#     4  12  21  36  59  93 124 147 198 247 287 354
#     4  11  24  42  60  83 115 161 211 247 280 346
#     4   9  19  33  59  88 124 149 184 236 298 360
#     4  12  17  32  62  92 117 156 185 236 304 357
#     4   9  19  37  57  83 120 150 195 236 295 352
#     4  11  20  37  62  83 123 162 188 238 306 349
#     4  10  21  37  57  94 123 152 187 240 306 358
#
# _framework density 21.830213000000001
#
# number of rings (size 3 to 8) (size 9 to 14) (size 15 to 20)
#    0.857    0.571    5.714    1.286    0.000    2.857 
#    2.571    4.286    0.000    0.000    0.000    0.000 
#    0.000    0.000    0.000    0.000    0.000    0.000 
#
# Total GULP energy -173443.604551 kJ/mol
# GULP energy per Si atom -12388.828897 kJ/mol
# Density = 2.178053 g / cm^3
# Si number density = 21.830213 Si / 1000 Ang^3
#
#
#
# Elastic Constant Matrix: (Units=GPa)
#
#
# Indices 1 2 3 4 5 6 
#
# 1 85.9274 33.3787 31.5733 -4.7212 35.0995 12.7005
# 2 33.3787 56.0392 45.1921 -22.4985 18.6974 -3.2061
# 3 31.5733 45.1921 115.2289 -32.0776 27.9590 17.2233
# 4 -4.7212 -22.4985 -32.0776 35.5459 0.8057 6.1417
# 5 35.0995 18.6974 27.9590 0.8057 30.5784 4.3411
# 6 12.7005 -3.2061 17.2233 6.1417 4.3411 22.2873
#
#
#
# Elastic Compliance Matrix: (Units=1/GPa)
#
#
# Indices 1 2 3 4 5 6 
#
# 1 0.031644 -0.013539 0.013004 0.012764 -0.036518 -0.026434
# 2 -0.013539 0.041803 -0.012942 0.009309 -0.001478 0.021453
# 3 0.013004 -0.012942 0.030554 0.027775 -0.030778 -0.034543
# 4 0.012764 0.009309 0.027775 0.068308 -0.042142 -0.038014
# 5 -0.036518 -0.001478 -0.030778 -0.042142 0.099580 0.036599
# 6 -0.026434 0.021453 -0.034543 -0.038014 0.036599 0.093059
#
#
# Mechanical properties :
#
#
# Convention : Reuss Voigt Hill
#
# Bulk Modulus (GPa) = 12.97886 53.05374 33.01630
# Shear Modulus (GPa) = 11.97366 27.48574 19.72970
#
# Velocity S-wave (km/s) = 2.34453 3.55219 3.00955
# Velocity P-wave (km/s) = 3.64518 6.41714 5.21857
#
# Compressibility (1/GPa) = 0.07704837
#
# Stress axis : x y z
#
# Youngs Moduli (GPa) = 31.60185 23.92155 32.72903
#
# Poissons Ratio (x) = 0.32387 -0.42562
# Poissons Ratio (y) = 0.42785 0.42358
# Poissons Ratio (z) = -0.41096 0.30959
#
# Static dielectric constant tensor:
#      x y z
#    x 3.736180 0.343190 0.161120 
#    y 0.343190 3.782630 -0.168130 
#    z 0.161120 -0.168130 4.097470 
# 
# 
# High freq. dielectric constant tensor:
#      x y z
#    x 1.824140 0.024350 0.013760 
#    y 0.024350 1.834900 -0.020350 
#    z 0.013760 -0.020350 1.867570 
# 
# From -- ./inp_files/450351.got.cif
#   From: 2010.06.25/outbox.cif.g09.slc.cpg/sg2_226_cif.got.tgz:450351.got - 2010.06.27 13:26:56.
