data_PCOD8009375
_publ_section_title
;
Structure prediction by ZEFSAII (Michael W. Deem and Ramdas Pophale) SiO2 
 PCOD8009375
Probable space group: P -1
;
_chemical_formula_sum "Si O2"
_cell_formula_units_Z 16
_cell_length_a 9.678020
_cell_length_b 7.633868
_cell_length_c 13.523913
_cell_angle_alpha 60.678109
_cell_angle_beta 51.872634
_cell_angle_gamma 74.968371
_cell_volume 683.930745
_symmetry_space_group_name_H-M "P -1"
_symmetry_group_IT_number 2
_symmetry_cell_setting 'triclinic'
loop_
_space_group_symop_operation_xyz
x,y,z
-x,-y,-z
loop_
_atom_site_type_symbol
_atom_site_label
_atom_site_fract_x
_atom_site_fract_y
_atom_site_fract_z
Si Si1 0.224502 0.139919 0.379256
Si Si2 0.711589 0.923482 0.125746
Si Si3 0.854048 0.512859 0.143024
Si Si4 0.673914 0.182577 0.711831
Si Si5 0.597381 0.179521 0.289831
Si Si6 0.953549 0.452455 0.421651
Si Si7 0.897855 0.148978 0.808131
Si Si8 0.136455 0.878550 0.664169
O O1 0.390977 0.204250 0.358216
O O2 0.107423 0.318692 0.350009
O O3 0.286585 0.043125 0.277491
O O4 0.107476 0.978100 0.542928
O O5 0.838734 0.737894 0.130079
O O6 0.534870 0.810563 0.191479
O O7 0.677876 0.036071 0.210965
O O8 0.800258 0.094100 0.968146
O O9 0.681458 0.409842 0.191320
O O10 0.899143 0.366209 0.257591
O O11 0.000000 0.500000 0.000000
O O12 0.751933 0.218412 0.776001
O O13 0.758630 0.336353 0.546987
O O14 0.662857 0.078483 0.392326
O O15 0.959127 0.659005 0.298365
O O16 0.000000 0.500000 0.500000
O O17 0.996102 0.957355 0.781427
#
# Coordination Sequence:
#
# PCOD8009375 Si02
#       8
#     2   2   2   2   2   2   2   2
#     4  11  20  43  61  86 129 155 203 259 302 361
#     4  11  22  45  63  88 131 158 206 256 303 363
#     4  10  22  40  63  91 121 164 202 249 308 363
#     4  10  23  40  62  91 121 165 202 255 304 364
#     4   9  24  40  63  93 120 163 202 256 304 359
#     4  10  21  36  62  91 119 162 205 247 310 358
#     4  11  22  39  61  92 121 161 202 253 307 364
#     4  10  21  38  61  88 120 157 203 249 308 356
#
# _framework density 23.394181
#
# number of rings (size 3 to 8) (size 9 to 14) (size 15 to 20)
#    0.750    1.000    3.750    1.125    3.500    2.000 
#    6.750    2.500    0.000    0.000    0.000    0.000 
#    0.000    0.000    0.000    0.000    0.000    0.000 
#
# Total GULP energy -198217.164299 kJ/mol
# GULP energy per Si atom -12388.572769 kJ/mol
# Density = 2.334094 g / cm^3
# Si number density = 23.394181 Si / 1000 Ang^3
#
#
#
# Elastic Constant Matrix: (Units=GPa)
#
#
# Indices 1 2 3 4 5 6 
#
# 1 35.3434 -4.8751 -2.2832 -12.5251 -1.0709 -5.0236
# 2 -4.8751 97.2635 37.4595 -15.4283 9.8085 -2.2940
# 3 -2.2832 37.4595 77.0714 -26.9416 -4.6248 -19.6275
# 4 -12.5251 -15.4283 -26.9416 36.3575 -3.7608 -1.9202
# 5 -1.0709 9.8085 -4.6248 -3.7608 30.6506 -2.6841
# 6 -5.0236 -2.2940 -19.6275 -1.9202 -2.6841 29.2573
#
#
#
# Elastic Compliance Matrix: (Units=1/GPa)
#
#
# Indices 1 2 3 4 5 6 
#
# 1 0.044379 -0.000749 0.019439 0.031731 0.010689 0.023665
# 2 -0.000749 0.014189 -0.009907 -0.002639 -0.006952 -0.006473
# 3 0.019439 -0.009907 0.040692 0.036233 0.017398 0.033834
# 4 0.031731 -0.002639 0.036233 0.068008 0.018895 0.035746
# 5 0.010689 -0.006952 0.017398 0.018895 0.041747 0.018032
# 6 0.023665 -0.006473 0.033834 0.035746 0.018032 0.064433
#
#
# Mechanical properties :
#
#
# Convention : Reuss Voigt Hill
#
# Bulk Modulus (GPa) = 8.55968 30.03117 19.29542
# Shear Modulus (GPa) = 16.95934 31.21156 24.08545
#
# Velocity S-wave (km/s) = 2.69539 3.65658 3.21214
# Velocity P-wave (km/s) = 3.65427 5.54006 4.69286
#
# Compressibility (1/GPa) = 0.11682685
#
# Stress axis : x y z
#
# Youngs Moduli (GPa) = 22.53327 70.47687 24.57490
#
# Poissons Ratio (x) = 0.05276 -0.47771
# Poissons Ratio (y) = 0.01687 0.24345
# Poissons Ratio (z) = -0.43802 0.69819
#
# Static dielectric constant tensor:
#      x y z
#    x 4.213260 0.112950 -0.232850 
#    y 0.112950 5.068110 -0.572080 
#    z -0.232850 -0.572080 4.372730 
# 
# 
# High freq. dielectric constant tensor:
#      x y z
#    x 1.923110 0.009550 -0.010640 
#    y 0.009550 1.926400 -0.002120 
#    z -0.010640 -0.002120 1.915000 
# 
# From -- ./inp_files/565725.got.cif
#   From: 2010.06.25/outbox.cif.g09.slc.cpg/sg2_283_cif.got.tgz:565725.got - 2010.06.27 13:26:56.
