data_PCOD8009185
_publ_section_title
;
Structure prediction by ZEFSAII (Michael W. Deem and Ramdas Pophale) SiO2 
 PCOD8009185
Probable space group: P -1
;
_chemical_formula_sum "Si O2"
_cell_formula_units_Z 14
_cell_length_a 17.410349
_cell_length_b 9.665048
_cell_length_c 11.506652
_cell_angle_alpha 107.220804
_cell_angle_beta 133.639886
_cell_angle_gamma 36.767257
_cell_volume 675.480585
_symmetry_space_group_name_H-M "P -1"
_symmetry_group_IT_number 2
_symmetry_cell_setting 'triclinic'
loop_
_space_group_symop_operation_xyz
x,y,z
-x,-y,-z
loop_
_atom_site_type_symbol
_atom_site_label
_atom_site_fract_x
_atom_site_fract_y
_atom_site_fract_z
Si Si1 0.058662 0.278176 0.415739
Si Si2 0.688464 0.608339 0.586066
Si Si3 0.737339 0.188913 0.204482
Si Si4 0.360442 0.112085 0.211545
Si Si5 0.945134 0.660721 0.215513
Si Si6 0.644544 0.848447 0.226112
Si Si7 0.110706 0.904055 0.409347
O O1 0.982034 0.471985 0.280726
O O2 0.865274 0.498943 0.361887
O O3 0.275723 0.079970 0.651963
O O4 0.093515 0.072682 0.359159
O O5 0.695483 0.663843 0.737874
O O6 0.752597 0.364819 0.594825
O O7 0.835604 0.522562 0.628925
O O8 0.455898 0.901410 0.362405
O O9 0.771427 0.204849 0.373961
O O10 0.790361 0.955011 0.193630
O O11 0.500000 0.500000 0.000000
O O12 0.881942 0.105981 0.243856
O O13 0.517665 0.940009 0.225244
O O14 0.153278 0.273783 0.993134
O O15 0.500000 0.000000 0.000000
#
# Coordination Sequence:
#
# PCOD8009185 Si02
#       7
#     2   2   2   2   2   2   2
#     4  11  23  37  59  92 123 154 193 250 310 351
#     4  10  23  43  60  86 122 161 202 244 294 355
#     4  10  21  36  58  87 121 155 200 248 297 352
#     4  11  22  39  67  85 114 163 211 241 287 365
#     4  11  21  39  63  90 119 155 204 249 295 354
#     4  11  22  37  61  91 121 154 201 251 296 354
#     4  10  23  37  56  86 125 157 189 249 307 348
#
# _framework density 20.725982999999999
#
# number of rings (size 3 to 8) (size 9 to 14) (size 15 to 20)
#    0.000    1.429    2.857    3.000    6.000    0.000 
#    0.000    1.429    0.000    0.000    0.000    0.000 
#    0.000    0.000    0.000    0.000    0.000    0.000 
#
# Total GULP energy -173576.428175 kJ/mol
# GULP energy per Si atom -12398.316298 kJ/mol
# Density = 2.067881 g / cm^3
# Si number density = 20.725983 Si / 1000 Ang^3
#
#
#
# Elastic Constant Matrix: (Units=GPa)
#
#
# Indices 1 2 3 4 5 6 
#
# 1 45.6228 28.0919 9.1449 -2.0739 -2.8690 18.1659
# 2 28.0919 135.3047 41.7243 10.5269 -0.1704 28.3813
# 3 9.1449 41.7243 126.7465 3.6746 5.3713 10.4601
# 4 -2.0739 10.5269 3.6746 30.4154 -1.1311 -1.7331
# 5 -2.8690 -0.1704 5.3713 -1.1311 14.0730 5.9120
# 6 18.1659 28.3813 10.4601 -1.7331 5.9120 38.7009
#
#
#
# Elastic Compliance Matrix: (Units=1/GPa)
#
#
# Indices 1 2 3 4 5 6 
#
# 1 0.030406 -0.003607 -0.000521 0.003084 0.012149 -0.013204
# 2 -0.003607 0.010498 -0.002713 -0.003788 0.002574 -0.005835
# 3 -0.000521 -0.002713 0.008957 -0.000296 -0.003737 0.000371
# 4 0.003084 -0.003788 -0.000296 0.034672 0.002391 0.002598
# 5 0.012149 0.002574 -0.003737 0.002391 0.083246 -0.019190
# 6 -0.013204 -0.005835 0.000371 0.002598 -0.019190 0.039264
#
#
# Mechanical properties :
#
#
# Convention : Reuss Voigt Hill
#
# Bulk Modulus (GPa) = 27.64089 51.73290 39.68690
# Shear Modulus (GPa) = 21.47888 31.88538 26.68213
#
# Velocity S-wave (km/s) = 3.22269 3.92653 3.59189
# Velocity P-wave (km/s) = 5.21661 6.75066 6.03260
#
# Compressibility (1/GPa) = 0.03617828
#
# Stress axis : x y z
#
# Youngs Moduli (GPa) = 32.88805 95.25263 111.64525
#
# Poissons Ratio (x) = 0.34360 0.05816
# Poissons Ratio (y) = 0.11864 0.30294
# Poissons Ratio (z) = 0.01713 0.25846
#
# Static dielectric constant tensor:
#      x y z
#    x 3.502970 -0.000170 0.197250 
#    y -0.000170 3.909660 0.128680 
#    z 0.197250 0.128680 4.026870 
# 
# 
# High freq. dielectric constant tensor:
#      x y z
#    x 1.784160 -0.000070 0.011750 
#    y -0.000070 1.808090 0.004570 
#    z 0.011750 0.004570 1.824530 
# 
# From -- ./inp_files/255724.got.cif
#   From: 2010.06.25/outbox.cif.g09.slc.cpg/sg2_128_cif.got.tgz:255724.got - 2010.06.27 13:26:56.
