data_PCOD8009937
_publ_section_title
;
Structure prediction by ZEFSAII (Michael W. Deem and Ramdas Pophale) SiO2 
 PCOD8009937
Probable space group: P -1
;
_chemical_formula_sum "Si O2"
_cell_formula_units_Z 16
_cell_length_a 11.804558
_cell_length_b 6.211661
_cell_length_c 12.103709
_cell_angle_alpha 100.262738
_cell_angle_beta 98.810282
_cell_angle_gamma 53.927531
_cell_volume 704.577200
_symmetry_space_group_name_H-M "P -1"
_symmetry_group_IT_number 2
_symmetry_cell_setting 'triclinic'
loop_
_space_group_symop_operation_xyz
x,y,z
-x,-y,-z
loop_
_atom_site_type_symbol
_atom_site_label
_atom_site_fract_x
_atom_site_fract_y
_atom_site_fract_z
Si Si1 0.776293 0.535164 0.755521
Si Si2 0.872395 0.827351 0.414642
Si Si3 0.566769 0.709460 0.935861
Si Si4 0.589313 0.614380 0.554736
Si Si5 0.890456 0.749610 0.648010
Si Si6 0.055266 0.979543 0.749154
Si Si7 0.346546 0.600397 0.858423
Si Si8 0.628968 0.790262 0.351648
O O1 0.685204 0.648632 0.861722
O O2 0.710817 0.433133 0.647545
O O3 0.777878 0.777333 0.721334
O O4 0.934351 0.287719 0.789898
O O5 0.822015 0.932118 0.543231
O O6 0.878929 0.044570 0.365250
O O7 0.765660 0.776912 0.336765
O O8 0.027163 0.555036 0.410166
O O9 0.445522 0.700060 0.858054
O O10 0.640675 0.486700 0.021340
O O11 0.500000 0.000000 0.000000
O O12 0.500000 0.500000 0.500000
O O13 0.658718 0.629654 0.455311
O O14 0.499021 0.902367 0.627002
O O15 0.991010 0.809188 0.729070
O O16 0.184158 0.848454 0.841496
O O17 0.399448 0.349714 0.762752
#
# Coordination Sequence:
#
# PCOD8009937 Si02
#       8
#     2   2   2   2   2   2   2   2
#     4  11  25  44  66 104 136 182 227 287 347 406
#     4  10  21  37  62  99 136 188 220 267 331 407
#     4  11  27  50  77  96 134 181 234 292 351 412
#     4  11  25  39  63 102 141 189 227 281 341 407
#     4  10  21  40  62  98 146 179 224 270 335 414
#     4  11  25  39  71  99 141 179 225 284 345 414
#     4  11  26  47  72 106 129 181 237 289 345 414
#     4  11  23  40  66  97 141 176 234 283 329 412
#
# _framework density 22.708653999999999
#
# number of rings (size 3 to 8) (size 9 to 14) (size 15 to 20)
#    0.000    1.250    2.500    1.875    7.000    3.500 
#    0.000    1.250    0.000    0.000    0.000    0.000 
#    0.000    0.000    0.000    0.000    0.000    0.000 
#
# Total GULP energy -198399.114019 kJ/mol
# GULP energy per Si atom -12399.944626 kJ/mol
# Density = 2.265697 g / cm^3
# Si number density = 22.708654 Si / 1000 Ang^3
#
#
#
# Elastic Constant Matrix: (Units=GPa)
#
#
# Indices 1 2 3 4 5 6 
#
# 1 168.9452 51.1686 72.1895 -0.3132 -5.2547 13.3133
# 2 51.1686 70.2227 40.7591 6.0028 2.2407 -0.0288
# 3 72.1895 40.7591 112.5570 -0.3156 -3.8515 -1.6438
# 4 -0.3132 6.0028 -0.3156 36.2083 2.7834 5.2499
# 5 -5.2547 2.2407 -3.8515 2.7834 47.9830 -6.7342
# 6 13.3133 -0.0288 -1.6438 5.2499 -6.7342 31.3578
#
#
#
# Elastic Compliance Matrix: (Units=1/GPa)
#
#
# Indices 1 2 3 4 5 6 
#
# 1 0.009597 -0.004453 -0.004599 0.001423 0.000173 -0.004521
# 2 -0.004453 0.020510 -0.004598 -0.003667 -0.001321 0.001998
# 3 -0.004599 -0.004598 0.013582 0.000335 0.001183 0.002858
# 4 0.001423 -0.003667 0.000335 0.029273 -0.002180 -0.005959
# 5 0.000173 -0.001321 0.001183 -0.002180 0.021851 0.005045
# 6 -0.004521 0.001998 0.002858 -0.005959 0.005045 0.036042
#
#
# Mechanical properties :
#
#
# Convention : Reuss Voigt Hill
#
# Bulk Modulus (GPa) = 61.01051 75.55104 68.28078
# Shear Modulus (GPa) = 30.55929 35.61702 33.08815
#
# Velocity S-wave (km/s) = 3.67237 3.96464 3.82130
# Velocity P-wave (km/s) = 6.70125 7.36884 7.04296
#
# Compressibility (1/GPa) = 0.01639062
#
# Stress axis : x y z
#
# Youngs Moduli (GPa) = 104.19915 48.75690 73.62732
#
# Poissons Ratio (x) = 0.21710 0.33860
# Poissons Ratio (y) = 0.46397 0.33851
# Poissons Ratio (z) = 0.47919 0.22416
#
# Static dielectric constant tensor:
#      x y z
#    x 4.303110 0.094660 -0.081750 
#    y 0.094660 4.069140 -0.254060 
#    z -0.081750 -0.254060 3.971120 
# 
# 
# High freq. dielectric constant tensor:
#      x y z
#    x 1.914190 0.005100 -0.000680 
#    y 0.005100 1.893890 -0.013020 
#    z -0.000680 -0.013020 1.876200 
# 
# From -- ./inp_files/410789.got.cif
#   From: 2010.06.25/outbox.cif.g09.slc.cpg/sg2_206_cif.got.tgz:410789.got - 2010.06.27 13:26:56.
