data_PCOD8009767
_publ_section_title
;
Structure prediction by ZEFSAII (Michael W. Deem and Ramdas Pophale) SiO2 
 PCOD8009767
Probable space group: P -1
;
_chemical_formula_sum "Si O2"
_cell_formula_units_Z 12
_cell_length_a 5.014979
_cell_length_b 14.587525
_cell_length_c 13.046103
_cell_angle_alpha 139.702512
_cell_angle_beta 115.717499
_cell_angle_gamma 58.543994
_cell_volume 525.435577
_symmetry_space_group_name_H-M "P -1"
_symmetry_group_IT_number 2
_symmetry_cell_setting 'triclinic'
loop_
_space_group_symop_operation_xyz
x,y,z
-x,-y,-z
loop_
_atom_site_type_symbol
_atom_site_label
_atom_site_fract_x
_atom_site_fract_y
_atom_site_fract_z
Si Si1 0.478973 0.750073 0.492511
Si Si2 0.098513 0.534362 0.792066
Si Si3 0.214304 0.066552 0.432649
Si Si4 0.705698 0.248146 0.836641
Si Si5 0.290876 0.399723 0.401746
Si Si6 0.000867 0.367330 0.815748
O O1 0.611428 0.583867 0.322158
O O2 0.666618 0.857231 0.576397
O O3 0.524654 0.742513 0.617746
O O4 0.096566 0.814136 0.462299
O O5 0.925948 0.440146 0.750857
O O6 0.839861 0.642122 0.763572
O O7 0.234911 0.640566 0.974181
O O8 0.500000 0.000000 0.500000
O O9 0.102983 0.927221 0.256421
O O10 0.349772 0.249690 0.775623
O O11 0.765960 0.291512 0.766756
O O12 0.500000 0.500000 0.500000
O O13 0.000000 0.500000 0.500000
O O14 0.000000 0.500000 0.000000
#
# Coordination Sequence:
#
# PCOD8009767 Si02
#       6
#     2   2   2   2   2   2
#     4  11  24  43  63  92 124 163 209 255 305 371
#     4  10  22  41  68  92 121 164 211 259 304 360
#     4  12  26  42  61  90 131 168 199 251 318 374
#     4  11  24  40  60  93 127 161 205 253 306 369
#     4  10  22  39  63  94 122 157 208 260 305 357
#     4  10  21  37  60  93 123 153 200 258 307 357
#
# _framework density 22.838196
#
# number of rings (size 3 to 8) (size 9 to 14) (size 15 to 20)
#    0.000    1.333    0.000    6.500    0.000   17.333 
#    0.000    1.667    0.000    0.000    0.000    0.000 
#    0.000    0.000    0.000    0.333    0.000    0.000 
#
# Total GULP energy -148689.180923 kJ/mol
# GULP energy per Si atom -12390.765077 kJ/mol
# Density = 2.278621 g / cm^3
# Si number density = 22.838196 Si / 1000 Ang^3
#
#
#
# Elastic Constant Matrix: (Units=GPa)
#
#
# Indices 1 2 3 4 5 6 
#
# 1 137.9046 49.0138 39.2044 0.2655 -3.2828 6.1402
# 2 49.0138 151.3503 77.9973 -15.3651 0.1102 9.5757
# 3 39.2044 77.9973 110.4509 2.1915 -0.3086 3.4142
# 4 0.2655 -15.3651 2.1915 47.5536 -0.3824 6.7136
# 5 -3.2828 0.1102 -0.3086 -0.3824 31.2756 2.6393
# 6 6.1402 9.5757 3.4142 6.7136 2.6393 41.6067
#
#
#
# Elastic Compliance Matrix: (Units=1/GPa)
#
#
# Indices 1 2 3 4 5 6 
#
# 1 0.008442 -0.001911 -0.001614 -0.000491 0.000926 -0.000653
# 2 -0.001911 0.011796 -0.007663 0.004532 -0.000049 -0.002532
# 3 -0.001614 -0.007663 0.015064 -0.003348 -0.000146 0.001315
# 4 -0.000491 0.004532 -0.003348 0.023289 0.000563 -0.004489
# 5 0.000926 -0.000049 -0.000146 0.000563 0.032267 -0.002251
# 6 -0.000653 -0.002532 0.001315 -0.004489 -0.002251 0.025473
#
#
# Mechanical properties :
#
#
# Convention : Reuss Voigt Hill
#
# Bulk Modulus (GPa) = 77.37634 81.34852 79.36243
# Shear Modulus (GPa) = 34.96160 39.65320 37.30740
#
# Velocity S-wave (km/s) = 3.91684 4.17137 4.04611
# Velocity P-wave (km/s) = 7.37626 7.67446 7.52684
#
# Compressibility (1/GPa) = 0.01292385
#
# Stress axis : x y z
#
# Youngs Moduli (GPa) = 118.46117 84.77768 66.38473
#
# Poissons Ratio (x) = 0.16201 0.10717
# Poissons Ratio (y) = 0.22637 0.50872
# Poissons Ratio (z) = 0.19124 0.64967
#
# Static dielectric constant tensor:
#      x y z
#    x 0.123170 0.263320 -0.889740 
#    y 0.263320 5.199260 -0.428760 
#    z -0.889740 -0.428760 4.225310 
# 
# 
# High freq. dielectric constant tensor:
#      x y z
#    x 1.928540 0.011810 -0.000790 
#    y 0.011810 1.897520 -0.002570 
#    z -0.000790 -0.002570 1.898520 
# 
# From -- ./inp_files/363533.got.cif
#   From: 2010.06.25/outbox.cif.g09.slc.cpg/sg2_182_cif.got.tgz:363533.got - 2010.06.27 13:26:56.
