data_PCOD8009190
_publ_section_title
;
Structure prediction by ZEFSAII (Michael W. Deem and Ramdas Pophale) SiO2 
 PCOD8009190
Probable space group: P -1
;
_chemical_formula_sum "Si O2"
_cell_formula_units_Z 14
_cell_length_a 5.076619
_cell_length_b 7.095019
_cell_length_c 25.253551
_cell_angle_alpha 60.606856
_cell_angle_beta 84.585419
_cell_angle_gamma 62.259211
_cell_volume 690.734570
_symmetry_space_group_name_H-M "P -1"
_symmetry_group_IT_number 2
_symmetry_cell_setting 'triclinic'
loop_
_space_group_symop_operation_xyz
x,y,z
-x,-y,-z
loop_
_atom_site_type_symbol
_atom_site_label
_atom_site_fract_x
_atom_site_fract_y
_atom_site_fract_z
Si Si1 0.439067 0.438571 0.631561
Si Si2 0.530792 0.266991 0.925819
Si Si3 0.171714 0.420152 0.130419
Si Si4 0.688759 0.741109 0.962295
Si Si5 0.011407 0.385076 0.571984
Si Si6 0.226600 0.114697 0.273124
Si Si7 0.653999 0.168573 0.332634
O O1 0.680303 0.430754 0.585957
O O2 0.392464 0.635259 0.649373
O O3 0.128693 0.511802 0.595917
O O4 0.545458 0.177109 0.694137
O O5 0.696487 0.403403 0.877099
O O6 0.179184 0.405580 0.898606
O O7 0.705989 0.990290 0.938386
O O8 0.557348 0.260641 0.991134
O O9 0.379380 0.266355 0.097453
O O10 0.217299 0.222449 0.200966
O O11 0.000000 0.500000 0.000000
O O12 0.000000 0.500000 0.500000
O O13 0.239549 0.093014 0.604810
O O14 0.343574 0.241772 0.296981
O O15 0.895240 0.160939 0.287026
#
# Coordination Sequence:
#
# PCOD8009190 Si02
#       7
#     2   2   2   2   2   2   2
#     4  10  21  38  58  80 114 154 181 224 284 322
#     4  10  22  38  58  83 111 144 182 228 284 337
#     4  11  22  37  57  83 110 143 187 232 276 328
#     4   9  21  39  59  82 113 145 180 228 284 337
#     4  10  21  36  58  89 115 142 189 232 269 330
#     4  10  22  37  55  81 111 145 191 232 268 329
#     4  10  21  39  57  79 115 152 185 228 278 325
#
# _framework density 20.268277000000001
#
# number of rings (size 3 to 8) (size 9 to 14) (size 15 to 20)
#    0.000    2.000    0.000    2.571    0.000   10.857 
#    0.000    0.000    0.000    0.000    0.000    0.000 
#    0.000    0.000    0.000    0.000    0.000    0.000 
#
# Total GULP energy -173591.571149 kJ/mol
# GULP energy per Si atom -12399.397939 kJ/mol
# Density = 2.022215 g / cm^3
# Si number density = 20.268277 Si / 1000 Ang^3
#
#
#
# Elastic Constant Matrix: (Units=GPa)
#
#
# Indices 1 2 3 4 5 6 
#
# 1 88.4511 14.7919 28.0129 -11.6499 -5.1052 16.2672
# 2 14.7919 121.7777 49.4175 -1.1885 1.9261 12.6192
# 3 28.0129 49.4175 131.0755 -5.3337 -21.7794 1.5688
# 4 -11.6499 -1.1885 -5.3337 15.3998 5.2784 -0.6139
# 5 -5.1052 1.9261 -21.7794 5.2784 28.4400 -1.7176
# 6 16.2672 12.6192 1.5688 -0.6139 -1.7176 23.5918
#
#
#
# Elastic Compliance Matrix: (Units=1/GPa)
#
#
# Indices 1 2 3 4 5 6 
#
# 1 0.015583 0.000797 -0.003488 0.011116 -0.002646 -0.010842
# 2 0.000797 0.010889 -0.004985 0.001182 -0.005016 -0.006377
# 3 -0.003488 -0.004985 0.011661 -0.001978 0.009306 0.004922
# 4 0.011116 0.001182 -0.001978 0.077400 -0.014400 -0.007200
# 5 -0.002646 -0.005016 0.009306 -0.014400 0.045237 0.006807
# 6 -0.010842 -0.006377 0.004922 -0.007200 0.006807 0.053255
#
#
# Mechanical properties :
#
#
# Convention : Reuss Voigt Hill
#
# Bulk Modulus (GPa) = 43.89788 58.41654 51.15721
# Shear Modulus (GPa) = 21.09962 30.09178 25.59570
#
# Velocity S-wave (km/s) = 3.22998 3.85733 3.55751
# Velocity P-wave (km/s) = 5.96790 6.98018 6.49379
#
# Compressibility (1/GPa) = 0.02278014
#
# Stress axis : x y z
#
# Youngs Moduli (GPa) = 64.17435 91.83172 85.75700
#
# Poissons Ratio (x) = -0.07315 0.29913
# Poissons Ratio (y) = -0.05112 0.42749
# Poissons Ratio (z) = 0.22385 0.45777
#
# Static dielectric constant tensor:
#      x y z
#    x 3.839850 0.082740 -0.070900 
#    y 0.082740 3.801530 0.037530 
#    z -0.070900 0.037530 3.741390 
# 
# 
# High freq. dielectric constant tensor:
#      x y z
#    x 1.797200 0.010210 -0.008940 
#    y 0.010210 1.792830 -0.004830 
#    z -0.008940 -0.004830 1.789720 
# 
# From -- ./inp_files/14763.got.cif
#   From: 2010.06.25/outbox.cif.g09.slc.cpg/sg2_8_cif.got.tgz:14763.got - 2010.06.27 13:26:56.
