data_PCOD8009470
_publ_section_title
;
Structure prediction by ZEFSAII (Michael W. Deem and Ramdas Pophale) SiO2 
 PCOD8009470
Probable space group: P -1
;
_chemical_formula_sum "Si O2"
_cell_formula_units_Z 14
_cell_length_a 14.098697
_cell_length_b 8.449458
_cell_length_c 18.636068
_cell_angle_alpha 108.329845
_cell_angle_beta 20.129957
_cell_angle_gamma 117.980520
_cell_volume 613.979506
_symmetry_space_group_name_H-M "P -1"
_symmetry_group_IT_number 2
_symmetry_cell_setting 'triclinic'
loop_
_space_group_symop_operation_xyz
x,y,z
-x,-y,-z
loop_
_atom_site_type_symbol
_atom_site_label
_atom_site_fract_x
_atom_site_fract_y
_atom_site_fract_z
Si Si1 0.271048 0.176551 0.987531
Si Si2 0.692382 0.061362 0.298570
Si Si3 0.059378 0.732095 0.644313
Si Si4 0.545497 0.111213 0.133345
Si Si5 0.088281 0.475120 0.013222
Si Si6 0.931166 0.864856 0.613309
Si Si7 0.719200 0.502206 0.615692
O O1 0.019338 0.059226 0.083341
O O2 0.125727 0.284445 0.152828
O O3 0.611285 0.344778 0.735728
O O4 0.308669 0.027859 0.989997
O O5 0.789939 0.277960 0.232952
O O6 0.500000 0.000000 0.500000
O O7 0.447550 0.899743 0.392088
O O8 0.039488 0.527873 0.611380
O O9 0.880448 0.780489 0.716698
O O10 0.349431 0.087327 0.195349
O O11 0.843887 0.336214 0.961847
O O12 0.294262 0.055564 0.371051
O O13 0.409998 0.463477 0.783740
O O14 0.000000 0.500000 0.000000
O O15 0.907978 0.716989 0.546335
#
# Coordination Sequence:
#
# PCOD8009470 Si02
#       7
#     2   2   2   2   2   2   2
#     4  10  22  38  63  89 122 159 207 255 306 363
#     4   9  21  40  61  90 124 158 204 254 305 367
#     4  11  21  37  64  87 120 162 206 250 304 368
#     4  10  21  38  60  87 127 156 201 265 300 362
#     4  10  21  36  65  93 118 166 209 247 318 370
#     4  10  21  39  60  85 124 163 203 252 309 359
#     4  10  22  39  61  89 122 162 207 255 300 365
#
# _framework density 22.802064000000001
#
# number of rings (size 3 to 8) (size 9 to 14) (size 15 to 20)
#    0.000    2.000    1.429    1.286    2.000    2.286 
#    0.000    2.857   40.857    0.000    0.000    0.000 
#    0.000    0.000    0.000    0.000    0.000    0.000 
#
# Total GULP energy -173528.588559 kJ/mol
# GULP energy per Si atom -12394.899183 kJ/mol
# Density = 2.275017 g / cm^3
# Si number density = 22.802064 Si / 1000 Ang^3
#
#
#
# Elastic Constant Matrix: (Units=GPa)
#
#
# Indices 1 2 3 4 5 6 
#
# 1 105.3374 24.2429 14.2368 6.6263 -17.8308 -19.8517
# 2 24.2429 100.4974 24.4265 7.9090 -4.2713 -16.1600
# 3 14.2368 24.4265 51.4164 0.7752 -0.5850 -1.2772
# 4 6.6263 7.9090 0.7752 38.7073 -5.4987 -3.1177
# 5 -17.8308 -4.2713 -0.5850 -5.4987 26.6917 1.1837
# 6 -19.8517 -16.1600 -1.2772 -3.1177 1.1837 34.9175
#
#
#
# Elastic Compliance Matrix: (Units=1/GPa)
#
#
# Indices 1 2 3 4 5 6 
#
# 1 0.012645 -0.001001 -0.002775 -0.000274 0.007889 0.006332
# 2 -0.001001 0.012469 -0.005493 -0.001790 0.000624 0.004820
# 3 -0.002775 -0.005493 0.022717 0.000608 -0.001969 -0.003168
# 4 -0.000274 -0.001790 0.000608 0.027058 0.005061 0.001283
# 5 0.007889 0.000624 -0.001969 0.005061 0.043671 0.003673
# 6 0.006332 0.004820 -0.003168 0.001283 0.003673 0.034344
#
#
# Mechanical properties :
#
#
# Convention : Reuss Voigt Hill
#
# Bulk Modulus (GPa) = 34.13669 42.56261 38.34965
# Shear Modulus (GPa) = 27.59310 33.01963 30.30636
#
# Velocity S-wave (km/s) = 3.48244 3.80952 3.64965
# Velocity P-wave (km/s) = 5.58330 6.16900 5.88344
#
# Compressibility (1/GPa) = 0.02929399
#
# Stress axis : x y z
#
# Youngs Moduli (GPa) = 79.08530 80.19587 44.02065
#
# Poissons Ratio (x) = 0.08026 0.12214
# Poissons Ratio (y) = 0.07915 0.24180
# Poissons Ratio (z) = 0.21943 0.44051
#
# Static dielectric constant tensor:
#      x y z
#    x 4.206830 -0.115860 -0.549080 
#    y -0.115860 4.140920 -0.323720 
#    z -0.549080 -0.323720 4.169480 
# 
# 
# High freq. dielectric constant tensor:
#      x y z
#    x 1.902090 -0.015800 -0.029370 
#    y -0.015800 1.889550 -0.014370 
#    z -0.029370 -0.014370 1.887500 
# 
# From -- ./inp_files/258314.got.cif
#   From: 2010.06.25/outbox.cif.g09.slc.cpg/sg2_130_cif.got.tgz:258314.got - 2010.06.27 13:26:56.
