data_PCOD8009233
_publ_section_title
;
Structure prediction by ZEFSAII (Michael W. Deem and Ramdas Pophale) SiO2 
 PCOD8009233
Probable space group: P -1
;
_chemical_formula_sum "Si O2"
_cell_formula_units_Z 16
_cell_length_a 12.289515
_cell_length_b 12.063201
_cell_length_c 8.646195
_cell_angle_alpha 100.824218
_cell_angle_beta 120.211801
_cell_angle_gamma 48.460831
_cell_volume 807.752199
_symmetry_space_group_name_H-M "P -1"
_symmetry_group_IT_number 2
_symmetry_cell_setting 'triclinic'
loop_
_space_group_symop_operation_xyz
x,y,z
-x,-y,-z
loop_
_atom_site_type_symbol
_atom_site_label
_atom_site_fract_x
_atom_site_fract_y
_atom_site_fract_z
Si Si1 0.939685 0.358715 0.632060
Si Si2 0.258557 0.957154 0.006784
Si Si3 0.696838 0.699485 0.567583
Si Si4 0.194940 0.256689 0.049546
Si Si5 0.066806 0.892768 0.371271
Si Si6 0.687917 0.103460 0.631249
Si Si7 0.474072 0.894223 0.885571
Si Si8 0.775769 0.850131 0.460810
O O1 0.775195 0.533352 0.525315
O O2 0.882279 0.265217 0.591655
O O3 0.057984 0.289783 0.547028
O O4 0.030147 0.357012 0.848832
O O5 0.305238 0.866061 0.175025
O O6 0.258730 0.090995 0.067662
O O7 0.401454 0.848500 0.947779
O O8 0.078882 0.017488 0.838762
O O9 0.828827 0.677592 0.778618
O O10 0.509810 0.794959 0.529462
O O11 0.680480 0.793905 0.433473
O O12 0.340057 0.252760 0.079705
O O13 0.236355 0.843582 0.407311
O O14 0.000000 0.000000 0.500000
O O15 0.801585 0.920054 0.642985
O O16 0.333097 0.997404 0.680578
O O17 0.500000 0.000000 0.000000
#
# Coordination Sequence:
#
# PCOD8009233 Si02
#       8
#     2   2   2   2   2   2   2   2
#     4  11  24  40  59  86 125 163 192 238 301 357
#     4  10  20  36  60  92 115 146 204 250 288 337
#     4  12  24  36  59  95 126 151 190 249 303 353
#     4  10  19  35  59  87 122 155 190 238 303 355
#     4  11  22  42  65  84 114 159 210 241 284 351
#     4  12  23  36  64  90 118 157 200 249 285 344
#     4  10  16  31  58  85 115 148 193 244 285 346
#     4  12  20  37  59  88 118 155 194 241 298 349
#
# _framework density 19.808055
#
# number of rings (size 3 to 8) (size 9 to 14) (size 15 to 20)
#    0.000    1.000    7.500    3.000    0.000    0.500 
#    0.000    0.000    0.000    0.750    0.000    0.000 
#    0.000    0.000    0.000    0.000    0.000    0.000 
#
# Total GULP energy -198271.878373 kJ/mol
# GULP energy per Si atom -12391.992398 kJ/mol
# Density = 1.976297 g / cm^3
# Si number density = 19.808055 Si / 1000 Ang^3
#
#
#
# Elastic Constant Matrix: (Units=GPa)
#
#
# Indices 1 2 3 4 5 6 
#
# 1 154.7808 41.2350 34.7836 0.9862 -5.8083 -0.7861
# 2 41.2350 86.8778 28.0188 2.6990 0.8777 -0.7057
# 3 34.7836 28.0188 73.5209 9.4638 -8.1345 2.7107
# 4 0.9862 2.6990 9.4638 14.8286 0.9887 0.4750
# 5 -5.8083 0.8777 -8.1345 0.9887 28.0280 2.5160
# 6 -0.7861 -0.7057 2.7107 0.4750 2.5160 22.7017
#
#
#
# Elastic Compliance Matrix: (Units=1/GPa)
#
#
# Indices 1 2 3 4 5 6 
#
# 1 0.007878 -0.002907 -0.002761 0.001699 0.000828 0.000385
# 2 -0.002907 0.014353 -0.004484 0.000571 -0.002476 0.001143
# 3 -0.002761 -0.004484 0.018804 -0.011288 0.005682 -0.002874
# 4 0.001699 0.000571 -0.011288 0.074784 -0.005623 0.000483
# 5 0.000828 -0.002476 0.005682 -0.005623 0.038210 -0.004844
# 6 0.000385 0.001143 -0.002874 0.000483 -0.004844 0.044968
#
#
# Mechanical properties :
#
#
# Convention : Reuss Voigt Hill
#
# Bulk Modulus (GPa) = 48.23581 58.13937 53.18759
# Shear Modulus (GPa) = 22.10324 27.18779 24.64552
#
# Velocity S-wave (km/s) = 3.34409 3.70883 3.53117
# Velocity P-wave (km/s) = 6.27017 6.91055 6.59813
#
# Compressibility (1/GPa) = 0.02073148
#
# Stress axis : x y z
#
# Youngs Moduli (GPa) = 126.94045 69.67261 53.17924
#
# Poissons Ratio (x) = 0.20252 0.14681
# Poissons Ratio (y) = 0.36898 0.23847
# Poissons Ratio (z) = 0.35044 0.31244
#
# Static dielectric constant tensor:
#      x y z
#    x 4.013160 -0.284010 -0.253620 
#    y -0.284010 3.327710 0.245360 
#    z -0.253620 0.245360 3.640420 
# 
# 
# High freq. dielectric constant tensor:
#      x y z
#    x 1.777250 -0.014700 -0.010850 
#    y -0.014700 1.733580 0.019050 
#    z -0.010850 0.019050 1.773890 
# 
# From -- ./inp_files/258228.got.cif
#   From: 2010.06.25/outbox.cif.g09.slc.cpg/sg2_130_cif.got.tgz:258228.got - 2010.06.27 13:26:56.
