data_PCOD8009810
_publ_section_title
;
Structure prediction by ZEFSAII (Michael W. Deem and Ramdas Pophale) SiO2 
 PCOD8009810
Probable space group: P -1
;
_chemical_formula_sum "Si O2"
_cell_formula_units_Z 16
_cell_length_a 8.986823
_cell_length_b 6.566099
_cell_length_c 20.918096
_cell_angle_alpha 68.353769
_cell_angle_beta 122.914406
_cell_angle_gamma 129.227252
_cell_volume 802.088919
_symmetry_space_group_name_H-M "P -1"
_symmetry_group_IT_number 2
_symmetry_cell_setting 'triclinic'
loop_
_space_group_symop_operation_xyz
x,y,z
-x,-y,-z
loop_
_atom_site_type_symbol
_atom_site_label
_atom_site_fract_x
_atom_site_fract_y
_atom_site_fract_z
Si Si1 0.000232 0.350428 0.655838
Si Si2 0.623170 0.099065 0.083487
Si Si3 0.892482 0.680516 0.081524
Si Si4 0.197757 0.354103 0.574188
Si Si5 0.387882 0.139588 0.428040
Si Si6 0.933905 0.780566 0.582998
Si Si7 0.318561 0.164114 0.091738
Si Si8 0.692664 0.659508 0.171680
O O1 0.084129 0.423732 0.593644
O O2 0.174429 0.353032 0.739015
O O3 0.953897 0.561503 0.649427
O O4 0.783115 0.060687 0.640522
O O5 0.839802 0.388406 0.091534
O O6 0.472077 0.107722 0.097728
O O7 0.685283 0.912838 0.150851
O O8 0.500000 0.000000 0.000000
O O9 0.796100 0.693481 0.123473
O O10 0.787180 0.739246 0.992450
O O11 0.144090 0.895991 0.117749
O O12 0.444641 0.590150 0.600610
O O13 0.087588 0.309370 0.485027
O O14 0.152527 0.066207 0.614008
O O15 0.270198 0.211772 0.445036
O O16 0.500000 0.000000 0.500000
O O17 0.455187 0.394488 0.148755
#
# Coordination Sequence:
#
# PCOD8009810 Si02
#       8
#     2   2   2   2   2   2   2   2
#     4  11  25  40  59  88 126 160 196 247 305 356
#     4  11  19  37  63  87 116 155 198 248 294 346
#     4  10  21  37  61  90 115 150 204 245 290 357
#     4  10  22  38  63  90 115 152 206 243 290 358
#     4  11  23  38  64  94 116 150 207 249 292 357
#     4  10  22  39  63  89 117 157 198 249 298 350
#     4  10  21  37  61  90 114 153 202 244 295 354
#     4  11  23  41  58  85 127 158 191 249 303 346
#
# _framework density 19.947911999999999
#
# number of rings (size 3 to 8) (size 9 to 14) (size 15 to 20)
#    0.000    1.500    3.750    1.500    3.500    6.500 
#    0.000    2.500    0.000    0.000    0.000    0.000 
#    0.000    0.000    0.000    0.000    0.000    0.000 
#
# Total GULP energy -198321.844043 kJ/mol
# GULP energy per Si atom -12395.115253 kJ/mol
# Density = 1.990251 g / cm^3
# Si number density = 19.947912 Si / 1000 Ang^3
#
#
#
# Elastic Constant Matrix: (Units=GPa)
#
#
# Indices 1 2 3 4 5 6 
#
# 1 88.2224 78.6645 35.6669 -9.4728 5.5887 0.5167
# 2 78.6645 207.9112 47.0234 5.4607 19.0770 17.0611
# 3 35.6669 47.0234 64.0167 3.6538 22.5621 -8.0975
# 4 -9.4728 5.4607 3.6538 26.7435 1.3937 12.7374
# 5 5.5887 19.0770 22.5621 1.3937 30.7947 -1.4560
# 6 0.5167 17.0611 -8.0975 12.7374 -1.4560 47.8243
#
#
#
# Elastic Compliance Matrix: (Units=1/GPa)
#
#
# Indices 1 2 3 4 5 6 
#
# 1 0.022938 -0.006890 -0.011518 0.011976 0.007875 -0.002690
# 2 -0.006890 0.008269 -0.001401 -0.002595 -0.002847 -0.002508
# 3 -0.011518 -0.001401 0.031538 -0.011064 -0.019254 0.008325
# 4 0.011976 -0.002595 -0.011064 0.050258 0.004588 -0.014323
# 5 0.007875 -0.002847 -0.019254 0.004588 0.046606 -0.002133
# 6 -0.002690 -0.002508 0.008325 -0.014323 -0.002133 0.026993
#
#
# Mechanical properties :
#
#
# Convention : Reuss Voigt Hill
#
# Bulk Modulus (GPa) = 43.24105 75.87332 59.55718
# Shear Modulus (GPa) = 21.37409 34.32554 27.84982
#
# Velocity S-wave (km/s) = 3.27692 4.15270 3.74053
# Velocity P-wave (km/s) = 6.00347 7.81739 6.96969
#
# Compressibility (1/GPa) = 0.02312617
#
# Stress axis : x y z
#
# Youngs Moduli (GPa) = 43.59574 120.93901 31.70826
#
# Poissons Ratio (x) = 0.83328 0.36522
# Poissons Ratio (y) = 0.30038 0.04442
# Poissons Ratio (z) = 0.50214 0.16941
#
# Static dielectric constant tensor:
#      x y z
#    x 3.632210 0.031850 0.009600 
#    y 0.031850 4.497300 0.146170 
#    z 0.009600 0.146170 3.348240 
# 
# 
# High freq. dielectric constant tensor:
#      x y z
#    x 1.771900 -0.004170 0.001270 
#    y -0.004170 1.808470 0.005240 
#    z 0.001270 0.005240 1.746920 
# 
# From -- ./inp_files/44888.got.cif
#   From: 2010.06.25/outbox.cif.g09.slc.cpg/sg2_23_cif.got.tgz:44888.got - 2010.06.27 13:26:56.
