data_PCOD8009939
_publ_section_title
;
Structure prediction by ZEFSAII (Michael W. Deem and Ramdas Pophale) SiO2 
 PCOD8009939
Probable space group: P -1
;
_chemical_formula_sum "Si O2"
_cell_formula_units_Z 16
_cell_length_a 8.856485
_cell_length_b 15.254152
_cell_length_c 15.129593
_cell_angle_alpha 141.094206
_cell_angle_beta 31.896668
_cell_angle_gamma 141.573478
_cell_volume 630.202996
_symmetry_space_group_name_H-M "P -1"
_symmetry_group_IT_number 2
_symmetry_cell_setting 'triclinic'
loop_
_space_group_symop_operation_xyz
x,y,z
-x,-y,-z
loop_
_atom_site_type_symbol
_atom_site_label
_atom_site_fract_x
_atom_site_fract_y
_atom_site_fract_z
Si Si1 0.568746 0.241641 0.649551
Si Si2 0.092914 0.418066 0.291812
Si Si3 0.850127 0.788390 0.581538
Si Si4 0.775709 0.928256 0.465515
Si Si5 0.613187 0.632495 0.401498
Si Si6 0.472071 0.073899 0.861426
Si Si7 0.533240 0.675086 0.828137
Si Si8 0.102045 0.167406 0.972294
O O1 0.665460 0.412411 0.702569
O O2 0.510434 0.128232 0.505805
O O3 0.242289 0.190860 0.822957
O O4 0.821899 0.225632 0.576584
O O5 0.179562 0.335161 0.266806
O O6 0.749559 0.412305 0.473176
O O7 0.109459 0.329799 0.125914
O O8 0.672584 0.660493 0.498372
O O9 0.659986 0.767276 0.748406
O O10 0.917724 0.956846 0.643968
O O11 0.824971 0.778065 0.355619
O O12 0.716629 0.011106 0.647764
O O13 0.699696 0.491718 0.214872
O O14 0.293381 0.100997 0.887861
O O15 0.628976 0.231308 0.960778
O O16 0.250209 0.949665 0.941564
#
# Coordination Sequence:
#
# PCOD8009939 Si02
#       8
#     2   2   2   2   2   2   2   2
#     4  12  23  39  70 102 130 168 228 273 322 388
#     4  11  22  40  71  98 131 173 221 276 326 383
#     4  12  26  40  68 100 133 174 220 271 325 400
#     4  12  24  45  69  98 132 175 225 270 325 388
#     4  12  24  44  67  97 137 177 213 269 337 393
#     4  10  22  38  67  96 130 170 218 275 324 379
#     4  11  23  44  69  98 127 178 225 267 325 389
#     4  10  21  37  63 101 133 162 219 278 327 373
#
# _framework density 25.388645
#
# number of rings (size 3 to 8) (size 9 to 14) (size 15 to 20)
#    0.000    0.750    5.000    3.375    3.500    0.000 
#    0.000    1.250    2.750    0.000    0.000    0.000 
#    0.000    0.000    0.000    0.000    0.000    0.000 
#
# Total GULP energy -198381.378436 kJ/mol
# GULP energy per Si atom -12398.836152 kJ/mol
# Density = 2.533086 g / cm^3
# Si number density = 25.388645 Si / 1000 Ang^3
#
#
#
# Elastic Constant Matrix: (Units=GPa)
#
#
# Indices 1 2 3 4 5 6 
#
# 1 81.8640 38.7070 28.6204 3.8714 31.2079 -3.1609
# 2 38.7070 185.0031 71.0995 22.5449 21.3971 -16.1696
# 3 28.6204 71.0995 134.4406 27.1384 31.3782 -3.1218
# 4 3.8714 22.5449 27.1384 33.1736 12.4464 16.6883
# 5 31.2079 21.3971 31.3782 12.4464 34.8946 1.0665
# 6 -3.1609 -16.1696 -3.1218 16.6883 1.0665 33.4360
#
#
#
# Elastic Compliance Matrix: (Units=1/GPa)
#
#
# Indices 1 2 3 4 5 6 
#
# 1 0.020765 -0.003547 0.000116 0.009097 -0.019634 -0.003655
# 2 -0.003547 0.008430 -0.002607 -0.008031 0.002984 0.007412
# 3 0.000116 -0.002607 0.011938 -0.007378 -0.006724 0.003762
# 4 0.009097 -0.008031 -0.007378 0.065753 -0.018932 -0.035927
# 5 -0.019634 0.002984 -0.006724 -0.018932 0.056986 0.006591
# 6 -0.003655 0.007412 0.003762 -0.035927 0.006591 0.051219
#
#
# Mechanical properties :
#
#
# Convention : Reuss Voigt Hill
#
# Bulk Modulus (GPa) = 34.41175 75.35126 54.88150
# Shear Modulus (GPa) = 21.11025 37.82623 29.46824
#
# Velocity S-wave (km/s) = 2.88667 3.86409 3.41058
# Velocity P-wave (km/s) = 4.96930 7.04641 6.09696
#
# Compressibility (1/GPa) = 0.02905984
#
# Stress axis : x y z
#
# Youngs Moduli (GPa) = 48.15760 118.61755 83.76541
#
# Poissons Ratio (x) = 0.42068 -0.00975
# Poissons Ratio (y) = 0.17079 0.21836
# Poissons Ratio (z) = -0.00560 0.30921
#
# Static dielectric constant tensor:
#      x y z
#    x 4.551450 -0.032600 0.303580 
#    y -0.032600 4.918170 0.339190 
#    z 0.303580 0.339190 4.477430 
# 
# 
# High freq. dielectric constant tensor:
#      x y z
#    x 2.014920 -0.002570 0.024310 
#    y -0.002570 2.028220 0.017460 
#    z 0.024310 0.017460 1.999770 
# 
# From -- ./inp_files/505540.got.cif
#   From: 2010.06.25/outbox.cif.g09.slc.cpg/sg2_253_cif.got.tgz:505540.got - 2010.06.27 13:26:56.
