data_PCOD8009654
_publ_section_title
;
Structure prediction by ZEFSAII (Michael W. Deem and Ramdas Pophale) SiO2 
 PCOD8009654
Probable space group: P -1
;
_chemical_formula_sum "Si O2"
_cell_formula_units_Z 16
_cell_length_a 18.006097
_cell_length_b 7.468035
_cell_length_c 8.401763
_cell_angle_alpha 124.229842
_cell_angle_beta 103.491523
_cell_angle_gamma 55.047820
_cell_volume 758.986105
_symmetry_space_group_name_H-M "P -1"
_symmetry_group_IT_number 2
_symmetry_cell_setting 'triclinic'
loop_
_space_group_symop_operation_xyz
x,y,z
-x,-y,-z
loop_
_atom_site_type_symbol
_atom_site_label
_atom_site_fract_x
_atom_site_fract_y
_atom_site_fract_z
Si Si1 0.672904 0.860873 0.659070
Si Si2 0.141127 0.306224 0.186869
Si Si3 0.827096 0.639127 0.125291
Si Si4 0.962587 0.691641 0.430694
Si Si5 0.537413 0.808357 0.776467
Si Si6 0.641127 0.806227 0.260484
Si Si7 0.146226 0.883988 0.184469
Si Si8 0.353774 0.616011 0.154251
O O1 0.779312 0.699586 0.677861
O O2 0.619652 0.806086 0.733867
O O3 0.665726 0.756715 0.432957
O O4 0.629303 0.168742 0.792395
O O5 0.048038 0.592908 0.304828
O O6 0.126252 0.084107 0.131175
O O7 0.165727 0.256709 0.989481
O O8 0.880348 0.693910 0.308127
O O9 0.720688 0.800414 0.198962
O O10 0.870698 0.331257 0.994345
O O11 0.000000 0.500000 0.500000
O O12 0.919856 0.977384 0.626385
O O13 0.580143 0.522616 0.729148
O O14 0.451962 0.907089 0.663882
O O15 0.500000 0.000000 0.000000
O O16 0.626251 0.584109 0.079186
O O17 0.250001 0.749997 0.229398
#
# Coordination Sequence:
#
# PCOD8009654 Si02
#       8
#     2   2   2   2   2   2   2   2
#     4  11  21  40  60  80 119 151 181 238 285 323
#     4  10  21  37  59  85 112 150 191 230 281 338
#     4  11  21  40  60  80 119 151 181 238 285 323
#     4  10  21  38  59  86 115 146 192 234 275 340
#     4  10  21  38  59  86 115 146 192 234 275 340
#     4  10  21  37  59  85 112 150 191 230 281 338
#     4   9  20  38  58  83 114 151 190 229 281 335
#     4   9  20  38  58  83 114 151 190 229 281 335
#
# _framework density 21.080756000000001
#
# number of rings (size 3 to 8) (size 9 to 14) (size 15 to 20)
#    0.000    2.000    0.000    5.250    0.000    5.000 
#    0.000   18.750    0.000    0.000    0.000    0.000 
#    0.000    0.000    0.000    0.000    0.000    0.000 
#
# Total GULP energy -198364.802549 kJ/mol
# GULP energy per Si atom -12397.800159 kJ/mol
# Density = 2.103277 g / cm^3
# Si number density = 21.080756 Si / 1000 Ang^3
#
#
#
# Elastic Constant Matrix: (Units=GPa)
#
#
# Indices 1 2 3 4 5 6 
#
# 1 74.6017 19.8562 24.1568 3.9881 -3.2446 6.0271
# 2 19.8562 73.0215 24.5274 -0.5805 5.8609 -0.1376
# 3 24.1568 24.5274 80.8317 -4.6872 2.8199 8.9079
# 4 3.9881 -0.5805 -4.6872 26.9280 -5.6456 -4.1579
# 5 -3.2446 5.8609 2.8199 -5.6456 29.4472 -5.0621
# 6 6.0271 -0.1376 8.9079 -4.1579 -5.0621 27.8709
#
#
#
# Elastic Compliance Matrix: (Units=1/GPa)
#
#
# Indices 1 2 3 4 5 6 
#
# 1 0.015915 -0.003238 -0.003749 -0.003083 0.001753 -0.002401
# 2 -0.003238 0.016163 -0.004011 -0.000268 -0.002987 0.001480
# 3 -0.003749 -0.004011 0.015328 0.002234 -0.001345 -0.004019
# 4 -0.003083 -0.000268 0.002234 0.040972 0.008668 0.007638
# 5 0.001753 -0.002987 -0.001345 0.008668 0.037951 0.008222
# 6 -0.002401 0.001480 -0.004019 0.007638 0.008222 0.040324
#
#
# Mechanical properties :
#
#
# Convention : Reuss Voigt Hill
#
# Bulk Modulus (GPa) = 39.35493 40.61508 39.98501
# Shear Modulus (GPa) = 25.36524 27.51017 26.43770
#
# Velocity S-wave (km/s) = 3.47254 3.61638 3.54519
# Velocity P-wave (km/s) = 5.89807 6.06184 5.98051
#
# Compressibility (1/GPa) = 0.02540978
#
# Stress axis : x y z
#
# Youngs Moduli (GPa) = 62.83202 61.87045 65.23869
#
# Poissons Ratio (x) = 0.20035 0.24459
# Poissons Ratio (y) = 0.20346 0.26168
# Poissons Ratio (z) = 0.23556 0.24817
#
# Static dielectric constant tensor:
#      x y z
#    x 4.248870 -1.134680 -0.545040 
#    y -1.134680 5.967590 0.863740 
#    z -0.545040 0.863740 4.185710 
# 
# 
# High freq. dielectric constant tensor:
#      x y z
#    x 1.820210 -0.016540 -0.012600 
#    y -0.016540 1.832530 -0.002910 
#    z -0.012600 -0.002910 1.821220 
# 
# From -- ./inp_files/329617.got.cif
#   From: 2010.06.25/outbox.cif.g09.slc.cpg/sg2_165_cif.got.tgz:329617.got - 2010.06.27 13:26:56.
