data_PCOD8009326
_publ_section_title
;
Structure prediction by ZEFSAII (Michael W. Deem and Ramdas Pophale) SiO2 
 PCOD8009326
Probable space group: P -1
;
_chemical_formula_sum "Si O2"
_cell_formula_units_Z 16
_cell_length_a 15.376705
_cell_length_b 9.305649
_cell_length_c 6.674628
_cell_angle_alpha 126.744516
_cell_angle_beta 109.297647
_cell_angle_gamma 63.041697
_cell_volume 679.797715
_symmetry_space_group_name_H-M "P -1"
_symmetry_group_IT_number 2
_symmetry_cell_setting 'triclinic'
loop_
_space_group_symop_operation_xyz
x,y,z
-x,-y,-z
loop_
_atom_site_type_symbol
_atom_site_label
_atom_site_fract_x
_atom_site_fract_y
_atom_site_fract_z
Si Si1 0.567325 0.122050 0.703074
Si Si2 0.017884 0.373666 0.214324
Si Si3 0.729477 0.817028 0.393244
Si Si4 0.312207 0.809211 0.819276
Si Si5 0.260915 0.727742 0.301387
Si Si6 0.615039 0.532513 0.155703
Si Si7 0.851185 0.983548 0.849775
Si Si8 0.842082 0.557046 0.942344
O O1 0.502053 0.346918 0.833770
O O2 0.500000 0.000000 0.500000
O O3 0.657047 0.043072 0.543015
O O4 0.616242 0.087539 0.935457
O O5 0.109252 0.396269 0.179215
O O6 0.000000 0.500000 0.500000
O O7 0.039346 0.148907 0.106565
O O8 0.921024 0.438055 0.063615
O O9 0.673359 0.678947 0.309070
O O10 0.813540 0.807565 0.609491
O O11 0.773577 0.758310 0.155994
O O12 0.303251 0.832876 0.593617
O O13 0.357915 0.582680 0.713144
O O14 0.203682 0.895914 0.901849
O O15 0.165940 0.878387 0.242488
O O16 0.225064 0.572050 0.259253
O O17 0.348784 0.626877 0.126905
#
# Coordination Sequence:
#
# PCOD8009326 Si02
#       8
#     2   2   2   2   2   2   2   2
#     4   9  18  36  62  92 125 162 207 255 302 356
#     4  11  23  40  67  91 120 160 204 259 309 362
#     4   9  18  37  62  87 121 161 201 256 298 362
#     4  10  21  36  61  87 125 170 196 252 311 358
#     4  10  23  39  59  93 128 162 204 250 303 372
#     4   9  19  37  60  89 127 162 205 251 305 358
#     4  10  22  38  61  89 122 162 206 251 307 361
#     4  10  23  40  63  94 122 157 211 252 306 372
#
# _framework density 23.536413
#
# number of rings (size 3 to 8) (size 9 to 14) (size 15 to 20)
#    0.000    2.250    1.250    0.375    3.500    2.000 
#    0.000    1.250    0.000   10.500    0.000    0.000 
#    0.000    0.000    0.000    0.000    0.000    0.000 
#
# Total GULP energy -198209.337216 kJ/mol
# GULP energy per Si atom -12388.083576 kJ/mol
# Density = 2.348284 g / cm^3
# Si number density = 23.536413 Si / 1000 Ang^3
#
#
#
# Elastic Constant Matrix: (Units=GPa)
#
#
# Indices 1 2 3 4 5 6 
#
# 1 48.7609 10.9123 30.2566 6.0349 -18.0934 -0.5577
# 2 10.9123 100.7304 61.6344 23.3643 -16.9843 -8.5396
# 3 30.2566 61.6344 139.6168 4.3110 -9.7762 -1.5614
# 4 6.0349 23.3643 4.3110 41.6120 -0.4895 -10.7190
# 5 -18.0934 -16.9843 -9.7762 -0.4895 25.8322 3.3538
# 6 -0.5577 -8.5396 -1.5614 -10.7190 3.3538 28.6375
#
#
#
# Elastic Compliance Matrix: (Units=1/GPa)
#
#
# Indices 1 2 3 4 5 6 
#
# 1 0.035615 0.008231 -0.009196 -0.009577 0.027232 -0.004127
# 2 0.008231 0.019724 -0.009088 -0.011263 0.015138 -0.000442
# 3 -0.009196 -0.009088 0.012476 0.005220 -0.007679 0.000644
# 4 -0.009577 -0.011263 0.005220 0.033867 -0.012915 0.010928
# 5 0.027232 0.015138 -0.007679 -0.012915 0.065612 -0.007892
# 6 -0.004127 -0.000442 0.000644 0.010928 -0.007892 0.039757
#
#
# Mechanical properties :
#
#
# Convention : Reuss Voigt Hill
#
# Bulk Modulus (GPa) = 20.96018 54.96830 37.96424
# Shear Modulus (GPa) = 20.57124 31.63667 26.10396
#
# Velocity S-wave (km/s) = 2.95959 3.67025 3.33391
# Velocity P-wave (km/s) = 4.53912 6.43166 5.56641
#
# Compressibility (1/GPa) = 0.04770951
#
# Stress axis : x y z
#
# Youngs Moduli (GPa) = 28.07823 50.69963 80.15650
#
# Poissons Ratio (x) = -0.41733 0.73708
# Poissons Ratio (y) = -0.23112 0.72848
# Poissons Ratio (z) = 0.25819 0.46077
#
# Static dielectric constant tensor:
#      x y z
#    x 4.532280 -0.346630 0.029420 
#    y -0.346630 4.517060 0.481000 
#    z 0.029420 0.481000 4.381320 
# 
# 
# High freq. dielectric constant tensor:
#      x y z
#    x 1.930500 -0.008520 0.005460 
#    y -0.008520 1.940980 0.025230 
#    z 0.005460 0.025230 1.936020 
# 
# From -- ./inp_files/107629.got.cif
#   From: 2010.06.25/outbox.cif.g09.slc.cpg/sg2_54_cif.got.tgz:107629.got - 2010.06.27 13:26:56.
