data_PCOD8009337
_publ_section_title
;
Structure prediction by ZEFSAII (Michael W. Deem and Ramdas Pophale) SiO2 
 PCOD8009337
Probable space group: P -1
;
_chemical_formula_sum "Si O2"
_cell_formula_units_Z 14
_cell_length_a 9.220804
_cell_length_b 22.369100
_cell_length_c 10.925543
_cell_angle_alpha 24.226942
_cell_angle_beta 129.939047
_cell_angle_gamma 142.564022
_cell_volume 530.780494
_symmetry_space_group_name_H-M "P -1"
_symmetry_group_IT_number 2
_symmetry_cell_setting 'triclinic'
loop_
_space_group_symop_operation_xyz
x,y,z
-x,-y,-z
loop_
_atom_site_type_symbol
_atom_site_label
_atom_site_fract_x
_atom_site_fract_y
_atom_site_fract_z
Si Si1 0.778958 0.502456 0.868853
Si Si2 0.384483 0.693029 0.615121
Si Si3 0.454415 0.156479 0.972392
Si Si4 0.731976 0.842940 0.881264
Si Si5 0.811079 0.074846 0.268908
Si Si6 0.784450 0.506325 0.353301
Si Si7 0.942828 0.197294 0.728848
O O1 0.889222 0.704123 0.489451
O O2 0.667753 0.460023 0.025201
O O3 0.557186 0.331156 0.982813
O O4 0.000000 0.500000 0.000000
O O5 0.382894 0.610461 0.640113
O O6 0.159561 0.697626 0.481906
O O7 0.647212 0.911787 0.378577
O O8 0.588937 0.381762 0.593232
O O9 0.285633 0.074547 0.155915
O O10 0.662583 0.134780 0.136149
O O11 0.280374 0.028437 0.000837
O O12 0.875079 0.000261 0.555573
O O13 0.889422 0.776407 0.117420
O O14 0.085115 0.267079 0.005034
O O15 0.000000 0.500000 0.500000
#
# Coordination Sequence:
#
# PCOD8009337 Si02
#       7
#     2   2   2   2   2   2   2
#     4   9  20  35  60  90 113 158 200 251 296 341
#     4   9  20  40  63  90 120 153 216 248 292 368
#     4  10  22  37  58  93 119 155 206 245 304 360
#     4  11  21  38  61  94 123 151 202 251 310 364
#     4   9  21  38  64  88 116 164 203 255 297 345
#     4  10  22  38  64  91 115 163 208 250 297 353
#     4  10  21  36  61  92 122 159 189 258 314 348
#
# _framework density 26.376252000000001
#
# number of rings (size 3 to 8) (size 9 to 14) (size 15 to 20)
#    0.000    2.286    0.000    2.143   10.000    5.143 
#    0.000    0.714    0.000    6.857    0.000    0.000 
#    0.000    0.000    0.000    0.000    0.000    0.000 
#
# Total GULP energy -173530.457506 kJ/mol
# GULP energy per Si atom -12395.032679 kJ/mol
# Density = 2.631622 g / cm^3
# Si number density = 26.376252 Si / 1000 Ang^3
#
#
#
# Elastic Constant Matrix: (Units=GPa)
#
#
# Indices 1 2 3 4 5 6 
#
# 1 19.2120 24.5883 8.7346 7.9668 7.1068 -1.0456
# 2 24.5883 132.3974 72.7099 15.7735 -5.2285 -3.0863
# 3 8.7346 72.7099 181.0633 -1.6898 -21.3323 7.0514
# 4 7.9668 15.7735 -1.6898 42.0571 0.5876 -5.0127
# 5 7.1068 -5.2285 -21.3323 0.5876 16.0177 1.9073
# 6 -1.0456 -3.0863 7.0514 -5.0127 1.9073 35.3268
#
#
#
# Elastic Compliance Matrix: (Units=1/GPa)
#
#
# Indices 1 2 3 4 5 6 
#
# 1 0.103008 -0.017001 -0.005285 -0.012050 -0.058332 0.004058
# 2 -0.017001 0.013291 -0.003757 -0.001920 0.006857 0.000765
# 3 -0.005285 -0.003757 0.008980 0.002266 0.013314 -0.002674
# 4 -0.012050 -0.001920 0.002266 0.027081 0.006445 0.002518
# 5 -0.058332 0.006857 0.013314 0.006445 0.109088 -0.008760
# 6 0.004058 0.000765 -0.002674 0.002518 -0.008760 0.029858
#
#
# Mechanical properties :
#
#
# Convention : Reuss Voigt Hill
#
# Bulk Modulus (GPa) = 13.66243 60.52648 37.09446
# Shear Modulus (GPa) = 13.59467 33.78966 23.69216
#
# Velocity S-wave (km/s) = 2.27273 3.58308 3.00031
# Velocity P-wave (km/s) = 3.47536 6.33365 5.10849
#
# Compressibility (1/GPa) = 0.07319342
#
# Stress axis : x y z
#
# Youngs Moduli (GPa) = 9.70797 75.23880 111.35272
#
# Poissons Ratio (x) = 1.27915 0.58849
# Poissons Ratio (y) = 0.16505 0.41835
# Poissons Ratio (z) = 0.05131 0.28267
#
# Static dielectric constant tensor:
#      x y z
#    x 4.471750 0.147620 -0.459500 
#    y 0.147620 4.868370 0.056650 
#    z -0.459500 0.056650 5.444230 
# 
# 
# High freq. dielectric constant tensor:
#      x y z
#    x 2.041100 0.009000 -0.018580 
#    y 0.009000 2.067690 0.008840 
#    z -0.018580 0.008840 2.064110 
# 
# From -- ./inp_files/182294.got.cif
#   From: 2010.06.25/outbox.cif.g09.slc.cpg/sg2_92_cif.got.tgz:182294.got - 2010.06.27 13:26:56.
