data_PCOD8009317
_publ_section_title
;
Structure prediction by ZEFSAII (Michael W. Deem and Ramdas Pophale) SiO2 
 PCOD8009317
Probable space group: P -1
;
_chemical_formula_sum "Si O2"
_cell_formula_units_Z 16
_cell_length_a 22.403004
_cell_length_b 8.975276
_cell_length_c 16.201904
_cell_angle_alpha 115.671733
_cell_angle_beta 160.121223
_cell_angle_gamma 55.840946
_cell_volume 863.019323
_symmetry_space_group_name_H-M "P -1"
_symmetry_group_IT_number 2
_symmetry_cell_setting 'triclinic'
loop_
_space_group_symop_operation_xyz
x,y,z
-x,-y,-z
loop_
_atom_site_type_symbol
_atom_site_label
_atom_site_fract_x
_atom_site_fract_y
_atom_site_fract_z
Si Si1 0.811370 0.623326 0.662857
Si Si2 0.508608 0.299610 0.460087
Si Si3 0.166467 0.173117 0.422848
Si Si4 0.823879 0.738263 0.888274
Si Si5 0.098212 0.531152 0.715040
Si Si6 0.809629 0.107889 0.927431
Si Si7 0.471596 0.224314 0.209815
Si Si8 0.553517 0.423964 0.793217
O O1 0.850048 0.713158 0.654324
O O2 0.840272 0.718645 0.805526
O O3 0.589820 0.643664 0.367267
O O4 0.975839 0.400781 0.832748
O O5 0.500000 0.500000 0.500000
O O6 0.355232 0.297577 0.327327
O O7 0.734526 0.132095 0.740307
O O8 0.454784 0.239762 0.290008
O O9 0.084048 0.321522 0.427121
O O10 0.395495 0.998910 0.697281
O O11 0.037247 0.067521 0.217262
O O12 0.786230 0.948296 0.908695
O O13 0.000000 0.500000 0.500000
O O14 0.240755 0.325800 0.897281
O O15 0.247951 0.613837 0.902981
O O16 0.650598 0.312947 0.808184
O O17 0.573426 0.348855 0.340242
#
# Coordination Sequence:
#
# PCOD8009317 Si02
#       8
#     2   2   2   2   2   2   2   2
#     4  11  21  37  51  87 122 152 206 236 279 337
#     4  12  19  34  54  84 125 163 200 236 279 332
#     4  11  23  38  61  90 115 155 196 250 290 348
#     4  11  23  31  55  79 124 175 195 229 277 339
#     4   9  21  44  65  84 111 148 195 248 311 362
#     4  11  21  35  52  82 123 163 204 222 284 338
#     4  10  21  36  61  87 115 153 196 237 296 338
#     4   9  20  38  56  84 117 154 189 244 287 344
#
# _framework density 18.539562
#
# number of rings (size 3 to 8) (size 9 to 14) (size 15 to 20)
#    0.750    0.750    2.500    3.375    1.750    4.500 
#    0.000    0.625    0.000    0.750    0.000    0.000 
#    0.000    0.000    0.000    0.000    0.000    0.000 
#
# Total GULP energy -198226.374362 kJ/mol
# GULP energy per Si atom -12389.148398 kJ/mol
# Density = 1.849736 g / cm^3
# Si number density = 18.539562 Si / 1000 Ang^3
#
#
#
# Elastic Constant Matrix: (Units=GPa)
#
#
# Indices 1 2 3 4 5 6 
#
# 1 84.3151 51.5744 41.8779 1.9330 -6.1575 -0.1514
# 2 51.5744 96.1786 50.9676 -15.6267 -7.0136 8.6156
# 3 41.8779 50.9676 100.7128 -7.5063 -15.9479 -10.9224
# 4 1.9330 -15.6267 -7.5063 35.0249 1.2872 7.0287
# 5 -6.1575 -7.0136 -15.9479 1.2872 27.1197 5.3728
# 6 -0.1514 8.6156 -10.9224 7.0287 5.3728 26.9112
#
#
#
# Elastic Compliance Matrix: (Units=1/GPa)
#
#
# Indices 1 2 3 4 5 6 
#
# 1 0.020140 -0.010820 -0.003064 -0.007457 -0.000543 0.004390
# 2 -0.010820 0.023835 -0.008004 0.012363 0.001271 -0.014423
# 3 -0.003064 -0.008004 0.016955 -0.001732 0.005549 0.008771
# 4 -0.007457 0.012363 -0.001732 0.036996 0.001640 -0.014693
# 5 -0.000543 0.001271 0.005549 0.001640 0.041631 -0.006898
# 6 0.004390 -0.014423 0.008771 -0.014693 -0.006898 0.050576
#
#
# Mechanical properties :
#
#
# Convention : Reuss Voigt Hill
#
# Bulk Modulus (GPa) = 58.30282 63.33847 60.82064
# Shear Modulus (GPa) = 20.86570 26.93028 23.89799
#
# Velocity S-wave (km/s) = 3.35844 3.81541 3.59420
# Velocity P-wave (km/s) = 6.82311 7.32448 7.07824
#
# Compressibility (1/GPa) = 0.01715183
#
# Stress axis : x y z
#
# Youngs Moduli (GPa) = 49.65204 41.95577 58.97970
#
# Poissons Ratio (x) = 0.45397 0.18074
# Poissons Ratio (y) = 0.53725 0.47208
# Poissons Ratio (z) = 0.15216 0.33582
#
# Static dielectric constant tensor:
#      x y z
#    x 3.100330 0.076930 0.105760 
#    y 0.076930 3.369310 -0.158850 
#    z 0.105760 -0.158850 3.460040 
# 
# 
# High freq. dielectric constant tensor:
#      x y z
#    x 1.692290 0.011650 0.010270 
#    y 0.011650 1.715050 -0.015680 
#    z 0.010270 -0.015680 1.716540 
# 
# From -- ./inp_files/217169.got.cif
#   From: 2010.06.25/outbox.cif.g09.slc.cpg/sg2_109_cif.got.tgz:217169.got - 2010.06.27 13:26:56.
