data_PCOD8009304
_publ_section_title
;
Structure prediction by ZEFSAII (Michael W. Deem and Ramdas Pophale) SiO2 
 PCOD8009304
Probable space group: P -1
;
_chemical_formula_sum "Si O2"
_cell_formula_units_Z 16
_cell_length_a 8.779262
_cell_length_b 11.838775
_cell_length_c 16.269705
_cell_angle_alpha 26.548157
_cell_angle_beta 59.675010
_cell_angle_gamma 58.810826
_cell_volume 642.706647
_symmetry_space_group_name_H-M "P -1"
_symmetry_group_IT_number 2
_symmetry_cell_setting 'triclinic'
loop_
_space_group_symop_operation_xyz
x,y,z
-x,-y,-z
loop_
_atom_site_type_symbol
_atom_site_label
_atom_site_fract_x
_atom_site_fract_y
_atom_site_fract_z
Si Si1 0.826852 0.519459 0.710334
Si Si2 0.062584 0.960385 0.106020
Si Si3 0.343254 0.238143 0.903749
Si Si4 0.310884 0.106864 0.731684
Si Si5 0.488605 0.719950 0.580441
Si Si6 0.140761 0.668467 0.439652
Si Si7 0.171307 0.136022 0.369819
Si Si8 0.317573 0.098401 0.178999
O O1 0.900835 0.208793 0.879428
O O2 0.612111 0.589654 0.706521
O O3 0.933785 0.677865 0.515602
O O4 0.866797 0.600383 0.739470
O O5 0.150240 0.759242 0.283654
O O6 0.853280 0.051577 0.125005
O O7 0.171885 0.198226 0.920641
O O8 0.271837 0.268105 0.998981
O O9 0.411333 0.500552 0.691825
O O10 0.500000 0.000000 0.000000
O O11 0.387951 0.133956 0.603375
O O12 0.243274 0.382558 0.610154
O O13 0.466713 0.954450 0.844971
O O14 0.321057 0.937522 0.508946
O O15 0.238512 0.836984 0.363861
O O16 0.234791 0.220933 0.207336
O O17 0.000000 0.000000 0.500000
#
# Coordination Sequence:
#
# PCOD8009304 Si02
#       8
#     2   2   2   2   2   2   2   2
#     4  11  18  36  60  92 120 160 210 253 294 365
#     4  10  19  35  64  95 125 159 201 264 314 370
#     4  11  22  42  64  93 131 161 201 251 328 384
#     4  10  18  34  61  99 117 152 212 261 312 354
#     4  11  21  39  67  92 121 166 211 256 305 372
#     4  10  16  31  60  89 122 146 205 262 303 352
#     4  11  24  41  61  94 124 163 219 262 294 356
#     4  10  22  37  60  89 127 163 197 262 313 360
#
# _framework density 24.894715999999999
#
# number of rings (size 3 to 8) (size 9 to 14) (size 15 to 20)
#    0.000    1.500    5.000    2.250    0.000    1.000 
#    0.000    3.125    0.000    0.000    0.000    0.000 
#    0.000    0.000    0.000    0.000    0.000    0.000 
#
# Total GULP energy -198375.988335 kJ/mol
# GULP energy per Si atom -12398.499271 kJ/mol
# Density = 2.483805 g / cm^3
# Si number density = 24.894716 Si / 1000 Ang^3
#
#
#
# Elastic Constant Matrix: (Units=GPa)
#
#
# Indices 1 2 3 4 5 6 
#
# 1 143.4397 43.3009 27.5670 -4.1385 -41.8051 -11.0027
# 2 43.3009 119.4184 22.8407 0.5385 -9.9709 6.9383
# 3 27.5670 22.8407 54.7012 7.5110 -18.3044 -2.4336
# 4 -4.1385 0.5385 7.5110 33.7806 3.4847 -1.7546
# 5 -41.8051 -9.9709 -18.3044 3.4847 36.3900 -0.4363
# 6 -11.0027 6.9383 -2.4336 -1.7546 -0.4363 44.7760
#
#
#
# Elastic Compliance Matrix: (Units=1/GPa)
#
#
# Indices 1 2 3 4 5 6 
#
# 1 0.012100 -0.003482 -0.000257 0.000462 0.012817 0.003642
# 2 -0.003482 0.010244 -0.003757 0.000433 -0.003156 -0.002661
# 3 -0.000257 -0.003757 0.024946 -0.006654 0.011882 0.001730
# 4 0.000462 0.000433 -0.006654 0.031768 -0.005729 0.000874
# 5 0.012817 -0.003156 0.011882 -0.005729 0.047919 0.004527
# 6 0.003642 -0.002661 0.001730 0.000874 0.004527 0.023813
#
#
# Mechanical properties :
#
#
# Convention : Reuss Voigt Hill
#
# Bulk Modulus (GPa) = 30.96018 56.10850 43.53434
# Shear Modulus (GPa) = 28.32101 37.91267 33.11684
#
# Velocity S-wave (km/s) = 3.37654 3.90669 3.65125
# Velocity P-wave (km/s) = 5.25973 6.55263 5.94145
#
# Compressibility (1/GPa) = 0.03229955
#
# Stress axis : x y z
#
# Youngs Moduli (GPa) = 82.64331 97.61697 40.08732
#
# Poissons Ratio (x) = 0.33990 0.01028
# Poissons Ratio (y) = 0.28776 0.15060
# Poissons Ratio (z) = 0.02120 0.36672
#
# Static dielectric constant tensor:
#      x y z
#    x 5.004840 -0.106200 -0.252900 
#    y -0.106200 4.379900 0.189780 
#    z -0.252900 0.189780 4.354230 
# 
# 
# High freq. dielectric constant tensor:
#      x y z
#    x 2.013560 -0.002360 -0.011840 
#    y -0.002360 1.972540 0.020250 
#    z -0.011840 0.020250 1.981330 
# 
# From -- ./inp_files/558819.got.cif
#   From: 2010.06.25/outbox.cif.g09.slc.cpg/sg2_280_cif.got.tgz:558819.got - 2010.06.27 13:26:56.
