data_PCOD8009391
_publ_section_title
;
Structure prediction by ZEFSAII (Michael W. Deem and Ramdas Pophale) SiO2 
 PCOD8009391
Probable space group: P -1
;
_chemical_formula_sum "Si O2"
_cell_formula_units_Z 14
_cell_length_a 11.839301
_cell_length_b 12.826485
_cell_length_c 5.314688
_cell_angle_alpha 114.294069
_cell_angle_beta 126.143599
_cell_angle_gamma 74.057586
_cell_volume 593.466208
_symmetry_space_group_name_H-M "P -1"
_symmetry_group_IT_number 2
_symmetry_cell_setting 'triclinic'
loop_
_space_group_symop_operation_xyz
x,y,z
-x,-y,-z
loop_
_atom_site_type_symbol
_atom_site_label
_atom_site_fract_x
_atom_site_fract_y
_atom_site_fract_z
Si Si1 0.772913 0.863276 0.310926
Si Si2 0.801926 0.726835 0.700330
Si Si3 0.931823 0.377681 0.271668
Si Si4 0.758774 0.110603 0.537947
Si Si5 0.918595 0.162272 0.305879
Si Si6 0.390211 0.464091 0.623540
Si Si7 0.645826 0.350146 0.602271
O O1 0.730585 0.791205 0.428711
O O2 0.931340 0.901631 0.600751
O O3 0.687830 0.986784 0.307044
O O4 0.761420 0.793995 0.967997
O O5 0.735216 0.603593 0.492310
O O6 0.969935 0.702159 0.869221
O O7 0.937369 0.301803 0.461388
O O8 0.000000 0.500000 0.500000
O O9 0.768709 0.387814 0.990264
O O10 0.870425 0.121921 0.473832
O O11 0.643664 0.213164 0.432606
O O12 0.818240 0.126939 0.912301
O O13 0.483889 0.385062 0.479004
O O14 0.317795 0.580151 0.531354
O O15 0.500000 0.500000 0.000000
#
# Coordination Sequence:
#
# PCOD8009391 Si02
#       7
#     2   2   2   2   2   2   2
#     4  11  22  42  63  98 135 176 213 274 328 396
#     4  11  26  42  69 100 137 172 216 270 347 383
#     4  10  22  40  66 104 137 166 216 280 332 391
#     4  11  22  40  66  96 133 172 227 265 324 398
#     4  10  21  36  62  99 136 176 211 263 336 399
#     4  11  26  46  68  90 134 180 223 273 331 404
#     4  10  25  42  68  97 125 179 224 269 330 397
#
# _framework density 23.590223999999999
#
# number of rings (size 3 to 8) (size 9 to 14) (size 15 to 20)
#    0.000    1.429    0.000    5.143   14.000    0.571 
#    0.000    1.429    0.000    0.000    0.000    0.000 
#    0.000    0.000    0.000    0.000    0.000    0.000 
#
# Total GULP energy -173441.636817 kJ/mol
# GULP energy per Si atom -12388.688344 kJ/mol
# Density = 2.353653 g / cm^3
# Si number density = 23.590224 Si / 1000 Ang^3
#
#
#
# Elastic Constant Matrix: (Units=GPa)
#
#
# Indices 1 2 3 4 5 6 
#
# 1 50.0909 13.8254 12.3541 -10.7481 -8.6180 8.6602
# 2 13.8254 138.4550 20.2852 -10.5968 -18.3402 6.9351
# 3 12.3541 20.2852 61.7106 -5.7940 -19.7996 3.0217
# 4 -10.7481 -10.5968 -5.7940 28.6618 -1.9513 -4.6751
# 5 -8.6180 -18.3402 -19.7996 -1.9513 38.8870 -6.3234
# 6 8.6602 6.9351 3.0217 -4.6751 -6.3234 39.9145
#
#
#
# Elastic Compliance Matrix: (Units=1/GPa)
#
#
# Indices 1 2 3 4 5 6 
#
# 1 0.023627 -0.000777 -0.002473 0.007762 0.003455 -0.003347
# 2 -0.000777 0.008110 -0.001259 0.002605 0.003086 -0.000351
# 3 -0.002473 -0.001259 0.020494 0.003597 0.009662 0.001156
# 4 0.007762 0.002605 0.003597 0.040567 0.007387 0.003513
# 5 0.003455 0.003086 0.009662 0.007387 0.033913 0.004221
# 6 -0.003347 -0.000351 0.001156 0.003513 0.004221 0.026833
#
#
# Mechanical properties :
#
#
# Convention : Reuss Voigt Hill
#
# Bulk Modulus (GPa) = 23.14086 38.13176 30.63631
# Shear Modulus (GPa) = 28.25382 35.07879 31.66630
#
# Velocity S-wave (km/s) = 3.46452 3.86035 3.66778
# Velocity P-wave (km/s) = 5.08278 6.00576 5.56344
#
# Compressibility (1/GPa) = 0.04321360
#
# Stress axis : x y z
#
# Youngs Moduli (GPa) = 42.32457 123.29986 48.79361
#
# Poissons Ratio (x) = 0.09586 0.12067
# Poissons Ratio (y) = 0.03291 0.06141
# Poissons Ratio (z) = 0.10467 0.15518
#
# Static dielectric constant tensor:
#      x y z
#    x 3.159420 0.270670 -0.213710 
#    y 0.270670 4.673980 -0.020020 
#    z -0.213710 -0.020020 3.752860 
# 
# 
# High freq. dielectric constant tensor:
#      x y z
#    x 1.924000 0.005090 -0.013830 
#    y 0.005090 1.962660 -0.005260 
#    z -0.013830 -0.005260 1.906500 
# 
# From -- ./inp_files/72092.got.cif
#   From: 2010.06.25/outbox.cif.g09.slc.cpg/sg2_37_cif.got.tgz:72092.got - 2010.06.27 13:26:56.
