data_PCOD8009564
_publ_section_title
;
Structure prediction by ZEFSAII (Michael W. Deem and Ramdas Pophale) SiO2 
 PCOD8009564
Probable space group: P -1
;
_chemical_formula_sum "Si O2"
_cell_formula_units_Z 12
_cell_length_a 10.629390
_cell_length_b 13.211268
_cell_length_c 11.412736
_cell_angle_alpha 157.702115
_cell_angle_beta 45.368549
_cell_angle_gamma 130.583477
_cell_volume 432.737877
_symmetry_space_group_name_H-M "P -1"
_symmetry_group_IT_number 2
_symmetry_cell_setting 'triclinic'
loop_
_space_group_symop_operation_xyz
x,y,z
-x,-y,-z
loop_
_atom_site_type_symbol
_atom_site_label
_atom_site_fract_x
_atom_site_fract_y
_atom_site_fract_z
Si Si1 0.842989 0.773376 0.194368
Si Si2 0.646092 0.742839 0.811939
Si Si3 0.681598 0.963073 0.282038
Si Si4 0.951366 0.681167 0.337729
Si Si5 0.582948 0.772567 0.579953
Si Si6 0.018879 0.718076 0.621279
O O1 0.677875 0.750468 0.367473
O O2 0.791988 0.770870 0.089363
O O3 0.951156 0.038017 0.442159
O O4 0.966549 0.511352 0.821921
O O5 0.647320 0.825022 0.034053
O O6 0.523571 0.948557 0.038682
O O7 0.562305 0.452403 0.546679
O O8 0.861712 0.726894 0.629288
O O9 0.780375 0.253183 0.526967
O O10 0.500000 0.000000 0.500000
O O11 0.735472 0.732173 0.537897
O O12 0.000000 0.500000 0.000000
O O13 0.000000 0.500000 0.500000
O O14 0.000000 0.000000 0.000000
#
# Coordination Sequence:
#
# PCOD8009564 Si02
#       6
#     2   2   2   2   2   2
#     4  11  22  36  58  90 127 154 200 260 310 346
#     4  11  22  38  63  90 125 161 204 244 311 373
#     4  11  24  40  64  96 129 157 203 263 312 364
#     4  10  21  37  57  85 125 162 201 249 307 357
#     4  11  20  37  63  88 119 163 211 247 295 373
#     4  10  23  43  59  86 128 173 201 238 306 384
#
# _framework density 27.730412000000001
#
# number of rings (size 3 to 8) (size 9 to 14) (size 15 to 20)
#    0.000    1.333    1.667    7.000    0.000    4.667 
#    0.000    0.000    0.000    6.000    0.000    0.000 
#    0.000    0.000    0.000    0.000    0.000    0.000 
#
# Total GULP energy -148746.218348 kJ/mol
# GULP energy per Si atom -12395.518196 kJ/mol
# Density = 2.766730 g / cm^3
# Si number density = 27.730412 Si / 1000 Ang^3
#
#
#
# Elastic Constant Matrix: (Units=GPa)
#
#
# Indices 1 2 3 4 5 6 
#
# 1 164.6821 40.3275 20.8976 19.3878 -35.9418 8.9640
# 2 40.3275 184.2650 72.9472 11.4630 -22.9486 47.0727
# 3 20.8976 72.9472 160.9336 9.9870 -19.7661 20.2963
# 4 19.3878 11.4630 9.9870 62.6496 3.2581 -6.1593
# 5 -35.9418 -22.9486 -19.7661 3.2581 50.5792 13.3499
# 6 8.9640 47.0727 20.2963 -6.1593 13.3499 48.3526
#
#
#
# Elastic Compliance Matrix: (Units=1/GPa)
#
#
# Indices 1 2 3 4 5 6 
#
# 1 0.008279 0.000366 0.000522 -0.003576 0.007723 -0.004698
# 2 0.000366 0.010271 -0.002140 -0.003174 0.007351 -0.011603
# 3 0.000522 -0.002140 0.007902 -0.001433 0.003214 -0.002400
# 4 -0.003576 -0.003174 -0.001433 0.019192 -0.008167 0.009054
# 5 0.007723 0.007351 0.003214 -0.008167 0.035889 -0.020886
# 6 -0.004698 -0.011603 -0.002400 0.009054 -0.020886 0.040775
#
#
# Mechanical properties :
#
#
# Convention : Reuss Voigt Hill
#
# Bulk Modulus (GPa) = 41.75700 86.46947 64.11323
# Shear Modulus (GPa) = 37.65183 57.36351 47.50767
#
# Velocity S-wave (km/s) = 3.68881 4.55314 4.14357
# Velocity P-wave (km/s) = 5.76489 7.67406 6.78694
#
# Compressibility (1/GPa) = 0.02394808
#
# Stress axis : x y z
#
# Youngs Moduli (GPa) = 120.79157 97.36128 126.54412
#
# Poissons Ratio (x) = -0.03563 -0.06607
# Poissons Ratio (y) = -0.04420 0.27081
# Poissons Ratio (z) = -0.06306 0.20836
#
# Static dielectric constant tensor:
#      x y z
#    x 5.673290 -2.008700 -0.276670 
#    y -2.008700 -0.932480 3.878590 
#    z -0.276670 3.878590 -0.738290 
# 
# 
# High freq. dielectric constant tensor:
#      x y z
#    x 2.168100 -0.019510 0.007950 
#    y -0.019510 2.151710 -0.029180 
#    z 0.007950 -0.029180 2.152870 
# 
# From -- ./inp_files/522005.got.cif
#   From: 2010.06.25/outbox.cif.g09.slc.cpg/sg2_262_cif.got.tgz:522005.got - 2010.06.27 13:26:56.
