data_PCOD8009970
_publ_section_title
;
Structure prediction by ZEFSAII (Michael W. Deem and Ramdas Pophale) SiO2 
 PCOD8009970
Probable space group: P -1
;
_chemical_formula_sum "Si O2"
_cell_formula_units_Z 14
_cell_length_a 12.347367
_cell_length_b 10.665665
_cell_length_c 9.074626
_cell_angle_alpha 116.484796
_cell_angle_beta 101.994599
_cell_angle_gamma 125.405775
_cell_volume 670.598626
_symmetry_space_group_name_H-M "P -1"
_symmetry_group_IT_number 2
_symmetry_cell_setting 'triclinic'
loop_
_space_group_symop_operation_xyz
x,y,z
-x,-y,-z
loop_
_atom_site_type_symbol
_atom_site_label
_atom_site_fract_x
_atom_site_fract_y
_atom_site_fract_z
Si Si1 0.064454 0.449608 0.878272
Si Si2 0.766166 0.717264 0.692780
Si Si3 0.631032 0.739225 0.104385
Si Si4 0.079261 0.169332 0.898763
Si Si5 0.473333 0.277690 0.240994
Si Si6 0.294397 0.930875 0.514071
Si Si7 0.607050 0.062176 0.777299
O O1 0.083306 0.316037 0.886238
O O2 0.910584 0.297371 0.632490
O O3 0.252898 0.683985 0.998227
O O4 0.000000 0.500000 0.000000
O O5 0.669698 0.498810 0.463603
O O6 0.638160 0.706032 0.716597
O O7 0.866284 0.743141 0.871583
O O8 0.890317 0.916337 0.716582
O O9 0.803059 0.831219 0.146478
O O10 0.669995 0.877086 0.324727
O O11 0.500000 0.500000 0.000000
O O12 0.542022 0.740904 0.949170
O O13 0.404648 0.061935 0.162380
O O14 0.335091 0.960154 0.367179
O O15 0.416999 0.943400 0.642955
#
# Coordination Sequence:
#
# PCOD8009970 Si02
#       7
#     2   2   2   2   2   2   2
#     4  10  21  37  63  92 122 161 212 261 303 372
#     4   9  20  37  64  93 121 165 214 259 306 380
#     4  11  25  41  61  94 133 163 207 262 326 383
#     4  10  21  39  62  94 127 161 214 263 318 367
#     4  10  22  39  65  90 127 166 208 260 316 374
#     4  10  23  40  63  95 125 168 211 261 312 377
#     4  10  22  41  67  90 123 169 219 256 308 376
#
# _framework density 20.876867000000001
#
# number of rings (size 3 to 8) (size 9 to 14) (size 15 to 20)
#    0.000    2.000    0.000    2.571   14.000    1.143 
#    2.571    0.714    0.000    0.000    0.000    0.000 
#    0.000    0.000    0.000    0.000    0.000    0.000 
#
# Total GULP energy -173566.522576 kJ/mol
# GULP energy per Si atom -12397.608755 kJ/mol
# Density = 2.082935 g / cm^3
# Si number density = 20.876867 Si / 1000 Ang^3
#
#
#
# Elastic Constant Matrix: (Units=GPa)
#
#
# Indices 1 2 3 4 5 6 
#
# 1 40.6051 15.3585 44.8449 -1.2326 -1.7719 -8.9294
# 2 15.3585 140.5451 62.2775 15.4301 10.7630 -11.8663
# 3 44.8449 62.2775 133.6984 29.9394 16.1010 -1.1247
# 4 -1.2326 15.4301 29.9394 32.2761 -0.9521 3.0550
# 5 -1.7719 10.7630 16.1010 -0.9521 34.9933 -0.2497
# 6 -8.9294 -11.8663 -1.1247 3.0550 -0.2497 27.0737
#
#
#
# Elastic Compliance Matrix: (Units=1/GPa)
#
#
# Indices 1 2 3 4 5 6 
#
# 1 0.063655 0.004142 -0.031613 0.028543 0.017403 0.018436
# 2 0.004142 0.009702 -0.006000 0.000585 0.000040 0.005303
# 3 -0.031613 -0.006000 0.027645 -0.023484 -0.013181 -0.009379
# 4 0.028543 0.000585 -0.023484 0.053716 0.013552 0.002758
# 5 0.017403 0.000040 -0.013181 0.013552 0.035908 0.004012
# 6 0.018436 0.005303 -0.009379 0.002758 0.004012 0.044677
#
#
# Mechanical properties :
#
#
# Convention : Reuss Voigt Hill
#
# Bulk Modulus (GPa) = 29.35935 62.20114 45.78025
# Shear Modulus (GPa) = 15.94409 31.69313 23.81861
#
# Velocity S-wave (km/s) = 2.76655 3.90050 3.38140
# Velocity P-wave (km/s) = 4.92937 7.08126 6.10094
#
# Compressibility (1/GPa) = 0.03406070
#
# Stress axis : x y z
#
# Youngs Moduli (GPa) = 15.70980 103.07684 36.17301
#
# Poissons Ratio (x) = -0.42697 1.14353
# Poissons Ratio (y) = -0.06507 0.21702
# Poissons Ratio (z) = 0.49663 0.61841
#
# Static dielectric constant tensor:
#      x y z
#    x 4.126040 0.205850 0.357300 
#    y 0.205850 3.772220 0.346330 
#    z 0.357300 0.346330 4.337760 
# 
# 
# High freq. dielectric constant tensor:
#      x y z
#    x 1.814120 -0.007140 0.016210 
#    y -0.007140 1.807820 0.016350 
#    z 0.016210 0.016350 1.824530 
# 
# From -- ./inp_files/184433.got.cif
#   From: 2010.06.25/outbox.cif.g09.slc.cpg/sg2_93_cif.got.tgz:184433.got - 2010.06.27 13:26:56.
