data_PCOD8009076
_publ_section_title
;
Structure prediction by ZEFSAII (Michael W. Deem and Ramdas Pophale) SiO2 
 PCOD8009076
Probable space group: P -1
;
_chemical_formula_sum "Si O2"
_cell_formula_units_Z 16
_cell_length_a 8.810790
_cell_length_b 23.883949
_cell_length_c 11.646717
_cell_angle_alpha 30.753058
_cell_angle_beta 36.846715
_cell_angle_gamma 51.008333
_cell_volume 737.731198
_symmetry_space_group_name_H-M "P -1"
_symmetry_group_IT_number 2
_symmetry_cell_setting 'triclinic'
loop_
_space_group_symop_operation_xyz
x,y,z
-x,-y,-z
loop_
_atom_site_type_symbol
_atom_site_label
_atom_site_fract_x
_atom_site_fract_y
_atom_site_fract_z
Si Si1 0.739626 0.218220 0.979114
Si Si2 0.414234 0.260198 0.302655
Si Si3 0.111403 0.888771 0.132318
Si Si4 0.731223 0.238963 0.557130
Si Si5 0.239943 0.523872 0.228247
Si Si6 0.680349 0.719124 0.429388
Si Si7 0.909930 0.609690 0.086227
Si Si8 0.646807 0.382697 0.557622
O O1 0.685138 0.329468 0.753509
O O2 0.711960 0.119549 0.073245
O O3 0.017355 0.234215 0.841587
O O4 0.547251 0.188817 0.256066
O O5 0.109120 0.224313 0.531328
O O6 0.451059 0.235013 0.459993
O O7 0.533084 0.392508 0.987718
O O8 0.261145 0.881686 0.175300
O O9 0.000000 0.000000 0.000000
O O10 0.449947 0.233145 0.683819
O O11 0.779393 0.326117 0.477955
O O12 0.961828 0.279215 0.256875
O O13 0.358583 0.416405 0.309143
O O14 0.000000 0.500000 0.500000
O O15 0.137076 0.580620 0.079182
O O16 0.793641 0.510019 0.245614
O O17 0.657674 0.633732 0.262604
#
# Coordination Sequence:
#
# PCOD8009076 Si02
#       8
#     2   2   2   2   2   2   2   2
#     4  10  21  41  63  91 122 164 202 246 306 368
#     4  11  22  39  64  88 126 168 204 243 297 369
#     4  10  25  47  68  88 112 153 213 271 320 358
#     4  11  23  36  61  86 119 158 200 261 302 353
#     4  12  21  35  59  92 137 173 198 230 291 366
#     4  11  22  36  58  95 130 167 198 237 296 371
#     4  11  21  35  53  89 127 166 205 234 291 354
#     4  10  21  36  54  86 127 166 204 240 283 360
#
# _framework density 21.688119
#
# number of rings (size 3 to 8) (size 9 to 14) (size 15 to 20)
#    0.000    1.250    3.750    2.250    0.000    3.500 
#    0.000    2.500    0.000    1.500    0.000    0.000 
#    0.000    0.000    0.000    0.000    0.000    0.000 
#
# Total GULP energy -198240.040778 kJ/mol
# GULP energy per Si atom -12390.002549 kJ/mol
# Density = 2.163876 g / cm^3
# Si number density = 21.688119 Si / 1000 Ang^3
#
#
#
# Elastic Constant Matrix: (Units=GPa)
#
#
# Indices 1 2 3 4 5 6 
#
# 1 124.9931 39.7482 26.0753 -1.9892 18.1859 -17.6616
# 2 39.7482 108.0572 23.1783 8.2156 24.7045 3.9247
# 3 26.0753 23.1783 28.3397 6.9052 9.0942 -2.6859
# 4 -1.9892 8.2156 6.9052 32.5284 -4.4245 10.6226
# 5 18.1859 24.7045 9.0942 -4.4245 31.0832 2.8182
# 6 -17.6616 3.9247 -2.6859 10.6226 2.8182 34.4849
#
#
#
# Elastic Compliance Matrix: (Units=1/GPa)
#
#
# Indices 1 2 3 4 5 6 
#
# 1 0.011511 -0.002140 -0.007355 0.000497 -0.003326 0.005685
# 2 -0.002140 0.013391 -0.005897 -0.002830 -0.007926 -0.001560
# 3 -0.007355 -0.005897 0.053710 -0.013581 -0.009203 0.006023
# 4 0.000497 -0.002830 -0.013581 0.040742 0.013009 -0.014094
# 5 -0.003326 -0.007926 -0.009203 0.013009 0.045802 -0.009268
# 6 0.005685 -0.001560 0.006023 -0.014094 -0.009268 0.037655
#
#
# Mechanical properties :
#
#
# Convention : Reuss Voigt Hill
#
# Bulk Modulus (GPa) = 20.90947 48.82151 34.86549
# Shear Modulus (GPa) = 20.03695 31.11185 25.57440
#
# Velocity S-wave (km/s) = 3.04282 3.79160 3.43766
# Velocity P-wave (km/s) = 4.69115 6.45972 5.64512
#
# Compressibility (1/GPa) = 0.04782522
#
# Stress axis : x y z
#
# Youngs Moduli (GPa) = 86.87687 74.67933 18.61841
#
# Poissons Ratio (x) = 0.15983 0.13695
# Poissons Ratio (y) = 0.18593 0.10980
# Poissons Ratio (z) = 0.63902 0.44042
#
# Static dielectric constant tensor:
#      x y z
#    x 4.219400 0.007350 0.050460 
#    y 0.007350 3.920280 0.258120 
#    z 0.050460 0.258120 3.627850 
# 
# 
# High freq. dielectric constant tensor:
#      x y z
#    x 1.860940 0.000620 0.000500 
#    y 0.000620 1.846960 0.033910 
#    z 0.000500 0.033910 1.815100 
# 
# From -- ./inp_files/281893.got.cif
#   From: 2010.06.25/outbox.cif.g09.slc.cpg/sg2_141_cif.got.tgz:281893.got - 2010.06.27 13:26:56.
