data_PCOD8009399
_publ_section_title
;
Structure prediction by ZEFSAII (Michael W. Deem and Ramdas Pophale) SiO2 
 PCOD8009399
Probable space group: P -1
;
_chemical_formula_sum "Si O2"
_cell_formula_units_Z 16
_cell_length_a 8.503944
_cell_length_b 21.173031
_cell_length_c 10.936992
_cell_angle_alpha 134.401660
_cell_angle_beta 41.336210
_cell_angle_gamma 105.843899
_cell_volume 785.223426
_symmetry_space_group_name_H-M "P -1"
_symmetry_group_IT_number 2
_symmetry_cell_setting 'triclinic'
loop_
_space_group_symop_operation_xyz
x,y,z
-x,-y,-z
loop_
_atom_site_type_symbol
_atom_site_label
_atom_site_fract_x
_atom_site_fract_y
_atom_site_fract_z
Si Si1 0.219466 0.357246 0.819527
Si Si2 0.600383 0.432602 0.661021
Si Si3 0.742529 0.144541 0.291308
Si Si4 0.196304 0.657054 0.126258
Si Si5 0.266133 0.974056 0.637334
Si Si6 0.526777 0.226523 0.893832
Si Si7 0.980977 0.278076 0.424017
Si Si8 0.101402 0.400462 0.216825
O O1 0.367025 0.406771 0.725437
O O2 0.440419 0.233547 0.536453
O O3 0.946400 0.378044 0.936626
O O4 0.124388 0.421272 0.089789
O O5 0.733880 0.388627 0.658886
O O6 0.859763 0.372992 0.333533
O O7 0.471149 0.556125 0.889453
O O8 0.678034 0.076402 0.328149
O O9 0.910239 0.190312 0.321516
O O10 0.947000 0.075515 0.965249
O O11 0.281879 0.731388 0.107816
O O12 0.989171 0.715754 0.440000
O O13 0.279744 0.894598 0.419787
O O14 0.500000 0.000000 0.500000
O O15 0.394639 0.296271 0.942244
O O16 0.286543 0.244648 0.151388
O O17 0.000000 0.500000 0.500000
#
# Coordination Sequence:
#
# PCOD8009399 Si02
#       8
#     2   2   2   2   2   2   2   2
#     4  11  25  40  58  88 130 162 193 246 303 363
#     4  10  23  37  61  85 119 167 206 241 285 351
#     4  10  21  39  63  90 115 150 203 253 302 354
#     4  12  23  38  57  88 131 163 198 240 300 364
#     4  11  20  37  68  93 111 145 207 265 299 345
#     4  11  21  38  61  90 117 154 204 253 300 347
#     4  10  21  36  63  89 118 156 206 251 292 347
#     4  11  22  39  62  87 116 157 207 249 292 349
#
# _framework density 20.376366999999998
#
# number of rings (size 3 to 8) (size 9 to 14) (size 15 to 20)
#    0.000    1.250    5.000    1.500    3.500    1.500 
#    0.000    0.625    0.000    1.500    0.000    0.000 
#    0.000    0.000    0.000    0.000    0.000    0.000 
#
# Total GULP energy -198324.145962 kJ/mol
# GULP energy per Si atom -12395.259123 kJ/mol
# Density = 2.032999 g / cm^3
# Si number density = 20.376367 Si / 1000 Ang^3
#
#
#
# Elastic Constant Matrix: (Units=GPa)
#
#
# Indices 1 2 3 4 5 6 
#
# 1 65.1569 21.9953 38.1189 -8.1951 8.8854 13.5665
# 2 21.9953 116.1602 35.9742 -11.3805 -0.9083 20.0293
# 3 38.1189 35.9742 112.6194 0.7541 8.2528 3.6428
# 4 -8.1951 -11.3805 0.7541 34.6828 6.5938 -4.8785
# 5 8.8854 -0.9083 8.2528 6.5938 16.6663 0.6626
# 6 13.5665 20.0293 3.6428 -4.8785 0.6626 26.3760
#
#
#
# Elastic Compliance Matrix: (Units=1/GPa)
#
#
# Indices 1 2 3 4 5 6 
#
# 1 0.023859 -0.000151 -0.006914 0.006563 -0.011516 -0.009699
# 2 -0.000151 0.011258 -0.003445 0.002324 0.001783 -0.007611
# 3 -0.006914 -0.003445 0.012344 -0.002079 -0.001956 0.004132
# 4 0.006563 0.002324 -0.002079 0.034520 -0.016077 0.001936
# 5 -0.011516 0.001783 -0.001956 -0.016077 0.073566 0.000017
# 6 -0.009699 -0.007611 0.004132 0.001936 0.000017 0.048468
#
#
# Mechanical properties :
#
#
# Convention : Reuss Voigt Hill
#
# Bulk Modulus (GPa) = 37.82082 54.01261 45.91672
# Shear Modulus (GPa) = 21.38138 28.73490 25.05814
#
# Velocity S-wave (km/s) = 3.24284 3.75935 3.51060
# Velocity P-wave (km/s) = 5.71163 6.73859 6.24625
#
# Compressibility (1/GPa) = 0.02644046
#
# Stress axis : x y z
#
# Youngs Moduli (GPa) = 41.91375 88.82342 81.01356
#
# Poissons Ratio (x) = 0.01344 0.56009
# Poissons Ratio (y) = 0.00634 0.27910
# Poissons Ratio (z) = 0.28977 0.30601
#
# Static dielectric constant tensor:
#      x y z
#    x 3.155360 0.196800 -0.059160 
#    y 0.196800 4.017570 -0.133200 
#    z -0.059160 -0.133200 3.893750 
# 
# 
# High freq. dielectric constant tensor:
#      x y z
#    x 1.741440 0.021230 -0.001320 
#    y 0.021230 1.816150 -0.015100 
#    z -0.001320 -0.015100 1.807820 
# 
# From -- ./inp_files/270383.got.cif
#   From: 2010.06.25/outbox.cif.g09.slc.cpg/sg2_136_cif.got.tgz:270383.got - 2010.06.27 13:26:56.
