data_PCOD8009562
_publ_section_title
;
Structure prediction by ZEFSAII (Michael W. Deem and Ramdas Pophale) SiO2 
 PCOD8009562
Probable space group: P -1
;
_chemical_formula_sum "Si O2"
_cell_formula_units_Z 16
_cell_length_a 14.572847
_cell_length_b 8.078489
_cell_length_c 15.955127
_cell_angle_alpha 82.123747
_cell_angle_beta 141.160764
_cell_angle_gamma 68.875952
_cell_volume 769.225788
_symmetry_space_group_name_H-M "P -1"
_symmetry_group_IT_number 2
_symmetry_cell_setting 'triclinic'
loop_
_space_group_symop_operation_xyz
x,y,z
-x,-y,-z
loop_
_atom_site_type_symbol
_atom_site_label
_atom_site_fract_x
_atom_site_fract_y
_atom_site_fract_z
Si Si1 0.608943 0.625427 0.341684
Si Si2 0.185828 0.033353 0.560048
Si Si3 0.364779 0.960955 0.440482
Si Si4 0.436711 0.416199 0.253232
Si Si5 0.984528 0.957175 0.895886
Si Si6 0.826436 0.926131 0.093319
Si Si7 0.050027 0.099890 0.636501
Si Si8 0.120977 0.368549 0.370425
O O1 0.533498 0.515757 0.334332
O O2 0.833842 0.405020 0.463762
O O3 0.663377 0.699584 0.453532
O O4 0.421314 0.867328 0.133103
O O5 0.432211 0.786227 0.715506
O O6 0.015638 0.035436 0.412811
O O7 0.081463 0.294803 0.432002
O O8 0.203974 0.028868 0.674021
O O9 0.166749 0.199250 0.340892
O O10 0.249087 0.938268 0.291635
O O11 0.500000 0.000000 0.500000
O O12 0.541272 0.704565 0.637140
O O13 0.177844 0.658291 0.030744
O O14 0.010188 0.097785 0.844710
O O15 0.000000 0.000000 0.000000
O O16 0.813357 0.008018 0.172547
O O17 0.913689 0.661046 0.176179
#
# Coordination Sequence:
#
# PCOD8009562 Si02
#       8
#     2   2   2   2   2   2   2   2
#     4   9  19  36  59  83 117 162 190 242 294 355
#     4   9  18  37  62  86 117 159 189 254 297 345
#     4  11  25  39  62  90 116 155 204 253 303 350
#     4   9  21  42  60  82 123 156 202 243 301 358
#     4  11  25  42  63  87 119 164 205 242 298 365
#     4  10  21  38  60  85 121 157 199 239 299 355
#     4   9  18  38  62  84 117 156 207 232 294 365
#     4  10  21  37  57  85 122 148 193 252 302 343
#
# _framework density 20.800135999999998
#
# number of rings (size 3 to 8) (size 9 to 14) (size 15 to 20)
#    0.000    2.250    0.000    3.000    5.250    5.000 
#    0.000   16.250    0.000    0.000    0.000    0.000 
#    0.000    0.000    0.000    0.000    0.000    0.000 
#
# Total GULP energy -198362.682753 kJ/mol
# GULP energy per Si atom -12397.667672 kJ/mol
# Density = 2.075279 g / cm^3
# Si number density = 20.800136 Si / 1000 Ang^3
#
#
#
# Elastic Constant Matrix: (Units=GPa)
#
#
# Indices 1 2 3 4 5 6 
#
# 1 104.5454 24.2740 29.0696 -8.6664 -20.6420 5.0777
# 2 24.2740 71.8453 25.7217 -8.4432 -16.1980 12.9062
# 3 29.0696 25.7217 95.5806 -12.9548 -9.8540 2.5673
# 4 -8.6664 -8.4432 -12.9548 40.4107 2.6611 -11.3441
# 5 -20.6420 -16.1980 -9.8540 2.6611 33.1836 -1.4124
# 6 5.0777 12.9062 2.5673 -11.3441 -1.4124 28.9748
#
#
#
# Elastic Compliance Matrix: (Units=1/GPa)
#
#
# Indices 1 2 3 4 5 6 
#
# 1 0.011860 -0.001641 -0.002436 0.000900 0.005759 -0.000498
# 2 -0.001641 0.018592 -0.003638 -0.000152 0.006671 -0.007406
# 3 -0.002436 -0.003638 0.012608 0.003377 0.000278 0.002266
# 4 0.000900 -0.000152 0.003377 0.029098 -0.000377 0.010985
# 5 0.005759 0.006671 0.000278 -0.000377 0.036987 -0.002350
# 6 -0.000498 -0.007406 0.002266 0.010985 -0.002350 0.041884
#
#
# Mechanical properties :
#
#
# Convention : Reuss Voigt Hill
#
# Bulk Modulus (GPa) = 36.19340 47.78909 41.99125
# Shear Modulus (GPa) = 28.46241 33.37424 30.91832
#
# Velocity S-wave (km/s) = 3.70317 4.00999 3.85963
# Velocity P-wave (km/s) = 5.97687 6.66823 6.33199
#
# Compressibility (1/GPa) = 0.02762935
#
# Stress axis : x y z
#
# Youngs Moduli (GPa) = 84.31962 53.78548 79.31523
#
# Poissons Ratio (x) = 0.08826 0.19322
# Poissons Ratio (y) = 0.13836 0.28857
# Poissons Ratio (z) = 0.20542 0.19568
#
# Static dielectric constant tensor:
#      x y z
#    x 3.835030 0.014170 -0.117470 
#    y 0.014170 3.926210 -0.086790 
#    z -0.117470 -0.086790 3.707930 
# 
# 
# High freq. dielectric constant tensor:
#      x y z
#    x 1.807370 0.009270 -0.013850 
#    y 0.009270 1.821810 -0.002450 
#    z -0.013850 -0.002450 1.802770 
# 
# From -- ./inp_files/276281.got.cif
#   From: 2010.06.25/outbox.cif.g09.slc.cpg/sg2_139_cif.got.tgz:276281.got - 2010.06.27 13:26:56.
