data_PCOD8009038
_publ_section_title
;
Structure prediction by ZEFSAII (Michael W. Deem and Ramdas Pophale) SiO2 
 PCOD8009038
Probable space group: P -1
;
_chemical_formula_sum "Si O2"
_cell_formula_units_Z 16
_cell_length_a 12.697909
_cell_length_b 15.239820
_cell_length_c 7.408280
_cell_angle_alpha 57.010402
_cell_angle_beta 36.088520
_cell_angle_gamma 52.680866
_cell_volume 666.988812
_symmetry_space_group_name_H-M "P -1"
_symmetry_group_IT_number 2
_symmetry_cell_setting 'triclinic'
loop_
_space_group_symop_operation_xyz
x,y,z
-x,-y,-z
loop_
_atom_site_type_symbol
_atom_site_label
_atom_site_fract_x
_atom_site_fract_y
_atom_site_fract_z
Si Si1 0.175291 0.760190 0.226663
Si Si2 0.680731 0.908924 0.261637
Si Si3 0.566539 0.695539 0.691217
Si Si4 0.386880 0.668744 0.591745
Si Si5 0.754463 0.516178 0.139936
Si Si6 0.149229 0.531228 0.522811
Si Si7 0.901339 0.117577 0.167870
Si Si8 0.879986 0.939565 0.623581
O O1 0.158268 0.645728 0.301607
O O2 0.014663 0.812487 0.540996
O O3 0.391412 0.733696 0.036055
O O4 0.141609 0.852929 0.013795
O O5 0.670025 0.786014 0.431902
O O6 0.500000 0.000000 0.500000
O O7 0.696881 0.936228 0.994829
O O8 0.874905 0.908844 0.083391
O O9 0.451809 0.685790 0.682716
O O10 0.718638 0.574358 0.657315
O O11 0.576197 0.632024 0.246012
O O12 0.291969 0.573378 0.819855
O O13 0.223373 0.783610 0.635751
O O14 0.789400 0.476183 0.344369
O O15 0.935178 0.536770 0.784277
O O16 0.829526 0.012639 0.427549
O O17 0.000000 0.000000 0.500000
#
# Coordination Sequence:
#
# PCOD8009038 Si02
#       8
#     2   2   2   2   2   2   2   2
#     4  11  23  41  64  96 135 172 218 264 323 387
#     4  11  24  45  70  97 129 165 221 275 327 390
#     4  10  21  40  63  95 133 171 211 268 324 386
#     4   9  19  36  61  89 132 168 207 274 321 376
#     4   9  19  36  58  97 130 165 223 265 315 388
#     4  10  21  35  66  93 133 174 216 261 327 381
#     4  10  22  43  63  92 132 170 217 271 323 378
#     4  10  23  40  68  91 121 174 219 263 332 382
#
# _framework density 23.988408
#
# number of rings (size 3 to 8) (size 9 to 14) (size 15 to 20)
#    0.000    2.000    0.000    3.000    8.750    1.000 
#    2.250   11.250    0.000    0.000    0.000    0.000 
#    0.000    0.000    0.000    0.000    0.000    0.000 
#
# Total GULP energy -198245.816318 kJ/mol
# GULP energy per Si atom -12390.363520 kJ/mol
# Density = 2.393381 g / cm^3
# Si number density = 23.988408 Si / 1000 Ang^3
#
#
#
# Elastic Constant Matrix: (Units=GPa)
#
#
# Indices 1 2 3 4 5 6 
#
# 1 34.5125 13.3023 8.6074 9.3305 -9.8991 -4.2606
# 2 13.3023 186.4751 83.7008 30.4090 -3.0507 -2.4801
# 3 8.6074 83.7008 158.6216 27.2216 -16.2575 -12.0208
# 4 9.3305 30.4090 27.2216 50.0703 -4.9815 -5.1713
# 5 -9.8991 -3.0507 -16.2575 -4.9815 29.7831 0.2049
# 6 -4.2606 -2.4801 -12.0208 -5.1713 0.2049 28.1952
#
#
#
# Elastic Compliance Matrix: (Units=1/GPa)
#
#
# Indices 1 2 3 4 5 6 
#
# 1 0.034439 -0.002205 0.001557 -0.004303 0.011318 0.004803
# 2 -0.002205 0.007592 -0.003835 -0.002540 -0.002462 -0.001749
# 3 0.001557 -0.003835 0.009384 -0.002223 0.004852 0.003456
# 4 -0.004303 -0.002540 -0.002223 0.023896 0.001075 0.002553
# 5 0.011318 -0.002462 0.004852 0.001075 0.039890 0.003470
# 6 0.004803 -0.001749 0.003456 0.002553 0.003470 0.037955
#
#
# Mechanical properties :
#
#
# Convention : Reuss Voigt Hill
#
# Bulk Modulus (GPa) = 23.55759 65.64782 44.60270
# Shear Modulus (GPa) = 28.36502 39.87629 34.12066
#
# Velocity S-wave (km/s) = 3.44240 4.08157 3.77554
# Velocity P-wave (km/s) = 5.06378 7.04544 6.13515
#
# Compressibility (1/GPa) = 0.04244917
#
# Stress axis : x y z
#
# Youngs Moduli (GPa) = 29.03680 131.71324 106.56017
#
# Poissons Ratio (x) = 0.29042 -0.16593
# Poissons Ratio (y) = 0.06402 0.40871
# Poissons Ratio (z) = -0.04521 0.50518
#
# Static dielectric constant tensor:
#      x y z
#    x 4.155850 -0.294020 0.122400 
#    y -0.294020 5.033540 0.254330 
#    z 0.122400 0.254330 4.785530 
# 
# 
# High freq. dielectric constant tensor:
#      x y z
#    x 1.924920 0.000010 -0.005450 
#    y 0.000010 1.973170 0.019680 
#    z -0.005450 0.019680 1.955510 
# 
# From -- ./inp_files/224282.got.cif
#   From: 2010.06.25/outbox.cif.g09.slc.cpg/sg2_113_cif.got.tgz:224282.got - 2010.06.27 13:26:56.
