data_PCOD8009591
_publ_section_title
;
Structure prediction by ZEFSAII (Michael W. Deem and Ramdas Pophale) SiO2 
 PCOD8009591
Probable space group: P -1
;
_chemical_formula_sum "Si O2"
_cell_formula_units_Z 16
_cell_length_a 8.915456
_cell_length_b 17.612650
_cell_length_c 20.174862
_cell_angle_alpha 18.132262
_cell_angle_beta 53.795145
_cell_angle_gamma 63.337101
_cell_volume 711.077931
_symmetry_space_group_name_H-M "P -1"
_symmetry_group_IT_number 2
_symmetry_cell_setting 'triclinic'
loop_
_space_group_symop_operation_xyz
x,y,z
-x,-y,-z
loop_
_atom_site_type_symbol
_atom_site_label
_atom_site_fract_x
_atom_site_fract_y
_atom_site_fract_z
Si Si1 0.570967 0.911707 0.660077
Si Si2 0.431166 0.068126 0.794668
Si Si3 0.973135 0.964403 0.114524
Si Si4 0.567748 0.771699 0.198576
Si Si5 0.753342 0.627868 0.755655
Si Si6 0.233686 0.985552 0.334196
Si Si7 0.668694 0.483965 0.649210
Si Si8 0.487207 0.572434 0.750297
O O1 0.694345 0.847548 0.623254
O O2 0.710986 0.987644 0.625716
O O3 0.551286 0.178181 0.421263
O O4 0.343377 0.654028 0.942962
O O5 0.632666 0.123696 0.653705
O O6 0.240866 0.004916 0.844664
O O7 0.489473 0.293617 0.653106
O O8 0.349100 0.798586 0.085907
O O9 0.909264 0.670803 0.410447
O O10 0.000000 0.000000 0.000000
O O11 0.188234 0.154873 0.935934
O O12 0.454818 0.523319 0.381832
O O13 0.500000 0.000000 0.000000
O O14 0.657536 0.549535 0.772527
O O15 0.999414 0.757050 0.576912
O O16 0.275446 0.285570 0.047452
O O17 0.579311 0.623087 0.610539
#
# Coordination Sequence:
#
# PCOD8009591 Si02
#       8
#     2   2   2   2   2   2   2   2
#     4  10  21  40  61  90 124 156 198 250 304 364
#     4   9  20  38  57  83 118 153 198 249 295 350
#     4  10  21  37  58  83 112 153 200 242 294 353
#     4   9  20  37  58  83 113 153 196 238 289 348
#     4  10  22  39  63  89 121 161 200 245 305 367
#     4  10  21  39  60  89 121 157 203 250 300 361
#     4  10  21  39  57  82 119 154 194 249 297 346
#     4  10  22  38  59  88 123 155 200 253 300 358
#
# _framework density 22.501048000000001
#
# number of rings (size 3 to 8) (size 9 to 14) (size 15 to 20)
#    0.000    2.250    0.000    1.500    0.000   11.000 
#    0.000   16.250    0.000    0.000    0.000    0.000 
#    0.000    0.000    0.000    0.000    0.000    0.000 
#
# Total GULP energy -198242.373395 kJ/mol
# GULP energy per Si atom -12390.148337 kJ/mol
# Density = 2.244983 g / cm^3
# Si number density = 22.501048 Si / 1000 Ang^3
#
#
#
# Elastic Constant Matrix: (Units=GPa)
#
#
# Indices 1 2 3 4 5 6 
#
# 1 96.1190 28.3870 30.5762 9.4227 -16.9555 -4.0808
# 2 28.3870 103.6135 28.7213 4.5552 -9.8566 -2.3292
# 3 30.5762 28.7213 75.1356 21.1809 -25.8892 -13.3589
# 4 9.4227 4.5552 21.1809 37.3362 -0.6613 1.0836
# 5 -16.9555 -9.8566 -25.8892 -0.6613 36.5607 7.5167
# 6 -4.0808 -2.3292 -13.3589 1.0836 7.5167 37.8592
#
#
#
# Elastic Compliance Matrix: (Units=1/GPa)
#
#
# Indices 1 2 3 4 5 6 
#
# 1 0.012685 -0.002322 -0.002871 -0.001219 0.003285 -0.000406
# 2 -0.002322 0.011306 -0.004310 0.001664 -0.000855 -0.000954
# 3 -0.002871 -0.004310 0.025938 -0.013387 0.014376 0.006107
# 4 -0.001219 0.001664 -0.013387 0.034459 -0.008125 -0.004126
# 5 0.003285 -0.000855 0.014376 -0.008125 0.039122 -0.002161
# 6 -0.000406 -0.000954 0.006107 -0.004126 -0.002161 0.029013
#
#
# Mechanical properties :
#
#
# Convention : Reuss Voigt Hill
#
# Bulk Modulus (GPa) = 32.33854 50.02635 41.18244
# Shear Modulus (GPa) = 27.49709 34.83013 31.16361
#
# Velocity S-wave (km/s) = 3.49956 3.93865 3.72558
# Velocity P-wave (km/s) = 5.54368 6.55478 6.07032
#
# Compressibility (1/GPa) = 0.03092286
#
# Stress axis : x y z
#
# Youngs Moduli (GPa) = 78.83533 88.44580 38.55305
#
# Poissons Ratio (x) = 0.20541 0.11067
# Poissons Ratio (y) = 0.18309 0.16617
# Poissons Ratio (z) = 0.22631 0.38121
#
# Static dielectric constant tensor:
#      x y z
#    x 4.313460 0.120480 0.002570 
#    y 0.120480 4.218650 -0.045960 
#    z 0.002570 -0.045960 4.390250 
# 
# 
# High freq. dielectric constant tensor:
#      x y z
#    x 1.886610 0.014250 0.015960 
#    y 0.014250 1.883460 0.001150 
#    z 0.015960 0.001150 1.906210 
# 
# From -- ./inp_files/52580.got.cif
#   From: 2010.06.25/outbox.cif.g09.slc.cpg/sg2_27_cif.got.tgz:52580.got - 2010.06.27 13:26:56.
