data_PCOD8009875
_publ_section_title
;
Structure prediction by ZEFSAII (Michael W. Deem and Ramdas Pophale) SiO2 
 PCOD8009875
Probable space group: P -1
;
_chemical_formula_sum "Si O2"
_cell_formula_units_Z 14
_cell_length_a 30.890937
_cell_length_b 28.865134
_cell_length_c 15.732473
_cell_angle_alpha 17.501852
_cell_angle_beta 17.750738
_cell_angle_gamma 9.217270
_cell_volume 657.909936
_symmetry_space_group_name_H-M "P -1"
_symmetry_group_IT_number 2
_symmetry_cell_setting 'triclinic'
loop_
_space_group_symop_operation_xyz
x,y,z
-x,-y,-z
loop_
_atom_site_type_symbol
_atom_site_label
_atom_site_fract_x
_atom_site_fract_y
_atom_site_fract_z
Si Si1 0.778046 0.404989 0.044103
Si Si2 0.793896 0.699648 0.434048
Si Si3 0.378167 0.391461 0.659699
Si Si4 0.267600 0.447028 0.958183
Si Si5 0.433436 0.155571 0.564430
Si Si6 0.645795 0.248683 0.922830
Si Si7 0.872829 0.703312 0.961823
O O1 0.928161 0.435139 0.701181
O O2 0.544277 0.602022 0.065324
O O3 0.623553 0.547843 0.176194
O O4 0.027387 0.049877 0.191660
O O5 0.792311 0.634593 0.454815
O O6 0.500000 0.000000 0.500000
O O7 0.944106 0.724707 0.101649
O O8 0.320896 0.479336 0.712913
O O9 0.114768 0.555562 0.822900
O O10 0.655383 0.032725 0.757759
O O11 0.424000 0.519001 0.311972
O O12 0.375988 0.171015 0.235598
O O13 0.598297 0.164227 0.233168
O O14 0.284156 0.279010 0.718973
O O15 0.000000 0.500000 0.000000
#
# Coordination Sequence:
#
# PCOD8009875 Si02
#       7
#     2   2   2   2   2   2   2
#     4  11  22  33  58  87 128 169 216 238 285 356
#     4  11  18  32  55  89 120 159 212 253 282 335
#     4  11  25  43  64  90 129 155 197 260 321 365
#     4  11  20  35  57  87 122 170 217 247 285 342
#     4  10  21  37  62  89 123 162 212 253 299 355
#     4  11  24  39  57  91 131 166 195 250 311 361
#     4  11  24  46  71  92 113 155 210 262 311 373
#
# _framework density 21.279506999999999
#
# number of rings (size 3 to 8) (size 9 to 14) (size 15 to 20)
#    0.000    1.143    4.286    3.429    0.000    1.143 
#    0.000    1.429    0.000    0.000    0.000    0.000 
#    0.000    0.000    0.000    0.000    0.000    0.000 
#
# Total GULP energy -173481.815474 kJ/mol
# GULP energy per Si atom -12391.558248 kJ/mol
# Density = 2.123107 g / cm^3
# Si number density = 21.279507 Si / 1000 Ang^3
#
#
#
# Elastic Constant Matrix: (Units=GPa)
#
#
# Indices 1 2 3 4 5 6 
#
# 1 69.8983 41.0947 36.0598 0.8281 8.8047 15.9730
# 2 41.0947 127.1790 42.4330 -9.6136 7.0091 6.2196
# 3 36.0598 42.4330 105.9863 -14.8735 1.5057 14.1364
# 4 0.8281 -9.6136 -14.8735 26.7278 -1.1027 4.0018
# 5 8.8047 7.0091 1.5057 -1.1027 17.6170 4.3180
# 6 15.9730 6.2196 14.1364 4.0018 4.3180 39.6323
#
#
#
# Elastic Compliance Matrix: (Units=1/GPa)
#
#
# Indices 1 2 3 4 5 6 
#
# 1 0.022295 -0.005089 -0.005519 -0.005188 -0.007783 -0.004847
# 2 -0.005089 0.010472 -0.002248 0.002440 -0.001556 0.001132
# 3 -0.005519 -0.002248 0.013702 0.007669 0.003820 -0.003501
# 4 -0.005188 0.002440 0.007669 0.043835 0.005186 -0.006019
# 5 -0.007783 -0.001556 0.003820 0.005186 0.062575 -0.005323
# 6 -0.004847 0.001132 -0.003501 -0.006019 -0.005323 0.029444
#
#
# Mechanical properties :
#
#
# Convention : Reuss Voigt Hill
#
# Bulk Modulus (GPa) = 48.17587 60.24875 54.21231
# Shear Modulus (GPa) = 23.26087 29.02717 26.14402
#
# Velocity S-wave (km/s) = 3.30981 3.69737 3.50894
# Velocity P-wave (km/s) = 6.10698 6.82656 6.47677
#
# Compressibility (1/GPa) = 0.02075728
#
# Stress axis : x y z
#
# Youngs Moduli (GPa) = 44.85320 95.49264 72.98330
#
# Poissons Ratio (x) = 0.48594 0.40280
# Poissons Ratio (y) = 0.22825 0.16405
# Poissons Ratio (z) = 0.24755 0.21465
#
# Static dielectric constant tensor:
#      x y z
#    x 3.781930 -0.132290 0.133300 
#    y -0.132290 3.830680 -0.093570 
#    z 0.133300 -0.093570 4.265130 
# 
# 
# High freq. dielectric constant tensor:
#      x y z
#    x 1.815910 -0.020880 0.006960 
#    y -0.020880 1.831230 -0.002700 
#    z 0.006960 -0.002700 1.832550 
# 
# From -- ./inp_files/34640.got.cif
#   From: 2010.06.25/outbox.cif.g09.slc.cpg/sg2_18_cif.got.tgz:34640.got - 2010.06.27 13:26:56.
