data_PCOD8009977
_publ_section_title
;
Structure prediction by ZEFSAII (Michael W. Deem and Ramdas Pophale) SiO2 
 PCOD8009977
Probable space group: P -1
;
_chemical_formula_sum "Si O2"
_cell_formula_units_Z 16
_cell_length_a 10.044784
_cell_length_b 6.627016
_cell_length_c 25.815455
_cell_angle_alpha 51.617038
_cell_angle_beta 141.585288
_cell_angle_gamma 136.039946
_cell_volume 734.713454
_symmetry_space_group_name_H-M "P -1"
_symmetry_group_IT_number 2
_symmetry_cell_setting 'triclinic'
loop_
_space_group_symop_operation_xyz
x,y,z
-x,-y,-z
loop_
_atom_site_type_symbol
_atom_site_label
_atom_site_fract_x
_atom_site_fract_y
_atom_site_fract_z
Si Si1 0.851233 0.164943 0.416159
Si Si2 0.480460 0.956192 0.171992
Si Si3 0.152201 0.778559 0.381658
Si Si4 0.524357 0.321055 0.682420
Si Si5 0.958082 0.191359 0.219157
Si Si6 0.338447 0.777553 0.548098
Si Si7 0.018287 0.370997 0.092792
Si Si8 0.836897 0.771740 0.943388
O O1 0.836722 0.314725 0.441223
O O2 0.003675 0.430746 0.380319
O O3 0.582154 0.951883 0.346039
O O4 0.000000 0.000000 0.500000
O O5 0.563591 0.810388 0.266139
O O6 0.264275 0.686879 0.118357
O O7 0.703188 0.147203 0.170807
O O8 0.405363 0.190289 0.136980
O O9 0.209853 0.841092 0.450476
O O10 0.412598 0.925049 0.408566
O O11 0.986143 0.915493 0.289730
O O12 0.406678 0.522809 0.597483
O O13 0.819109 0.502682 0.740547
O O14 0.957682 0.197681 0.155699
O O15 0.045949 0.169031 0.088561
O O16 0.800186 0.449891 0.000074
O O17 0.000000 0.000000 0.000000
#
# Coordination Sequence:
#
# PCOD8009977 Si02
#       8
#     2   2   2   2   2   2   2   2
#     4  12  24  37  63  89 113 165 215 261 315 367
#     4  10  21  37  63  93 125 163 206 256 306 366
#     4  10  22  40  61  84 119 166 203 259 316 362
#     4  10  23  41  59  90 124 166 210 264 314 360
#     4  10  22  40  65  89 128 169 206 260 315 367
#     4  10  22  42  58  81 123 159 209 262 308 368
#     4   9  20  42  65  91 127 165 200 246 307 372
#     4   9  19  40  68  94 126 161 199 247 304 371
#
# _framework density 21.777197000000001
#
# number of rings (size 3 to 8) (size 9 to 14) (size 15 to 20)
#    0.000    2.000    1.250    1.125    1.750    6.000 
#    0.000   13.125    0.000    0.000    0.000    0.000 
#    0.000    0.000    0.000    0.000    0.000    0.000 
#
# Total GULP energy -198304.491133 kJ/mol
# GULP energy per Si atom -12394.030696 kJ/mol
# Density = 2.172763 g / cm^3
# Si number density = 21.777197 Si / 1000 Ang^3
#
#
#
# Elastic Constant Matrix: (Units=GPa)
#
#
# Indices 1 2 3 4 5 6 
#
# 1 129.7482 45.6965 49.9179 -11.5141 -0.4580 1.0556
# 2 45.6965 106.9903 34.9561 -8.6612 -0.9708 6.1977
# 3 49.9179 34.9561 113.8249 -25.5374 -11.1896 -1.3435
# 4 -11.5141 -8.6612 -25.5374 24.9805 -4.8867 -2.6467
# 5 -0.4580 -0.9708 -11.1896 -4.8867 27.4268 3.6111
# 6 1.0556 6.1977 -1.3435 -2.6467 3.6111 30.7254
#
#
#
# Elastic Compliance Matrix: (Units=1/GPa)
#
#
# Indices 1 2 3 4 5 6 
#
# 1 0.010237 -0.003211 -0.003782 -0.000550 -0.001620 0.000274
# 2 -0.003211 0.011566 -0.002195 -0.000003 -0.000239 -0.002291
# 3 -0.003782 -0.002195 0.015356 0.015039 0.008602 0.001529
# 4 -0.000550 -0.000003 0.015039 0.058704 0.016079 0.003844
# 5 -0.001620 -0.000239 0.008602 0.016079 0.043223 -0.003215
# 6 0.000274 -0.002291 0.001529 0.003844 -0.003215 0.033775
#
#
# Mechanical properties :
#
#
# Convention : Reuss Voigt Hill
#
# Bulk Modulus (GPa) = 53.24476 67.96715 60.60595
# Shear Modulus (GPa) = 25.31682 31.29273 28.30477
#
# Velocity S-wave (km/s) = 3.41330 3.79482 3.60911
# Velocity P-wave (km/s) = 6.32748 7.10485 6.72740
#
# Compressibility (1/GPa) = 0.01878119
#
# Stress axis : x y z
#
# Youngs Moduli (GPa) = 97.68700 86.46322 65.12143
#
# Poissons Ratio (x) = 0.27767 0.24632
# Poissons Ratio (y) = 0.31372 0.14292
# Poissons Ratio (z) = 0.36949 0.18976
#
# Static dielectric constant tensor:
#      x y z
#    x 3.848210 0.064320 0.061100 
#    y 0.064320 4.014840 -0.001670 
#    z 0.061100 -0.001670 4.231790 
# 
# 
# High freq. dielectric constant tensor:
#      x y z
#    x 1.838110 0.005340 -0.003480 
#    y 0.005340 1.846980 -0.003860 
#    z -0.003480 -0.003860 1.869380 
# 
# From -- ./inp_files/605838.got.cif
#   From: 2010.06.25/outbox.cif.g09.slc.cpg/sg2_303_cif.got.tgz:605838.got - 2010.06.27 13:26:56.
