data_PCOD8009072
_publ_section_title
;
Structure prediction by ZEFSAII (Michael W. Deem and Ramdas Pophale) SiO2 
 PCOD8009072
Probable space group: P -1
;
_chemical_formula_sum "Si O2"
_cell_formula_units_Z 16
_cell_length_a 9.330051
_cell_length_b 12.582113
_cell_length_c 18.301752
_cell_angle_alpha 46.114231
_cell_angle_beta 61.086874
_cell_angle_gamma 34.804602
_cell_volume 864.423925
_symmetry_space_group_name_H-M "P -1"
_symmetry_group_IT_number 2
_symmetry_cell_setting 'triclinic'
loop_
_space_group_symop_operation_xyz
x,y,z
-x,-y,-z
loop_
_atom_site_type_symbol
_atom_site_label
_atom_site_fract_x
_atom_site_fract_y
_atom_site_fract_z
Si Si1 0.841425 0.514162 0.475028
Si Si2 0.471476 0.777769 0.640970
Si Si3 0.021156 0.355279 0.120622
Si Si4 0.530098 0.132841 0.718510
Si Si5 0.336733 0.595639 0.319202
Si Si6 0.777487 0.830419 0.582605
Si Si7 0.206188 0.509043 0.736818
Si Si8 0.992244 0.957708 0.746332
O O1 0.618424 0.765856 0.370460
O O2 0.714422 0.459747 0.568198
O O3 0.000000 0.500000 0.500000
O O4 0.033231 0.320589 0.459810
O O5 0.669767 0.508406 0.699975
O O6 0.607831 0.800079 0.649988
O O7 0.402893 0.905312 0.519419
O O8 0.222045 0.889491 0.688477
O O9 0.843692 0.517457 0.156803
O O10 0.319826 0.126223 0.181554
O O11 0.923324 0.269397 0.147204
O O12 0.000000 0.500000 0.000000
O O13 0.330689 0.296015 0.757113
O O14 0.747910 0.112192 0.676727
O O15 0.621000 0.465497 0.313938
O O16 0.118667 0.875796 0.234804
O O17 0.932572 0.752462 0.655653
#
# Coordination Sequence:
#
# PCOD8009072 Si02
#       8
#     2   2   2   2   2   2   2   2
#     4  11  20  33  53  84 122 157 182 209 269 337
#     4  11  20  34  51  80 118 158 181 220 263 332
#     4  10  21  39  61  83 104 139 193 247 290 321
#     4   8  21  35  52  85 114 140 186 226 268 328
#     4  11  20  33  56  78 114 154 177 222 273 330
#     4  10  23  33  49  83 121 153 188 215 267 333
#     4  10  21  36  54  83 109 142 184 236 280 327
#     4   9  20  36  52  84 107 144 192 231 272 333
#
# _framework density 18.509437999999999
#
# number of rings (size 3 to 8) (size 9 to 14) (size 15 to 20)
#    0.750    1.250    3.750    0.000    3.500    2.500 
#    0.000    0.000    0.000    0.750    0.000    3.500 
#    0.000    0.000    0.000    0.000    0.000    0.000 
#
# Total GULP energy -198243.170706 kJ/mol
# GULP energy per Si atom -12390.198169 kJ/mol
# Density = 1.846731 g / cm^3
# Si number density = 18.509438 Si / 1000 Ang^3
#
#
#
# Elastic Constant Matrix: (Units=GPa)
#
#
# Indices 1 2 3 4 5 6 
#
# 1 67.6777 28.5236 44.1189 8.4255 -19.8219 -4.3616
# 2 28.5236 77.4867 31.4326 3.7329 -10.6396 -1.1167
# 3 44.1189 31.4326 96.2076 6.8549 -14.7889 -6.0348
# 4 8.4255 3.7329 6.8549 23.0961 0.1821 -4.5763
# 5 -19.8219 -10.6396 -14.7889 0.1821 17.2803 -0.1224
# 6 -4.3616 -1.1167 -6.0348 -4.5763 -0.1224 25.6523
#
#
#
# Elastic Compliance Matrix: (Units=1/GPa)
#
#
# Indices 1 2 3 4 5 6 
#
# 1 0.030197 -0.003986 -0.007957 -0.007852 0.025470 0.001810
# 2 -0.003986 0.015965 -0.002991 -0.000407 0.002696 -0.000746
# 3 -0.007957 -0.002991 0.015576 -0.000851 0.002384 0.002041
# 4 -0.007852 -0.000407 -0.000851 0.047940 -0.010443 0.006949
# 5 0.025470 0.002696 0.002384 -0.010443 0.090921 0.003580
# 6 0.001810 -0.000746 0.002041 0.006949 0.003580 0.040995
#
#
# Mechanical properties :
#
#
# Convention : Reuss Voigt Hill
#
# Bulk Modulus (GPa) = 31.37925 49.94691 40.66308
# Shear Modulus (GPa) = 17.72502 22.35887 20.04194
#
# Velocity S-wave (km/s) = 3.09790 3.47936 3.29416
# Velocity P-wave (km/s) = 5.45765 6.57148 6.04029
#
# Compressibility (1/GPa) = 0.03186819
#
# Stress axis : x y z
#
# Youngs Moduli (GPa) = 33.11546 62.63538 64.20271
#
# Poissons Ratio (x) = 0.24969 0.51088
# Poissons Ratio (y) = 0.13201 0.19206
# Poissons Ratio (z) = 0.26351 0.18737
#
# Static dielectric constant tensor:
#      x y z
#    x 3.427050 -0.024540 -0.091510 
#    y -0.024540 3.763440 -0.035840 
#    z -0.091510 -0.035840 2.942950 
# 
# 
# High freq. dielectric constant tensor:
#      x y z
#    x 1.706360 -0.000570 -0.020890 
#    y -0.000570 1.746950 0.007080 
#    z -0.020890 0.007080 1.657740 
# 
# From -- ./inp_files/559012.got.cif
#   From: 2010.06.25/outbox.cif.g09.slc.cpg/sg2_280_cif.got.tgz:559012.got - 2010.06.27 13:26:56.
