data_PCOD8009882
_publ_section_title
;
Structure prediction by ZEFSAII (Michael W. Deem and Ramdas Pophale) SiO2 
 PCOD8009882
Probable space group: P -1
;
_chemical_formula_sum "Si O2"
_cell_formula_units_Z 16
_cell_length_a 9.662273
_cell_length_b 22.483391
_cell_length_c 12.290443
_cell_angle_alpha 37.517367
_cell_angle_beta 48.956361
_cell_angle_gamma 28.287328
_cell_volume 762.431152
_symmetry_space_group_name_H-M "P -1"
_symmetry_group_IT_number 2
_symmetry_cell_setting 'triclinic'
loop_
_space_group_symop_operation_xyz
x,y,z
-x,-y,-z
loop_
_atom_site_type_symbol
_atom_site_label
_atom_site_fract_x
_atom_site_fract_y
_atom_site_fract_z
Si Si1 0.384784 0.935869 0.369094
Si Si2 0.121711 0.298831 0.705004
Si Si3 0.641096 0.634550 0.370963
Si Si4 0.675522 0.328363 0.920085
Si Si5 0.693978 0.242845 0.262442
Si Si6 0.283228 0.664411 0.667557
Si Si7 0.678876 0.165571 0.969734
Si Si8 0.398180 0.085032 0.316579
O O1 0.570395 0.861567 0.271821
O O2 0.436838 0.809826 0.579793
O O3 0.516706 0.964495 0.336597
O O4 0.045575 0.094132 0.287993
O O5 0.195518 0.336650 0.713692
O O6 0.891228 0.445196 0.525660
O O7 0.982062 0.257632 0.882932
O O8 0.353510 0.726365 0.460352
O O9 0.527120 0.703102 0.208857
O O10 0.426879 0.511795 0.755713
O O11 0.715967 0.233357 0.942291
O O12 0.564982 0.329418 0.088710
O O13 0.582607 0.359420 0.249307
O O14 0.950666 0.775452 0.698541
O O15 0.515539 0.143924 0.144529
O O16 0.000000 0.000000 0.000000
O O17 0.500000 0.000000 0.500000
#
# Coordination Sequence:
#
# PCOD8009882 Si02
#       8
#     2   2   2   2   2   2   2   2
#     4  10  21  37  62  90 119 169 209 258 315 367
#     4  10  22  40  66  95 122 171 210 267 316 374
#     4  10  23  42  65  94 131 163 215 263 322 373
#     4  11  25  40  64  96 127 171 209 261 325 377
#     4  10  21  38  62  93 127 158 213 262 316 372
#     4  10  22  42  65  92 125 168 208 269 314 376
#     4  12  27  43  64  96 132 172 211 266 316 384
#     4  11  24  41  63  92 128 173 211 255 324 379
#
# _framework density 20.985502
#
# number of rings (size 3 to 8) (size 9 to 14) (size 15 to 20)
#    0.000    1.500    1.250    2.625    5.250    5.000 
#    0.000    0.000    0.000    0.000    0.000    0.000 
#    0.000    0.000    0.000    0.000    0.000    0.000 
#
# Total GULP energy -198325.094273 kJ/mol
# GULP energy per Si atom -12395.318392 kJ/mol
# Density = 2.093774 g / cm^3
# Si number density = 20.985502 Si / 1000 Ang^3
#
#
#
# Elastic Constant Matrix: (Units=GPa)
#
#
# Indices 1 2 3 4 5 6 
#
# 1 114.0442 31.4138 50.2091 2.3138 -19.2988 16.8680
# 2 31.4138 83.2976 16.9897 10.1386 -17.2399 12.5313
# 3 50.2091 16.9897 96.2125 18.9413 -5.7700 4.7715
# 4 2.3138 10.1386 18.9413 28.6489 2.7863 -8.3283
# 5 -19.2988 -17.2399 -5.7700 2.7863 39.6393 2.1315
# 6 16.8680 12.5313 4.7715 -8.3283 2.1315 35.7706
#
#
#
# Elastic Compliance Matrix: (Units=1/GPa)
#
#
# Indices 1 2 3 4 5 6 
#
# 1 0.013846 -0.002492 -0.006769 0.002483 0.004737 -0.004457
# 2 -0.002492 0.016400 0.000965 -0.009029 0.007083 -0.007223
# 3 -0.006769 0.000965 0.016025 -0.010961 0.000327 -0.001855
# 4 0.002483 -0.009029 -0.010961 0.050573 -0.008716 0.015749
# 5 0.004737 0.007083 0.000327 -0.008716 0.031741 -0.008679
# 6 -0.004457 -0.007223 -0.001855 0.015749 -0.008679 0.037019
#
#
# Mechanical properties :
#
#
# Convention : Reuss Voigt Hill
#
# Bulk Modulus (GPa) = 33.69442 54.53105 44.11273
# Shear Modulus (GPa) = 26.02966 33.80790 29.91878
#
# Velocity S-wave (km/s) = 3.52570 4.01810 3.77992
# Velocity P-wave (km/s) = 5.71533 6.89698 6.33377
#
# Compressibility (1/GPa) = 0.02967850
#
# Stress axis : x y z
#
# Youngs Moduli (GPa) = 72.22526 60.97681 62.40187
#
# Poissons Ratio (x) = 0.15196 0.42239
# Poissons Ratio (y) = 0.18000 -0.06023
# Poissons Ratio (z) = 0.48889 -0.05885
#
# Static dielectric constant tensor:
#      x y z
#    x 3.561790 0.276640 -0.034760 
#    y 0.276640 3.728290 -0.002080 
#    z -0.034760 -0.002080 3.746860 
# 
# 
# High freq. dielectric constant tensor:
#      x y z
#    x 1.820210 0.003190 -0.016560 
#    y 0.003190 1.829010 0.010600 
#    z -0.016560 0.010600 1.825450 
# 
# From -- ./inp_files/187834.got.cif
#   From: 2010.06.25/outbox.cif.g09.slc.cpg/sg2_94_cif.got.tgz:187834.got - 2010.06.27 13:26:56.
