data_PCOD8009566
_publ_section_title
;
Structure prediction by ZEFSAII (Michael W. Deem and Ramdas Pophale) SiO2 
 PCOD8009566
Probable space group: P -1
;
_chemical_formula_sum "Si O2"
_cell_formula_units_Z 16
_cell_length_a 11.690853
_cell_length_b 12.378699
_cell_length_c 12.108382
_cell_angle_alpha 67.200821
_cell_angle_beta 73.939176
_cell_angle_gamma 131.514203
_cell_volume 767.573873
_symmetry_space_group_name_H-M "P -1"
_symmetry_group_IT_number 2
_symmetry_cell_setting 'triclinic'
loop_
_space_group_symop_operation_xyz
x,y,z
-x,-y,-z
loop_
_atom_site_type_symbol
_atom_site_label
_atom_site_fract_x
_atom_site_fract_y
_atom_site_fract_z
Si Si1 0.579937 0.277107 0.545827
Si Si2 0.941302 0.666335 0.668993
Si Si3 0.968739 0.760564 0.373272
Si Si4 0.687478 0.167334 0.159347
Si Si5 0.670545 0.718231 0.446367
Si Si6 0.856916 0.381138 0.259236
Si Si7 0.240500 0.134582 0.407547
Si Si8 0.516427 0.767210 0.897602
O O1 0.817177 0.543800 0.423353
O O2 0.347665 0.165136 0.642873
O O3 0.658688 0.297313 0.396660
O O4 0.495686 0.095527 0.715949
O O5 0.898618 0.664377 0.554358
O O6 0.041103 0.619833 0.673840
O O7 0.143516 0.926211 0.561351
O O8 0.687129 0.464301 0.880020
O O9 0.917813 0.855630 0.323393
O O10 0.254983 0.995058 0.184009
O O11 0.745173 0.209547 0.257597
O O12 0.576383 0.198270 0.154044
O O13 0.927134 0.353576 0.949982
O O14 0.500000 0.500000 0.500000
O O15 0.601523 0.669185 0.615152
O O16 0.402906 0.259160 0.205225
O O17 0.000000 0.000000 0.500000
#
# Coordination Sequence:
#
# PCOD8009566 Si02
#       8
#     2   2   2   2   2   2   2   2
#     4  11  21  36  63  77 112 161 186 228 298 333
#     4  10  21  37  60  85 116 147 183 241 290 328
#     4  10  22  40  53  85 117 146 197 236 273 352
#     4  10  21  37  57  86 114 143 191 237 283 348
#     4  10  21  39  58  82 118 153 187 238 285 331
#     4  10  21  37  57  86 114 143 191 237 283 348
#     4  11  19  36  61  86 114 143 197 233 269 348
#     4  10  21  37  60  85 116 147 183 241 290 328
#
# _framework density 20.844901
#
# number of rings (size 3 to 8) (size 9 to 14) (size 15 to 20)
#    0.000    1.750    2.500    3.375    0.000    3.500 
#    0.000    3.750    0.000    6.750    0.000    0.000 
#    0.000    0.000    0.000    0.000    0.000    0.000 
#
# Total GULP energy -198210.212431 kJ/mol
# GULP energy per Si atom -12388.138277 kJ/mol
# Density = 2.079746 g / cm^3
# Si number density = 20.844901 Si / 1000 Ang^3
#
#
#
# Elastic Constant Matrix: (Units=GPa)
#
#
# Indices 1 2 3 4 5 6 
#
# 1 83.6755 17.7135 37.0212 10.1579 -7.1072 -0.2887
# 2 17.7135 83.7537 27.3917 -3.5852 6.5140 -1.8194
# 3 37.0212 27.3917 103.9588 -6.1222 -4.3964 -9.7092
# 4 10.1579 -3.5852 -6.1222 17.6866 4.1939 -3.0151
# 5 -7.1072 6.5140 -4.3964 4.1939 20.4865 1.2954
# 6 -0.2887 -1.8194 -9.7092 -3.0151 1.2954 30.7988
#
#
#
# Elastic Compliance Matrix: (Units=1/GPa)
#
#
# Indices 1 2 3 4 5 6 
#
# 1 0.018387 -0.003263 -0.006639 -0.016509 0.009633 -0.004135
# 2 -0.003263 0.014295 -0.002491 0.005835 -0.007464 0.000914
# 3 -0.006639 -0.002491 0.013608 0.009051 -0.000760 0.004998
# 4 -0.016509 0.005835 0.009051 0.077588 -0.022256 0.011575
# 5 0.009633 -0.007464 -0.000760 -0.022256 0.059254 -0.005261
# 6 -0.004135 0.000914 0.004998 0.011575 -0.005261 0.035414
#
#
# Mechanical properties :
#
#
# Convention : Reuss Voigt Hill
#
# Bulk Modulus (GPa) = 46.50582 48.40453 47.45517
# Shear Modulus (GPa) = 19.96011 26.41181 23.18596
#
# Velocity S-wave (km/s) = 3.09779 3.56345 3.33875
# Velocity P-wave (km/s) = 5.92908 6.34055 6.13826
#
# Compressibility (1/GPa) = 0.02150269
#
# Stress axis : x y z
#
# Youngs Moduli (GPa) = 54.38568 69.95543 73.48863
#
# Poissons Ratio (x) = 0.22828 0.48790
# Poissons Ratio (y) = 0.17747 0.18307
# Poissons Ratio (z) = 0.36107 0.17427
#
# Static dielectric constant tensor:
#      x y z
#    x 4.240110 -0.091410 -0.152670 
#    y -0.091410 3.921880 -0.077460 
#    z -0.152670 -0.077460 3.715000 
# 
# 
# High freq. dielectric constant tensor:
#      x y z
#    x 1.832630 0.001940 -0.012290 
#    y 0.001940 1.812640 0.000050 
#    z -0.012290 0.000050 1.792810 
# 
# From -- ./inp_files/424941.got.cif
#   From: 2010.06.25/outbox.cif.g09.slc.cpg/sg2_213_cif.got.tgz:424941.got - 2010.06.27 13:26:56.
