data_PCOD8009665
_publ_section_title
;
Structure prediction by ZEFSAII (Michael W. Deem and Ramdas Pophale) SiO2 
 PCOD8009665
Probable space group: P -1
;
_chemical_formula_sum "Si O2"
_cell_formula_units_Z 16
_cell_length_a 11.059652
_cell_length_b 21.866919
_cell_length_c 21.148028
_cell_angle_alpha 18.847045
_cell_angle_beta 28.931250
_cell_angle_gamma 30.629765
_cell_volume 782.109797
_symmetry_space_group_name_H-M "P -1"
_symmetry_group_IT_number 2
_symmetry_cell_setting 'triclinic'
loop_
_space_group_symop_operation_xyz
x,y,z
-x,-y,-z
loop_
_atom_site_type_symbol
_atom_site_label
_atom_site_fract_x
_atom_site_fract_y
_atom_site_fract_z
Si Si1 0.416756 0.066778 0.340481
Si Si2 0.809912 0.871480 0.452686
Si Si3 0.777722 0.910352 0.219306
Si Si4 0.447305 0.584241 0.511595
Si Si5 0.870965 0.580206 0.809710
Si Si6 0.492422 0.036192 0.832237
Si Si7 0.149371 0.740653 0.309885
Si Si8 0.943815 0.142660 0.233365
O O1 0.260331 0.288246 0.200077
O O2 0.571225 0.001950 0.398706
O O3 0.599145 0.056478 0.206751
O O4 0.219500 0.919614 0.572308
O O5 0.736238 0.687363 0.703425
O O6 0.032921 0.771275 0.402487
O O7 0.930589 0.003367 0.316535
O O8 0.926396 0.730638 0.369737
O O9 0.592050 0.860536 0.298228
O O10 0.000000 0.000000 0.000000
O O11 0.500000 0.500000 0.500000
O O12 0.646648 0.458071 0.592262
O O13 0.169941 0.580395 0.668725
O O14 0.495506 0.801246 0.279948
O O15 0.830595 0.363655 0.048911
O O16 0.763410 0.886588 0.849164
O O17 0.277663 0.922828 0.061205
#
# Coordination Sequence:
#
# PCOD8009665 Si02
#       8
#     2   2   2   2   2   2   2   2
#     4  10  22  42  60  87 121 154 201 244 298 354
#     4  10  21  37  59  86 125 159 192 246 294 358
#     4   9  22  45  66  83 116 160 203 251 295 350
#     4  12  22  36  60  93 127 155 196 248 295 357
#     4  11  21  36  57  93 123 153 193 243 298 354
#     4  11  22  38  62  87 119 162 202 247 296 345
#     4  10  21  38  61  89 120 159 202 245 296 349
#     4  11  21  35  59  90 121 157 196 239 302 357
#
# _framework density 20.457485999999999
#
# number of rings (size 3 to 8) (size 9 to 14) (size 15 to 20)
#    0.000    1.500    5.000    1.500    1.750    4.000 
#    0.000    9.375    0.000    0.000    0.000    0.000 
#    0.000    0.000    0.000    0.000    0.000    0.000 
#
# Total GULP energy -198274.431399 kJ/mol
# GULP energy per Si atom -12392.151962 kJ/mol
# Density = 2.041092 g / cm^3
# Si number density = 20.457486 Si / 1000 Ang^3
#
#
#
# Elastic Constant Matrix: (Units=GPa)
#
#
# Indices 1 2 3 4 5 6 
#
# 1 81.8133 41.0648 17.5810 -4.2591 6.3150 -5.0193
# 2 41.0648 129.8316 37.1449 1.6237 14.2373 -9.2248
# 3 17.5810 37.1449 92.7895 -13.6346 7.2830 8.9427
# 4 -4.2591 1.6237 -13.6346 36.3758 -2.9777 7.7122
# 5 6.3150 14.2373 7.2830 -2.9777 19.5164 3.1516
# 6 -5.0193 -9.2248 8.9427 7.7122 3.1516 27.4924
#
#
#
# Elastic Compliance Matrix: (Units=1/GPa)
#
#
# Indices 1 2 3 4 5 6 
#
# 1 0.014776 -0.004129 -0.001016 0.001095 -0.001466 0.001503
# 2 -0.004129 0.011705 -0.004704 -0.004828 -0.007297 0.006895
# 3 -0.001016 -0.004704 0.014742 0.007544 0.000827 -0.008770
# 4 0.001095 -0.004828 0.007544 0.034369 0.007926 -0.014424
# 5 -0.001466 -0.007297 0.000827 0.007926 0.059887 -0.012074
# 6 0.001503 0.006895 -0.008770 -0.014424 -0.012074 0.047245
#
#
# Mechanical properties :
#
#
# Convention : Reuss Voigt Hill
#
# Bulk Modulus (GPa) = 46.45997 55.11289 50.78643
# Shear Modulus (GPa) = 23.85539 30.58649 27.22094
#
# Velocity S-wave (km/s) = 3.41852 3.87088 3.65171
# Velocity P-wave (km/s) = 6.19205 6.85397 6.53140
#
# Compressibility (1/GPa) = 0.02152391
#
# Stress axis : x y z
#
# Youngs Moduli (GPa) = 67.67664 85.43568 67.83539
#
# Poissons Ratio (x) = 0.35278 0.06890
# Poissons Ratio (y) = 0.27945 0.31913
# Poissons Ratio (z) = 0.06874 0.40193
#
# Static dielectric constant tensor:
#      x y z
#    x 4.048360 -0.314740 0.202630 
#    y -0.314740 3.943390 0.027840 
#    z 0.202630 0.027840 3.588380 
# 
# 
# High freq. dielectric constant tensor:
#      x y z
#    x 1.794720 -0.025930 0.011480 
#    y -0.025930 1.817120 0.007570 
#    z 0.011480 0.007570 1.778220 
# 
# From -- ./inp_files/425076.got.cif
#   From: 2010.06.25/outbox.cif.g09.slc.cpg/sg2_213_cif.got.tgz:425076.got - 2010.06.27 13:26:56.
