data_PCOD8009622
_publ_section_title
;
Structure prediction by ZEFSAII (Michael W. Deem and Ramdas Pophale) SiO2 
 PCOD8009622
Probable space group: P -1
;
_chemical_formula_sum "Si O2"
_cell_formula_units_Z 16
_cell_length_a 24.182933
_cell_length_b 10.207076
_cell_length_c 8.912748
_cell_angle_alpha 29.571272
_cell_angle_beta 47.848037
_cell_angle_gamma 46.689179
_cell_volume 772.824143
_symmetry_space_group_name_H-M "P -1"
_symmetry_group_IT_number 2
_symmetry_cell_setting 'triclinic'
loop_
_space_group_symop_operation_xyz
x,y,z
-x,-y,-z
loop_
_atom_site_type_symbol
_atom_site_label
_atom_site_fract_x
_atom_site_fract_y
_atom_site_fract_z
Si Si1 0.214118 0.051016 0.877593
Si Si2 0.948514 0.796992 0.124600
Si Si3 0.468645 0.456258 0.438196
Si Si4 0.476486 0.102851 0.272609
Si Si5 0.042340 0.202899 0.538069
Si Si6 0.303784 0.447801 0.673974
Si Si7 0.205987 0.045775 0.247064
Si Si8 0.311469 0.450033 0.307025
O O1 0.137935 0.059661 0.914944
O O2 0.246095 0.306059 0.518794
O O3 0.191527 0.073474 0.069580
O O4 0.281117 0.770500 0.998211
O O5 0.945565 0.806986 0.297726
O O6 0.980533 0.485763 0.316947
O O7 0.007024 0.959677 0.790610
O O8 0.500000 0.500000 0.500000
O O9 0.380823 0.438585 0.636108
O O10 0.519932 0.165305 0.567392
O O11 0.468291 0.716972 0.071158
O O12 0.390166 0.308203 0.217101
O O13 0.500000 0.000000 0.500000
O O14 0.124397 0.181979 0.336136
O O15 0.328424 0.416930 0.485983
O O16 0.237464 0.727334 0.552959
O O17 0.269178 0.199114 0.033523
#
# Coordination Sequence:
#
# PCOD8009622 Si02
#       8
#     2   2   2   2   2   2   2   2
#     4  10  21  37  58  89 122 149 195 262 304 343
#     4  10  21  38  59  83 118 155 190 252 296 354
#     4  12  26  44  64  96 136 166 212 275 325 370
#     4  12  24  42  72  93 122 178 223 258 313 394
#     4  10  21  38  59  83 116 157 199 231 301 380
#     4  10  21  39  62  84 125 163 195 256 314 364
#     4  10  21  37  60  88 114 157 202 241 305 373
#     4  10  21  38  62  90 119 157 211 256 301 366
#
# _framework density 20.703288000000001
#
# number of rings (size 3 to 8) (size 9 to 14) (size 15 to 20)
#    0.000    1.500    1.250    3.750    3.500    1.000 
#    6.750    0.000    0.000    0.000    0.000    0.000 
#    0.000    0.000    0.000    0.000    0.000    0.000 
#
# Total GULP energy -198468.378808 kJ/mol
# GULP energy per Si atom -12404.273676 kJ/mol
# Density = 2.065617 g / cm^3
# Si number density = 20.703288 Si / 1000 Ang^3
#
#
#
# Elastic Constant Matrix: (Units=GPa)
#
#
# Indices 1 2 3 4 5 6 
#
# 1 102.8188 26.9203 27.1720 -0.6221 -17.6341 -7.0593
# 2 26.9203 98.8865 29.0889 -14.7945 -0.8903 -9.8700
# 3 27.1720 29.0889 104.4264 -15.9758 -9.2307 8.1355
# 4 -0.6221 -14.7945 -15.9758 25.7555 -1.0979 -9.1631
# 5 -17.6341 -0.8903 -9.2307 -1.0979 24.2669 -3.4369
# 6 -7.0593 -9.8700 8.1355 -9.1631 -3.4369 24.5554
#
#
#
# Elastic Compliance Matrix: (Units=1/GPa)
#
#
# Indices 1 2 3 4 5 6 
#
# 1 0.012798 -0.002331 -0.002315 -0.000448 0.008965 0.004597
# 2 -0.002331 0.013853 -0.002541 0.009605 -0.000405 0.009267
# 3 -0.002315 -0.002541 0.012131 0.004861 0.002558 -0.003534
# 4 -0.000448 0.009605 0.004861 0.056304 0.007855 0.024231
# 5 0.008965 -0.000405 0.002558 0.007855 0.050678 0.011592
# 6 0.004597 0.009267 -0.003534 0.024231 0.011592 0.057607
#
#
# Mechanical properties :
#
#
# Convention : Reuss Voigt Hill
#
# Bulk Modulus (GPa) = 40.96740 52.49936 46.73338
# Shear Modulus (GPa) = 22.13549 29.77891 25.95720
#
# Velocity S-wave (km/s) = 3.27338 3.79669 3.54471
# Velocity P-wave (km/s) = 5.84102 6.68078 6.27496
#
# Compressibility (1/GPa) = 0.02440965
#
# Stress axis : x y z
#
# Youngs Moduli (GPa) = 78.13517 72.18749 82.43012
#
# Poissons Ratio (x) = 0.16824 0.19084
# Poissons Ratio (y) = 0.18210 0.20943
# Poissons Ratio (z) = 0.18090 0.18341
#
# Static dielectric constant tensor:
#      x y z
#    x 3.548740 -0.040160 -0.153870 
#    y -0.040160 3.766500 -0.216200 
#    z -0.153870 -0.216200 4.008030 
# 
# 
# High freq. dielectric constant tensor:
#      x y z
#    x 1.801890 -0.012970 -0.013960 
#    y -0.012970 1.811780 -0.016410 
#    z -0.013960 -0.016410 1.821310 
# 
# From -- ./inp_files/138955.got.cif
#   From: 2010.06.25/outbox.cif.g09.slc.cpg/sg2_70_cif.got.tgz:138955.got - 2010.06.27 13:26:56.
