data_PCOD8009492
_publ_section_title
;
Structure prediction by ZEFSAII (Michael W. Deem and Ramdas Pophale) SiO2 
 PCOD8009492
Probable space group: P -1
;
_chemical_formula_sum "Si O2"
_cell_formula_units_Z 16
_cell_length_a 11.663893
_cell_length_b 13.964126
_cell_length_c 11.278842
_cell_angle_alpha 61.022235
_cell_angle_beta 131.922259
_cell_angle_gamma 80.253767
_cell_volume 780.812435
_symmetry_space_group_name_H-M "P -1"
_symmetry_group_IT_number 2
_symmetry_cell_setting 'triclinic'
loop_
_space_group_symop_operation_xyz
x,y,z
-x,-y,-z
loop_
_atom_site_type_symbol
_atom_site_label
_atom_site_fract_x
_atom_site_fract_y
_atom_site_fract_z
Si Si1 0.667004 0.318176 0.641310
Si Si2 0.783622 0.914341 0.651114
Si Si3 0.236030 0.328224 0.206179
Si Si4 0.334866 0.278542 0.047056
Si Si5 0.705863 0.352006 0.908647
Si Si6 0.582561 0.541113 0.131216
Si Si7 0.253354 0.950442 0.209008
Si Si8 0.987309 0.282478 0.735752
O O1 0.626996 0.330361 0.746996
O O2 0.415918 0.461907 0.308782
O O3 0.834381 0.127848 0.827425
O O4 0.814649 0.348677 0.688810
O O5 0.760351 0.802867 0.745036
O O6 0.817074 0.972197 0.754793
O O7 0.012641 0.796620 0.795369
O O8 0.557815 0.076120 0.324955
O O9 0.464438 0.221844 0.510783
O O10 0.269908 0.364759 0.078770
O O11 0.000000 0.500000 0.000000
O O12 0.398835 0.346201 0.969762
O O13 0.113030 0.331449 0.809703
O O14 0.608415 0.348562 0.961444
O O15 0.836780 0.365670 0.460840
O O16 0.500000 0.500000 0.000000
O O17 0.174306 0.081267 0.977203
#
# Coordination Sequence:
#
# PCOD8009492 Si02
#       8
#     2   2   2   2   2   2   2   2
#     4  10  21  36  67  99 127 164 214 278 329 370
#     4  11  21  38  66 100 132 159 217 274 331 383
#     4  11  22  36  67 100 134 164 211 271 331 387
#     4  11  23  44  65  92 133 176 212 264 330 391
#     4  10  22  40  62  94 131 165 219 270 320 385
#     4  11  28  43  65  92 128 185 222 257 323 396
#     4  11  20  36  64 106 126 163 210 273 339 373
#     4  11  21  42  66  93 130 165 222 264 322 390
#
# _framework density 20.491477
#
# number of rings (size 3 to 8) (size 9 to 14) (size 15 to 20)
#    0.000    1.250    3.750    2.250    8.750    2.500 
#    0.000    0.000    0.000    2.250    0.000    0.000 
#    0.000    0.000    0.000    0.000    0.000    0.000 
#
# Total GULP energy -198319.516534 kJ/mol
# GULP energy per Si atom -12394.969783 kJ/mol
# Density = 2.044484 g / cm^3
# Si number density = 20.491477 Si / 1000 Ang^3
#
#
#
# Elastic Constant Matrix: (Units=GPa)
#
#
# Indices 1 2 3 4 5 6 
#
# 1 124.6221 45.4756 45.0492 -4.3924 -8.2371 -8.8586
# 2 45.4756 90.8082 36.3379 -8.6037 -11.4218 1.4390
# 3 45.0492 36.3379 135.0087 -7.4850 1.8922 -13.7498
# 4 -4.3924 -8.6037 -7.4850 42.6582 -3.3881 5.1870
# 5 -8.2371 -11.4218 1.8922 -3.3881 28.0233 -4.0605
# 6 -8.8586 1.4390 -13.7498 5.1870 -4.0605 30.8568
#
#
#
# Elastic Compliance Matrix: (Units=1/GPa)
#
#
# Indices 1 2 3 4 5 6 
#
# 1 0.010684 -0.004313 -0.002184 -0.000320 0.001867 0.002595
# 2 -0.004313 0.015294 -0.002899 0.002907 0.005069 -0.003065
# 3 -0.002184 -0.002899 0.009299 0.000261 -0.001934 0.003354
# 4 -0.000320 0.002907 0.000261 0.024784 0.003517 -0.003815
# 5 0.001867 0.005069 -0.001934 0.003517 0.039440 0.004037
# 6 0.002595 -0.003065 0.003354 -0.003815 0.004037 0.035963
#
#
# Mechanical properties :
#
#
# Convention : Reuss Voigt Hill
#
# Bulk Modulus (GPa) = 60.66228 67.12939 63.89584
# Shear Modulus (GPa) = 31.29858 35.21273 33.25566
#
# Velocity S-wave (km/s) = 3.91243 4.14987 4.03290
# Velocity P-wave (km/s) = 7.07654 7.46945 7.27565
#
# Compressibility (1/GPa) = 0.01648471
#
# Stress axis : x y z
#
# Youngs Moduli (GPa) = 93.59628 65.38535 107.53802
#
# Poissons Ratio (x) = 0.28202 0.23484
# Poissons Ratio (y) = 0.40370 0.31177
# Poissons Ratio (z) = 0.20439 0.18957
#
# Static dielectric constant tensor:
#      x y z
#    x 3.588770 0.148840 0.181070 
#    y 0.148840 3.614360 -0.130470 
#    z 0.181070 -0.130470 4.319490 
# 
# 
# High freq. dielectric constant tensor:
#      x y z
#    x 1.783820 0.013840 0.020330 
#    y 0.013840 1.793240 -0.008310 
#    z 0.020330 -0.008310 1.827750 
# 
# From -- ./inp_files/431257.got.cif
#   From: 2010.06.25/outbox.cif.g09.slc.cpg/sg2_216_cif.got.tgz:431257.got - 2010.06.27 13:26:56.
