data_PCOD8009396
_publ_section_title
;
Structure prediction by ZEFSAII (Michael W. Deem and Ramdas Pophale) SiO2 
 PCOD8009396
Probable space group: P -1
;
_chemical_formula_sum "Si O2"
_cell_formula_units_Z 16
_cell_length_a 12.753416
_cell_length_b 18.189999
_cell_length_c 12.233718
_cell_angle_alpha 137.756227
_cell_angle_beta 38.310921
_cell_angle_gamma 153.000293
_cell_volume 790.147765
_symmetry_space_group_name_H-M "P -1"
_symmetry_group_IT_number 2
_symmetry_cell_setting 'triclinic'
loop_
_space_group_symop_operation_xyz
x,y,z
-x,-y,-z
loop_
_atom_site_type_symbol
_atom_site_label
_atom_site_fract_x
_atom_site_fract_y
_atom_site_fract_z
Si Si1 0.047895 0.869814 0.384743
Si Si2 0.838247 0.313326 0.934676
Si Si3 0.114449 0.188551 0.788494
Si Si4 0.956803 0.357971 0.119098
Si Si5 0.891837 0.880917 0.737437
Si Si6 0.598995 0.929654 0.368134
Si Si7 0.553562 0.271001 0.936956
Si Si8 0.473865 0.780707 0.526628
O O1 0.005980 0.719532 0.259642
O O2 0.997609 0.889612 0.326180
O O3 0.846266 0.815797 0.579587
O O4 0.328592 0.042261 0.381178
O O5 0.607147 0.210361 0.925166
O O6 0.764156 0.262330 0.067232
O O7 0.000000 0.500000 0.000000
O O8 0.408515 0.286903 0.647021
O O9 0.972458 0.047393 0.841100
O O10 0.075000 0.294568 0.976268
O O11 0.799502 0.337542 0.323181
O O12 0.194298 0.549027 0.110714
O O13 0.643950 0.740661 0.858604
O O14 0.113188 0.921939 0.663034
O O15 0.586445 0.852194 0.184176
O O16 0.427550 0.794017 0.454025
O O17 0.500000 0.000000 0.500000
#
# Coordination Sequence:
#
# PCOD8009396 Si02
#       8
#     2   2   2   2   2   2   2   2
#     4   9  18  35  59  88 116 156 197 243 300 341
#     4   9  20  36  55  88 122 152 194 236 292 358
#     4   9  20  37  59  89 121 150 201 247 291 352
#     4  10  23  39  58  91 123 160 191 241 301 357
#     4  10  21  36  63  88 112 153 201 247 293 345
#     4  10  22  41  62  87 113 152 205 249 290 352
#     4  11  22  39  58  87 125 152 196 242 301 349
#     4  10  21  38  61  87 117 156 204 243 292 354
#
# _framework density 20.249376999999999
#
# number of rings (size 3 to 8) (size 9 to 14) (size 15 to 20)
#    0.000    2.500    0.000    3.375    7.000    1.500 
#    6.750    4.375    0.000    0.000    0.000    0.000 
#    0.000    0.000    0.000    0.000    0.000    0.000 
#
# Total GULP energy -198215.503721 kJ/mol
# GULP energy per Si atom -12388.468983 kJ/mol
# Density = 2.020329 g / cm^3
# Si number density = 20.249377 Si / 1000 Ang^3
#
#
#
# Elastic Constant Matrix: (Units=GPa)
#
#
# Indices 1 2 3 4 5 6 
#
# 1 122.2528 11.0626 37.6288 -8.2332 -8.7598 -1.7569
# 2 11.0626 37.5612 34.3714 -17.7570 -5.7220 -3.5739
# 3 37.6288 34.3714 128.4042 -33.9464 -5.3198 -5.7240
# 4 -8.2332 -17.7570 -33.9464 35.4004 -4.4805 -1.5152
# 5 -8.7598 -5.7220 -5.3198 -4.4805 34.7841 9.4088
# 6 -1.7569 -3.5739 -5.7240 -1.5152 9.4088 19.1379
#
#
#
# Elastic Compliance Matrix: (Units=1/GPa)
#
#
# Indices 1 2 3 4 5 6 
#
# 1 0.009133 -0.000166 -0.002670 -0.000297 0.002111 -0.001052
# 2 -0.000166 0.041288 -0.006467 0.015484 0.006765 0.003661
# 3 -0.002670 -0.006467 0.012692 0.008494 0.000557 0.002742
# 4 -0.000297 0.015484 0.008494 0.045350 0.008281 0.004924
# 5 0.002111 0.006765 0.000557 0.008281 0.035672 -0.015258
# 6 -0.001052 0.003661 0.002742 0.004924 -0.015258 0.061551
#
#
# Mechanical properties :
#
#
# Convention : Reuss Voigt Hill
#
# Bulk Modulus (GPa) = 22.46752 50.48264 36.47508
# Shear Modulus (GPa) = 20.90938 31.54151 26.22545
#
# Velocity S-wave (km/s) = 3.21689 3.95099 3.60269
# Velocity P-wave (km/s) = 4.99172 6.76745 5.94625
#
# Compressibility (1/GPa) = 0.04450870
#
# Stress axis : x y z
#
# Youngs Moduli (GPa) = 109.49684 24.21992 78.78770
#
# Poissons Ratio (x) = 0.00401 0.21037
# Poissons Ratio (y) = 0.01814 0.50949
# Poissons Ratio (z) = 0.29236 0.15662
#
# Static dielectric constant tensor:
#      x y z
#    x 4.186020 0.016060 0.127170 
#    y 0.016060 3.287120 0.092110 
#    z 0.127170 0.092110 3.819880 
# 
# 
# High freq. dielectric constant tensor:
#      x y z
#    x 1.808100 -0.007750 0.002210 
#    y -0.007750 1.748070 0.004350 
#    z 0.002210 0.004350 1.797200 
# 
# From -- ./inp_files/436864.got.cif
#   From: 2010.06.25/outbox.cif.g09.slc.cpg/sg2_219_cif.got.tgz:436864.got - 2010.06.27 13:26:56.
