data_PCOD8009489
_publ_section_title
;
Structure prediction by ZEFSAII (Michael W. Deem and Ramdas Pophale) SiO2 
 PCOD8009489
Probable space group: P -1
;
_chemical_formula_sum "Si O2"
_cell_formula_units_Z 16
_cell_length_a 9.276272
_cell_length_b 10.245087
_cell_length_c 11.702890
_cell_angle_alpha 109.586494
_cell_angle_beta 102.171345
_cell_angle_gamma 119.055221
_cell_volume 816.281544
_symmetry_space_group_name_H-M "P -1"
_symmetry_group_IT_number 2
_symmetry_cell_setting 'triclinic'
loop_
_space_group_symop_operation_xyz
x,y,z
-x,-y,-z
loop_
_atom_site_type_symbol
_atom_site_label
_atom_site_fract_x
_atom_site_fract_y
_atom_site_fract_z
Si Si1 0.161393 0.939373 0.701009
Si Si2 0.413711 0.100707 0.008815
Si Si3 0.018622 0.160662 0.736787
Si Si4 0.519164 0.609761 0.365444
Si Si5 0.859511 0.972298 0.873648
Si Si6 0.338561 0.005051 0.521095
Si Si7 0.404701 0.510466 0.876743
Si Si8 0.779767 0.664971 0.620210
O O1 0.989952 0.740726 0.647000
O O2 0.079044 0.039900 0.672837
O O3 0.282054 0.934261 0.621217
O O4 0.274600 0.033932 0.861007
O O5 0.312055 0.055375 0.099971
O O6 0.564800 0.307244 0.076568
O O7 0.500000 0.000000 0.000000
O O8 0.184819 0.360814 0.798316
O O9 0.966709 0.139506 0.856670
O O10 0.841747 0.109666 0.620879
O O11 0.581711 0.797167 0.400880
O O12 0.495781 0.508160 0.217405
O O13 0.668957 0.617370 0.470433
O O14 0.320829 0.505542 0.366781
O O15 0.778254 0.808016 0.730476
O O16 0.000000 0.000000 0.000000
O O17 0.500000 0.000000 0.500000
O O18 0.500000 0.500000 0.000000
#
# Coordination Sequence:
#
# PCOD8009489 Si02
#       8
#     2   2   2   2   2   2   2   2
#     4  11  21  43  66  90 123 174 218 259 320 396
#     4  12  26  41  65  97 135 165 206 282 335 375
#     4  11  22  40  70  91 126 172 225 261 315 390
#     4  11  21  38  64  95 123 165 217 263 311 387
#     4  11  19  40  66  94 120 173 219 258 317 396
#     4  12  25  42  63  95 134 166 210 276 337 374
#     4  12  22  41  69  98 124 172 230 262 311 404
#     4  10  21  36  67  92 117 162 226 257 301 378
#
# _framework density 19.601082000000002
#
# number of rings (size 3 to 8) (size 9 to 14) (size 15 to 20)
#    0.000    0.750    8.750    1.125    1.750    0.000 
#    2.250    1.250    0.000    0.000    0.000    0.000 
#    0.000    0.000    0.000    0.000    0.000    0.000 
#
# Total GULP energy -198394.861506 kJ/mol
# GULP energy per Si atom -12399.678844 kJ/mol
# Density = 1.955647 g / cm^3
# Si number density = 19.601082 Si / 1000 Ang^3
#
#
#
# Elastic Constant Matrix: (Units=GPa)
#
#
# Indices 1 2 3 4 5 6 
#
# 1 114.2857 48.9703 36.9922 -0.0086 -8.0853 24.1808
# 2 48.9703 109.2289 35.2271 10.1907 -2.3166 25.6311
# 3 36.9922 35.2271 103.0026 -7.0110 -4.2626 12.9645
# 4 -0.0086 10.1907 -7.0110 31.2024 14.1554 -0.5486
# 5 -8.0853 -2.3166 -4.2626 14.1554 33.2854 -3.8963
# 6 24.1808 25.6311 12.9645 -0.5486 -3.8963 40.4047
#
#
#
# Elastic Compliance Matrix: (Units=1/GPa)
#
#
# Indices 1 2 3 4 5 6 
#
# 1 0.012099 -0.003589 -0.002563 -0.000410 0.002073 -0.003947
# 2 -0.003589 0.013600 -0.003016 -0.005930 0.001573 -0.005440
# 3 -0.002563 -0.003016 0.011953 0.004174 -0.001129 -0.000440
# 4 -0.000410 -0.005930 0.004174 0.043193 -0.018171 0.001502
# 5 0.002073 0.001573 -0.001129 -0.018171 0.038425 0.001582
# 6 -0.003947 -0.005440 -0.000440 0.001502 0.001582 0.030877
#
#
# Mechanical properties :
#
#
# Convention : Reuss Voigt Hill
#
# Bulk Modulus (GPa) = 51.77026 63.21073 57.49050
# Shear Modulus (GPa) = 28.58387 34.66701 31.62544
#
# Velocity S-wave (km/s) = 3.82289 4.21007 4.02114
# Velocity P-wave (km/s) = 6.77903 7.48007 7.13816
#
# Compressibility (1/GPa) = 0.01931611
#
# Stress axis : x y z
#
# Youngs Moduli (GPa) = 82.64809 73.52834 83.65870
#
# Poissons Ratio (x) = 0.26392 0.21443
# Poissons Ratio (y) = 0.29666 0.25231
# Poissons Ratio (z) = 0.21184 0.22176
#
# Static dielectric constant tensor:
#      x y z
#    x 4.187430 0.682690 -0.225230 
#    y 0.682690 3.992890 -0.189490 
#    z -0.225230 -0.189490 3.878320 
# 
# 
# High freq. dielectric constant tensor:
#      x y z
#    x 1.745620 0.041210 -0.000710 
#    y 0.041210 1.761270 -0.006260 
#    z -0.000710 -0.006260 1.780210 
# 
# From -- ./inp_files/263456.got.cif
#   From: 2010.06.25/outbox.cif.g09.slc.cpg/sg2_132_cif.got.tgz:263456.got - 2010.06.27 13:26:56.
