data_PCOD8009209
_publ_section_title
;
Structure prediction by ZEFSAII (Michael W. Deem and Ramdas Pophale) SiO2 
 PCOD8009209
Probable space group: P -1
;
_chemical_formula_sum "Si O2"
_cell_formula_units_Z 14
_cell_length_a 9.428289
_cell_length_b 23.381792
_cell_length_c 11.996520
_cell_angle_alpha 28.206906
_cell_angle_beta 143.532740
_cell_angle_gamma 147.957842
_cell_volume 645.698032
_symmetry_space_group_name_H-M "P -1"
_symmetry_group_IT_number 2
_symmetry_cell_setting 'triclinic'
loop_
_space_group_symop_operation_xyz
x,y,z
-x,-y,-z
loop_
_atom_site_type_symbol
_atom_site_label
_atom_site_fract_x
_atom_site_fract_y
_atom_site_fract_z
Si Si1 0.065497 0.112041 0.506004
Si Si2 0.424285 0.859143 0.133483
Si Si3 0.878442 0.802915 0.847451
Si Si4 0.151208 0.883816 0.405795
Si Si5 0.601105 0.844065 0.032878
Si Si6 0.704628 0.447042 0.760597
Si Si7 0.296286 0.655422 0.824156
O O1 0.391679 0.198087 0.595216
O O2 0.040549 0.179648 0.261147
O O3 0.899159 0.134046 0.462502
O O4 0.944660 0.947664 0.697338
O O5 0.511437 0.894921 0.997992
O O6 0.093699 0.757637 0.112254
O O7 0.500000 0.000000 0.000000
O O8 0.562746 0.689941 0.859424
O O9 0.296267 0.796313 0.613503
O O10 0.871979 0.831682 0.248782
O O11 0.349322 0.046227 0.222769
O O12 0.361809 0.693617 0.102886
O O13 0.500000 0.500000 0.500000
O O14 0.023580 0.558253 0.746648
O O15 0.676960 0.424251 0.915060
#
# Coordination Sequence:
#
# PCOD8009209 Si02
#       7
#     2   2   2   2   2   2   2
#     4   9  20  36  58  91 132 159 198 262 321 374
#     4   9  20  37  57  90 132 162 199 255 322 375
#     4  10  21  36  58  93 125 166 201 255 324 373
#     4  10  21  38  66 104 121 155 220 270 315 373
#     4  10  21  39  68  95 127 168 209 266 319 370
#     4  11  24  45  63  90 131 174 211 258 317 376
#     4  11  25  40  67  96 126 167 216 263 311 381
#
# _framework density 21.681961999999999
#
# number of rings (size 3 to 8) (size 9 to 14) (size 15 to 20)
#    0.000    2.000    1.429    0.857    8.000    3.429 
#    0.000    0.714    0.000    2.571    0.000    0.000 
#    0.000    0.000    0.000    0.000    0.000    0.000 
#
# Total GULP energy -173525.323820 kJ/mol
# GULP energy per Si atom -12394.665987 kJ/mol
# Density = 2.163261 g / cm^3
# Si number density = 21.681962 Si / 1000 Ang^3
#
#
#
# Elastic Constant Matrix: (Units=GPa)
#
#
# Indices 1 2 3 4 5 6 
#
# 1 85.7452 45.4013 20.7893 2.8620 5.3804 -0.6647
# 2 45.4013 154.0001 42.9693 9.3796 8.3855 18.8270
# 3 20.7893 42.9693 72.8852 9.3867 6.5524 8.7408
# 4 2.8620 9.3796 9.3867 27.9747 5.2321 9.7128
# 5 5.3804 8.3855 6.5524 5.2321 17.4314 7.4581
# 6 -0.6647 18.8270 8.7408 9.7128 7.4581 40.9751
#
#
#
# Elastic Compliance Matrix: (Units=1/GPa)
#
#
# Indices 1 2 3 4 5 6 
#
# 1 0.014415 -0.003923 -0.001879 0.000016 -0.003147 0.003006
# 2 -0.003923 0.009154 -0.003829 -0.000165 -0.000264 -0.003366
# 3 -0.001879 -0.003829 0.017297 -0.003605 -0.002738 -0.000608
# 4 0.000016 -0.000165 -0.003605 0.041047 -0.007688 -0.007485
# 5 -0.003147 -0.000264 -0.002738 -0.007688 0.065873 -0.009513
# 6 0.003006 -0.003366 -0.000608 -0.007485 -0.009513 0.029636
#
#
# Mechanical properties :
#
#
# Convention : Reuss Voigt Hill
#
# Bulk Modulus (GPa) = 46.28570 58.99447 52.64009
# Shear Modulus (GPa) = 24.52357 30.84094 27.68226
#
# Velocity S-wave (km/s) = 3.36677 3.77560 3.57703
# Velocity P-wave (km/s) = 6.04214 6.80257 6.43360
#
# Compressibility (1/GPa) = 0.02160495
#
# Stress axis : x y z
#
# Youngs Moduli (GPa) = 69.37101 109.23749 57.81360
#
# Poissons Ratio (x) = 0.42851 0.10861
# Poissons Ratio (y) = 0.27212 0.22139
# Poissons Ratio (z) = 0.13033 0.41832
#
# Static dielectric constant tensor:
#      x y z
#    x 3.786300 0.142510 -0.039190 
#    y 0.142510 4.313200 0.440100 
#    z -0.039190 0.440100 3.623300 
# 
# 
# High freq. dielectric constant tensor:
#      x y z
#    x 1.847020 0.006690 0.004780 
#    y 0.006690 1.862310 0.039330 
#    z 0.004780 0.039330 1.831020 
# 
# From -- ./inp_files/344921.got.cif
#   From: 2010.06.25/outbox.cif.g09.slc.cpg/sg2_173_cif.got.tgz:344921.got - 2010.06.27 13:26:56.
