data_PCOD8009494
_publ_section_title
;
Structure prediction by ZEFSAII (Michael W. Deem and Ramdas Pophale) SiO2 
 PCOD8009494
Probable space group: P -1
;
_chemical_formula_sum "Si O2"
_cell_formula_units_Z 16
_cell_length_a 11.995727
_cell_length_b 6.331802
_cell_length_c 23.105903
_cell_angle_alpha 112.062204
_cell_angle_beta 27.381830
_cell_angle_gamma 120.243280
_cell_volume 685.872717
_symmetry_space_group_name_H-M "P -1"
_symmetry_group_IT_number 2
_symmetry_cell_setting 'triclinic'
loop_
_space_group_symop_operation_xyz
x,y,z
-x,-y,-z
loop_
_atom_site_type_symbol
_atom_site_label
_atom_site_fract_x
_atom_site_fract_y
_atom_site_fract_z
Si Si1 0.599453 0.978467 0.759163
Si Si2 0.178847 0.042088 0.031552
Si Si3 0.705324 0.545645 0.199035
Si Si4 0.051164 0.173893 0.342661
Si Si5 0.266629 0.638774 0.357048
Si Si6 0.461767 0.023491 0.587271
Si Si7 0.125504 0.617212 0.782187
Si Si8 0.038302 0.916023 0.203497
O O1 0.685430 0.097928 0.667800
O O2 0.401768 0.689064 0.818937
O O3 0.868107 0.007214 0.671709
O O4 0.446383 0.119491 0.879425
O O5 0.987875 0.757566 0.072741
O O6 0.247504 0.049177 0.069607
O O7 0.051594 0.240973 0.097708
O O8 0.499819 0.680855 0.300464
O O9 0.703951 0.420072 0.248216
O O10 0.253367 0.456628 0.290192
O O11 0.754980 0.152083 0.492913
O O12 0.078350 0.105412 0.256630
O O13 0.000000 0.500000 0.500000
O O14 0.253813 0.157416 0.701868
O O15 0.500000 0.000000 0.500000
O O16 0.320472 0.755111 0.654471
O O17 0.942913 0.341301 0.812958
#
# Coordination Sequence:
#
# PCOD8009494 Si02
#       8
#     2   2   2   2   2   2   2   2
#     4  11  25  42  63  94 128 175 208 258 322 373
#     4  10  22  42  67  96 127 158 219 266 310 376
#     4  10  23  41  66  93 123 166 214 263 317 372
#     4  10  24  40  62  91 131 169 208 255 321 379
#     4  11  27  41  62  92 135 168 212 258 312 381
#     4   9  20  37  61  91 126 159 212 262 305 373
#     4  10  21  36  68  92 122 167 212 261 322 358
#     4   9  21  41  63  96 125 162 211 264 314 379
#
# _framework density 23.327943000000001
#
# number of rings (size 3 to 8) (size 9 to 14) (size 15 to 20)
#    0.000    2.000    0.000    1.125    8.750   12.500 
#    0.000    1.250    0.000    0.000    0.000    0.000 
#    0.000    0.000    0.000    0.000    0.000    0.000 
#
# Total GULP energy -198248.037862 kJ/mol
# GULP energy per Si atom -12390.502366 kJ/mol
# Density = 2.327485 g / cm^3
# Si number density = 23.327943 Si / 1000 Ang^3
#
#
#
# Elastic Constant Matrix: (Units=GPa)
#
#
# Indices 1 2 3 4 5 6 
#
# 1 98.1340 28.5850 22.2449 -0.5924 -5.9446 -24.2759
# 2 28.5850 91.5879 14.8605 1.2836 -3.2681 -14.5698
# 3 22.2449 14.8605 85.9124 2.3599 8.5381 -18.0221
# 4 -0.5924 1.2836 2.3599 21.8810 -3.0655 1.5138
# 5 -5.9446 -3.2681 8.5381 -3.0655 24.0761 -1.7895
# 6 -24.2759 -14.5698 -18.0221 1.5138 -1.7895 40.1748
#
#
#
# Elastic Compliance Matrix: (Units=1/GPa)
#
#
# Indices 1 2 3 4 5 6 
#
# 1 0.013251 -0.002661 -0.002105 0.000903 0.004237 0.006253
# 2 -0.002661 0.012381 -0.001060 -0.000646 0.001503 0.002498
# 3 -0.002105 -0.001060 0.013927 -0.002589 -0.005602 0.004439
# 4 0.000903 -0.000646 -0.002589 0.047169 0.006887 -0.002321
# 5 0.004237 0.001503 -0.005602 0.006887 0.045825 0.002374
# 6 0.006253 0.002498 0.004439 -0.002321 0.002374 0.031760
#
#
# Mechanical properties :
#
#
# Convention : Reuss Voigt Hill
#
# Bulk Modulus (GPa) = 35.83327 45.22390 40.52858
# Shear Modulus (GPa) = 26.98789 31.22264 29.10526
#
# Velocity S-wave (km/s) = 3.40500 3.66241 3.53605
# Velocity P-wave (km/s) = 5.55452 6.10840 5.83804
#
# Compressibility (1/GPa) = 0.02790703
#
# Stress axis : x y z
#
# Youngs Moduli (GPa) = 75.46453 80.76854 71.80138
#
# Poissons Ratio (x) = 0.21493 0.15115
# Poissons Ratio (y) = 0.20081 0.07612
# Poissons Ratio (z) = 0.15886 0.08563
#
# Static dielectric constant tensor:
#      x y z
#    x 4.426460 0.067880 -0.174360 
#    y 0.067880 4.468120 0.280390 
#    z -0.174360 0.280390 4.100290 
# 
# 
# High freq. dielectric constant tensor:
#      x y z
#    x 1.934050 -0.001980 0.002430 
#    y -0.001980 1.924570 0.014950 
#    z 0.002430 0.014950 1.906540 
# 
# From -- ./inp_files/123708.got.cif
#   From: 2010.06.25/outbox.cif.g09.slc.cpg/sg2_62_cif.got.tgz:123708.got - 2010.06.27 13:26:56.
