data_PCOD8009835
_publ_section_title
;
Structure prediction by ZEFSAII (Michael W. Deem and Ramdas Pophale) SiO2 
 PCOD8009835
Probable space group: P -1
;
_chemical_formula_sum "Si O2"
_cell_formula_units_Z 14
_cell_length_a 18.418093
_cell_length_b 17.903421
_cell_length_c 8.889918
_cell_angle_alpha 150.652688
_cell_angle_beta 30.677014
_cell_angle_gamma 148.382813
_cell_volume 669.388318
_symmetry_space_group_name_H-M "P -1"
_symmetry_group_IT_number 2
_symmetry_cell_setting 'triclinic'
loop_
_space_group_symop_operation_xyz
x,y,z
-x,-y,-z
loop_
_atom_site_type_symbol
_atom_site_label
_atom_site_fract_x
_atom_site_fract_y
_atom_site_fract_z
Si Si1 0.152701 0.637812 0.899897
Si Si2 0.680979 0.063386 0.271410
Si Si3 0.217594 0.203498 0.308823
Si Si4 0.159167 0.574469 0.431735
Si Si5 0.144402 0.944213 0.350492
Si Si6 0.593099 0.478073 0.652800
Si Si7 0.302621 0.309808 0.679057
O O1 0.131616 0.618283 0.725349
O O2 0.309062 0.627978 0.662633
O O3 0.162294 0.825563 0.243395
O O4 0.000000 0.500000 0.000000
O O5 0.744638 0.258363 0.541215
O O6 0.500000 0.000000 0.500000
O O7 0.731622 0.039621 0.971893
O O8 0.742776 0.955443 0.081415
O O9 0.286186 0.339426 0.294606
O O10 0.300378 0.286830 0.463588
O O11 0.032085 0.138158 0.541693
O O12 0.000000 0.500000 0.500000
O O13 0.242941 0.450281 0.072478
O O14 0.192489 0.135857 0.654366
O O15 0.478234 0.375583 0.544300
O O16 0.500000 0.500000 0.000000
#
# Coordination Sequence:
#
# PCOD8009835 Si02
#       7
#     2   2   2   2   2   2   2
#     4  11  23  45  65  90 129 172 209 251 325 383
#     4  10  21  37  61  94 126 158 204 266 313 358
#     4  11  22  43  69  90 127 171 214 257 315 378
#     4  11  22  40  68  94 125 161 217 262 305 379
#     4  10  22  42  66  92 125 168 214 261 310 378
#     4  12  25  42  65  93 134 169 204 267 320 376
#     4  11  22  41  67  97 123 165 218 262 312 372
#
# _framework density 20.914615999999999
#
# number of rings (size 3 to 8) (size 9 to 14) (size 15 to 20)
#    0.000    1.143    2.857    5.571    2.000    1.714 
#    0.000    4.286    0.000    0.000    0.000    0.000 
#    0.000    0.000    0.000    0.000    0.000    0.000 
#
# Total GULP energy -173552.941898 kJ/mol
# GULP energy per Si atom -12396.638707 kJ/mol
# Density = 2.086701 g / cm^3
# Si number density = 20.914616 Si / 1000 Ang^3
#
#
#
# Elastic Constant Matrix: (Units=GPa)
#
#
# Indices 1 2 3 4 5 6 
#
# 1 96.1718 49.0381 37.1141 -1.3995 -31.4364 8.4115
# 2 49.0381 165.5731 56.7868 8.0796 -17.9935 -2.7713
# 3 37.1141 56.7868 99.0783 5.4358 -31.0839 -0.3706
# 4 -1.3995 8.0796 5.4358 51.1310 -4.2300 -13.7919
# 5 -31.4364 -17.9935 -31.0839 -4.2300 39.0199 -0.1231
# 6 8.4115 -2.7713 -0.3706 -13.7919 -0.1231 42.0767
#
#
#
# Elastic Compliance Matrix: (Units=1/GPa)
#
#
# Indices 1 2 3 4 5 6 
#
# 1 0.016390 -0.003509 -0.000710 0.001164 0.011137 -0.003100
# 2 -0.003509 0.008298 -0.004139 -0.000922 -0.002395 0.000902
# 3 -0.000710 -0.004139 0.015942 -0.000226 0.010194 -0.000035
# 4 0.001164 -0.000922 -0.000226 0.021838 0.002721 0.006870
# 5 0.011137 -0.002395 0.010194 0.002721 0.041909 -0.001280
# 6 -0.003100 0.000902 -0.000035 0.006870 -0.001280 0.026693
#
#
# Mechanical properties :
#
#
# Convention : Reuss Voigt Hill
#
# Bulk Modulus (GPa) = 41.81590 71.85568 56.83579
# Shear Modulus (GPa) = 32.10143 40.97112 36.53627
#
# Velocity S-wave (km/s) = 3.92201 4.43083 4.18416
# Velocity P-wave (km/s) = 6.36762 7.78509 7.11175
#
# Compressibility (1/GPa) = 0.02391435
#
# Stress axis : x y z
#
# Youngs Moduli (GPa) = 61.01336 120.50559 62.72852
#
# Poissons Ratio (x) = 0.42288 0.04451
# Poissons Ratio (y) = 0.21411 0.25964
# Poissons Ratio (z) = 0.04329 0.49878
#
# Static dielectric constant tensor:
#      x y z
#    x 3.622080 -0.223420 -0.263170 
#    y -0.223420 4.496260 0.600860 
#    z -0.263170 0.600860 4.031710 
# 
# 
# High freq. dielectric constant tensor:
#      x y z
#    x 1.802070 -0.009030 -0.033430 
#    y -0.009030 1.843700 0.009150 
#    z -0.033430 0.009150 1.821520 
# 
# From -- ./inp_files/156583.got.cif
#   From: 2010.06.25/outbox.cif.g09.slc.cpg/sg2_79_cif.got.tgz:156583.got - 2010.06.27 13:26:56.
