data_PCOD8009911
_publ_section_title
;
Structure prediction by ZEFSAII (Michael W. Deem and Ramdas Pophale) SiO2 
 PCOD8009911
Probable space group: P -1
;
_chemical_formula_sum "Si O2"
_cell_formula_units_Z 16
_cell_length_a 13.076797
_cell_length_b 10.003144
_cell_length_c 11.756722
_cell_angle_alpha 52.223004
_cell_angle_beta 110.317123
_cell_angle_gamma 138.771990
_cell_volume 781.864888
_symmetry_space_group_name_H-M "P -1"
_symmetry_group_IT_number 2
_symmetry_cell_setting 'triclinic'
loop_
_space_group_symop_operation_xyz
x,y,z
-x,-y,-z
loop_
_atom_site_type_symbol
_atom_site_label
_atom_site_fract_x
_atom_site_fract_y
_atom_site_fract_z
Si Si1 0.168154 0.720154 0.773675
Si Si2 0.648405 0.524308 0.826168
Si Si3 0.195784 0.357251 0.956489
Si Si4 0.181980 0.532148 0.225416
Si Si5 0.864021 0.885805 0.162130
Si Si6 0.286577 0.414214 0.518488
Si Si7 0.639979 0.799032 0.515962
Si Si8 0.317021 0.987711 0.927507
O O1 0.162398 0.517546 0.845755
O O2 0.992328 0.590250 0.794306
O O3 0.247415 0.909745 0.599723
O O4 0.274922 0.870427 0.847902
O O5 0.798781 0.592164 0.797356
O O6 0.656329 0.728349 0.682380
O O7 0.491397 0.264637 0.845962
O O8 0.653717 0.513028 0.970650
O O9 0.233039 0.321760 0.866140
O O10 0.049570 0.092723 0.096280
O O11 0.213281 0.490677 0.383369
O O12 0.309912 0.825382 0.098632
O O13 0.834292 0.758186 0.335940
O O14 0.807341 0.013792 0.078673
O O15 0.459929 0.657845 0.504250
O O16 0.301585 0.264231 0.525863
#
# Coordination Sequence:
#
# PCOD8009911 Si02
#       8
#     2   2   2   2   2   2   2   2
#     4  12  22  39  62  97 125 158 207 264 302 361
#     4  11  23  38  64  97 123 162 207 257 313 367
#     4  11  26  41  64  92 127 165 210 249 309 369
#     4  11  23  34  64  98 121 157 208 260 311 355
#     4  11  23  46  64  85 129 172 201 254 307 372
#     4  10  21  40  61  90 126 166 201 253 316 361
#     4  10  21  37  62  94 125 157 203 262 309 363
#     4  12  21  40  66  91 126 159 210 262 305 360
#
# _framework density 20.463894
#
# number of rings (size 3 to 8) (size 9 to 14) (size 15 to 20)
#    0.000    1.000    5.000    3.000    3.500    1.500 
#    0.000    2.500    0.000    0.000    0.000    0.000 
#    0.000    0.000    0.000    0.000    0.000    0.000 
#
# Total GULP energy -198446.780317 kJ/mol
# GULP energy per Si atom -12402.923770 kJ/mol
# Density = 2.041732 g / cm^3
# Si number density = 20.463894 Si / 1000 Ang^3
#
#
#
# Elastic Constant Matrix: (Units=GPa)
#
#
# Indices 1 2 3 4 5 6 
#
# 1 18.8310 2.1958 19.7722 4.5177 0.2440 -3.2622
# 2 2.1958 50.9745 33.3240 -0.3651 6.3881 -6.1769
# 3 19.7722 33.3240 166.6377 -6.1350 11.9010 -1.5664
# 4 4.5177 -0.3651 -6.1350 31.6327 8.5102 -2.7647
# 5 0.2440 6.3881 11.9010 8.5102 21.9549 -1.2249
# 6 -3.2622 -6.1769 -1.5664 -2.7647 -1.2249 26.1512
#
#
#
# Elastic Compliance Matrix: (Units=1/GPa)
#
#
# Indices 1 2 3 4 5 6 
#
# 1 0.067269 0.003101 -0.009672 -0.013247 0.009150 0.007573
# 2 0.003101 0.023807 -0.004750 0.000553 -0.004290 0.005583
# 3 -0.009672 -0.004750 0.008584 0.004160 -0.004866 -0.001602
# 4 -0.013247 0.000553 0.004160 0.039161 -0.017334 0.002055
# 5 0.009150 -0.004290 -0.004866 -0.017334 0.056086 0.000631
# 6 0.007573 0.005583 -0.001602 0.002055 0.000631 0.040654
#
#
# Mechanical properties :
#
#
# Convention : Reuss Voigt Hill
#
# Bulk Modulus (GPa) = 12.98375 38.55860 25.77117
# Shear Modulus (GPa) = 17.61338 28.02448 22.81893
#
# Velocity S-wave (km/s) = 2.93696 3.70464 3.34291
# Velocity P-wave (km/s) = 4.22605 6.09773 5.24603
#
# Compressibility (1/GPa) = 0.07701936
#
# Stress axis : x y z
#
# Youngs Moduli (GPa) = 14.86570 42.00408 116.49435
#
# Poissons Ratio (x) = -0.13026 1.12672
# Poissons Ratio (y) = -0.04610 0.55332
# Poissons Ratio (z) = 0.14378 0.19951
#
# Static dielectric constant tensor:
#      x y z
#    x 3.533570 0.095690 0.082510 
#    y 0.095690 3.622500 -0.072130 
#    z 0.082510 -0.072130 4.012740 
# 
# 
# High freq. dielectric constant tensor:
#      x y z
#    x 1.782930 0.019680 0.007830 
#    y 0.019680 1.781750 -0.007120 
#    z 0.007830 -0.007120 1.818410 
# 
# From -- ./inp_files/256638.got.cif
#   From: 2010.06.25/outbox.cif.g09.slc.cpg/sg2_129_cif.got.tgz:256638.got - 2010.06.27 13:26:56.
