data_PCOD8009997
_publ_section_title
;
Structure prediction by ZEFSAII (Michael W. Deem and Ramdas Pophale) SiO2 
 PCOD8009997
Probable space group: P -1
;
_chemical_formula_sum "Si O2"
_cell_formula_units_Z 14
_cell_length_a 10.941090
_cell_length_b 21.468360
_cell_length_c 13.789798
_cell_angle_alpha 158.620310
_cell_angle_beta 147.798042
_cell_angle_gamma 34.474538
_cell_volume 618.081882
_symmetry_space_group_name_H-M "P -1"
_symmetry_group_IT_number 2
_symmetry_cell_setting 'triclinic'
loop_
_space_group_symop_operation_xyz
x,y,z
-x,-y,-z
loop_
_atom_site_type_symbol
_atom_site_label
_atom_site_fract_x
_atom_site_fract_y
_atom_site_fract_z
Si Si1 0.559420 0.438177 0.275523
Si Si2 0.178166 0.114864 0.961281
Si Si3 0.111848 0.828032 0.770137
Si Si4 0.684850 0.288893 0.850782
Si Si5 0.350375 0.372435 0.583498
Si Si6 0.567452 0.199434 0.221732
Si Si7 0.367110 0.191863 0.665165
O O1 0.797816 0.332349 0.329682
O O2 0.619686 0.533302 0.358716
O O3 0.423335 0.594375 0.477331
O O4 0.392437 0.304926 0.941781
O O5 0.211303 0.221031 0.238093
O O6 0.305319 0.174225 0.036532
O O7 0.905953 0.134863 0.785051
O O8 0.271249 0.909953 0.745395
O O9 0.334396 0.866936 0.914082
O O10 0.909740 0.786326 0.503831
O O11 0.000000 0.000000 0.000000
O O12 0.591020 0.285383 0.672590
O O13 0.480893 0.261192 0.747043
O O14 0.769635 0.473634 0.199624
O O15 0.500000 0.000000 0.500000
#
# Coordination Sequence:
#
# PCOD8009997 Si02
#       7
#     2   2   2   2   2   2   2
#     4  10  23  44  63  95 132 168 216 267 320 381
#     4  10  21  42  66  88 133 172 207 263 322 380
#     4  12  25  43  70  93 126 173 217 265 322 387
#     4  10  21  37  63  98 127 166 217 263 320 379
#     4   9  21  37  63  97 129 165 215 267 316 376
#     4  10  24  43  64  97 131 171 216 259 327 383
#     4  11  23  40  65  99 128 166 220 265 318 378
#
# _framework density 22.650721999999998
#
# number of rings (size 3 to 8) (size 9 to 14) (size 15 to 20)
#    0.000    1.714    1.429    1.714    4.000    7.429 
#    0.000   10.714    0.000    0.000    0.000    0.000 
#    0.000    0.000    0.000    0.000    0.000    0.000 
#
# Total GULP energy -173467.009541 kJ/mol
# GULP energy per Si atom -12390.500681 kJ/mol
# Density = 2.259917 g / cm^3
# Si number density = 22.650722 Si / 1000 Ang^3
#
#
#
# Elastic Constant Matrix: (Units=GPa)
#
#
# Indices 1 2 3 4 5 6 
#
# 1 95.2497 22.4020 10.1202 2.6301 -7.8650 -0.3475
# 2 22.4020 148.5608 44.4819 2.0913 -4.3764 13.7466
# 3 10.1202 44.4819 79.9016 17.5543 -5.3016 1.0063
# 4 2.6301 2.0913 17.5543 42.1162 0.2304 0.4512
# 5 -7.8650 -4.3764 -5.3016 0.2304 20.1070 1.9488
# 6 -0.3475 13.7466 1.0063 0.4512 1.9488 33.9288
#
#
#
# Elastic Compliance Matrix: (Units=1/GPa)
#
#
# Indices 1 2 3 4 5 6 
#
# 1 0.011230 -0.001569 -0.000165 -0.000582 0.003963 0.000536
# 2 -0.001569 0.008773 -0.005016 0.001788 0.000289 -0.003462
# 3 -0.000165 -0.005016 0.017039 -0.006876 0.003277 0.001428
# 4 -0.000582 0.001788 -0.006876 0.026576 -0.001881 -0.000772
# 5 0.003963 0.000289 0.003277 -0.001881 0.052539 -0.003166
# 6 0.000536 -0.003462 0.001428 -0.000772 -0.003166 0.031032
#
#
# Mechanical properties :
#
#
# Convention : Reuss Voigt Hill
#
# Bulk Modulus (GPa) = 42.47458 53.08001 47.77729
# Shear Modulus (GPa) = 29.66740 35.67760 32.67250
#
# Velocity S-wave (km/s) = 3.62301 3.97308 3.80208
# Velocity P-wave (km/s) = 6.02447 6.67325 6.35714
#
# Compressibility (1/GPa) = 0.02354349
#
# Stress axis : x y z
#
# Youngs Moduli (GPa) = 89.04370 113.98272 58.69056
#
# Poissons Ratio (x) = 0.17880 0.00969
# Poissons Ratio (y) = 0.13968 0.29437
# Poissons Ratio (z) = 0.01470 0.57169
#
# Static dielectric constant tensor:
#      x y z
#    x 3.995310 0.049010 -0.360550 
#    y 0.049010 4.347640 0.344990 
#    z -0.360550 0.344990 4.944540 
# 
# 
# High freq. dielectric constant tensor:
#      x y z
#    x 1.874950 0.013700 -0.006670 
#    y 0.013700 1.908090 0.019870 
#    z -0.006670 0.019870 1.882620 
# 
# From -- ./inp_files/390670.got.cif
#   From: 2010.06.25/outbox.cif.g09.slc.cpg/sg2_196_cif.got.tgz:390670.got - 2010.06.27 13:26:56.
