data_PCOD8009922
_publ_section_title
;
Structure prediction by ZEFSAII (Michael W. Deem and Ramdas Pophale) SiO2 
 PCOD8009922
Probable space group: P -1
;
_chemical_formula_sum "Si O2"
_cell_formula_units_Z 12
_cell_length_a 14.248622
_cell_length_b 14.721729
_cell_length_c 5.150854
_cell_angle_alpha 71.559287
_cell_angle_beta 61.764598
_cell_angle_gamma 27.938297
_cell_volume 432.255199
_symmetry_space_group_name_H-M "P -1"
_symmetry_group_IT_number 2
_symmetry_cell_setting 'triclinic'
loop_
_space_group_symop_operation_xyz
x,y,z
-x,-y,-z
loop_
_atom_site_type_symbol
_atom_site_label
_atom_site_fract_x
_atom_site_fract_y
_atom_site_fract_z
Si Si1 0.430650 0.158406 0.541692
Si Si2 0.217641 0.479949 0.218876
Si Si3 0.824636 0.091569 0.835487
Si Si4 0.051639 0.345127 0.080680
Si Si5 0.277567 0.992350 0.245596
Si Si6 0.127744 0.755719 0.156377
O O1 0.410006 0.248343 0.242155
O O2 0.184564 0.340411 0.841960
O O3 0.588554 0.086558 0.601652
O O4 0.500000 0.000000 0.500000
O O5 0.146772 0.516446 0.985166
O O6 0.286560 0.538234 0.089493
O O7 0.019639 0.610865 0.564069
O O8 0.634499 0.176277 0.860806
O O9 0.724992 0.263895 0.962012
O O10 0.000000 0.000000 0.500000
O O11 0.953639 0.916174 0.011384
O O12 0.246714 0.109945 0.994026
O O13 0.024325 0.158841 0.482892
#
# Coordination Sequence:
#
# PCOD8009922 Si02
#       6
#     2   2   2   2   2   2
#     4  12  26  42  63  97 136 177 219 273 330 376
#     4  11  24  44  67  95 134 177 223 269 317 395
#     4   9  17  34  66  92 120 159 219 260 324 394
#     4  11  23  44  66  93 130 183 225 261 317 394
#     4  10  21  37  62  95 128 165 213 274 321 381
#     4   9  18  37  63  94 121 168 214 261 321 398
#
# _framework density 27.761378000000001
#
# number of rings (size 3 to 8) (size 9 to 14) (size 15 to 20)
#    0.000    1.667    1.667    3.500    0.000    2.667 
#    0.000    0.833    0.000    9.000    0.000    0.000 
#    0.000    0.000    0.000    0.000    0.000    0.000 
#
# Total GULP energy -148671.108896 kJ/mol
# GULP energy per Si atom -12389.259075 kJ/mol
# Density = 2.769819 g / cm^3
# Si number density = 27.761378 Si / 1000 Ang^3
#
#
#
# Elastic Constant Matrix: (Units=GPa)
#
#
# Indices 1 2 3 4 5 6 
#
# 1 206.9571 65.4214 17.8196 -9.4272 23.0737 26.2165
# 2 65.4214 146.9880 14.5803 -35.3769 5.7786 51.6097
# 3 17.8196 14.5803 88.7300 -21.0603 -7.8975 7.0274
# 4 -9.4272 -35.3769 -21.0603 46.4737 -4.4128 -3.5664
# 5 23.0737 5.7786 -7.8975 -4.4128 47.3901 -6.9154
# 6 26.2165 51.6097 7.0274 -3.5664 -6.9154 46.2886
#
#
#
# Elastic Compliance Matrix: (Units=1/GPa)
#
#
# Indices 1 2 3 4 5 6 
#
# 1 0.006170 -0.002490 -0.001432 -0.001688 -0.003260 -0.001119
# 2 -0.002490 0.016269 0.001612 0.011176 -0.001854 -0.016390
# 3 -0.001432 0.001612 0.013429 0.007164 0.003113 -0.002008
# 4 -0.001688 0.011176 0.007164 0.032393 0.002245 -0.009761
# 5 -0.003260 -0.001854 0.003113 0.002245 0.024708 0.007305
# 6 -0.001119 -0.016390 -0.002008 -0.009761 0.007305 0.041155
#
#
# Mechanical properties :
#
#
# Convention : Reuss Voigt Hill
#
# Bulk Modulus (GPa) = 32.00051 70.92418 51.46235
# Shear Modulus (GPa) = 33.52088 51.02074 42.27081
#
# Velocity S-wave (km/s) = 3.47863 4.29164 3.90635
# Velocity P-wave (km/s) = 5.26180 7.08243 6.23888
#
# Compressibility (1/GPa) = 0.03124950
#
# Stress axis : x y z
#
# Youngs Moduli (GPa) = 162.06161 61.46746 74.46379
#
# Poissons Ratio (x) = 0.15303 0.10665
# Poissons Ratio (y) = 0.40347 -0.12006
# Poissons Ratio (z) = 0.23212 -0.09911
#
# Static dielectric constant tensor:
#      x y z
#    x 3.742240 -0.217100 2.624800 
#    y -0.217100 5.011480 1.752150 
#    z 2.624800 1.752150 0.983700 
# 
# 
# High freq. dielectric constant tensor:
#      x y z
#    x 2.142240 0.041540 -0.018900 
#    y 0.041540 2.133920 0.003150 
#    z -0.018900 0.003150 2.139830 
# 
# From -- ./inp_files/86177.got.cif
#   From: 2010.06.25/outbox.cif.g09.slc.cpg/sg2_44_cif.got.tgz:86177.got - 2010.06.27 13:26:56.
