data_PCOD8009331
_publ_section_title
;
Structure prediction by ZEFSAII (Michael W. Deem and Ramdas Pophale) SiO2 
 PCOD8009331
Probable space group: P -1
;
_chemical_formula_sum "Si O2"
_cell_formula_units_Z 12
_cell_length_a 11.831363
_cell_length_b 11.582687
_cell_length_c 9.271629
_cell_angle_alpha 116.995171
_cell_angle_beta 58.284521
_cell_angle_gamma 153.112309
_cell_volume 488.432308
_symmetry_space_group_name_H-M "P -1"
_symmetry_group_IT_number 2
_symmetry_cell_setting 'triclinic'
loop_
_space_group_symop_operation_xyz
x,y,z
-x,-y,-z
loop_
_atom_site_type_symbol
_atom_site_label
_atom_site_fract_x
_atom_site_fract_y
_atom_site_fract_z
Si Si1 0.978005 0.260983 0.338574
Si Si2 0.974605 0.823464 0.442254
Si Si3 0.445578 0.822511 0.301237
Si Si4 0.503846 0.363624 0.324363
Si Si5 0.389548 0.987421 0.198910
Si Si6 0.617244 0.476913 0.986710
O O1 0.995970 0.169902 0.402008
O O2 0.175014 0.547740 0.405555
O O3 0.080929 0.281899 0.132366
O O4 0.675560 0.047373 0.391058
O O5 0.669967 0.580707 0.458531
O O6 0.182082 0.112808 0.412012
O O7 0.091098 0.790211 0.267319
O O8 0.389305 0.905627 0.298829
O O9 0.535339 0.783052 0.107669
O O10 0.567664 0.265738 0.255029
O O11 0.604199 0.490114 0.172718
O O12 0.500000 0.000000 0.000000
O O13 0.500000 0.500000 0.000000
#
# Coordination Sequence:
#
# PCOD8009331 Si02
#       6
#     2   2   2   2   2   2
#     4  10  23  41  62  89 126 158 204 244 301 356
#     4  10  23  41  61  91 127 160 196 247 299 361
#     4  10  22  37  62  90 122 159 201 241 299 353
#     4  10  23  39  63  89 123 157 204 241 304 354
#     4  10  21  36  61  90 128 156 196 242 300 358
#     4  10  24  43  66  89 118 158 206 256 299 354
#
# _framework density 24.5684
#
# number of rings (size 3 to 8) (size 9 to 14) (size 15 to 20)
#    2.000    0.000    1.667    1.000    7.000    2.667 
#    0.000    1.667    0.000    0.000    0.000    0.000 
#    0.000    0.000    0.000    0.000    0.000    0.000 
#
# Total GULP energy -148694.370551 kJ/mol
# GULP energy per Si atom -12391.197546 kJ/mol
# Density = 2.451248 g / cm^3
# Si number density = 24.568400 Si / 1000 Ang^3
#
#
#
# Elastic Constant Matrix: (Units=GPa)
#
#
# Indices 1 2 3 4 5 6 
#
# 1 135.4486 76.7697 23.6679 -7.2436 7.9928 6.7991
# 2 76.7697 163.6338 50.5885 -0.2225 7.8022 22.3233
# 3 23.6679 50.5885 110.7451 -24.1411 13.3966 10.3809
# 4 -7.2436 -0.2225 -24.1411 34.9303 -2.7467 -3.7125
# 5 7.9928 7.8022 13.3966 -2.7467 52.8082 -6.2323
# 6 6.7991 22.3233 10.3809 -3.7125 -6.2323 54.2301
#
#
#
# Elastic Compliance Matrix: (Units=1/GPa)
#
#
# Indices 1 2 3 4 5 6 
#
# 1 0.010308 -0.005128 0.000734 0.002634 -0.000761 0.000771
# 2 -0.005128 0.010239 -0.004184 -0.004239 -0.000260 -0.003091
# 3 0.000734 -0.004184 0.013068 0.008911 -0.002408 -0.000538
# 4 0.002634 -0.004239 0.008911 0.035540 0.000069 0.002150
# 5 -0.000761 -0.000260 -0.002408 0.000069 0.020055 0.002973
# 6 0.000771 -0.003091 -0.000538 0.002150 0.002973 0.020208
#
#
# Mechanical properties :
#
#
# Convention : Reuss Voigt Hill
#
# Bulk Modulus (GPa) = 60.76006 79.09776 69.92891
# Shear Modulus (GPa) = 37.86082 45.64713 41.75398
#
# Velocity S-wave (km/s) = 3.92986 4.31508 4.12697
# Velocity P-wave (km/s) = 6.73620 7.55589 7.15779
#
# Compressibility (1/GPa) = 0.01645818
#
# Stress axis : x y z
#
# Youngs Moduli (GPa) = 97.00823 97.66528 76.52044
#
# Poissons Ratio (x) = 0.50086 -0.05613
# Poissons Ratio (y) = 0.49749 0.32016
# Poissons Ratio (z) = -0.07116 0.40863
#
# Static dielectric constant tensor:
#      x y z
#    x 4.646310 -0.230100 -0.239160 
#    y -0.230100 4.378030 -0.123280 
#    z -0.239160 -0.123280 4.656790 
# 
# 
# High freq. dielectric constant tensor:
#      x y z
#    x 2.005230 -0.018990 -0.026700 
#    y -0.018990 1.975230 -0.009950 
#    z -0.026700 -0.009950 1.983140 
# 
# From -- ./inp_files/72988.got.cif
#   From: 2010.06.25/outbox.cif.g09.slc.cpg/sg2_37_cif.got.tgz:72988.got - 2010.06.27 13:26:56.
