data_PCOD8009952
_publ_section_title
;
Structure prediction by ZEFSAII (Michael W. Deem and Ramdas Pophale) SiO2 
 PCOD8009952
Probable space group: P -1
;
_chemical_formula_sum "Si O2"
_cell_formula_units_Z 16
_cell_length_a 12.441341
_cell_length_b 9.488992
_cell_length_c 10.936502
_cell_angle_alpha 82.298292
_cell_angle_beta 81.527841
_cell_angle_gamma 35.949721
_cell_volume 749.469526
_symmetry_space_group_name_H-M "P -1"
_symmetry_group_IT_number 2
_symmetry_cell_setting 'triclinic'
loop_
_space_group_symop_operation_xyz
x,y,z
-x,-y,-z
loop_
_atom_site_type_symbol
_atom_site_label
_atom_site_fract_x
_atom_site_fract_y
_atom_site_fract_z
Si Si1 0.818566 0.762404 0.059017
Si Si2 0.336681 0.018435 0.456318
Si Si3 0.097811 0.047698 0.832935
Si Si4 0.384795 0.258283 0.754338
Si Si5 0.430021 0.770382 0.086181
Si Si6 0.268850 0.387712 0.505675
Si Si7 0.946117 0.916023 0.442692
Si Si8 0.733270 0.321147 0.946761
O O1 0.854378 0.841663 0.149159
O O2 0.686990 0.785529 0.138218
O O3 0.000000 0.500000 0.000000
O O4 0.702404 0.955457 0.946217
O O5 0.417314 0.983584 0.314927
O O6 0.516785 0.799921 0.538706
O O7 0.222736 0.271229 0.499208
O O8 0.206914 0.016536 0.467655
O O9 0.134062 0.974296 0.692505
O O10 0.206014 0.816046 0.919440
O O11 0.882891 0.265883 0.872170
O O12 0.424874 0.356295 0.815462
O O13 0.235437 0.447380 0.650982
O O14 0.549829 0.607288 0.963996
O O15 0.305862 0.762681 0.136024
O O16 0.133014 0.630548 0.425630
O O17 0.000000 0.000000 0.500000
#
# Coordination Sequence:
#
# PCOD8009952 Si02
#       8
#     2   2   2   2   2   2   2   2
#     4  11  23  39  60  99 122 159 217 267 315 377
#     4   9  22  44  63  89 129 169 218 257 320 388
#     4  10  23  40  64  86 133 159 211 267 311 380
#     4  10  21  38  65  87 126 161 207 266 313 376
#     4  10  21  37  63  89 121 161 212 252 322 378
#     4   9  22  43  64  92 126 172 217 253 327 381
#     4  12  26  40  65 101 130 171 218 267 324 379
#     4   9  21  43  59  89 121 171 203 250 331 381
#
# _framework density 21.348433
#
# number of rings (size 3 to 8) (size 9 to 14) (size 15 to 20)
#    0.750    1.250    0.000    2.250    3.500    3.500 
#    4.500    0.000    0.000    0.000    0.000    0.000 
#    0.000    0.000    0.000    0.000    0.000    0.000 
#
# Total GULP energy -198219.635642 kJ/mol
# GULP energy per Si atom -12388.727228 kJ/mol
# Density = 2.129984 g / cm^3
# Si number density = 21.348433 Si / 1000 Ang^3
#
#
#
# Elastic Constant Matrix: (Units=GPa)
#
#
# Indices 1 2 3 4 5 6 
#
# 1 146.5878 30.5051 46.0362 9.2973 14.9819 -1.6368
# 2 30.5051 88.6047 8.8413 7.4539 -15.7029 -1.0532
# 3 46.0362 8.8413 87.5781 13.0476 9.9187 10.7539
# 4 9.2973 7.4539 13.0476 15.4070 0.7340 -1.8931
# 5 14.9819 -15.7029 9.9187 0.7340 24.1612 9.8316
# 6 -1.6368 -1.0532 10.7539 -1.8931 9.8316 21.4461
#
#
#
# Elastic Compliance Matrix: (Units=1/GPa)
#
#
# Indices 1 2 3 4 5 6 
#
# 1 0.010670 -0.005268 -0.005137 0.002061 -0.011484 0.008578
# 2 -0.005268 0.016600 0.001416 -0.007980 0.017363 -0.008961
# 3 -0.005137 0.001416 0.017120 -0.013529 0.001965 -0.011002
# 4 0.002061 -0.007980 -0.013529 0.081822 -0.011064 0.018844
# 5 -0.011484 0.017363 0.001965 -0.011064 0.073921 -0.035874
# 6 0.008578 -0.008961 -0.011002 0.018844 -0.035874 0.070469
#
#
# Mechanical properties :
#
#
# Convention : Reuss Voigt Hill
#
# Bulk Modulus (GPa) = 37.86047 54.83732 46.34890
# Shear Modulus (GPa) = 16.81333 28.02872 22.42103
#
# Velocity S-wave (km/s) = 2.80941 3.62735 3.24426
# Velocity P-wave (km/s) = 5.31947 6.57922 5.98259
#
# Compressibility (1/GPa) = 0.02641277
#
# Stress axis : x y z
#
# Youngs Moduli (GPa) = 93.72011 60.24021 58.41282
#
# Poissons Ratio (x) = 0.31732 0.30005
# Poissons Ratio (y) = 0.49368 -0.08271
# Poissons Ratio (z) = 0.48142 -0.08529
#
# Static dielectric constant tensor:
#      x y z
#    x 4.046420 -0.080450 0.233330 
#    y -0.080450 3.616910 0.029460 
#    z 0.233330 0.029460 3.624720 
# 
# 
# High freq. dielectric constant tensor:
#      x y z
#    x 1.855760 -0.006730 0.017180 
#    y -0.006730 1.823380 0.005400 
#    z 0.017180 0.005400 1.814550 
# 
# From -- ./inp_files/417370.got.cif
#   From: 2010.06.25/outbox.cif.g09.slc.cpg/sg2_209_cif.got.tgz:417370.got - 2010.06.27 13:26:56.
