data_PCOD8009921
_publ_section_title
;
Structure prediction by ZEFSAII (Michael W. Deem and Ramdas Pophale) SiO2 
 PCOD8009921
Probable space group: P -1
;
_chemical_formula_sum "Si O2"
_cell_formula_units_Z 14
_cell_length_a 8.779811
_cell_length_b 11.040383
_cell_length_c 11.397202
_cell_angle_alpha 102.550133
_cell_angle_beta 32.971289
_cell_angle_gamma 107.132781
_cell_volume 573.603650
_symmetry_space_group_name_H-M "P -1"
_symmetry_group_IT_number 2
_symmetry_cell_setting 'triclinic'
loop_
_space_group_symop_operation_xyz
x,y,z
-x,-y,-z
loop_
_atom_site_type_symbol
_atom_site_label
_atom_site_fract_x
_atom_site_fract_y
_atom_site_fract_z
Si Si1 0.771838 0.656646 0.246317
Si Si2 0.408104 0.746301 0.912378
Si Si3 0.300167 0.599487 0.175657
Si Si4 0.317082 0.975798 0.895484
Si Si5 0.672252 0.589117 0.550960
Si Si6 0.401653 0.776110 0.359356
Si Si7 0.801631 0.087563 0.292932
O O1 0.658109 0.663753 0.454213
O O2 0.605791 0.522149 0.274065
O O3 0.688816 0.768324 0.245154
O O4 0.112361 0.672902 0.026882
O O5 0.460928 0.895893 0.879736
O O6 0.667882 0.690227 0.678826
O O7 0.396413 0.721706 0.054079
O O8 0.318969 0.649174 0.307716
O O9 0.965800 0.535762 0.355611
O O10 0.500000 0.500000 0.000000
O O11 0.198630 0.884582 0.840819
O O12 0.543299 0.100017 0.732605
O O13 0.059275 0.018085 0.140133
O O14 0.163172 0.789203 0.616630
O O15 0.500000 0.000000 0.500000
#
# Coordination Sequence:
#
# PCOD8009921 Si02
#       7
#     2   2   2   2   2   2   2
#     4  10  21  38  65  96 119 158 216 265 312 370
#     4  11  22  41  64  91 128 163 207 261 316 378
#     4  11  27  45  61  90 128 168 216 262 312 378
#     4  10  21  37  62  95 128 162 203 259 311 369
#     4  10  23  42  65  89 122 167 211 266 321 363
#     4  11  23  39  64  94 128 168 208 253 312 378
#     4   9  18  35  59  92 127 159 203 252 305 366
#
# _framework density 24.407097
#
# number of rings (size 3 to 8) (size 9 to 14) (size 15 to 20)
#    0.000    1.714    0.000    4.714    0.000   10.857 
#    0.000    1.429    0.000    0.000    0.000    0.000 
#    0.000    0.000    0.000    0.000    0.000    0.000 
#
# Total GULP energy -173505.345728 kJ/mol
# GULP energy per Si atom -12393.238981 kJ/mol
# Density = 2.435155 g / cm^3
# Si number density = 24.407097 Si / 1000 Ang^3
#
#
#
# Elastic Constant Matrix: (Units=GPa)
#
#
# Indices 1 2 3 4 5 6 
#
# 1 86.2529 26.4392 20.6907 18.5723 14.4782 -6.2998
# 2 26.4392 72.9440 23.6417 11.4084 9.5252 -8.4819
# 3 20.6907 23.6417 98.9344 34.2573 7.0779 3.5538
# 4 18.5723 11.4084 34.2573 49.4976 7.5808 11.3220
# 5 14.4782 9.5252 7.0779 7.5808 35.8082 8.1288
# 6 -6.2998 -8.4819 3.5538 11.3220 8.1288 43.4181
#
#
#
# Elastic Compliance Matrix: (Units=1/GPa)
#
#
# Indices 1 2 3 4 5 6 
#
# 1 0.014816 -0.003456 -0.000498 -0.004500 -0.004836 0.003594
# 2 -0.003456 0.016927 -0.002883 -0.001012 -0.003208 0.003906
# 3 -0.000498 -0.002883 0.013981 -0.008949 -0.000028 0.000559
# 4 -0.004500 -0.001012 -0.008949 0.030232 -0.000759 -0.007859
# 5 -0.004836 -0.003208 -0.000028 -0.000759 0.032541 -0.007221
# 6 0.003594 0.003906 0.000559 -0.007859 -0.007221 0.027672
#
#
# Mechanical properties :
#
#
# Convention : Reuss Voigt Hill
#
# Bulk Modulus (GPa) = 31.19941 44.40829 37.80385
# Shear Modulus (GPa) = 31.14782 38.23544 34.69163
#
# Velocity S-wave (km/s) = 3.57624 3.96229 3.77420
# Velocity P-wave (km/s) = 5.46474 6.25838 5.87497
#
# Compressibility (1/GPa) = 0.03205188
#
# Stress axis : x y z
#
# Youngs Moduli (GPa) = 67.49636 59.07610 71.52436
#
# Poissons Ratio (x) = 0.20414 0.03561
# Poissons Ratio (y) = 0.23324 0.20619
# Poissons Ratio (z) = 0.03360 0.17030
#
# Static dielectric constant tensor:
#      x y z
#    x 4.430450 -0.097460 0.372810 
#    y -0.097460 4.197960 0.285510 
#    z 0.372810 0.285510 4.577900 
# 
# 
# High freq. dielectric constant tensor:
#      x y z
#    x 1.958720 -0.015680 0.015540 
#    y -0.015680 1.950910 0.006520 
#    z 0.015540 0.006520 1.976920 
# 
# From -- ./inp_files/392661.got.cif
#   From: 2010.06.25/outbox.cif.g09.slc.cpg/sg2_197_cif.got.tgz:392661.got - 2010.06.27 13:26:56.
