data_PCOD8009463
_publ_section_title
;
Structure prediction by ZEFSAII (Michael W. Deem and Ramdas Pophale) SiO2 
 PCOD8009463
Probable space group: P -1
;
_chemical_formula_sum "Si O2"
_cell_formula_units_Z 16
_cell_length_a 8.971012
_cell_length_b 11.333820
_cell_length_c 8.993236
_cell_angle_alpha 53.147242
_cell_angle_beta 83.103846
_cell_angle_gamma 75.181902
_cell_volume 706.689736
_symmetry_space_group_name_H-M "P -1"
_symmetry_group_IT_number 2
_symmetry_cell_setting 'triclinic'
loop_
_space_group_symop_operation_xyz
x,y,z
-x,-y,-z
loop_
_atom_site_type_symbol
_atom_site_label
_atom_site_fract_x
_atom_site_fract_y
_atom_site_fract_z
Si Si1 0.261761 0.716062 0.162820
Si Si2 0.083187 0.867682 0.342945
Si Si3 0.122401 0.548795 0.737801
Si Si4 0.185972 0.436399 0.522611
Si Si5 0.208050 0.131120 0.257868
Si Si6 0.496620 0.897744 0.935024
Si Si7 0.249730 0.113610 0.609174
Si Si8 0.093238 0.632753 0.984792
O O1 0.155451 0.836635 0.194216
O O2 0.279090 0.544939 0.346484
O O3 0.427688 0.754834 0.098575
O O4 0.184160 0.729762 0.998603
O O5 0.085115 0.715387 0.547243
O O6 0.902408 0.948960 0.287283
O O7 0.175075 0.967305 0.351210
O O8 0.232745 0.435613 0.694290
O O9 0.195631 0.551746 0.892406
O O10 0.959670 0.494929 0.812536
O O11 0.240807 0.271128 0.575752
O O12 0.000000 0.500000 0.500000
O O13 0.333480 0.165761 0.102018
O O14 0.269608 0.132473 0.416745
O O15 0.055409 0.260037 0.154339
O O16 0.395672 0.993864 0.744194
O O17 0.500000 0.000000 0.000000
#
# Coordination Sequence:
#
# PCOD8009463 Si02
#       8
#     2   2   2   2   2   2   2   2
#     4  11  23  42  68 100 128 170 211 273 321 385
#     4  11  21  41  68  99 129 161 220 268 329 378
#     4  10  21  36  65 107 130 154 202 287 325 373
#     4  11  19  41  67  98 128 160 213 269 331 374
#     4  12  26  43  63  95 136 175 212 263 321 389
#     4  12  29  46  60  92 138 177 220 257 317 390
#     4  12  24  44  69  95 128 173 213 271 327 377
#     4  11  21  38  69 103 129 159 219 269 326 370
#
# _framework density 22.640771000000001
#
# number of rings (size 3 to 8) (size 9 to 14) (size 15 to 20)
#    0.000    0.750    6.250    1.500    7.000    1.000 
#    0.000    2.500    0.000    0.000    0.000    0.000 
#    0.000    0.000    0.000    0.000    0.000    0.000 
#
# Total GULP energy -198366.896912 kJ/mol
# GULP energy per Si atom -12397.931057 kJ/mol
# Density = 2.258924 g / cm^3
# Si number density = 22.640771 Si / 1000 Ang^3
#
#
#
# Elastic Constant Matrix: (Units=GPa)
#
#
# Indices 1 2 3 4 5 6 
#
# 1 66.5831 26.9836 37.9490 9.8641 -21.7486 21.9989
# 2 26.9836 134.7344 50.6622 29.3318 -13.7700 27.7247
# 3 37.9490 50.6622 102.6542 19.1133 -18.9329 23.7467
# 4 9.8641 29.3318 19.1133 48.2239 7.0316 -3.6429
# 5 -21.7486 -13.7700 -18.9329 7.0316 33.3967 -1.0883
# 6 21.9989 27.7247 23.7467 -3.6429 -1.0883 28.8364
#
#
#
# Elastic Compliance Matrix: (Units=1/GPa)
#
#
# Indices 1 2 3 4 5 6 
#
# 1 0.036428 0.007238 0.000437 -0.019121 0.029794 -0.036400
# 2 0.007238 0.014586 -0.000175 -0.013715 0.012843 -0.020649
# 3 0.000437 -0.000175 0.016978 -0.009494 0.011350 -0.014918
# 4 -0.019121 -0.013715 -0.009494 0.044372 -0.031528 0.040008
# 5 0.029794 0.012843 0.011350 -0.031528 0.066218 -0.045908
# 6 -0.036400 -0.020649 -0.014918 0.040008 -0.045908 0.097906
#
#
# Mechanical properties :
#
#
# Convention : Reuss Voigt Hill
#
# Bulk Modulus (GPa) = 12.04949 59.46237 35.75593
# Shear Modulus (GPa) = 17.29196 34.64987 25.97091
#
# Velocity S-wave (km/s) = 2.76661 3.91630 3.39054
# Velocity P-wave (km/s) = 3.94196 6.83888 5.58164
#
# Compressibility (1/GPa) = 0.08299105
#
# Stress axis : x y z
#
# Youngs Moduli (GPa) = 27.45174 68.56063 58.89880
#
# Poissons Ratio (x) = -0.49624 -0.02573
# Poissons Ratio (y) = -0.19870 0.01031
# Poissons Ratio (z) = -0.01199 0.01200
#
# Static dielectric constant tensor:
#      x y z
#    x 3.877420 0.310820 -0.163700 
#    y 0.310820 4.539900 0.363710 
#    z -0.163700 0.363710 4.315150 
# 
# 
# High freq. dielectric constant tensor:
#      x y z
#    x 1.850820 0.024810 -0.011530 
#    y 0.024810 1.914170 0.014730 
#    z -0.011530 0.014730 1.909560 
# 
# From -- ./inp_files/184089.got.cif
#   From: 2010.06.25/outbox.cif.g09.slc.cpg/sg2_93_cif.got.tgz:184089.got - 2010.06.27 13:26:56.
