data_PCOD8009248
_publ_section_title
;
Structure prediction by ZEFSAII (Michael W. Deem and Ramdas Pophale) SiO2 
 PCOD8009248
Probable space group: P -1
;
_chemical_formula_sum "Si O2"
_cell_formula_units_Z 16
_cell_length_a 12.915676
_cell_length_b 8.634304
_cell_length_c 8.938136
_cell_angle_alpha 133.332767
_cell_angle_beta 87.426855
_cell_angle_gamma 86.122166
_cell_volume 717.617304
_symmetry_space_group_name_H-M "P -1"
_symmetry_group_IT_number 2
_symmetry_cell_setting 'triclinic'
loop_
_space_group_symop_operation_xyz
x,y,z
-x,-y,-z
loop_
_atom_site_type_symbol
_atom_site_label
_atom_site_fract_x
_atom_site_fract_y
_atom_site_fract_z
Si Si1 0.354621 0.625230 0.815035
Si Si2 0.846774 0.479050 0.137688
Si Si3 0.185999 0.084954 0.706166
Si Si4 0.804416 0.861382 0.587856
Si Si5 0.376693 0.791840 0.616652
Si Si6 0.513850 0.330049 0.752456
Si Si7 0.982641 0.057688 0.868004
Si Si8 0.427342 0.992558 0.226478
O O1 0.247356 0.668551 0.946205
O O2 0.337127 0.641932 0.648722
O O3 0.407079 0.380485 0.693532
O O4 0.429386 0.796641 0.978821
O O5 0.832484 0.651584 0.116002
O O6 0.839801 0.609497 0.381615
O O7 0.952807 0.314408 0.011872
O O8 0.196702 0.003208 0.478606
O O9 0.088358 0.988820 0.722522
O O10 0.290172 0.000048 0.735869
O O11 0.890512 0.929591 0.737575
O O12 0.690087 0.882627 0.683841
O O13 0.394878 0.657452 0.370403
O O14 0.484317 0.860488 0.722272
O O15 0.535756 0.094896 0.667896
O O16 0.500000 0.500000 0.000000
O O17 0.000000 0.000000 0.000000
#
# Coordination Sequence:
#
# PCOD8009248 Si02
#       8
#     2   2   2   2   2   2   2   2
#     4  11  22  38  63  96 140 172 219 277 332 380
#     4  10  22  42  69  93 131 173 219 265 329 395
#     4  10  24  42  67  96 127 180 221 264 325 400
#     4  10  23  42  70  93 130 175 220 265 331 393
#     4  12  22  39  64  98 135 174 223 273 330 386
#     4  10  21  36  59  90 127 177 217 260 321 397
#     4  12  24  45  72  98 132 164 219 285 331 383
#     4  11  21  40  64  92 133 180 219 268 329 396
#
# _framework density 22.296006999999999
#
# number of rings (size 3 to 8) (size 9 to 14) (size 15 to 20)
#    0.750    0.500    2.500    4.125    0.000    0.500 
#    0.000    0.000    5.500    0.000    0.000    0.000 
#    0.000    0.000    0.000    0.000    0.000    0.000 
#
# Total GULP energy -198233.368481 kJ/mol
# GULP energy per Si atom -12389.585530 kJ/mol
# Density = 2.224526 g / cm^3
# Si number density = 22.296007 Si / 1000 Ang^3
#
#
#
# Elastic Constant Matrix: (Units=GPa)
#
#
# Indices 1 2 3 4 5 6 
#
# 1 140.2998 26.4048 30.5767 -3.7968 -1.2311 1.2649
# 2 26.4048 77.6211 15.5655 -21.5670 2.1619 -5.1474
# 3 30.5767 15.5655 52.8773 -3.5660 4.6521 -10.9545
# 4 -3.7968 -21.5670 -3.5660 34.3472 -0.1929 -3.1175
# 5 -1.2311 2.1619 4.6521 -0.1929 34.7880 1.4362
# 6 1.2649 -5.1474 -10.9545 -3.1175 1.4362 27.8611
#
#
#
# Elastic Compliance Matrix: (Units=1/GPa)
#
#
# Indices 1 2 3 4 5 6 
#
# 1 0.008737 -0.002592 -0.005150 -0.001474 0.001280 -0.003131
# 2 -0.002592 0.017454 -0.002035 0.010801 -0.001001 0.003803
# 3 -0.005150 -0.002035 0.025022 0.001644 -0.003809 0.010077
# 4 -0.001474 0.010801 0.001644 0.036520 -0.001024 0.006848
# 5 0.001280 -0.001001 -0.003809 -0.001024 0.029496 -0.003376
# 6 -0.003131 0.003803 0.010077 0.006848 -0.003376 0.041639
#
#
# Mechanical properties :
#
#
# Convention : Reuss Voigt Hill
#
# Bulk Modulus (GPa) = 31.58585 46.21024 38.89805
# Shear Modulus (GPa) = 26.45826 32.61602 29.53714
#
# Velocity S-wave (km/s) = 3.44856 3.82889 3.64369
# Velocity P-wave (km/s) = 5.48216 6.34964 5.93178
#
# Compressibility (1/GPa) = 0.03165974
#
# Stress axis : x y z
#
# Youngs Moduli (GPa) = 114.44954 57.29302 39.96434
#
# Poissons Ratio (x) = 0.14852 0.20582
# Poissons Ratio (y) = 0.29668 0.08131
# Poissons Ratio (z) = 0.58943 0.11657
#
# Static dielectric constant tensor:
#      x y z
#    x 3.927090 -0.197590 -0.170190 
#    y -0.197590 3.989550 -0.075140 
#    z -0.170190 -0.075140 3.838060 
# 
# 
# High freq. dielectric constant tensor:
#      x y z
#    x 1.874570 -0.008810 -0.016660 
#    y -0.008810 1.870100 -0.004970 
#    z -0.016660 -0.004970 1.869390 
# 
# From -- ./inp_files/245975.got.cif
#   From: 2010.06.25/outbox.cif.g09.slc.cpg/sg2_123_cif.got.tgz:245975.got - 2010.06.27 13:26:56.
