data_PCOD8009848
_publ_section_title
;
Structure prediction by ZEFSAII (Michael W. Deem and Ramdas Pophale) SiO2 
 PCOD8009848
Probable space group: P -1
;
_chemical_formula_sum "Si O2"
_cell_formula_units_Z 16
_cell_length_a 10.762859
_cell_length_b 8.717626
_cell_length_c 11.009733
_cell_angle_alpha 96.444530
_cell_angle_beta 55.953592
_cell_angle_gamma 116.303836
_cell_volume 754.363813
_symmetry_space_group_name_H-M "P -1"
_symmetry_group_IT_number 2
_symmetry_cell_setting 'triclinic'
loop_
_space_group_symop_operation_xyz
x,y,z
-x,-y,-z
loop_
_atom_site_type_symbol
_atom_site_label
_atom_site_fract_x
_atom_site_fract_y
_atom_site_fract_z
Si Si1 0.100971 0.572318 0.754087
Si Si2 0.364847 0.483279 0.469556
Si Si3 0.169619 0.945192 0.677167
Si Si4 0.802305 0.902482 0.571677
Si Si5 0.112121 0.014318 0.053620
Si Si6 0.536495 0.958133 0.843215
Si Si7 0.185363 0.689188 0.986984
Si Si8 0.426603 0.177140 0.764722
O O1 0.212024 0.499438 0.618378
O O2 0.124486 0.744891 0.690811
O O3 0.901262 0.432209 0.857757
O O4 0.142998 0.588938 0.874533
O O5 0.500000 0.500000 0.500000
O O6 0.276866 0.302998 0.428326
O O7 0.456717 0.631662 0.331790
O O8 0.992895 0.959031 0.776764
O O9 0.247403 0.017772 0.510515
O O10 0.309274 0.051465 0.710851
O O11 0.709368 0.942058 0.739593
O O12 0.000000 0.000000 0.500000
O O13 0.128096 0.839333 0.040197
O O14 0.298843 0.176377 0.941480
O O15 0.000000 0.000000 0.000000
O O16 0.541261 0.097197 0.752828
O O17 0.386006 0.766351 0.884952
O O18 0.500000 0.000000 0.000000
#
# Coordination Sequence:
#
# PCOD8009848 Si02
#       8
#     2   2   2   2   2   2   2   2
#     4  11  22  36  66 101 134 168 223 288 339 391
#     4  12  25  41  70 101 136 174 232 293 335 401
#     4  11  21  41  70  98 136 178 222 289 336 404
#     4  12  29  47  69  99 142 182 224 280 357 410
#     4   9  17  34  61  97 133 169 213 275 339 391
#     4  11  25  47  71  94 137 187 226 277 341 418
#     4  10  21  37  62 100 133 169 226 272 337 399
#     4  10  22  41  70 100 133 173 237 278 338 394
#
# _framework density 21.209924999999998
#
# number of rings (size 3 to 8) (size 9 to 14) (size 15 to 20)
#    0.000    1.250    5.000    2.250    7.000    2.000 
#    2.250    1.875    0.000    0.000    0.000    0.000 
#    0.000    0.000    0.000    0.000    0.000    0.000 
#
# Total GULP energy -198254.578540 kJ/mol
# GULP energy per Si atom -12390.911159 kJ/mol
# Density = 2.116165 g / cm^3
# Si number density = 21.209925 Si / 1000 Ang^3
#
#
#
# Elastic Constant Matrix: (Units=GPa)
#
#
# Indices 1 2 3 4 5 6 
#
# 1 78.5915 42.9913 32.6834 -1.9024 -15.0118 -0.5318
# 2 42.9913 132.0612 73.6073 -23.0996 -4.6599 -8.5526
# 3 32.6834 73.6073 137.9188 -0.9322 -16.0060 -10.8593
# 4 -1.9024 -23.0996 -0.9322 50.5130 -7.3108 -0.6752
# 5 -15.0118 -4.6599 -16.0060 -7.3108 38.1346 -2.3337
# 6 -0.5318 -8.5526 -10.8593 -0.6752 -2.3337 20.7191
#
#
#
# Elastic Compliance Matrix: (Units=1/GPa)
#
#
# Indices 1 2 3 4 5 6 
#
# 1 0.016849 -0.005147 -0.000742 -0.000969 0.005414 -0.001503
# 2 -0.005147 0.013741 -0.006081 0.005770 -0.001649 0.002355
# 3 -0.000742 -0.006081 0.011370 -0.002031 0.003578 0.003767
# 4 -0.000969 0.005770 -0.002031 0.022978 0.004029 0.002495
# 5 0.005414 -0.001649 0.003578 0.004029 0.030728 0.004926
# 6 -0.001503 0.002355 0.003767 0.002495 0.004926 0.051809
#
#
# Mechanical properties :
#
#
# Convention : Reuss Voigt Hill
#
# Bulk Modulus (GPa) = 55.49562 71.90395 63.69978
# Shear Modulus (GPa) = 28.18152 35.15930 31.67041
#
# Velocity S-wave (km/s) = 3.64908 4.07588 3.86837
# Velocity P-wave (km/s) = 6.63145 7.49167 7.07465
#
# Compressibility (1/GPa) = 0.01801944
#
# Stress axis : x y z
#
# Youngs Moduli (GPa) = 59.35125 72.77671 87.95148
#
# Poissons Ratio (x) = 0.37459 0.06529
# Poissons Ratio (y) = 0.30549 0.53480
# Poissons Ratio (z) = 0.04406 0.44252
#
# Static dielectric constant tensor:
#      x y z
#    x 3.198980 -0.643440 0.734350 
#    y -0.643440 3.270980 0.889090 
#    z 0.734350 0.889090 3.077390 
# 
# 
# High freq. dielectric constant tensor:
#      x y z
#    x 1.815480 -0.008960 -0.013030 
#    y -0.008960 1.822170 -0.013320 
#    z -0.013030 -0.013320 1.857270 
# 
# From -- ./inp_files/417526.got.cif
#   From: 2010.06.25/outbox.cif.g09.slc.cpg/sg2_209_cif.got.tgz:417526.got - 2010.06.27 13:26:56.
