data_PCOD8009931
_publ_section_title
;
Structure prediction by ZEFSAII (Michael W. Deem and Ramdas Pophale) SiO2 
 PCOD8009931
Probable space group: P -1
;
_chemical_formula_sum "Si O2"
_cell_formula_units_Z 14
_cell_length_a 11.022948
_cell_length_b 8.761713
_cell_length_c 11.147017
_cell_angle_alpha 110.593071
_cell_angle_beta 119.351671
_cell_angle_gamma 41.213496
_cell_volume 617.992858
_symmetry_space_group_name_H-M "P -1"
_symmetry_group_IT_number 2
_symmetry_cell_setting 'triclinic'
loop_
_space_group_symop_operation_xyz
x,y,z
-x,-y,-z
loop_
_atom_site_type_symbol
_atom_site_label
_atom_site_fract_x
_atom_site_fract_y
_atom_site_fract_z
Si Si1 0.535991 0.226150 0.509666
Si Si2 0.467856 0.434118 0.282674
Si Si3 0.789813 0.755225 0.618946
Si Si4 0.361882 0.984095 0.141207
Si Si5 0.790329 0.531830 0.211957
Si Si6 0.785811 0.609823 0.955344
Si Si7 0.681734 0.279508 0.101408
O O1 0.560646 0.275201 0.401863
O O2 0.569698 0.342573 0.653772
O O3 0.318062 0.330069 0.454187
O O4 0.698083 0.948530 0.526105
O O5 0.258430 0.525027 0.170786
O O6 0.622841 0.276834 0.206675
O O7 0.025594 0.529881 0.651672
O O8 0.772063 0.860889 0.767355
O O9 0.581129 0.754119 0.233825
O O10 0.377423 0.127341 0.100922
O O11 0.247035 0.938039 0.998296
O O12 0.838263 0.297952 0.185252
O O13 0.758062 0.610423 0.081935
O O14 0.000000 0.500000 0.000000
O O15 0.500000 0.500000 0.000000
#
# Coordination Sequence:
#
# PCOD8009931 Si02
#       7
#     2   2   2   2   2   2   2
#     4  10  23  41  67  86 132 181 206 263 301 377
#     4  11  21  42  64  92 132 170 213 253 319 383
#     4  11  23  43  65  98 122 169 225 250 318 375
#     4  11  22  39  66  96 132 162 204 269 326 372
#     4  11  23  40  65  99 129 159 212 268 323 375
#     4  12  22  38  65 100 127 161 205 264 326 376
#     4  10  21  37  62  97 126 164 201 264 332 371
#
# _framework density 22.653983
#
# number of rings (size 3 to 8) (size 9 to 14) (size 15 to 20)
#    0.000    1.143    5.714    2.143    0.000    1.714 
#    0.000    7.143    0.000    0.000    0.000    0.000 
#    0.000    0.000    0.000    0.000    0.000    0.000 
#
# Total GULP energy -173570.496959 kJ/mol
# GULP energy per Si atom -12397.892640 kJ/mol
# Density = 2.260242 g / cm^3
# Si number density = 22.653983 Si / 1000 Ang^3
#
#
#
# Elastic Constant Matrix: (Units=GPa)
#
#
# Indices 1 2 3 4 5 6 
#
# 1 97.8279 22.7297 22.4572 -8.3851 19.4395 20.1401
# 2 22.7297 52.9018 8.8281 -8.3012 21.1662 12.7647
# 3 22.4572 8.8281 75.5818 -1.4106 18.5507 11.4190
# 4 -8.3851 -8.3012 -1.4106 32.0007 5.4034 7.9523
# 5 19.4395 21.1662 18.5507 5.4034 47.0026 -3.8552
# 6 20.1401 12.7647 11.4190 7.9523 -3.8552 34.7735
#
#
#
# Elastic Compliance Matrix: (Units=1/GPa)
#
#
# Indices 1 2 3 4 5 6 
#
# 1 0.014907 0.001282 -0.000550 0.008586 -0.008483 -0.011828
# 2 0.001282 0.034317 0.004502 0.018414 -0.021635 -0.021428
# 3 -0.000550 0.004502 0.016788 0.005723 -0.009842 -0.009247
# 4 0.008586 0.018414 0.005723 0.049011 -0.021972 -0.027256
# 5 -0.008483 -0.021635 -0.009842 -0.021972 0.043060 0.025885
# 6 -0.011828 -0.021428 -0.009247 -0.027256 0.025885 0.055613
#
#
# Mechanical properties :
#
#
# Convention : Reuss Voigt Hill
#
# Bulk Modulus (GPa) = 13.07536 37.14906 25.11221
# Shear Modulus (GPa) = 21.86072 34.24181 28.05127
#
# Velocity S-wave (km/s) = 3.10979 3.89204 3.52269
# Velocity P-wave (km/s) = 4.32188 6.05238 5.25880
#
# Compressibility (1/GPa) = 0.07647975
#
# Stress axis : x y z
#
# Youngs Moduli (GPa) = 67.08280 29.14025 59.56758
#
# Poissons Ratio (x) = -0.03736 0.03275
# Poissons Ratio (y) = -0.08601 -0.26816
# Poissons Ratio (z) = 0.03688 -0.13118
#
# Static dielectric constant tensor:
#      x y z
#    x 4.737820 0.492030 0.277230 
#    y 0.492030 4.065110 0.152130 
#    z 0.277230 0.152130 4.358300 
# 
# 
# High freq. dielectric constant tensor:
#      x y z
#    x 1.902520 0.028710 -0.000990 
#    y 0.028710 1.863610 0.003190 
#    z -0.000990 0.003190 1.905670 
# 
# From -- ./inp_files/259291.got.cif
#   From: 2010.06.25/outbox.cif.g09.slc.cpg/sg2_130_cif.got.tgz:259291.got - 2010.06.27 13:26:56.
