data_PCOD8009184
_publ_section_title
;
Structure prediction by ZEFSAII (Michael W. Deem and Ramdas Pophale) SiO2 
 PCOD8009184
Probable space group: P -1
;
_chemical_formula_sum "Si O2"
_cell_formula_units_Z 16
_cell_length_a 8.265734
_cell_length_b 14.954967
_cell_length_c 14.310111
_cell_angle_alpha 28.567004
_cell_angle_beta 64.131507
_cell_angle_gamma 61.663649
_cell_volume 743.725453
_symmetry_space_group_name_H-M "P -1"
_symmetry_group_IT_number 2
_symmetry_cell_setting 'triclinic'
loop_
_space_group_symop_operation_xyz
x,y,z
-x,-y,-z
loop_
_atom_site_type_symbol
_atom_site_label
_atom_site_fract_x
_atom_site_fract_y
_atom_site_fract_z
Si Si1 0.324089 0.079972 0.710001
Si Si2 0.741475 0.312087 0.920744
Si Si3 0.227560 0.445337 0.718041
Si Si4 0.560806 0.364367 0.377895
Si Si5 0.081850 0.311395 0.707972
Si Si6 0.995745 0.773595 0.905237
Si Si7 0.061201 0.189487 0.514650
Si Si8 0.047726 0.775579 0.683575
O O1 0.501804 0.168562 0.603785
O O2 0.164669 0.146006 0.766139
O O3 0.251197 0.139800 0.568379
O O4 0.378780 0.850274 0.911549
O O5 0.816913 0.318049 0.001770
O O6 0.611661 0.515218 0.745727
O O7 0.919167 0.255994 0.860432
O O8 0.405905 0.514964 0.648831
O O9 0.249755 0.341151 0.707263
O O10 0.068838 0.632922 0.564779
O O11 0.175950 0.297810 0.942171
O O12 0.741067 0.310924 0.318227
O O13 0.000000 0.500000 0.500000
O O14 0.011193 0.689522 0.872331
O O15 0.964529 0.005295 0.704856
O O16 0.082793 0.262873 0.334597
O O17 0.000000 0.000000 0.500000
#
# Coordination Sequence:
#
# PCOD8009184 Si02
#       8
#     2   2   2   2   2   2   2   2
#     4  11  21  39  60  85 122 152 187 242 283 340
#     4  10  22  38  59  89 116 152 194 232 290 341
#     4  10  21  36  58  87 113 149 196 234 287 337
#     4  11  23  37  56  87 124 148 187 241 289 337
#     4  11  19  39  66  83 111 156 196 233 281 347
#     4   9  19  38  59  81 114 151 196 238 277 341
#     4   9  18  35  59  82 110 150 191 234 280 337
#     4   9  20  39  61  85 112 154 198 233 287 341
#
# _framework density 21.513313
#
# number of rings (size 3 to 8) (size 9 to 14) (size 15 to 20)
#    0.000    2.000    2.500    1.125    0.000    6.000 
#    0.000    8.750    0.000    0.000    0.000    0.000 
#    0.000    0.000    0.000    0.000    0.000    0.000 
#
# Total GULP energy -198262.251265 kJ/mol
# GULP energy per Si atom -12391.390704 kJ/mol
# Density = 2.146435 g / cm^3
# Si number density = 21.513313 Si / 1000 Ang^3
#
#
#
# Elastic Constant Matrix: (Units=GPa)
#
#
# Indices 1 2 3 4 5 6 
#
# 1 69.5096 24.0036 27.8656 13.5438 -10.1078 29.7269
# 2 24.0036 75.9999 9.7267 12.9222 4.8294 18.2272
# 3 27.8656 9.7267 78.0224 6.4539 -15.0905 17.0448
# 4 13.5438 12.9222 6.4539 31.4004 6.5798 5.7261
# 5 -10.1078 4.8294 -15.0905 6.5798 33.7041 -4.4257
# 6 29.7269 18.2272 17.0448 5.7261 -4.4257 32.1542
#
#
#
# Elastic Compliance Matrix: (Units=1/GPa)
#
#
# Indices 1 2 3 4 5 6 
#
# 1 0.027572 -0.002528 -0.003341 -0.007765 0.006015 -0.020076
# 2 -0.002528 0.016421 0.000012 -0.003754 -0.003260 -0.006758
# 3 -0.003341 0.000012 0.016355 -0.002449 0.006233 -0.004294
# 4 -0.007765 -0.003754 -0.002449 0.038969 -0.010198 0.002262
# 5 0.006015 -0.003260 0.006233 -0.010198 0.036703 -0.000149
# 6 -0.020076 -0.006758 -0.004294 0.002262 -0.000149 0.055345
#
#
# Mechanical properties :
#
#
# Convention : Reuss Voigt Hill
#
# Bulk Modulus (GPa) = 20.56124 38.52483 29.54304
# Shear Modulus (GPa) = 22.80092 30.24745 26.52419
#
# Velocity S-wave (km/s) = 3.25907 3.75372 3.51510
# Velocity P-wave (km/s) = 4.87239 6.06082 5.49881
#
# Compressibility (1/GPa) = 0.04863519
#
# Stress axis : x y z
#
# Youngs Moduli (GPa) = 36.26816 60.89733 61.14487
#
# Poissons Ratio (x) = 0.15394 0.20427
# Poissons Ratio (y) = 0.09168 -0.00074
# Poissons Ratio (z) = 0.12116 -0.00073
#
# Static dielectric constant tensor:
#      x y z
#    x 3.854570 0.433080 0.069110 
#    y 0.433080 -5.861240 -2.204630 
#    z 0.069110 -2.204630 3.551710 
# 
# 
# High freq. dielectric constant tensor:
#      x y z
#    x 1.831850 0.037510 0.007530 
#    y 0.037510 1.828660 -0.011560 
#    z 0.007530 -0.011560 1.855470 
# 
# From -- ./inp_files/344950.got.cif
#   From: 2010.06.25/outbox.cif.g09.slc.cpg/sg2_173_cif.got.tgz:344950.got - 2010.06.27 13:26:56.
