data_PCOD8009863
_publ_section_title
;
Structure prediction by ZEFSAII (Michael W. Deem and Ramdas Pophale) SiO2 
 PCOD8009863
Probable space group: P -1
;
_chemical_formula_sum "Si O2"
_cell_formula_units_Z 16
_cell_length_a 13.312799
_cell_length_b 19.230808
_cell_length_c 22.670456
_cell_angle_alpha 26.063726
_cell_angle_beta 160.303864
_cell_angle_gamma 151.694450
_cell_volume 835.561007
_symmetry_space_group_name_H-M "P -1"
_symmetry_group_IT_number 2
_symmetry_cell_setting 'triclinic'
loop_
_space_group_symop_operation_xyz
x,y,z
-x,-y,-z
loop_
_atom_site_type_symbol
_atom_site_label
_atom_site_fract_x
_atom_site_fract_y
_atom_site_fract_z
Si Si1 0.882721 0.709109 0.537577
Si Si2 0.236610 0.177262 0.906213
Si Si3 0.153869 0.823959 0.480866
Si Si4 0.276373 0.950780 0.657748
Si Si5 0.764861 0.263819 0.667379
Si Si6 0.844683 0.571145 0.412643
Si Si7 0.149153 0.088319 0.186267
Si Si8 0.796315 0.333844 0.766634
O O1 0.911393 0.523923 0.699228
O O2 0.562368 0.730769 0.369401
O O3 0.906555 0.770494 0.436636
O O4 0.158508 0.816393 0.645651
O O5 0.353485 0.314381 0.815391
O O6 0.070459 0.243013 0.818929
O O7 0.535120 0.122606 0.133611
O O8 0.992828 0.025164 0.860233
O O9 0.491356 0.844728 0.678520
O O10 0.104743 0.683063 0.511875
O O11 0.105371 0.991555 0.297940
O O12 0.488405 0.107793 0.623938
O O13 0.000000 0.000000 0.500000
O O14 0.652187 0.420168 0.459708
O O15 0.857478 0.295834 0.761902
O O16 0.000000 0.500000 0.500000
O O17 0.986882 0.239078 0.986103
#
# Coordination Sequence:
#
# PCOD8009863 Si02
#       8
#     2   2   2   2   2   2   2   2
#     4  11  24  40  58  89 121 159 194 248 291 351
#     4  10  21  37  63  89 118 156 198 242 298 350
#     4  10  21  37  62  87 122 151 196 244 297 347
#     4  12  23  39  61  88 123 155 200 243 291 352
#     4  11  20  38  62  87 114 158 196 243 293 346
#     4   9  20  38  60  87 120 153 195 244 298 348
#     4  10  21  39  59  92 118 153 195 249 291 356
#     4  11  23  39  60  85 122 155 200 239 299 346
#
# _framework density 19.148810999999998
#
# number of rings (size 3 to 8) (size 9 to 14) (size 15 to 20)
#    0.000    1.500    3.750    1.125    1.750    4.000 
#    0.000    0.625    0.000    0.000    0.000    0.000 
#    0.000    0.000    0.000    0.000    0.000    0.000 
#
# Total GULP energy -198399.330795 kJ/mol
# GULP energy per Si atom -12399.958175 kJ/mol
# Density = 1.910523 g / cm^3
# Si number density = 19.148811 Si / 1000 Ang^3
#
#
#
# Elastic Constant Matrix: (Units=GPa)
#
#
# Indices 1 2 3 4 5 6 
#
# 1 77.8405 36.7641 57.5589 -6.3667 -11.0771 -4.2162
# 2 36.7641 122.9578 68.3989 -10.7195 -17.6260 3.9844
# 3 57.5589 68.3989 144.1298 -14.2212 -12.1779 8.2894
# 4 -6.3667 -10.7195 -14.2212 30.0493 -0.1226 -10.8537
# 5 -11.0771 -17.6260 -12.1779 -0.1226 22.8742 -3.5155
# 6 -4.2162 3.9844 8.2894 -10.8537 -3.5155 35.6596
#
#
#
# Elastic Compliance Matrix: (Units=1/GPa)
#
#
# Indices 1 2 3 4 5 6 
#
# 1 0.019877 -0.001203 -0.006940 0.002483 0.005852 0.005430
# 2 -0.001203 0.012123 -0.004553 0.002263 0.006484 0.000889
# 3 -0.006940 -0.004553 0.012120 0.001661 -0.000823 -0.002705
# 4 0.002483 0.002263 0.001661 0.039895 0.005948 0.012384
# 5 0.005852 0.006484 -0.000823 0.005948 0.052235 0.007119
# 6 0.005430 0.000889 -0.002705 0.012384 0.007119 0.033685
#
#
# Mechanical properties :
#
#
# Convention : Reuss Voigt Hill
#
# Bulk Modulus (GPa) = 53.39476 74.48577 63.94026
# Shear Modulus (GPa) = 24.80529 29.86370 27.33450
#
# Velocity S-wave (km/s) = 3.60307 3.95341 3.78230
# Velocity P-wave (km/s) = 6.72712 7.73447 7.24832
#
# Compressibility (1/GPa) = 0.01872843
#
# Stress axis : x y z
#
# Youngs Moduli (GPa) = 50.31054 82.48656 82.50791
#
# Poissons Ratio (x) = 0.09926 0.57257
# Poissons Ratio (y) = 0.06054 0.37563
# Poissons Ratio (z) = 0.34914 0.37554
#
# Static dielectric constant tensor:
#      x y z
#    x 3.562230 0.098950 -0.276530 
#    y 0.098950 3.979380 -0.300610 
#    z -0.276530 -0.300610 3.582750 
# 
# 
# High freq. dielectric constant tensor:
#      x y z
#    x 1.746500 -0.003290 -0.014970 
#    y -0.003290 1.760790 -0.016610 
#    z -0.014970 -0.016610 1.730900 
# 
# From -- ./inp_files/261758.got.cif
#   From: 2010.06.25/outbox.cif.g09.slc.cpg/sg2_131_cif.got.tgz:261758.got - 2010.06.27 13:26:56.
