data_PCOD8009628
_publ_section_title
;
Structure prediction by ZEFSAII (Michael W. Deem and Ramdas Pophale) SiO2 
 PCOD8009628
Probable space group: P -1
;
_chemical_formula_sum "Si O2"
_cell_formula_units_Z 12
_cell_length_a 10.627094
_cell_length_b 8.953457
_cell_length_c 7.118956
_cell_angle_alpha 98.976721
_cell_angle_beta 101.264621
_cell_angle_gamma 65.098859
_cell_volume 600.480241
_symmetry_space_group_name_H-M "P -1"
_symmetry_group_IT_number 2
_symmetry_cell_setting 'triclinic'
loop_
_space_group_symop_operation_xyz
x,y,z
-x,-y,-z
loop_
_atom_site_type_symbol
_atom_site_label
_atom_site_fract_x
_atom_site_fract_y
_atom_site_fract_z
Si Si1 0.374525 0.710822 0.689126
Si Si2 0.773734 0.109538 0.957665
Si Si3 0.430982 0.875494 0.418405
Si Si4 0.048621 0.478908 0.295817
Si Si5 0.000698 0.758360 0.048134
Si Si6 0.651886 0.571137 0.560732
O O1 0.343001 0.870685 0.578495
O O2 0.543413 0.593541 0.708323
O O3 0.291255 0.609901 0.551581
O O4 0.323224 0.765436 0.892254
O O5 0.671043 0.074725 0.777840
O O6 0.861271 0.201635 0.901454
O O7 0.868982 0.933961 0.042041
O O8 0.563455 0.699059 0.396737
O O9 0.500000 0.000000 0.500000
O O10 0.992404 0.657400 0.211243
O O11 0.217418 0.395226 0.318845
O O12 0.000000 0.500000 0.500000
O O13 0.994178 0.352812 0.154500
#
# Coordination Sequence:
#
# PCOD8009628 Si02
#       6
#     2   2   2   2   2   2
#     4   9  21  39  60  90 119 163 195 247 313 343
#     4  11  22  42  62  90 127 160 198 252 307 356
#     4  10  21  37  58  90 123 150 203 254 292 361
#     4  11  22  44  64  86 125 162 200 253 300 353
#     4  10  25  39  62  94 120 160 211 240 293 381
#     4   9  20  41  60  90 119 154 211 243 290 372
#
# _framework density 19.984006000000001
#
# number of rings (size 3 to 8) (size 9 to 14) (size 15 to 20)
#    1.000    1.000    0.000    3.000    0.000    4.000 
#    6.000    4.167    0.000    0.000    0.000    0.000 
#    0.000    0.000    0.000    0.000    0.000    0.000 
#
# Total GULP energy -148699.740420 kJ/mol
# GULP energy per Si atom -12391.645035 kJ/mol
# Density = 1.993852 g / cm^3
# Si number density = 19.984006 Si / 1000 Ang^3
#
#
#
# Elastic Constant Matrix: (Units=GPa)
#
#
# Indices 1 2 3 4 5 6 
#
# 1 95.6791 55.0080 58.0960 6.7297 20.4199 4.3928
# 2 55.0080 94.7626 38.9952 1.6771 1.9356 23.7626
# 3 58.0960 38.9952 112.0912 3.5267 3.0300 11.9640
# 4 6.7297 1.6771 3.5267 28.9447 0.5517 5.0920
# 5 20.4199 1.9356 3.0300 0.5517 34.9733 -1.0588
# 6 4.3928 23.7626 11.9640 5.0920 -1.0588 25.8584
#
#
#
# Elastic Compliance Matrix: (Units=1/GPa)
#
#
# Indices 1 2 3 4 5 6 
#
# 1 0.028701 -0.015774 -0.010404 -0.006891 -0.014414 0.015200
# 2 -0.015774 0.024042 0.001688 0.005633 0.007008 -0.021017
# 3 -0.010404 0.001688 0.014247 0.001645 0.004523 -0.006515
# 4 -0.006891 0.005633 0.001645 0.037700 0.002608 -0.012084
# 5 -0.014414 0.007008 0.004523 0.002608 0.036033 -0.005123
# 6 0.015200 -0.021017 -0.006515 -0.012084 -0.005123 0.060587
#
#
# Mechanical properties :
#
#
# Convention : Reuss Voigt Hill
#
# Bulk Modulus (GPa) = 55.52186 67.41460 61.46823
# Shear Modulus (GPa) = 19.50885 27.98420 23.74652
#
# Velocity S-wave (km/s) = 3.12785 3.74616 3.45088
# Velocity P-wave (km/s) = 6.39437 7.24701 6.83400
#
# Compressibility (1/GPa) = 0.01801092
#
# Stress axis : x y z
#
# Youngs Moduli (GPa) = 34.84224 41.59377 70.18829
#
# Poissons Ratio (x) = 0.65612 0.73021
# Poissons Ratio (y) = 0.54962 -0.11851
# Poissons Ratio (z) = 0.36249 -0.07023
#
# Static dielectric constant tensor:
#      x y z
#    x 3.660850 0.128780 0.160360 
#    y 0.128780 3.951860 -0.440970 
#    z 0.160360 -0.440970 3.846990 
# 
# 
# High freq. dielectric constant tensor:
#      x y z
#    x 1.781880 0.014540 0.013680 
#    y 0.014540 1.786280 -0.000810 
#    z 0.013680 -0.000810 1.761080 
# 
# From -- ./inp_files/59699.got.cif
#   From: 2010.06.25/outbox.cif.g09.slc.cpg/sg2_30_cif.got.tgz:59699.got - 2010.06.27 13:26:56.
