data_PCOD8009501
_publ_section_title
;
Structure prediction by ZEFSAII (Michael W. Deem and Ramdas Pophale) SiO2 
 PCOD8009501
Probable space group: P -1
;
_chemical_formula_sum "Si O2"
_cell_formula_units_Z 16
_cell_length_a 5.449524
_cell_length_b 16.788712
_cell_length_c 16.451643
_cell_angle_alpha 145.986489
_cell_angle_beta 92.054124
_cell_angle_gamma 102.713717
_cell_volume 752.761969
_symmetry_space_group_name_H-M "P -1"
_symmetry_group_IT_number 2
_symmetry_cell_setting 'triclinic'
loop_
_space_group_symop_operation_xyz
x,y,z
-x,-y,-z
loop_
_atom_site_type_symbol
_atom_site_label
_atom_site_fract_x
_atom_site_fract_y
_atom_site_fract_z
Si Si1 0.724525 0.894978 0.360384
Si Si2 0.316872 0.868719 0.555263
Si Si3 0.745940 0.578309 0.507847
Si Si4 0.211738 0.646047 0.232828
Si Si5 0.822428 0.861019 0.647766
Si Si6 0.243198 0.737399 0.762228
Si Si7 0.203915 0.005957 0.076525
Si Si8 0.787227 0.626226 0.077683
O O1 0.521326 0.769191 0.315916
O O2 0.780387 0.793748 0.202159
O O3 0.596638 0.001555 0.406922
O O4 0.000000 0.000000 0.500000
O O5 0.165798 0.693167 0.363415
O O6 0.594122 0.889150 0.619053
O O7 0.099889 0.894572 0.631237
O O8 0.500000 0.500000 0.500000
O O9 0.685961 0.676229 0.518928
O O10 0.793741 0.432850 0.347864
O O11 0.004754 0.706957 0.668854
O O12 0.012044 0.666933 0.184435
O O13 0.154482 0.459483 0.072674
O O14 0.911676 0.986814 0.829772
O O15 0.518735 0.831595 0.793414
O O16 0.244305 0.845936 0.930738
O O17 0.000000 0.000000 0.000000
O O18 0.500000 0.500000 0.000000
#
# Coordination Sequence:
#
# PCOD8009501 Si02
#       8
#     2   2   2   2   2   2   2   2
#     4  11  21  40  71 100 128 181 237 269 318 410
#     4  12  27  42  65 101 146 174 214 287 353 391
#     4  11  21  41  67  97 121 174 229 277 321 417
#     4  10  21  41  68  97 129 180 227 270 321 403
#     4  12  27  43  64 101 141 177 216 286 357 393
#     4  10  21  36  72  94 124 159 239 276 320 380
#     4  11  21  41  67  97 125 174 224 284 324 410
#     4   9  20  37  69  96 124 162 242 268 311 374
#
# _framework density 21.25506
#
# number of rings (size 3 to 8) (size 9 to 14) (size 15 to 20)
#    0.000    1.250    3.750    1.875    7.000    0.000 
#    0.000    2.500    0.000    0.000    0.000    0.000 
#    0.000    0.000    0.000    0.000    0.000    0.000 
#
# Total GULP energy -198281.420050 kJ/mol
# GULP energy per Si atom -12392.588753 kJ/mol
# Density = 2.120668 g / cm^3
# Si number density = 21.255060 Si / 1000 Ang^3
#
#
#
# Elastic Constant Matrix: (Units=GPa)
#
#
# Indices 1 2 3 4 5 6 
#
# 1 113.5552 24.2999 46.3983 -9.0675 9.6783 -7.2877
# 2 24.2999 61.9343 29.1669 -0.9822 -1.9850 -16.1622
# 3 46.3983 29.1669 156.3739 -10.5371 -17.0712 -7.0916
# 4 -9.0675 -0.9822 -10.5371 34.8301 2.8237 -5.8930
# 5 9.6783 -1.9850 -17.0712 2.8237 53.6473 2.1153
# 6 -7.2877 -16.1622 -7.0916 -5.8930 2.1153 39.8255
#
#
#
# Elastic Compliance Matrix: (Units=1/GPa)
#
#
# Indices 1 2 3 4 5 6 
#
# 1 0.011121 -0.002820 -0.002925 0.002340 -0.003200 0.000886
# 2 -0.002820 0.020401 -0.002602 0.000284 0.000131 0.007335
# 3 -0.002925 -0.002602 0.008160 0.001378 0.002959 -0.000092
# 4 0.002340 0.000284 0.001378 0.030813 -0.001810 0.005444
# 5 -0.003200 0.000131 0.002959 -0.001810 0.020313 -0.001352
# 6 0.000886 0.007335 -0.000092 0.005444 -0.001352 0.029109
#
#
# Mechanical properties :
#
#
# Convention : Reuss Voigt Hill
#
# Bulk Modulus (GPa) = 43.50284 59.06597 51.28441
# Shear Modulus (GPa) = 34.65599 41.12713 37.89156
#
# Velocity S-wave (km/s) = 4.04230 4.40356 4.22679
# Velocity P-wave (km/s) = 6.50373 7.32834 6.92831
#
# Compressibility (1/GPa) = 0.02298700
#
# Stress axis : x y z
#
# Youngs Moduli (GPa) = 89.91609 49.01734 122.54792
#
# Poissons Ratio (x) = 0.13823 0.35849
# Poissons Ratio (y) = 0.25357 0.31891
# Poissons Ratio (z) = 0.26304 0.12756
#
# Static dielectric constant tensor:
#      x y z
#    x 4.170340 -0.184930 -0.612090 
#    y -0.184930 3.529730 0.225070 
#    z -0.612090 0.225070 4.751610 
# 
# 
# High freq. dielectric constant tensor:
#      x y z
#    x 1.857550 -0.010520 -0.015150 
#    y -0.010520 1.779570 0.010860 
#    z -0.015150 0.010860 1.858780 
# 
# From -- ./inp_files/484518.got.cif
#   From: 2010.06.25/outbox.cif.g09.slc.cpg/sg2_243_cif.got.tgz:484518.got - 2010.06.27 13:26:56.
