data_PCOD8009637
_publ_section_title
;
Structure prediction by ZEFSAII (Michael W. Deem and Ramdas Pophale) SiO2 
 PCOD8009637
Probable space group: P -1
;
_chemical_formula_sum "Si O2"
_cell_formula_units_Z 16
_cell_length_a 15.635502
_cell_length_b 9.576835
_cell_length_c 14.560112
_cell_angle_alpha 72.431231
_cell_angle_beta 36.275551
_cell_angle_gamma 45.087404
_cell_volume 703.441867
_symmetry_space_group_name_H-M "P -1"
_symmetry_group_IT_number 2
_symmetry_cell_setting 'triclinic'
loop_
_space_group_symop_operation_xyz
x,y,z
-x,-y,-z
loop_
_atom_site_type_symbol
_atom_site_label
_atom_site_fract_x
_atom_site_fract_y
_atom_site_fract_z
Si Si1 0.921616 0.632777 0.446363
Si Si2 0.398974 0.198179 0.803151
Si Si3 0.754501 0.804491 0.878526
Si Si4 0.210533 0.128982 0.862763
Si Si5 0.269618 0.598505 0.869774
Si Si6 0.022348 0.157892 0.201704
Si Si7 0.013950 0.133491 0.756099
Si Si8 0.455844 0.736582 0.588258
O O1 0.041193 0.691098 0.303458
O O2 0.000000 0.500000 0.500000
O O3 0.001133 0.450419 0.337690
O O4 0.624932 0.895593 0.659313
O O5 0.242121 0.276477 0.831846
O O6 0.488662 0.295250 0.716557
O O7 0.251980 0.288599 0.006749
O O8 0.825272 0.911545 0.826582
O O9 0.500000 0.000000 0.000000
O O10 0.442217 0.873257 0.651156
O O11 0.959687 0.313178 0.984721
O O12 0.191409 0.051811 0.987980
O O13 0.309616 0.712708 0.756273
O O14 0.212233 0.681083 0.009137
O O15 0.744914 0.462745 0.368875
O O16 0.993553 0.008806 0.267464
O O17 0.294104 0.920084 0.602203
#
# Coordination Sequence:
#
# PCOD8009637 Si02
#       8
#     2   2   2   2   2   2   2   2
#     4  12  25  44  68  88 122 171 222 266 323 364
#     4  11  23  39  66  90 129 170 212 262 317 372
#     4  11  24  47  67  90 125 167 222 274 313 368
#     4  10  21  37  58  98 135 169 205 247 312 389
#     4  11  20  39  64  96 138 169 200 252 320 387
#     4  11  22  39  68  97 129 167 211 258 323 383
#     4  11  22  41  64  99 130 172 209 258 316 382
#     4  11  21  39  63  96 142 163 204 255 313 394
#
# _framework density 22.745304999999998
#
# number of rings (size 3 to 8) (size 9 to 14) (size 15 to 20)
#    0.000    1.000    5.000    3.000    1.750    0.000 
#    0.000    3.125    2.750    0.000    0.000    0.000 
#    0.000    0.000    0.000    0.000    0.000    0.000 
#
# Total GULP energy -198253.513834 kJ/mol
# GULP energy per Si atom -12390.844615 kJ/mol
# Density = 2.269354 g / cm^3
# Si number density = 22.745305 Si / 1000 Ang^3
#
#
#
# Elastic Constant Matrix: (Units=GPa)
#
#
# Indices 1 2 3 4 5 6 
#
# 1 134.2202 53.2914 31.1757 11.3732 13.4199 19.2651
# 2 53.2914 100.5900 13.8281 -2.6166 11.9807 3.5659
# 3 31.1757 13.8281 70.7119 13.9862 16.1778 2.5642
# 4 11.3732 -2.6166 13.9862 33.6601 1.7431 1.8014
# 5 13.4199 11.9807 16.1778 1.7431 38.1795 4.6547
# 6 19.2651 3.5659 2.5642 1.8014 4.6547 32.9813
#
#
#
# Elastic Compliance Matrix: (Units=1/GPa)
#
#
# Indices 1 2 3 4 5 6 
#
# 1 0.011412 -0.005457 -0.003207 -0.002637 -0.000129 -0.005664
# 2 -0.005457 0.013173 -0.000268 0.003002 -0.002479 0.001970
# 3 -0.003207 -0.000268 0.018265 -0.006285 -0.006453 0.001736
# 4 -0.002637 0.003002 -0.006285 0.033400 0.001158 -0.000283
# 5 -0.000129 -0.002479 -0.006453 0.001158 0.030119 -0.003469
# 6 -0.005664 0.001970 0.001736 -0.000283 -0.003469 0.033786
#
#
# Mechanical properties :
#
#
# Convention : Reuss Voigt Hill
#
# Bulk Modulus (GPa) = 40.02621 55.79028 47.90825
# Shear Modulus (GPa) = 30.05740 34.77930 32.41835
#
# Velocity S-wave (km/s) = 3.63916 3.91458 3.77938
# Velocity P-wave (km/s) = 5.94085 6.70921 6.33669
#
# Compressibility (1/GPa) = 0.02498363
#
# Stress axis : x y z
#
# Youngs Moduli (GPa) = 87.63034 75.91322 54.74984
#
# Poissons Ratio (x) = 0.41428 0.17561
# Poissons Ratio (y) = 0.47822 0.01468
# Poissons Ratio (z) = 0.28107 0.02035
#
# Static dielectric constant tensor:
#      x y z
#    x 4.295740 0.498750 0.430510 
#    y 0.498750 4.216340 0.250840 
#    z 0.430510 0.250840 4.175370 
# 
# 
# High freq. dielectric constant tensor:
#      x y z
#    x 1.886840 0.027540 0.027920 
#    y 0.027540 1.889400 0.005250 
#    z 0.027920 0.005250 1.909380 
# 
# From -- ./inp_files/313837.got.cif
#   From: 2010.06.25/outbox.cif.g09.slc.cpg/sg2_157_cif.got.tgz:313837.got - 2010.06.27 13:26:56.
