data_PCOD8009404
_publ_section_title
;
Structure prediction by ZEFSAII (Michael W. Deem and Ramdas Pophale) SiO2 
 PCOD8009404
Probable space group: P -1
;
_chemical_formula_sum "Si O2"
_cell_formula_units_Z 16
_cell_length_a 20.686094
_cell_length_b 17.929461
_cell_length_c 11.552337
_cell_angle_alpha 40.329567
_cell_angle_beta 149.338842
_cell_angle_gamma 158.618517
_cell_volume 779.186667
_symmetry_space_group_name_H-M "P -1"
_symmetry_group_IT_number 2
_symmetry_cell_setting 'triclinic'
loop_
_space_group_symop_operation_xyz
x,y,z
-x,-y,-z
loop_
_atom_site_type_symbol
_atom_site_label
_atom_site_fract_x
_atom_site_fract_y
_atom_site_fract_z
Si Si1 0.558657 0.905526 0.820097
Si Si2 0.645492 0.230316 0.093137
Si Si3 0.556927 0.448939 0.314493
Si Si4 0.154380 0.674593 0.316423
Si Si5 0.713688 0.047129 0.314306
Si Si6 0.866271 0.918737 0.773936
Si Si7 0.289767 0.200875 0.959291
Si Si8 0.922533 0.543604 0.746313
O O1 0.515676 0.850988 0.953867
O O2 0.323009 0.783697 0.555204
O O3 0.615308 0.830383 0.933057
O O4 0.776151 0.154537 0.843004
O O5 0.674973 0.112839 0.278084
O O6 0.890519 0.481363 0.181515
O O7 0.525774 0.173702 0.853359
O O8 0.382558 0.328981 0.297263
O O9 0.429547 0.316189 0.157205
O O10 0.731596 0.480576 0.584039
O O11 0.686335 0.666830 0.238000
O O12 0.186939 0.592693 0.376950
O O13 0.859478 0.213777 0.237708
O O14 0.844067 0.039201 0.580809
O O15 0.000000 0.000000 0.000000
O O16 0.016248 0.978270 0.829659
O O17 0.000000 0.500000 0.000000
#
# Coordination Sequence:
#
# PCOD8009404 Si02
#       8
#     2   2   2   2   2   2   2   2
#     4  11  22  39  63  88 128 167 203 248 320 373
#     4  10  23  39  62  93 124 163 196 262 321 363
#     4  10  21  36  63  91 120 160 209 255 314 350
#     4  10  23  37  58  95 124 159 208 256 304 383
#     4  10  22  41  62  96 130 151 214 264 306 375
#     4  10  22  36  61  90 119 162 202 256 304 355
#     4  10  21  41  58  90 125 159 209 258 296 374
#     4  11  21  37  65  95 126 160 204 264 318 362
#
# _framework density 20.534233
#
# number of rings (size 3 to 8) (size 9 to 14) (size 15 to 20)
#    0.000    1.750    2.500    1.125    7.000    2.000 
#    0.000    0.625    0.000    1.500    0.000    0.000 
#    0.000    0.000    0.000    0.000    0.000    0.000 
#
# Total GULP energy -198361.904369 kJ/mol
# GULP energy per Si atom -12397.619023 kJ/mol
# Density = 2.048750 g / cm^3
# Si number density = 20.534233 Si / 1000 Ang^3
#
#
#
# Elastic Constant Matrix: (Units=GPa)
#
#
# Indices 1 2 3 4 5 6 
#
# 1 107.8957 54.8279 22.0158 3.2001 23.5381 22.3959
# 2 54.8279 114.6971 44.4946 -2.8683 6.1638 21.7077
# 3 22.0158 44.4946 106.1687 -14.6669 14.0864 12.1595
# 4 3.2001 -2.8683 -14.6669 27.3720 0.4684 -4.3778
# 5 23.5381 6.1638 14.0864 0.4684 28.4188 4.4145
# 6 22.3959 21.7077 12.1595 -4.3778 4.4145 30.2334
#
#
#
# Elastic Compliance Matrix: (Units=1/GPa)
#
#
# Indices 1 2 3 4 5 6 
#
# 1 0.016296 -0.006463 0.001250 -0.002775 -0.011639 -0.006636
# 2 -0.006463 0.014270 -0.005031 -0.001244 0.005457 -0.004412
# 3 0.001250 -0.005031 0.013076 0.006328 -0.006418 -0.000720
# 4 -0.002775 -0.001244 0.006328 0.041231 -0.002290 0.006708
# 5 -0.011639 0.005457 -0.006418 -0.002290 0.046846 0.000113
# 6 -0.006636 -0.004412 -0.000720 0.006708 0.000113 0.042404
#
#
# Mechanical properties :
#
#
# Convention : Reuss Voigt Hill
#
# Bulk Modulus (GPa) = 43.18599 63.49313 53.33956
# Shear Modulus (GPa) = 24.71214 31.03304 27.87259
#
# Velocity S-wave (km/s) = 3.47286 3.89174 3.68825
# Velocity P-wave (km/s) = 6.09572 7.15416 6.64604
#
# Compressibility (1/GPa) = 0.02315566
#
# Stress axis : x y z
#
# Youngs Moduli (GPa) = 61.36438 70.07523 76.47348
#
# Poissons Ratio (x) = 0.45288 -0.09561
# Poissons Ratio (y) = 0.39659 0.38474
# Poissons Ratio (z) = -0.07672 0.35255
#
# Static dielectric constant tensor:
#      x y z
#    x 4.355790 2.596080 1.129080 
#    y 2.596080 11.248300 3.118680 
#    z 1.129080 3.118680 4.891370 
# 
# 
# High freq. dielectric constant tensor:
#      x y z
#    x 1.784900 0.023840 0.012170 
#    y 0.023840 1.805490 0.002520 
#    z 0.012170 0.002520 1.800590 
# 
# From -- ./inp_files/428784.got.cif
#   From: 2010.06.25/outbox.cif.g09.slc.cpg/sg2_215_cif.got.tgz:428784.got - 2010.06.27 13:26:56.
