data_PCOD8009020
_publ_section_title
;
Structure prediction by ZEFSAII (Michael W. Deem and Ramdas Pophale) SiO2 
 PCOD8009020
Probable space group: P -1
;
_chemical_formula_sum "Si O2"
_cell_formula_units_Z 16
_cell_length_a 9.110591
_cell_length_b 20.668685
_cell_length_c 7.372519
_cell_angle_alpha 40.049135
_cell_angle_beta 81.783043
_cell_angle_gamma 64.069279
_cell_volume 757.925689
_symmetry_space_group_name_H-M "P -1"
_symmetry_group_IT_number 2
_symmetry_cell_setting 'triclinic'
loop_
_space_group_symop_operation_xyz
x,y,z
-x,-y,-z
loop_
_atom_site_type_symbol
_atom_site_label
_atom_site_fract_x
_atom_site_fract_y
_atom_site_fract_z
Si Si1 0.794830 0.353117 0.783057
Si Si2 0.457065 0.398233 0.577150
Si Si3 0.316209 0.309036 0.105747
Si Si4 0.056994 0.093155 0.343960
Si Si5 0.685472 0.910474 0.976018
Si Si6 0.006510 0.541731 0.610984
Si Si7 0.647145 0.697837 0.491086
Si Si8 0.696822 0.909946 0.398558
O O1 0.643524 0.379809 0.612434
O O2 0.697062 0.463951 0.703174
O O3 0.941894 0.359065 0.629272
O O4 0.885703 0.222644 0.135806
O O5 0.482021 0.331070 0.528397
O O6 0.420211 0.326888 0.890320
O O7 0.422805 0.270257 0.359122
O O8 0.251221 0.219424 0.261472
O O9 0.149774 0.430444 0.932896
O O10 0.187949 0.052121 0.583341
O O11 0.153490 0.102376 0.132681
O O12 0.000000 0.000000 0.500000
O O13 0.653869 0.804694 0.172295
O O14 0.729154 0.919460 0.159437
O O15 0.510271 0.018580 0.692683
O O16 0.000000 0.500000 0.500000
O O17 0.835920 0.585606 0.663207
#
# Coordination Sequence:
#
# PCOD8009020 Si02
#       8
#     2   2   2   2   2   2   2   2
#     4  10  22  40  58  87 123 157 189 240 305 338
#     4  10  22  40  60  82 127 155 185 245 293 356
#     4  10  21  35  64  89 111 151 201 238 294 353
#     4  12  25  39  63  90 117 161 201 240 297 355
#     4  10  23  42  62  88 119 155 200 250 294 342
#     4  11  18  37  62  85 117 151 187 248 293 345
#     4  11  20  36  65  87 111 153 198 240 294 352
#     4  10  23  42  62  88 120 153 201 251 291 346
#
# _framework density 21.110250000000001
#
# number of rings (size 3 to 8) (size 9 to 14) (size 15 to 20)
#    0.000    1.500    3.750    2.250    3.500    0.500 
#    0.000    6.875    0.000    0.000    0.000    0.000 
#    0.000    0.000    0.000    0.000    0.000    0.000 
#
# Total GULP energy -198235.123863 kJ/mol
# GULP energy per Si atom -12389.695241 kJ/mol
# Density = 2.106220 g / cm^3
# Si number density = 21.110250 Si / 1000 Ang^3
#
#
#
# Elastic Constant Matrix: (Units=GPa)
#
#
# Indices 1 2 3 4 5 6 
#
# 1 83.9842 37.7058 24.4903 -3.8380 -1.2454 26.6786
# 2 37.7058 74.8370 25.5659 1.2992 -2.1574 25.6209
# 3 24.4903 25.5659 94.7863 -14.9401 -2.0384 13.1469
# 4 -3.8380 1.2992 -14.9401 25.5846 4.4284 -1.6639
# 5 -1.2454 -2.1574 -2.0384 4.4284 23.3852 -10.2015
# 6 26.6786 25.6209 13.1469 -1.6639 -10.2015 37.7943
#
#
#
# Elastic Compliance Matrix: (Units=1/GPa)
#
#
# Indices 1 2 3 4 5 6 
#
# 1 0.017807 -0.005356 -0.001606 0.002119 -0.004196 -0.009419
# 2 -0.005356 0.020606 -0.003529 -0.004172 -0.002143 -0.009722
# 3 -0.001606 -0.003529 0.013273 0.007828 -0.001204 -0.001072
# 4 0.002119 -0.004172 0.007828 0.045631 -0.009023 -0.001817
# 5 -0.004196 -0.002143 -0.001204 -0.009023 0.052003 0.018473
# 6 -0.009419 -0.009722 -0.001072 -0.001817 0.018473 0.044978
#
#
# Mechanical properties :
#
#
# Convention : Reuss Voigt Hill
#
# Bulk Modulus (GPa) = 32.56932 47.68130 40.12531
# Shear Modulus (GPa) = 22.17149 28.40919 25.29034
#
# Velocity S-wave (km/s) = 3.24431 3.67243 3.46499
# Velocity P-wave (km/s) = 5.43100 6.37324 5.92089
#
# Compressibility (1/GPa) = 0.03070375
#
# Stress axis : x y z
#
# Youngs Moduli (GPa) = 56.15837 48.53002 75.33839
#
# Poissons Ratio (x) = 0.25993 0.12099
# Poissons Ratio (y) = 0.30079 0.26588
# Poissons Ratio (z) = 0.09018 0.17127
#
# Static dielectric constant tensor:
#      x y z
#    x 4.056210 0.004490 0.252850 
#    y 0.004490 4.038830 -0.316460 
#    z 0.252850 -0.316460 4.067270 
# 
# 
# High freq. dielectric constant tensor:
#      x y z
#    x 1.821910 0.012490 0.005180 
#    y 0.012490 1.821840 -0.016230 
#    z 0.005180 -0.016230 1.826110 
# 
# From -- ./inp_files/225840.got.cif
#   From: 2010.06.25/outbox.cif.g09.slc.cpg/sg2_113_cif.got.tgz:225840.got - 2010.06.27 13:26:56.
