data_PCOD8009183
_publ_section_title
;
Structure prediction by ZEFSAII (Michael W. Deem and Ramdas Pophale) SiO2 
 PCOD8009183
Probable space group: P -1
;
_chemical_formula_sum "Si O2"
_cell_formula_units_Z 16
_cell_length_a 13.915345
_cell_length_b 6.376941
_cell_length_c 14.850380
_cell_angle_alpha 95.852567
_cell_angle_beta 42.777328
_cell_angle_gamma 75.660459
_cell_volume 782.318863
_symmetry_space_group_name_H-M "P -1"
_symmetry_group_IT_number 2
_symmetry_cell_setting 'triclinic'
loop_
_space_group_symop_operation_xyz
x,y,z
-x,-y,-z
loop_
_atom_site_type_symbol
_atom_site_label
_atom_site_fract_x
_atom_site_fract_y
_atom_site_fract_z
Si Si1 0.378548 0.548341 0.949839
Si Si2 0.503300 0.827180 0.567815
Si Si3 0.898119 0.822169 0.486935
Si Si4 0.707745 0.291272 0.402616
Si Si5 0.048615 0.962546 0.225828
Si Si6 0.558701 0.153686 0.666260
Si Si7 0.081678 0.296170 0.342034
Si Si8 0.593558 0.725131 0.898228
O O1 0.425979 0.370163 0.825040
O O2 0.498399 0.662281 0.883888
O O3 0.380445 0.425528 0.036498
O O4 0.194559 0.748464 0.063468
O O5 0.668425 0.569961 0.441096
O O6 0.354325 0.771610 0.651030
O O7 0.500000 0.000000 0.500000
O O8 0.490264 0.971926 0.675184
O O9 0.953338 0.830396 0.552686
O O10 0.926498 0.551533 0.440502
O O11 0.710615 0.008167 0.619185
O O12 0.998697 0.871334 0.344872
O O13 0.609928 0.258201 0.550853
O O14 0.897754 0.109883 0.270217
O O15 0.116497 0.136814 0.222252
O O16 0.233063 0.337765 0.263817
O O17 0.500000 0.000000 0.000000
#
# Coordination Sequence:
#
# PCOD8009183 Si02
#       8
#     2   2   2   2   2   2   2   2
#     4  11  24  37  56  82 120 157 199 237 286 339
#     4   9  18  39  64  89 112 140 184 239 292 349
#     4  10  22  35  54  84 114 151 201 246 283 330
#     4   9  20  37  65  88 111 145 187 238 294 343
#     4  11  21  38  56  85 119 152 193 243 287 340
#     4  10  21  36  58  86 115 150 192 235 286 347
#     4  11  21  35  57  79 113 160 204 239 286 329
#     4  11  22  38  53  76 115 168 202 236 278 332
#
# _framework density 20.452020000000001
#
# number of rings (size 3 to 8) (size 9 to 14) (size 15 to 20)
#    0.000    1.750    2.500    1.875    1.750    6.000 
#    0.000    0.625    0.000    6.750    0.000    0.000 
#    0.000    0.000    0.000    0.000    0.000    0.000 
#
# Total GULP energy -198311.318786 kJ/mol
# GULP energy per Si atom -12394.457424 kJ/mol
# Density = 2.040547 g / cm^3
# Si number density = 20.452020 Si / 1000 Ang^3
#
#
#
# Elastic Constant Matrix: (Units=GPa)
#
#
# Indices 1 2 3 4 5 6 
#
# 1 88.9404 29.4714 43.9644 26.5863 -9.9151 11.9257
# 2 29.4714 93.0225 30.1239 30.2373 -10.6071 -2.2482
# 3 43.9644 30.1239 107.8139 37.5048 -12.9036 6.0450
# 4 26.5863 30.2373 37.5048 41.6579 2.4893 2.0948
# 5 -9.9151 -10.6071 -12.9036 2.4893 28.9847 11.9828
# 6 11.9257 -2.2482 6.0450 2.0948 11.9828 34.3948
#
#
#
# Elastic Compliance Matrix: (Units=1/GPa)
#
#
# Indices 1 2 3 4 5 6 
#
# 1 0.017292 -0.001345 -0.002464 -0.007934 0.008346 -0.008075
# 2 -0.001345 0.015395 0.001194 -0.011781 0.006890 -0.000420
# 3 -0.002464 0.001194 0.016436 -0.014461 0.010044 -0.004575
# 4 -0.007934 -0.011781 -0.014461 0.051480 -0.021564 0.008900
# 5 0.008346 0.006890 0.010044 -0.021564 0.055373 -0.022187
# 6 -0.008075 -0.000420 -0.004575 0.008900 -0.022187 0.039838
#
#
# Mechanical properties :
#
#
# Convention : Reuss Voigt Hill
#
# Bulk Modulus (GPa) = 22.78361 55.21070 38.99716
# Shear Modulus (GPa) = 23.18299 33.42197 28.30248
#
# Velocity S-wave (km/s) = 3.37045 4.04687 3.72405
# Velocity P-wave (km/s) = 5.12940 6.99214 6.13192
#
# Compressibility (1/GPa) = 0.04389120
#
# Stress axis : x y z
#
# Youngs Moduli (GPa) = 57.83077 64.95733 60.84321
#
# Poissons Ratio (x) = 0.08738 0.14992
# Poissons Ratio (y) = 0.07779 -0.07262
# Poissons Ratio (z) = 0.14249 -0.07753
#
# Static dielectric constant tensor:
#      x y z
#    x 3.867000 0.072860 -0.063540 
#    y 0.072860 4.001200 0.214540 
#    z -0.063540 0.214540 3.457500 
# 
# 
# High freq. dielectric constant tensor:
#      x y z
#    x 1.791600 0.001240 -0.005700 
#    y 0.001240 1.819050 0.019970 
#    z -0.005700 0.019970 1.771340 
# 
# From -- ./inp_files/84132.got.cif
#   From: 2010.06.25/outbox.cif.g09.slc.cpg/sg2_43_cif.got.tgz:84132.got - 2010.06.27 13:26:56.
