data_PCOD8009426
_publ_section_title
;
Structure prediction by ZEFSAII (Michael W. Deem and Ramdas Pophale) SiO2 
 PCOD8009426
Probable space group: P -1
;
_chemical_formula_sum "Si O2"
_cell_formula_units_Z 16
_cell_length_a 14.036914
_cell_length_b 14.853235
_cell_length_c 9.306286
_cell_angle_alpha 150.121273
_cell_angle_beta 55.985718
_cell_angle_gamma 124.329596
_cell_volume 786.441439
_symmetry_space_group_name_H-M "P -1"
_symmetry_group_IT_number 2
_symmetry_cell_setting 'triclinic'
loop_
_space_group_symop_operation_xyz
x,y,z
-x,-y,-z
loop_
_atom_site_type_symbol
_atom_site_label
_atom_site_fract_x
_atom_site_fract_y
_atom_site_fract_z
Si Si1 0.284533 0.718979 0.477795
Si Si2 0.866412 0.129869 0.394422
Si Si3 0.713238 0.959900 0.856295
Si Si4 0.689918 0.537426 0.661863
Si Si5 0.471753 0.688503 0.723090
Si Si6 0.682451 0.045612 0.684219
Si Si7 0.868812 0.807077 0.723021
Si Si8 0.531067 0.705531 0.197310
O O1 0.179404 0.717607 0.453037
O O2 0.261832 0.523461 0.310452
O O3 0.406246 0.759317 0.339798
O O4 0.292376 0.875509 0.805226
O O5 0.788926 0.087012 0.541450
O O6 0.998500 0.213443 0.446161
O O7 0.860614 0.946173 0.052509
O O8 0.590666 0.820461 0.762890
O O9 0.816230 0.860560 0.690541
O O10 0.741034 0.035714 0.777476
O O11 0.605064 0.358946 0.421531
O O12 0.794664 0.610952 0.565723
O O13 0.613044 0.698146 0.977321
O O14 0.500000 0.500000 0.500000
O O15 0.395587 0.794743 0.039193
O O16 0.600179 0.849329 0.450929
O O17 0.500000 0.500000 0.000000
#
# Coordination Sequence:
#
# PCOD8009426 Si02
#       8
#     2   2   2   2   2   2   2   2
#     4  10  21  38  62  91 127 163 200 253 314 376
#     4  10  24  41  62  89 120 169 220 256 301 369
#     4  11  21  39  65  89 127 166 197 255 319 375
#     4  11  21  40  63  94 126 163 203 262 314 374
#     4  12  24  38  63  98 133 165 197 254 328 383
#     4  12  23  41  64  95 129 165 209 254 315 378
#     4  10  22  43  63  87 122 166 217 261 308 359
#     4  10  21  36  63  97 126 156 210 254 309 380
#
# _framework density 20.344809000000001
#
# number of rings (size 3 to 8) (size 9 to 14) (size 15 to 20)
#    0.000    1.250    5.000    1.875    1.750    1.500 
#    0.000    0.625    0.000    0.000    0.000    0.000 
#    0.000    0.000    0.000    0.000    0.000    0.000 
#
# Total GULP energy -198353.441816 kJ/mol
# GULP energy per Si atom -12397.090114 kJ/mol
# Density = 2.029850 g / cm^3
# Si number density = 20.344809 Si / 1000 Ang^3
#
#
#
# Elastic Constant Matrix: (Units=GPa)
#
#
# Indices 1 2 3 4 5 6 
#
# 1 152.3478 71.4338 47.1412 -8.6841 -21.2889 10.2984
# 2 71.4338 106.9996 39.2038 -11.3936 -16.5769 -3.3015
# 3 47.1412 39.2038 85.5814 -11.1086 -7.8216 4.0746
# 4 -8.6841 -11.3936 -11.1086 21.2084 3.9029 -3.1763
# 5 -21.2889 -16.5769 -7.8216 3.9029 27.0707 0.0112
# 6 10.2984 -3.3015 4.0746 -3.1763 0.0112 29.3961
#
#
#
# Elastic Compliance Matrix: (Units=1/GPa)
#
#
# Indices 1 2 3 4 5 6 
#
# 1 0.011091 -0.005925 -0.002999 -0.001682 0.004472 -0.004319
# 2 -0.005925 0.015619 -0.003246 0.004362 0.003336 0.004750
# 3 -0.002999 -0.003246 0.015474 0.005110 -0.000612 -0.000906
# 4 -0.001682 0.004362 0.005110 0.053295 -0.004862 0.006131
# 5 0.004472 0.003336 -0.000612 -0.004862 0.043025 -0.001649
# 6 -0.004319 0.004750 -0.000906 0.006131 -0.001649 0.036853
#
#
# Mechanical properties :
#
#
# Convention : Reuss Voigt Hill
#
# Bulk Modulus (GPa) = 56.04342 73.38738 64.71540
# Shear Modulus (GPa) = 24.31361 28.01169 26.16265
#
# Velocity S-wave (km/s) = 3.46074 3.71461 3.58992
# Velocity P-wave (km/s) = 6.60118 7.38566 7.00441
#
# Compressibility (1/GPa) = 0.01784331
#
# Stress axis : x y z
#
# Youngs Moduli (GPa) = 90.16168 64.02570 64.62311
#
# Poissons Ratio (x) = 0.37937 0.19382
# Poissons Ratio (y) = 0.53424 0.20977
# Poissons Ratio (z) = 0.27041 0.20783
#
# Static dielectric constant tensor:
#      x y z
#    x 3.949680 -0.062640 -0.172290 
#    y -0.062640 3.716310 -0.013430 
#    z -0.172290 -0.013430 3.933010 
# 
# 
# High freq. dielectric constant tensor:
#      x y z
#    x 1.793220 -0.005490 -0.005870 
#    y -0.005490 1.785750 0.000150 
#    z -0.005870 0.000150 1.794420 
# 
# From -- ./inp_files/179950.got.cif
#   From: 2010.06.25/outbox.cif.g09.slc.cpg/sg2_90_cif.got.tgz:179950.got - 2010.06.27 13:26:56.
