data_PCOD8009517
_publ_section_title
;
Structure prediction by ZEFSAII (Michael W. Deem and Ramdas Pophale) SiO2 
 PCOD8009517
Probable space group: P -1
;
_chemical_formula_sum "Si O2"
_cell_formula_units_Z 10
_cell_length_a 13.375146
_cell_length_b 16.159104
_cell_length_c 14.439590
_cell_angle_alpha 18.099214
_cell_angle_beta 151.017293
_cell_angle_gamma 153.845980
_cell_volume 422.020579
_symmetry_space_group_name_H-M "P -1"
_symmetry_group_IT_number 2
_symmetry_cell_setting 'triclinic'
loop_
_space_group_symop_operation_xyz
x,y,z
-x,-y,-z
loop_
_atom_site_type_symbol
_atom_site_label
_atom_site_fract_x
_atom_site_fract_y
_atom_site_fract_z
Si Si1 0.956010 0.443921 0.631439
Si Si2 0.289338 0.875092 0.891571
Si Si3 0.222442 0.408877 0.183813
Si Si4 0.783702 0.914035 0.785239
Si Si5 0.463954 0.519166 0.798194
O O1 0.692818 0.383340 0.500278
O O2 0.000000 0.500000 0.500000
O O3 0.126641 0.734563 0.517259
O O4 0.013481 0.171942 0.994089
O O5 0.048326 0.685621 0.951442
O O6 0.266071 0.132093 0.542979
O O7 0.331667 0.661993 0.080198
O O8 0.500000 0.000000 0.000000
O O9 0.349551 0.528837 0.061645
O O10 0.575376 0.777804 0.689326
O O11 0.694491 0.787336 0.950924
#
# Coordination Sequence:
#
# PCOD8009517 Si02
#       5
#     2   2   2   2   2
#     4  10  21  37  55  80 116 158 197 233 277 329
#     4  10  22  43  62  84 118 148 187 247 299 342
#     4  10  23  38  62  91 113 149 196 237 289 350
#     4  10  23  38  57  85 122 160 191 231 283 336
#     4  10  22  38  60  87 120 154 195 237 279 341
#
# _framework density 23.695527999999999
#
# number of rings (size 3 to 8) (size 9 to 14) (size 15 to 20)
#    0.000    2.000    0.000    3.000    0.000   18.400 
#    0.000    0.000    0.000    0.000    0.000    0.000 
#    0.000    0.000    0.000    0.000    0.000    0.000 
#
# Total GULP energy -124000.168708 kJ/mol
# GULP energy per Si atom -12400.016871 kJ/mol
# Density = 2.364160 g / cm^3
# Si number density = 23.695528 Si / 1000 Ang^3
#
#
#
# Elastic Constant Matrix: (Units=GPa)
#
#
# Indices 1 2 3 4 5 6 
#
# 1 108.6545 35.0366 21.3871 1.8220 27.5803 21.2349
# 2 35.0366 128.9757 9.6967 7.5898 8.3315 3.0847
# 3 21.3871 9.6967 34.6047 -10.7973 14.0366 26.3987
# 4 1.8220 7.5898 -10.7973 36.3097 -7.7596 7.5632
# 5 27.5803 8.3315 14.0366 -7.7596 23.2660 8.3897
# 6 21.2349 3.0847 26.3987 7.5632 8.3897 5.2817
#
#
#
# Elastic Compliance Matrix: (Units=1/GPa)
#
#
# Indices 1 2 3 4 5 6 
#
# 1 0.014778 -0.002289 -0.005256 -0.005699 -0.016156 0.002018
# 2 -0.002289 0.008364 0.001755 -0.000404 -0.000182 -0.003587
# 3 -0.005256 0.001755 0.003629 -0.010513 -0.014587 0.040193
# 4 -0.005699 -0.000404 -0.010513 0.023308 0.013475 0.020915
# 5 -0.016156 -0.000182 -0.014587 0.013475 0.076543 -0.002910
# 6 0.002018 -0.003587 0.040193 0.020915 -0.002910 -0.042903
#
#
# Mechanical properties :
#
#
# Convention : Reuss Voigt Hill
#
# Bulk Modulus (GPa) = 65.82668 44.94176 55.38422
# Shear Modulus (GPa) = 49.81815 26.71244 38.26530
#
# Velocity S-wave (km/s) = 4.59020 3.36120 4.02291
# Velocity P-wave (km/s) = 7.47889 5.83704 6.70838
#
# Compressibility (1/GPa) = 0.01519141
#
# Stress axis : x y z
#
# Youngs Moduli (GPa) = 67.66627 119.55300 275.53375
#
# Poissons Ratio (x) = 0.27361 1.44833
# Poissons Ratio (y) = 0.15486 -0.48348
# Poissons Ratio (z) = 0.35569 -0.20978
#
# Static dielectric constant tensor:
#      x y z
#    x 4.084470 0.255700 0.435690 
#    y 0.255700 4.729700 0.404720 
#    z 0.435690 0.404720 4.484080 
# 
# 
# High freq. dielectric constant tensor:
#      x y z
#    x 1.910450 -0.001930 0.028590 
#    y -0.001930 1.952380 0.006300 
#    z 0.028590 0.006300 1.937930 
# 
# From -- ./inp_files/74221.got.cif
#   From: 2010.06.25/outbox.cif.g09.slc.cpg/sg2_38_cif.got.tgz:74221.got - 2010.06.27 13:26:56.
