data_PCOD8009804
_publ_section_title
;
Structure prediction by ZEFSAII (Michael W. Deem and Ramdas Pophale) SiO2 
 PCOD8009804
Probable space group: P -1
;
_chemical_formula_sum "Si O2"
_cell_formula_units_Z 14
_cell_length_a 16.752098
_cell_length_b 11.167741
_cell_length_c 8.874150
_cell_angle_alpha 96.136127
_cell_angle_beta 55.128590
_cell_angle_gamma 140.078622
_cell_volume 678.971509
_symmetry_space_group_name_H-M "P -1"
_symmetry_group_IT_number 2
_symmetry_cell_setting 'triclinic'
loop_
_space_group_symop_operation_xyz
x,y,z
-x,-y,-z
loop_
_atom_site_type_symbol
_atom_site_label
_atom_site_fract_x
_atom_site_fract_y
_atom_site_fract_z
Si Si1 0.499972 0.465069 0.823780
Si Si2 0.237990 0.350150 0.914268
Si Si3 0.170726 0.925250 0.033177
Si Si4 0.115428 0.166633 0.702392
Si Si5 0.243590 0.813190 0.681804
Si Si6 0.921833 0.399495 0.737967
Si Si7 0.663252 0.272172 0.179742
O O1 0.430563 0.506548 0.808505
O O2 0.721839 0.668949 0.577862
O O3 0.500000 0.500000 0.000000
O O4 0.364039 0.205349 0.902947
O O5 0.220514 0.262067 0.762415
O O6 0.244664 0.498519 0.903084
O O7 0.045469 0.110234 0.186802
O O8 0.116933 0.782402 0.213213
O O9 0.987199 0.813759 0.190125
O O10 0.214014 0.896535 0.831611
O O11 0.256738 0.705654 0.751863
O O12 0.066949 0.611356 0.731968
O O13 0.432141 0.033421 0.404950
O O14 0.000000 0.500000 0.500000
O O15 0.721805 0.258661 0.965199
#
# Coordination Sequence:
#
# PCOD8009804 Si02
#       7
#     2   2   2   2   2   2   2
#     4  11  25  40  59  89 122 156 194 241 299 353
#     4  10  21  37  61  89 113 153 202 244 289 344
#     4  10  22  41  64  86 115 159 201 239 289 351
#     4  10  21  39  62  85 116 154 200 247 289 341
#     4  10  21  40  64  88 116 156 202 240 288 350
#     4  11  24  38  59  93 124 153 192 241 298 352
#     4  10  21  38  62  87 118 156 198 243 287 344
#
# _framework density 20.619422
#
# number of rings (size 3 to 8) (size 9 to 14) (size 15 to 20)
#    0.000    1.714    0.000    4.714    0.000   12.000 
#    0.000    0.000    0.000    0.000    0.000    0.000 
#    0.000    0.000    0.000    0.000    0.000    0.000 
#
# Total GULP energy -173629.477159 kJ/mol
# GULP energy per Si atom -12402.105511 kJ/mol
# Density = 2.057249 g / cm^3
# Si number density = 20.619422 Si / 1000 Ang^3
#
#
#
# Elastic Constant Matrix: (Units=GPa)
#
#
# Indices 1 2 3 4 5 6 
#
# 1 96.0657 47.0667 57.2335 -6.3164 -5.6532 -28.1237
# 2 47.0667 98.2757 47.6908 -8.6306 -0.2098 -24.4778
# 3 57.2335 47.6908 183.0815 -7.3504 -6.0475 -11.0419
# 4 -6.3164 -8.6306 -7.3504 22.0065 0.3748 1.7523
# 5 -5.6532 -0.2098 -6.0475 0.3748 32.9558 -5.0131
# 6 -28.1237 -24.4778 -11.0419 1.7523 -5.0131 25.6447
#
#
#
# Elastic Compliance Matrix: (Units=1/GPa)
#
#
# Indices 1 2 3 4 5 6 
#
# 1 0.020166 -0.002840 -0.004196 0.001702 0.005474 0.018552
# 2 -0.002840 0.015688 -0.002378 0.003675 0.000767 0.010734
# 3 -0.004196 -0.002378 0.007186 0.000567 -0.000004 -0.003818
# 4 0.001702 0.003675 0.000567 0.047363 0.000251 0.002432
# 5 0.005474 0.000767 -0.000004 0.000251 0.033296 0.013226
# 6 0.018552 0.010734 -0.003818 0.002432 0.013226 0.070361
#
#
# Mechanical properties :
#
#
# Convention : Reuss Voigt Hill
#
# Bulk Modulus (GPa) = 41.30419 75.71165 58.50792
# Shear Modulus (GPa) = 22.62865 31.15019 26.88942
#
# Velocity S-wave (km/s) = 3.31636 3.89102 3.61513
# Velocity P-wave (km/s) = 5.89402 7.54884 6.77217
#
# Compressibility (1/GPa) = 0.02421062
#
# Stress axis : x y z
#
# Youngs Moduli (GPa) = 49.58797 63.74407 139.16218
#
# Poissons Ratio (x) = 0.18101 0.58398
# Poissons Ratio (y) = 0.14081 0.33099
# Poissons Ratio (z) = 0.20809 0.15161
#
# Static dielectric constant tensor:
#      x y z
#    x 3.745530 -0.101860 -0.071190 
#    y -0.101860 3.649050 -0.231880 
#    z -0.071190 -0.231880 4.025820 
# 
# 
# High freq. dielectric constant tensor:
#      x y z
#    x 1.806720 -0.012400 -0.006270 
#    y -0.012400 1.799300 -0.015360 
#    z -0.006270 -0.015360 1.817620 
# 
# From -- ./inp_files/277473.got.cif
#   From: 2010.06.25/outbox.cif.g09.slc.cpg/sg2_139_cif.got.tgz:277473.got - 2010.06.27 13:26:56.
