data_PCOD8009395
_publ_section_title
;
Structure prediction by ZEFSAII (Michael W. Deem and Ramdas Pophale) SiO2 
 PCOD8009395
Probable space group: P -1
;
_chemical_formula_sum "Si O2"
_cell_formula_units_Z 16
_cell_length_a 20.866988
_cell_length_b 9.092092
_cell_length_c 16.547181
_cell_angle_alpha 148.574081
_cell_angle_beta 149.515408
_cell_angle_gamma 32.348330
_cell_volume 755.966323
_symmetry_space_group_name_H-M "P -1"
_symmetry_group_IT_number 2
_symmetry_cell_setting 'triclinic'
loop_
_space_group_symop_operation_xyz
x,y,z
-x,-y,-z
loop_
_atom_site_type_symbol
_atom_site_label
_atom_site_fract_x
_atom_site_fract_y
_atom_site_fract_z
Si Si1 0.710823 0.291206 0.278939
Si Si2 0.167959 0.655842 0.720358
Si Si3 0.208791 0.309802 0.826670
Si Si4 0.764928 0.333752 0.825392
Si Si5 0.419980 0.290465 0.920490
Si Si6 0.958953 0.773548 0.674577
Si Si7 0.453010 0.229028 0.310681
Si Si8 0.421201 0.023851 0.509126
O O1 0.817280 0.174285 0.264631
O O2 0.697838 0.626403 0.451048
O O3 0.778882 0.032309 0.299362
O O4 0.557280 0.338811 0.109165
O O5 0.307231 0.586713 0.890703
O O6 0.158954 0.328225 0.534816
O O7 0.031860 0.871207 0.724623
O O8 0.354238 0.253041 0.916061
O O9 0.077828 0.469497 0.701415
O O10 0.185469 0.521229 0.979131
O O11 0.703566 0.601695 0.815313
O O12 0.897969 0.055049 0.802214
O O13 0.652800 0.211690 0.679493
O O14 0.452202 0.995142 0.760429
O O15 0.500000 0.500000 0.500000
O O16 0.470503 0.051173 0.332383
O O17 0.500000 0.000000 0.500000
#
# Coordination Sequence:
#
# PCOD8009395 Si02
#       8
#     2   2   2   2   2   2   2   2
#     4  12  22  39  63  98 128 153 207 270 313 365
#     4  10  21  40  64  90 117 168 212 262 304 365
#     4  11  25  37  67  92 128 169 208 255 311 373
#     4  11  21  44  60  90 124 171 212 249 307 376
#     4  11  21  39  63  95 125 161 202 257 320 377
#     4  10  22  44  63  84 125 175 220 243 305 376
#     4  10  21  36  63  87 126 163 202 246 315 377
#     4  11  24  39  60  97 132 158 199 260 323 369
#
# _framework density 21.164964999999999
#
# number of rings (size 3 to 8) (size 9 to 14) (size 15 to 20)
#    0.000    1.250    3.750    2.625    3.500    0.500 
#    0.000    0.625    0.000    0.000    0.000    0.000 
#    0.000    0.000    0.000    0.000    0.000    0.000 
#
# Total GULP energy -198352.147932 kJ/mol
# GULP energy per Si atom -12397.009246 kJ/mol
# Density = 2.111679 g / cm^3
# Si number density = 21.164965 Si / 1000 Ang^3
#
#
#
# Elastic Constant Matrix: (Units=GPa)
#
#
# Indices 1 2 3 4 5 6 
#
# 1 142.4585 47.8582 1.4163 5.3283 -1.3652 -0.7998
# 2 47.8582 81.4693 11.7500 2.2263 1.6107 3.1691
# 3 1.4163 11.7500 28.6310 -1.3233 -7.9484 0.1161
# 4 5.3283 2.2263 -1.3233 30.2805 -5.7592 -0.4695
# 5 -1.3652 1.6107 -7.9484 -5.7592 33.7428 1.9905
# 6 -0.7998 3.1691 0.1161 -0.4695 1.9905 29.8978
#
#
#
# Elastic Compliance Matrix: (Units=1/GPa)
#
#
# Indices 1 2 3 4 5 6 
#
# 1 0.008911 -0.005553 0.002047 -0.000885 0.000913 0.000744
# 2 -0.005553 0.016766 -0.007451 -0.001155 -0.002876 -0.001723
# 3 0.002047 -0.007451 0.041068 0.004037 0.010800 0.000029
# 4 -0.000885 -0.001155 0.004037 0.034755 0.006892 0.000170
# 5 0.000913 -0.002876 0.010800 0.006892 0.033639 -0.001844
# 6 0.000744 -0.001723 0.000029 0.000170 -0.001844 0.033775
#
#
# Mechanical properties :
#
#
# Convention : Reuss Voigt Hill
#
# Bulk Modulus (GPa) = 22.30478 41.62308 31.96393
# Shear Modulus (GPa) = 24.29882 31.55317 27.92600
#
# Velocity S-wave (km/s) = 3.39199 3.86530 3.63636
# Velocity P-wave (km/s) = 5.08942 6.29520 5.72415
#
# Compressibility (1/GPa) = 0.04483344
#
# Stress axis : x y z
#
# Youngs Moduli (GPa) = 112.22574 59.64306 24.34968
#
# Poissons Ratio (x) = 0.33117 -0.04985
# Poissons Ratio (y) = 0.62314 0.18143
# Poissons Ratio (z) = -0.22978 0.44439
#
# Static dielectric constant tensor:
#      x y z
#    x 4.213770 0.396900 -0.224510 
#    y 0.396900 4.930090 -0.404900 
#    z -0.224510 -0.404900 3.789260 
# 
# 
# High freq. dielectric constant tensor:
#      x y z
#    x 1.840380 0.001750 -0.011720 
#    y 0.001750 1.822640 -0.001100 
#    z -0.011720 -0.001100 1.816850 
# 
# From -- ./inp_files/176694.got.cif
#   From: 2010.06.25/outbox.cif.g09.slc.cpg/sg2_89_cif.got.tgz:176694.got - 2010.06.27 13:26:56.
