data_PCOD8009839
_publ_section_title
;
Structure prediction by ZEFSAII (Michael W. Deem and Ramdas Pophale) SiO2 
 PCOD8009839
Probable space group: P -1
;
_chemical_formula_sum "Si O2"
_cell_formula_units_Z 16
_cell_length_a 11.230275
_cell_length_b 8.787570
_cell_length_c 10.459877
_cell_angle_alpha 82.515294
_cell_angle_beta 117.860040
_cell_angle_gamma 123.671837
_cell_volume 747.760859
_symmetry_space_group_name_H-M "P -1"
_symmetry_group_IT_number 2
_symmetry_cell_setting 'triclinic'
loop_
_space_group_symop_operation_xyz
x,y,z
-x,-y,-z
loop_
_atom_site_type_symbol
_atom_site_label
_atom_site_fract_x
_atom_site_fract_y
_atom_site_fract_z
Si Si1 0.159387 0.092225 0.336802
Si Si2 0.745634 0.052869 0.369735
Si Si3 0.897447 0.831715 0.064780
Si Si4 0.373055 0.173137 0.190012
Si Si5 0.260210 0.603182 0.642534
Si Si6 0.948907 0.668899 0.656323
Si Si7 0.421440 0.892923 0.102103
Si Si8 0.862264 0.468900 0.124341
O O1 0.283756 0.119532 0.287222
O O2 0.162276 0.279035 0.331511
O O3 0.208419 0.049759 0.498728
O O4 0.974183 0.918210 0.232291
O O5 0.742550 0.218945 0.415633
O O6 0.877318 0.141787 0.311484
O O7 0.565783 0.894352 0.246277
O O8 0.918890 0.664266 0.067566
O O9 0.709634 0.762697 0.960941
O O10 0.000000 0.000000 0.000000
O O11 0.557815 0.345795 0.287009
O O12 0.360388 0.994516 0.146690
O O13 0.137210 0.437255 0.506182
O O14 0.210518 0.545469 0.770471
O O15 0.983254 0.546884 0.781227
O O16 0.270837 0.685741 0.021539
O O17 0.500000 0.000000 0.000000
#
# Coordination Sequence:
#
# PCOD8009839 Si02
#       8
#     2   2   2   2   2   2   2   2
#     4  11  23  40  60  90 132 177 201 266 320 373
#     4  10  21  38  64  94 130 165 214 259 319 368
#     4  10  23  42  62  90 128 168 210 263 320 376
#     4  10  23  42  60  90 136 165 210 262 323 377
#     4  10  21  37  61  95 123 166 213 263 313 378
#     4  11  21  37  64  94 129 166 219 259 311 383
#     4  11  20  41  67  96 127 166 209 269 312 381
#     4  11  21  40  68  93 122 169 216 267 316 371
#
# _framework density 21.397214999999999
#
# number of rings (size 3 to 8) (size 9 to 14) (size 15 to 20)
#    0.000    1.500    3.750    4.125    0.000    4.000 
#    0.000   13.750    0.000    0.000    0.000    0.000 
#    0.000    0.000    0.000    0.000    0.000    0.000 
#
# Total GULP energy -198372.991656 kJ/mol
# GULP energy per Si atom -12398.311979 kJ/mol
# Density = 2.134851 g / cm^3
# Si number density = 21.397215 Si / 1000 Ang^3
#
#
#
# Elastic Constant Matrix: (Units=GPa)
#
#
# Indices 1 2 3 4 5 6 
#
# 1 97.7523 42.4700 29.7891 -0.1757 10.3636 -16.9020
# 2 42.4700 115.5414 58.7158 -7.5508 7.2635 -21.6211
# 3 29.7891 58.7158 137.4323 2.8607 28.0725 -15.6468
# 4 -0.1757 -7.5508 2.8607 40.9920 -9.1031 -0.2434
# 5 10.3636 7.2635 28.0725 -9.1031 34.7169 1.7697
# 6 -16.9020 -21.6211 -15.6468 -0.2434 1.7697 22.8253
#
#
#
# Elastic Compliance Matrix: (Units=1/GPa)
#
#
# Indices 1 2 3 4 5 6 
#
# 1 0.013355 -0.003603 0.000351 -0.001540 -0.004279 0.007033
# 2 -0.003603 0.013862 -0.005009 0.003552 0.002808 0.006849
# 3 0.000351 -0.005009 0.011973 -0.003951 -0.010001 0.004456
# 4 -0.001540 0.003552 -0.003951 0.027576 0.010192 -0.000980
# 5 -0.004279 0.002808 -0.010001 0.010192 0.040785 -0.010418
# 6 0.007033 0.006849 0.004456 -0.000980 -0.010418 0.059358
#
#
# Mechanical properties :
#
#
# Convention : Reuss Voigt Hill
#
# Bulk Modulus (GPa) = 44.11457 68.07509 56.09483
# Shear Modulus (GPa) = 26.17973 34.35689 30.26831
#
# Velocity S-wave (km/s) = 3.50167 4.01143 3.76519
# Velocity P-wave (km/s) = 6.08364 7.30338 6.72124
#
# Compressibility (1/GPa) = 0.02266825
#
# Stress axis : x y z
#
# Youngs Moduli (GPa) = 74.87722 72.13903 83.52340
#
# Poissons Ratio (x) = 0.25993 -0.02935
# Poissons Ratio (y) = 0.26980 0.41838
# Poissons Ratio (z) = -0.02631 0.36135
#
# Static dielectric constant tensor:
#      x y z
#    x 3.835040 -0.159970 0.375850 
#    y -0.159970 3.856660 0.355890 
#    z 0.375850 0.355890 4.619910 
# 
# 
# High freq. dielectric constant tensor:
#      x y z
#    x 1.830720 -0.014230 0.014550 
#    y -0.014230 1.819960 0.008240 
#    z 0.014550 0.008240 1.860640 
# 
# From -- ./inp_files/271278.got.cif
#   From: 2010.06.25/outbox.cif.g09.slc.cpg/sg2_136_cif.got.tgz:271278.got - 2010.06.27 13:26:56.
