data_PCOD8009698
_publ_section_title
;
Structure prediction by ZEFSAII (Michael W. Deem and Ramdas Pophale) SiO2 
 PCOD8009698
Probable space group: P -1
;
_chemical_formula_sum "Si O2"
_cell_formula_units_Z 16
_cell_length_a 13.672440
_cell_length_b 11.500195
_cell_length_c 12.633493
_cell_angle_alpha 89.621982
_cell_angle_beta 46.560309
_cell_angle_gamma 127.492595
_cell_volume 772.383064
_symmetry_space_group_name_H-M "P -1"
_symmetry_group_IT_number 2
_symmetry_cell_setting 'triclinic'
loop_
_space_group_symop_operation_xyz
x,y,z
-x,-y,-z
loop_
_atom_site_type_symbol
_atom_site_label
_atom_site_fract_x
_atom_site_fract_y
_atom_site_fract_z
Si Si1 0.776699 0.231965 0.753668
Si Si2 0.378607 0.228460 0.781448
Si Si3 0.566289 0.435060 0.018512
Si Si4 0.119848 0.849756 0.605082
Si Si5 0.871432 0.936557 0.256647
Si Si6 0.247381 0.697425 0.457745
Si Si7 0.851597 0.034915 0.635322
Si Si8 0.663640 0.658506 0.611884
O O1 0.740419 0.284844 0.677604
O O2 0.906264 0.204710 0.630593
O O3 0.972744 0.437385 0.688953
O O4 0.500000 0.000000 0.000000
O O5 0.277240 0.177965 0.740493
O O6 0.506350 0.195062 0.690958
O O7 0.603930 0.480720 0.636884
O O8 0.147216 0.078279 0.037398
O O9 0.563343 0.454610 0.148329
O O10 0.384025 0.194513 0.126532
O O11 0.500000 0.500000 0.000000
O O12 0.845257 0.601446 0.779065
O O13 0.282356 0.849327 0.488176
O O14 0.205400 0.003105 0.448595
O O15 0.114083 0.917545 0.718319
O O16 0.708188 0.748218 0.464908
O O17 0.103517 0.149230 0.480784
#
# Coordination Sequence:
#
# PCOD8009698 Si02
#       8
#     2   2   2   2   2   2   2   2
#     4  10  21  37  59  89 128 166 194 246 312 389
#     4  11  25  44  64  90 120 170 214 263 303 362
#     4  12  22  34  60  95 129 160 199 253 315 374
#     4  11  22  41  61  93 128 161 205 258 309 377
#     4  11  25  43  65  88 122 167 220 256 309 361
#     4  10  23  40  62  92 126 160 209 253 310 368
#     4  11  22  35  59  94 125 160 202 249 322 369
#     4  12  22  38  63  89 124 161 205 262 308 370
#
# _framework density 20.715109999999999
#
# number of rings (size 3 to 8) (size 9 to 14) (size 15 to 20)
#    0.000    1.000    5.000    2.250    1.750    0.500 
#    0.000    0.000    0.000    0.750    0.000    0.000 
#    0.000    0.000    0.000    0.000    0.000    0.000 
#
# Total GULP energy -198317.370253 kJ/mol
# GULP energy per Si atom -12394.835641 kJ/mol
# Density = 2.066796 g / cm^3
# Si number density = 20.715110 Si / 1000 Ang^3
#
#
#
# Elastic Constant Matrix: (Units=GPa)
#
#
# Indices 1 2 3 4 5 6 
#
# 1 84.6323 25.0146 40.4563 0.9791 -2.2374 -14.9091
# 2 25.0146 70.4034 20.6502 0.2410 0.2243 -6.2030
# 3 40.4563 20.6502 98.5990 -3.8102 4.9669 -6.1639
# 4 0.9791 0.2410 -3.8102 38.1917 -4.6043 -0.7806
# 5 -2.2374 0.2243 4.9669 -4.6043 35.4030 2.0901
# 6 -14.9091 -6.2030 -6.1639 -0.7806 2.0901 28.2436
#
#
#
# Elastic Compliance Matrix: (Units=1/GPa)
#
#
# Indices 1 2 3 4 5 6 
#
# 1 0.016941 -0.003712 -0.005851 -0.000685 0.001429 0.006726
# 2 -0.003712 0.016153 -0.001782 -0.000182 -0.000182 0.001207
# 3 -0.005851 -0.001782 0.013036 0.001211 -0.002003 -0.000454
# 4 -0.000685 -0.000182 0.001211 0.026721 0.003242 0.000361
# 5 0.001429 -0.000182 -0.002003 0.003242 0.029146 -0.001790
# 6 0.006726 0.001207 -0.000454 0.000361 -0.001790 0.039265
#
#
# Mechanical properties :
#
#
# Convention : Reuss Voigt Hill
#
# Bulk Modulus (GPa) = 42.66690 47.31966 44.99328
# Shear Modulus (GPa) = 29.10926 31.53525 30.32225
#
# Velocity S-wave (km/s) = 3.75269 3.90594 3.83008
# Velocity P-wave (km/s) = 6.27843 6.57529 6.42857
#
# Compressibility (1/GPa) = 0.02343737
#
# Stress axis : x y z
#
# Youngs Moduli (GPa) = 59.02937 61.90715 76.71292
#
# Poissons Ratio (x) = 0.22983 0.44888
# Poissons Ratio (y) = 0.21914 0.13672
# Poissons Ratio (z) = 0.34541 0.11033
#
# Static dielectric constant tensor:
#      x y z
#    x 3.506110 -0.195440 0.050360 
#    y -0.195440 4.017270 -0.052720 
#    z 0.050360 -0.052720 3.893030 
# 
# 
# High freq. dielectric constant tensor:
#      x y z
#    x 1.783920 -0.022390 0.004460 
#    y -0.022390 1.820890 -0.003530 
#    z 0.004460 -0.003530 1.817380 
# 
# From -- ./inp_files/428100.got.cif
#   From: 2010.06.25/outbox.cif.g09.slc.cpg/sg2_215_cif.got.tgz:428100.got - 2010.06.27 13:26:56.
