data_PCOD8009753
_publ_section_title
;
Structure prediction by ZEFSAII (Michael W. Deem and Ramdas Pophale) SiO2 
 PCOD8009753
Probable space group: P -1
;
_chemical_formula_sum "Si O2"
_cell_formula_units_Z 16
_cell_length_a 17.250793
_cell_length_b 23.977378
_cell_length_c 12.648464
_cell_angle_alpha 151.576242
_cell_angle_beta 40.272932
_cell_angle_gamma 159.592554
_cell_volume 806.986430
_symmetry_space_group_name_H-M "P -1"
_symmetry_group_IT_number 2
_symmetry_cell_setting 'triclinic'
loop_
_space_group_symop_operation_xyz
x,y,z
-x,-y,-z
loop_
_atom_site_type_symbol
_atom_site_label
_atom_site_fract_x
_atom_site_fract_y
_atom_site_fract_z
Si Si1 0.228252 0.219054 0.556442
Si Si2 0.794049 0.638929 0.370253
Si Si3 0.574015 0.632826 0.042367
Si Si4 0.463791 0.175401 0.867850
Si Si5 0.371716 0.576128 0.605841
Si Si6 0.018333 0.119071 0.095315
Si Si7 0.686485 0.981163 0.474049
Si Si8 0.281508 0.737885 0.078056
O O1 0.152543 0.202551 0.491987
O O2 0.378912 0.228544 0.392035
O O3 0.399522 0.456817 0.833138
O O4 0.000000 0.000000 0.500000
O O5 0.617122 0.495989 0.418707
O O6 0.687494 0.453272 0.090702
O O7 0.030747 0.794098 0.439887
O O8 0.559424 0.761075 0.293373
O O9 0.500000 0.500000 0.000000
O O10 0.845198 0.823784 0.050888
O O11 0.384990 0.067873 0.655521
O O12 0.555378 0.144830 0.792134
O O13 0.243666 0.056804 0.957535
O O14 0.159904 0.351707 0.377738
O O15 0.336589 0.684068 0.845134
O O16 0.000000 0.000000 0.000000
O O17 0.631698 0.060465 0.718877
O O18 0.000000 0.500000 0.000000
#
# Coordination Sequence:
#
# PCOD8009753 Si02
#       8
#     2   2   2   2   2   2   2   2
#     4  11  23  39  61  91 124 164 209 264 322 373
#     4  11  20  36  62  91 124 158 202 260 320 368
#     4  11  24  39  61  90 127 166 207 264 321 373
#     4  11  20  36  62  91 123 164 205 255 320 366
#     4  10  21  37  60  90 124 158 209 256 319 374
#     4  11  19  37  62  91 126 159 209 268 320 367
#     4  12  21  39  60  91 129 164 205 261 307 376
#     4  11  22  37  59  94 128 167 211 259 306 372
#
# _framework density 19.826851000000001
#
# number of rings (size 3 to 8) (size 9 to 14) (size 15 to 20)
#    0.000    1.000    6.250    2.250    0.000    5.000 
#    0.000    0.000    0.000    9.750    0.000    0.000 
#    0.000    0.000    0.000    0.000    0.000    0.000 
#
# Total GULP energy -198242.091548 kJ/mol
# GULP energy per Si atom -12390.130722 kJ/mol
# Density = 1.978172 g / cm^3
# Si number density = 19.826851 Si / 1000 Ang^3
#
#
#
# Elastic Constant Matrix: (Units=GPa)
#
#
# Indices 1 2 3 4 5 6 
#
# 1 98.8308 41.7814 45.5048 0.1973 -10.5455 6.1518
# 2 41.7814 106.8477 39.1137 -4.0149 -15.4022 -0.6317
# 3 45.5048 39.1137 137.0803 -2.8645 -22.8550 7.9965
# 4 0.1973 -4.0149 -2.8645 22.2764 5.0783 4.2469
# 5 -10.5455 -15.4022 -22.8550 5.0783 41.2196 8.1972
# 6 6.1518 -0.6317 7.9965 4.2469 8.1972 31.6425
#
#
#
# Elastic Compliance Matrix: (Units=1/GPa)
#
#
# Indices 1 2 3 4 5 6 
#
# 1 0.013470 -0.004081 -0.003093 -0.001043 0.000726 -0.001967
# 2 -0.004081 0.011947 -0.001707 0.001338 0.002165 0.000723
# 3 -0.003093 -0.001707 0.009761 0.000540 0.004543 -0.003149
# 4 -0.001043 0.001338 0.000540 0.047159 -0.004257 -0.005134
# 5 0.000726 0.002165 0.004543 -0.004257 0.029977 -0.008440
# 6 -0.001967 0.000723 -0.003149 -0.005134 -0.008440 0.035671
#
#
# Mechanical properties :
#
#
# Convention : Reuss Voigt Hill
#
# Bulk Modulus (GPa) = 57.42275 66.17316 61.79796
# Shear Modulus (GPa) = 29.14566 33.45164 31.29865
#
# Velocity S-wave (km/s) = 3.83823 4.11200 3.97747
# Velocity P-wave (km/s) = 6.97622 7.48283 7.23396
#
# Compressibility (1/GPa) = 0.01741470
#
# Stress axis : x y z
#
# Youngs Moduli (GPa) = 74.24111 83.70600 102.44596
#
# Poissons Ratio (x) = 0.34161 0.31686
# Poissons Ratio (y) = 0.30299 0.17491
# Poissons Ratio (z) = 0.22962 0.14291
#
# Static dielectric constant tensor:
#      x y z
#    x 3.618780 0.219120 0.063060 
#    y 0.219120 3.736770 -0.145450 
#    z 0.063060 -0.145450 4.016900 
# 
# 
# High freq. dielectric constant tensor:
#      x y z
#    x 1.764200 0.024180 0.011570 
#    y 0.024180 1.744500 0.012510 
#    z 0.011570 0.012510 1.789450 
# 
# From -- ./inp_files/452333.got.cif
#   From: 2010.06.25/outbox.cif.g09.slc.cpg/sg2_227_cif.got.tgz:452333.got - 2010.06.27 13:26:56.
