data_PCOD8009702
_publ_section_title
;
Structure prediction by ZEFSAII (Michael W. Deem and Ramdas Pophale) SiO2 
 PCOD8009702
Probable space group: P -1
;
_chemical_formula_sum "Si O2"
_cell_formula_units_Z 16
_cell_length_a 8.874685
_cell_length_b 24.659374
_cell_length_c 13.174473
_cell_angle_alpha 160.447616
_cell_angle_beta 112.070885
_cell_angle_gamma 59.026158
_cell_volume 765.039534
_symmetry_space_group_name_H-M "P -1"
_symmetry_group_IT_number 2
_symmetry_cell_setting 'triclinic'
loop_
_space_group_symop_operation_xyz
x,y,z
-x,-y,-z
loop_
_atom_site_type_symbol
_atom_site_label
_atom_site_fract_x
_atom_site_fract_y
_atom_site_fract_z
Si Si1 0.143379 0.626996 0.754335
Si Si2 0.740257 0.232764 0.614661
Si Si3 0.274860 0.243935 0.843679
Si Si4 0.066560 0.447023 0.592680
Si Si5 0.360482 0.354965 0.656651
Si Si6 0.158958 0.951922 0.245092
Si Si7 0.468013 0.217075 0.051660
Si Si8 0.481150 0.154175 0.528177
O O1 0.067754 0.614405 0.823341
O O2 0.336942 0.427615 0.430433
O O3 0.983330 0.671314 0.706500
O O4 0.181096 0.798502 0.063941
O O5 0.587896 0.273471 0.556649
O O6 0.661329 0.182484 0.608052
O O7 0.753216 0.417616 0.962596
O O8 0.948323 0.060930 0.335201
O O9 0.373619 0.246005 0.767779
O O10 0.200392 0.099055 0.569934
O O11 0.424296 0.187012 0.871871
O O12 0.095721 0.454341 0.188799
O O13 0.269343 0.308945 0.455539
O O14 0.332332 0.263422 0.590546
O O15 0.310988 0.840376 0.996150
O O16 0.445516 0.069126 0.854513
#
# Coordination Sequence:
#
# PCOD8009702 Si02
#       8
#     2   2   2   2   2   2   2   2
#     4  10  24  38  60  83 123 155 197 235 296 339
#     4   9  20  35  59  92 116 147 193 241 289 347
#     4  10  21  37  59  92 118 145 200 240 300 342
#     4  10  21  38  58  90 114 157 197 238 282 364
#     4   9  19  38  57  89 123 148 190 244 294 338
#     4  11  20  38  62  85 117 152 192 251 286 342
#     4  10  22  41  56  89 120 154 195 240 292 350
#     4   9  19  35  60  86 119 150 183 248 293 339
#
# _framework density 20.913954
#
# number of rings (size 3 to 8) (size 9 to 14) (size 15 to 20)
#    0.750    1.500    1.250    1.875    5.250    3.000 
#    0.000    2.500    0.000    3.750    0.000    0.000 
#    0.000    0.000    0.000    0.000    0.000    0.000 
#
# Total GULP energy -198273.887309 kJ/mol
# GULP energy per Si atom -12392.117957 kJ/mol
# Density = 2.086635 g / cm^3
# Si number density = 20.913954 Si / 1000 Ang^3
#
#
#
# Elastic Constant Matrix: (Units=GPa)
#
#
# Indices 1 2 3 4 5 6 
#
# 1 88.8577 42.9911 26.1060 9.3526 -9.2683 -9.6464
# 2 42.9911 106.6031 30.5889 9.6758 -8.3245 -6.9321
# 3 26.1060 30.5889 55.1938 18.9530 -6.2620 -4.2759
# 4 9.3526 9.6758 18.9530 24.1055 3.0449 -2.6694
# 5 -9.2683 -8.3245 -6.2620 3.0449 33.7158 15.3163
# 6 -9.6464 -6.9321 -4.2759 -2.6694 15.3163 25.2152
#
#
#
# Elastic Compliance Matrix: (Units=1/GPa)
#
#
# Indices 1 2 3 4 5 6 
#
# 1 0.015194 -0.004627 -0.004075 -0.000577 0.000841 0.003278
# 2 -0.004627 0.012695 -0.004918 0.000545 0.000651 0.000548
# 3 -0.004075 -0.004918 0.030880 -0.022174 0.007477 -0.004563
# 4 -0.000577 0.000545 -0.022174 0.062172 -0.015202 0.011984
# 5 0.000841 0.000651 0.007477 -0.015202 0.045218 -0.027308
# 6 0.003278 0.000548 -0.004563 0.011984 -0.027308 0.058145
#
#
# Mechanical properties :
#
#
# Convention : Reuss Voigt Hill
#
# Bulk Modulus (GPa) = 31.71621 50.00294 40.85957
# Shear Modulus (GPa) = 19.08014 26.67187 22.87601
#
# Velocity S-wave (km/s) = 3.02373 3.57503 3.31088
# Velocity P-wave (km/s) = 5.23342 6.40327 5.84767
#
# Compressibility (1/GPa) = 0.03152962
#
# Stress axis : x y z
#
# Youngs Moduli (GPa) = 65.81536 78.77274 32.38358
#
# Poissons Ratio (x) = 0.36449 0.13195
# Poissons Ratio (y) = 0.30453 0.15925
# Poissons Ratio (z) = 0.26818 0.38738
#
# Static dielectric constant tensor:
#      x y z
#    x 3.924020 -0.122000 -0.026780 
#    y -0.122000 3.615330 0.226990 
#    z -0.026780 0.226990 3.539390 
# 
# 
# High freq. dielectric constant tensor:
#      x y z
#    x 1.822560 -0.009910 -0.001790 
#    y -0.009910 1.794750 0.021230 
#    z -0.001790 0.021230 1.806340 
# 
# From -- ./inp_files/508935.got.cif
#   From: 2010.06.25/outbox.cif.g09.slc.cpg/sg2_255_cif.got.tgz:508935.got - 2010.06.27 13:26:56.
