data_PCOD8009127
_publ_section_title
;
Structure prediction by ZEFSAII (Michael W. Deem and Ramdas Pophale) SiO2 
 PCOD8009127
Probable space group: P -1
;
_chemical_formula_sum "Si O2"
_cell_formula_units_Z 16
_cell_length_a 13.351034
_cell_length_b 9.640811
_cell_length_c 11.692154
_cell_angle_alpha 77.051062
_cell_angle_beta 101.542673
_cell_angle_gamma 146.627881
_cell_volume 806.548627
_symmetry_space_group_name_H-M "P -1"
_symmetry_group_IT_number 2
_symmetry_cell_setting 'triclinic'
loop_
_space_group_symop_operation_xyz
x,y,z
-x,-y,-z
loop_
_atom_site_type_symbol
_atom_site_label
_atom_site_fract_x
_atom_site_fract_y
_atom_site_fract_z
Si Si1 0.675964 0.274703 0.043068
Si Si2 0.959171 0.809672 0.378393
Si Si3 0.720117 0.823788 0.782117
Si Si4 0.986295 0.797595 0.644727
Si Si5 0.703802 0.777187 0.033239
Si Si6 0.662958 0.434278 0.798050
Si Si7 0.739834 0.061065 0.171226
Si Si8 0.350031 0.548879 0.788483
O O1 0.621999 0.297967 0.139674
O O2 0.811740 0.300517 0.103082
O O3 0.755454 0.472042 0.927040
O O4 0.500000 0.000000 0.000000
O O5 0.978040 0.758704 0.515332
O O6 0.771801 0.537634 0.329373
O O7 0.129005 0.952327 0.314865
O O8 0.949945 0.969393 0.357097
O O9 0.645817 0.582992 0.779857
O O10 0.548287 0.732011 0.753869
O O11 0.812127 0.926899 0.911375
O O12 0.788206 0.538746 0.700027
O O13 0.128351 0.851261 0.720595
O O14 0.715712 0.935405 0.077499
O O15 0.769696 0.720152 0.135059
O O16 0.500000 0.500000 0.000000
O O17 0.459641 0.144383 0.780031
#
# Coordination Sequence:
#
# PCOD8009127 Si02
#       8
#     2   2   2   2   2   2   2   2
#     4  10  21  35  59  87 116 144 182 221 283 348
#     4  10  22  36  55  86 109 145 196 234 263 326
#     4  10  18  32  58  84 114 140 179 233 285 323
#     4  10  22  37  55  82 114 145 195 230 268 325
#     4  10  16  31  57  81 109 139 174 224 282 328
#     4  10  18  34  57  82 113 147 178 227 284 331
#     4  11  20  37  56  83 116 149 175 229 282 329
#     4  11  19  36  58  84 114 146 180 231 280 326
#
# _framework density 19.837613999999999
#
# number of rings (size 3 to 8) (size 9 to 14) (size 15 to 20)
#    0.000    1.750    5.000    2.250    0.000    3.000 
#    0.000    6.875    0.000    3.750    0.000    0.000 
#    0.000    0.000    0.000    0.000    0.000    0.000 
#
# Total GULP energy -198339.511340 kJ/mol
# GULP energy per Si atom -12396.219459 kJ/mol
# Density = 1.979246 g / cm^3
# Si number density = 19.837614 Si / 1000 Ang^3
#
#
#
# Elastic Constant Matrix: (Units=GPa)
#
#
# Indices 1 2 3 4 5 6 
#
# 1 117.7759 40.0254 70.7659 -0.2378 -4.0244 -1.1091
# 2 40.0254 42.4591 37.6622 8.0747 -9.5814 2.8165
# 3 70.7659 37.6622 150.1180 10.2570 -17.6410 15.5584
# 4 -0.2378 8.0747 10.2570 23.1415 4.4596 -0.3268
# 5 -4.0244 -9.5814 -17.6410 4.4596 27.2803 -3.8143
# 6 -1.1091 2.8165 15.5584 -0.3268 -3.8143 24.4946
#
#
#
# Elastic Compliance Matrix: (Units=1/GPa)
#
#
# Indices 1 2 3 4 5 6 
#
# 1 0.017079 -0.014104 -0.006624 0.009557 -0.007502 0.005561
# 2 -0.014104 0.045207 -0.001317 -0.018372 0.015554 -0.002823
# 3 -0.006624 -0.001317 0.012003 -0.006256 0.006385 -0.006862
# 4 0.009557 -0.018372 -0.006256 0.055950 -0.017602 0.004524
# 5 -0.007502 0.015554 0.006385 -0.017602 0.048171 0.001082
# 6 0.005561 -0.002823 -0.006862 0.004524 0.001082 0.045989
#
#
# Mechanical properties :
#
#
# Convention : Reuss Voigt Hill
#
# Bulk Modulus (GPa) = 33.11301 67.47333 50.29317
# Shear Modulus (GPa) = 17.94970 25.77659 21.86314
#
# Velocity S-wave (km/s) = 3.01130 3.60860 3.32340
# Velocity P-wave (km/s) = 5.36832 7.17282 6.33515
#
# Compressibility (1/GPa) = 0.03019961
#
# Stress axis : x y z
#
# Youngs Moduli (GPa) = 58.55150 22.12025 83.31041
#
# Poissons Ratio (x) = 0.31199 0.55181
# Poissons Ratio (y) = 0.82582 0.10976
# Poissons Ratio (z) = 0.38782 0.02914
#
# Static dielectric constant tensor:
#      x y z
#    x 3.763830 -0.059760 0.085140 
#    y -0.059760 3.381240 -0.133460 
#    z 0.085140 -0.133460 3.943610 
# 
# 
# High freq. dielectric constant tensor:
#      x y z
#    x 1.771240 0.002630 -0.000660 
#    y 0.002630 1.743860 0.003600 
#    z -0.000660 0.003600 1.770270 
# 
# From -- ./inp_files/417172.got.cif
#   From: 2010.06.25/outbox.cif.g09.slc.cpg/sg2_209_cif.got.tgz:417172.got - 2010.06.27 13:26:56.
