data_PCOD8009010
_publ_section_title
;
Structure prediction by ZEFSAII (Michael W. Deem and Ramdas Pophale) SiO2 
 PCOD8009010
Probable space group: P -1
;
_chemical_formula_sum "Si O2"
_cell_formula_units_Z 16
_cell_length_a 22.523950
_cell_length_b 21.807751
_cell_length_c 9.593543
_cell_angle_alpha 140.839690
_cell_angle_beta 144.861198
_cell_angle_gamma 18.380127
_cell_volume 855.210374
_symmetry_space_group_name_H-M "P -1"
_symmetry_group_IT_number 2
_symmetry_cell_setting 'triclinic'
loop_
_space_group_symop_operation_xyz
x,y,z
-x,-y,-z
loop_
_atom_site_type_symbol
_atom_site_label
_atom_site_fract_x
_atom_site_fract_y
_atom_site_fract_z
Si Si1 0.431682 0.275857 0.715461
Si Si2 0.803016 0.244041 0.247270
Si Si3 0.625239 0.024068 0.885806
Si Si4 0.797591 0.341562 0.117088
Si Si5 0.261464 0.923912 0.266838
Si Si6 0.212963 0.295957 0.478977
Si Si7 0.270867 0.914206 0.585556
Si Si8 0.481826 0.558033 0.415143
O O1 0.591383 0.139857 0.913690
O O2 0.314241 0.472976 0.829716
O O3 0.570451 0.149943 0.622920
O O4 0.263309 0.326596 0.498289
O O5 0.745855 0.362216 0.216909
O O6 0.683548 0.371595 0.381958
O O7 0.744037 0.182834 0.983639
O O8 0.042690 0.056527 0.413818
O O9 0.402374 0.151145 0.699563
O O10 0.795163 0.808080 0.775076
O O11 0.710548 0.996939 0.146257
O O12 0.720095 0.315632 0.830022
O O13 0.040486 0.154784 0.231108
O O14 0.333144 0.873616 0.473835
O O15 0.000000 0.500000 0.500000
O O16 0.442286 0.704771 0.615502
O O17 0.500000 0.500000 0.500000
#
# Coordination Sequence:
#
# PCOD8009010 Si02
#       8
#     2   2   2   2   2   2   2   2
#     4  10  21  35  63  92 107 152 201 243 286 356
#     4  11  22  39  56  79 128 177 194 226 283 348
#     4   9  22  40  62  90 114 145 196 247 303 349
#     4  11  20  36  57  82 120 162 204 227 284 345
#     4  11  21  37  60  82 122 170 198 231 281 350
#     4   9  21  43  68  84 115 151 187 245 319 359
#     4  11  22  39  56  86 123 158 196 239 294 333
#     4  12  23  33  53  85 119 160 202 245 273 330
#
# _framework density 18.708846999999999
#
# number of rings (size 3 to 8) (size 9 to 14) (size 15 to 20)
#    0.750    0.750    3.750    2.625    1.750    2.500 
#    0.000    0.625    0.000    3.750    0.000    0.000 
#    0.000    0.000    0.000    0.000    0.000    0.000 
#
# Total GULP energy -198313.388617 kJ/mol
# GULP energy per Si atom -12394.586789 kJ/mol
# Density = 1.866627 g / cm^3
# Si number density = 18.708847 Si / 1000 Ang^3
#
#
#
# Elastic Constant Matrix: (Units=GPa)
#
#
# Indices 1 2 3 4 5 6 
#
# 1 115.8536 57.3164 43.7709 8.8655 -4.0599 -22.1741
# 2 57.3164 100.7578 41.3396 19.2667 -4.6938 -12.8954
# 3 43.7709 41.3396 97.6612 16.9181 -13.2821 -7.4577
# 4 8.8655 19.2667 16.9181 25.3879 1.4047 2.4131
# 5 -4.0599 -4.6938 -13.2821 1.4047 21.9464 5.7691
# 6 -22.1741 -12.8954 -7.4577 2.4131 5.7691 26.9998
#
#
#
# Elastic Compliance Matrix: (Units=1/GPa)
#
#
# Indices 1 2 3 4 5 6 
#
# 1 0.014503 -0.005942 -0.004058 0.001524 -0.003386 0.008540
# 2 -0.005942 0.016447 -0.002382 -0.009145 0.000782 0.002968
# 3 -0.004058 -0.002382 0.015462 -0.007437 0.008954 -0.001448
# 4 0.001524 -0.009145 -0.007437 0.051942 -0.007332 -0.008246
# 5 -0.003386 0.000782 0.008954 -0.007332 0.053829 -0.010780
# 6 0.008540 0.002968 -0.001448 -0.008246 -0.010780 0.048109
#
#
# Mechanical properties :
#
#
# Convention : Reuss Voigt Hill
#
# Bulk Modulus (GPa) = 46.18923 66.56958 56.37940
# Shear Modulus (GPa) = 21.52667 26.32320 23.92494
#
# Velocity S-wave (km/s) = 3.39575 3.75506 3.57992
# Velocity P-wave (km/s) = 6.33379 7.37968 6.87665
#
# Compressibility (1/GPa) = 0.02165007
#
# Stress axis : x y z
#
# Youngs Moduli (GPa) = 68.94962 60.80201 64.67571
#
# Poissons Ratio (x) = 0.36127 0.26242
# Poissons Ratio (y) = 0.40968 0.15404
# Poissons Ratio (z) = 0.27977 0.14481
#
# Static dielectric constant tensor:
#      x y z
#    x 3.417050 -0.018700 -0.019390 
#    y -0.018700 3.529780 0.042470 
#    z -0.019390 0.042470 3.201160 
# 
# 
# High freq. dielectric constant tensor:
#      x y z
#    x 1.719960 0.000510 -0.004330 
#    y 0.000510 1.739970 0.011610 
#    z -0.004330 0.011610 1.702180 
# 
# From -- ./inp_files/349630.got.cif
#   From: 2010.06.25/outbox.cif.g09.slc.cpg/sg2_175_cif.got.tgz:349630.got - 2010.06.27 13:26:56.
