data_PCOD8009254
_publ_section_title
;
Structure prediction by ZEFSAII (Michael W. Deem and Ramdas Pophale) SiO2 
 PCOD8009254
Probable space group: P -1
;
_chemical_formula_sum "Si O2"
_cell_formula_units_Z 14
_cell_length_a 11.999271
_cell_length_b 13.902960
_cell_length_c 10.827437
_cell_angle_alpha 124.964033
_cell_angle_beta 133.628007
_cell_angle_gamma 29.622055
_cell_volume 644.438130
_symmetry_space_group_name_H-M "P -1"
_symmetry_group_IT_number 2
_symmetry_cell_setting 'triclinic'
loop_
_space_group_symop_operation_xyz
x,y,z
-x,-y,-z
loop_
_atom_site_type_symbol
_atom_site_label
_atom_site_fract_x
_atom_site_fract_y
_atom_site_fract_z
Si Si1 0.828474 0.735915 0.656779
Si Si2 0.873114 0.070484 0.799246
Si Si3 0.121231 0.438664 0.864287
Si Si4 0.223905 0.528438 0.242357
Si Si5 0.231343 0.800935 0.457221
Si Si6 0.471821 0.167018 0.713772
Si Si7 0.794958 0.298069 0.093028
O O1 0.763131 0.692381 0.459201
O O2 0.880783 0.632794 0.745499
O O3 0.083605 0.650035 0.749477
O O4 0.590056 0.965974 0.670872
O O5 0.764335 0.140664 0.630666
O O6 0.674075 0.136000 0.792915
O O7 0.915046 0.174909 0.964930
O O8 0.132335 0.833671 0.833525
O O9 0.367459 0.266606 0.840765
O O10 0.014771 0.383302 0.801746
O O11 0.220421 0.473830 0.064034
O O12 0.178105 0.695289 0.324371
O O13 0.499217 0.334960 0.372360
O O14 0.000000 0.000000 0.500000
O O15 0.500000 0.500000 0.000000
#
# Coordination Sequence:
#
# PCOD8009254 Si02
#       7
#     2   2   2   2   2   2   2
#     4  10  21  36  59  92 124 158 205 251 309 382
#     4  10  22  39  61  93 122 156 208 252 306 378
#     4  11  22  42  65  91 129 165 204 261 314 364
#     4  10  26  43  63  94 123 168 223 253 299 380
#     4  11  25  45  65  88 127 171 212 261 308 362
#     4  10  22  39  63  93 124 159 201 259 319 368
#     4  10  21  36  60  92 125 158 194 252 315 367
#
# _framework density 21.724350000000001
#
# number of rings (size 3 to 8) (size 9 to 14) (size 15 to 20)
#    0.000    1.714    0.000    3.000    0.000   13.714 
#    0.000    2.857    0.000    0.000    0.000    0.000 
#    0.000    0.000    0.000    0.000    0.000    0.000 
#
# Total GULP energy -173572.205022 kJ/mol
# GULP energy per Si atom -12398.014644 kJ/mol
# Density = 2.167490 g / cm^3
# Si number density = 21.724350 Si / 1000 Ang^3
#
#
#
# Elastic Constant Matrix: (Units=GPa)
#
#
# Indices 1 2 3 4 5 6 
#
# 1 93.6906 45.1101 37.0119 5.2254 -14.2726 -8.3650
# 2 45.1101 111.1069 36.2847 -14.5847 -7.7369 -6.4259
# 3 37.0119 36.2847 129.2869 -6.3000 -8.0860 -4.9735
# 4 5.2254 -14.5847 -6.3000 37.8339 2.9559 -4.4590
# 5 -14.2726 -7.7369 -8.0860 2.9559 42.7589 -0.5798
# 6 -8.3650 -6.4259 -4.9735 -4.4590 -0.5798 28.5919
#
#
#
# Elastic Compliance Matrix: (Units=1/GPa)
#
#
# Indices 1 2 3 4 5 6 
#
# 1 0.015559 -0.005646 -0.002773 -0.004850 0.004011 0.002126
# 2 -0.005646 0.012638 -0.001605 0.005615 -0.000265 0.001780
# 3 -0.002773 -0.001605 0.009094 0.001319 0.000421 0.000624
# 4 -0.004850 0.005615 0.001319 0.030230 -0.002379 0.004739
# 5 0.004011 -0.000265 0.000421 -0.002379 0.024940 0.001322
# 6 0.002126 0.001780 0.000624 0.004739 0.001322 0.036871
#
#
# Mechanical properties :
#
#
# Convention : Reuss Voigt Hill
#
# Bulk Modulus (GPa) = 57.99672 63.43309 60.71491
# Shear Modulus (GPa) = 32.23164 36.21546 34.22355
#
# Velocity S-wave (km/s) = 3.85601 4.08737 3.97338
# Velocity P-wave (km/s) = 6.82493 7.17900 7.00420
#
# Compressibility (1/GPa) = 0.01724235
#
# Stress axis : x y z
#
# Youngs Moduli (GPa) = 64.27312 79.12505 109.96514
#
# Poissons Ratio (x) = 0.44671 0.30497
# Poissons Ratio (y) = 0.36286 0.17652
# Poissons Ratio (z) = 0.17825 0.12702
#
# Static dielectric constant tensor:
#      x y z
#    x 3.797010 0.305280 0.022100 
#    y 0.305280 4.055300 -0.059470 
#    z 0.022100 -0.059470 4.217640 
# 
# 
# High freq. dielectric constant tensor:
#      x y z
#    x 1.839410 0.014160 0.005490 
#    y 0.014160 1.861320 -0.007120 
#    z 0.005490 -0.007120 1.876610 
# 
# From -- ./inp_files/433126.got.cif
#   From: 2010.06.25/outbox.cif.g09.slc.cpg/sg2_217_cif.got.tgz:433126.got - 2010.06.27 13:26:56.
