data_PCOD8009516
_publ_section_title
;
Structure prediction by ZEFSAII (Michael W. Deem and Ramdas Pophale) SiO2 
 PCOD8009516
Probable space group: P -1
;
_chemical_formula_sum "Si O2"
_cell_formula_units_Z 14
_cell_length_a 14.733858
_cell_length_b 8.069244
_cell_length_c 11.189471
_cell_angle_alpha 96.367382
_cell_angle_beta 146.245801
_cell_angle_gamma 100.319225
_cell_volume 639.808029
_symmetry_space_group_name_H-M "P -1"
_symmetry_group_IT_number 2
_symmetry_cell_setting 'triclinic'
loop_
_space_group_symop_operation_xyz
x,y,z
-x,-y,-z
loop_
_atom_site_type_symbol
_atom_site_label
_atom_site_fract_x
_atom_site_fract_y
_atom_site_fract_z
Si Si1 0.379456 0.135584 0.945894
Si Si2 0.397018 0.805338 0.035057
Si Si3 0.302706 0.352184 0.326015
Si Si4 0.717924 0.584287 0.213645
Si Si5 0.612931 0.958813 0.521388
Si Si6 0.239847 0.529632 0.510096
Si Si7 0.963672 0.341485 0.852071
O O1 0.429012 0.114770 0.861106
O O2 0.230512 0.218419 0.785903
O O3 0.566468 0.278908 0.234485
O O4 0.290339 0.928504 0.898502
O O5 0.469300 0.832549 0.250917
O O6 0.259377 0.575924 0.849978
O O7 0.500000 0.500000 0.500000
O O8 0.266211 0.428852 0.415441
O O9 0.292025 0.151685 0.321853
O O10 0.144865 0.312589 0.048997
O O11 0.827062 0.616470 0.461844
O O12 0.500000 0.500000 0.000000
O O13 0.774796 0.152065 0.661532
O O14 0.500000 0.000000 0.500000
O O15 0.076641 0.585925 0.312562
O O16 0.000000 0.500000 0.000000
#
# Coordination Sequence:
#
# PCOD8009516 Si02
#       7
#     2   2   2   2   2   2   2
#     4   9  15  28  51  80 113 141 187 235 274 338
#     4   9  17  28  49  82 110 143 190 226 277 338
#     4  11  23  37  56  83 112 154 196 238 291 344
#     4   8  15  27  48  82 108 142 184 234 278 336
#     4  12  22  36  56  85 121 152 190 235 283 346
#     4   9  16  33  53  79 114 140 186 235 287 337
#     4  10  21  37  55  79 115 153 193 238 284 340
#
# _framework density 21.881563
#
# number of rings (size 3 to 8) (size 9 to 14) (size 15 to 20)
#    0.000    2.571    1.429    4.714    0.000    0.000 
#    0.000    0.000    0.000    0.000    0.000  105.000 
#    0.000    0.000    0.000    0.000    0.000    0.000 
#
# Total GULP energy -173448.577671 kJ/mol
# GULP energy per Si atom -12389.184119 kJ/mol
# Density = 2.183176 g / cm^3
# Si number density = 21.881563 Si / 1000 Ang^3
#
#
#
# Elastic Constant Matrix: (Units=GPa)
#
#
# Indices 1 2 3 4 5 6 
#
# 1 45.9268 22.2139 50.3849 -10.8007 -12.3278 -14.4732
# 2 22.2139 178.0540 58.7231 -50.8822 -14.1841 -10.6300
# 3 50.3849 58.7231 117.2888 -45.7225 -26.2768 1.2544
# 4 -10.8007 -50.8822 -45.7225 48.7113 6.5640 -7.5192
# 5 -12.3278 -14.1841 -26.2768 6.5640 26.0320 2.9773
# 6 -14.4732 -10.6300 1.2544 -7.5192 2.9773 22.1371
#
#
#
# Elastic Compliance Matrix: (Units=1/GPa)
#
#
# Indices 1 2 3 4 5 6 
#
# 1 0.076555 0.004247 -0.039449 -0.006713 -0.005598 0.052799
# 2 0.004247 0.009505 -0.002649 0.009941 0.000779 0.010763
# 3 -0.039449 -0.002649 0.037608 0.017674 0.016283 -0.025381
# 4 -0.006713 0.009941 0.017674 0.047401 0.006455 0.014615
# 5 -0.005598 0.000779 0.016283 0.006455 0.052027 -0.009014
# 6 0.052799 0.010763 -0.025381 0.014615 -0.009014 0.092477
#
#
# Mechanical properties :
#
#
# Convention : Reuss Voigt Hill
#
# Bulk Modulus (GPa) = 20.84725 67.10151 43.97438
# Shear Modulus (GPa) = 12.27706 33.37260 22.82483
#
# Velocity S-wave (km/s) = 2.37126 3.90955 3.23322
# Velocity P-wave (km/s) = 4.12858 7.14925 5.83768
#
# Compressibility (1/GPa) = 0.04796796
#
# Stress axis : x y z
#
# Youngs Moduli (GPa) = 13.06248 105.20302 26.58996
#
# Poissons Ratio (x) = -0.44684 1.04894
# Poissons Ratio (y) = -0.05548 0.07044
# Poissons Ratio (z) = 0.51530 0.27869
#
# Static dielectric constant tensor:
#      x y z
#    x 3.528060 -0.084030 -0.371100 
#    y -0.084030 5.106790 -0.719840 
#    z -0.371100 -0.719840 4.274760 
# 
# 
# High freq. dielectric constant tensor:
#      x y z
#    x 1.816190 -0.009770 -0.037170 
#    y -0.009770 1.888500 -0.028340 
#    z -0.037170 -0.028340 1.844590 
# 
# From -- ./inp_files/447706.got.cif
#   From: 2010.06.25/outbox.cif.g09.slc.cpg/sg2_224_cif.got.tgz:447706.got - 2010.06.27 13:26:56.
