data_PCOD8009870
_publ_section_title
;
Structure prediction by ZEFSAII (Michael W. Deem and Ramdas Pophale) SiO2 
 PCOD8009870
Probable space group: P -1
;
_chemical_formula_sum "Si O2"
_cell_formula_units_Z 16
_cell_length_a 5.262304
_cell_length_b 12.452483
_cell_length_c 17.544052
_cell_angle_alpha 44.714856
_cell_angle_beta 79.492332
_cell_angle_gamma 96.575982
_cell_volume 744.136205
_symmetry_space_group_name_H-M "P -1"
_symmetry_group_IT_number 2
_symmetry_cell_setting 'triclinic'
loop_
_space_group_symop_operation_xyz
x,y,z
-x,-y,-z
loop_
_atom_site_type_symbol
_atom_site_label
_atom_site_fract_x
_atom_site_fract_y
_atom_site_fract_z
Si Si1 0.127197 0.449242 0.694939
Si Si2 0.433116 0.941123 0.654760
Si Si3 0.753501 0.234790 0.571735
Si Si4 0.103423 0.689595 0.921613
Si Si5 0.621547 0.507870 0.748731
Si Si6 0.255450 0.133806 0.454839
Si Si7 0.522686 0.609003 0.018945
Si Si8 0.279255 0.319873 0.609895
O O1 0.229571 0.627980 0.561137
O O2 0.324935 0.444747 0.756402
O O3 0.134276 0.309253 0.705758
O O4 0.813396 0.405853 0.764132
O O5 0.216235 0.803634 0.785832
O O6 0.490104 0.844657 0.627818
O O7 0.708536 0.056721 0.626505
O O8 0.302854 0.073446 0.566080
O O9 0.467010 0.205878 0.650434
O O10 0.034689 0.286893 0.578264
O O11 0.339655 0.722285 0.956869
O O12 0.000000 0.500000 0.000000
O O13 0.842140 0.726285 0.952275
O O14 0.788913 0.695001 0.621077
O O15 0.582224 0.500844 0.845409
O O16 0.000000 0.000000 0.500000
O O17 0.500000 0.500000 0.000000
O O18 0.500000 0.500000 0.500000
#
# Coordination Sequence:
#
# PCOD8009870 Si02
#       8
#     2   2   2   2   2   2   2   2
#     4  11  21  38  59  94 121 159 201 247 317 375
#     4  11  25  39  58  90 125 173 207 254 303 377
#     4  11  21  38  58  91 130 165 204 245 308 381
#     4  10  22  39  60  79 114 158 218 254 290 339
#     4  12  23  38  62  88 127 161 204 256 303 370
#     4  11  25  36  56  87 132 170 202 239 316 373
#     4  10  22  39  57  82 112 159 209 257 293 340
#     4  10  21  37  62  88 128 166 198 251 307 381
#
# _framework density 21.501438
#
# number of rings (size 3 to 8) (size 9 to 14) (size 15 to 20)
#    0.000    1.250    1.250    6.750    8.750    0.000 
#    0.000    0.000    0.000    0.000    0.000   17.500 
#    0.000    0.000    0.000    0.000    0.000    0.000 
#
# Total GULP energy -198295.479980 kJ/mol
# GULP energy per Si atom -12393.467499 kJ/mol
# Density = 2.145250 g / cm^3
# Si number density = 21.501438 Si / 1000 Ang^3
#
#
#
# Elastic Constant Matrix: (Units=GPa)
#
#
# Indices 1 2 3 4 5 6 
#
# 1 182.5379 30.6274 40.8653 15.8397 9.4965 14.8201
# 2 30.6274 71.6893 21.2816 16.1469 9.2429 7.0384
# 3 40.8653 21.2816 120.1481 17.3298 3.3458 8.8323
# 4 15.8397 16.1469 17.3298 25.5406 6.1179 -1.5964
# 5 9.4965 9.2429 3.3458 6.1179 21.1888 2.8971
# 6 14.8201 7.0384 8.8323 -1.5964 2.8971 32.3758
#
#
#
# Elastic Compliance Matrix: (Units=1/GPa)
#
#
# Indices 1 2 3 4 5 6 
#
# 1 0.006468 -0.001533 -0.001456 -0.001919 -0.001142 -0.002223
# 2 -0.001533 0.017679 -0.001018 -0.008779 -0.003927 -0.002945
# 3 -0.001456 -0.001018 0.009943 -0.005694 0.001476 -0.002238
# 4 -0.001919 -0.008779 -0.005694 0.052825 -0.010745 0.007906
# 5 -0.001142 -0.003927 0.001476 -0.010745 0.052875 -0.004288
# 6 -0.002223 -0.002945 -0.002238 0.007906 -0.004288 0.033929
#
#
# Mechanical properties :
#
#
# Convention : Reuss Voigt Hill
#
# Bulk Modulus (GPa) = 38.35041 62.21377 50.28209
# Shear Modulus (GPa) = 26.25701 34.59444 30.42573
#
# Velocity S-wave (km/s) = 3.49832 4.01551 3.76580
# Velocity P-wave (km/s) = 5.84744 7.10609 6.50727
#
# Compressibility (1/GPa) = 0.02607534
#
# Stress axis : x y z
#
# Youngs Moduli (GPa) = 154.60716 56.56436 100.57046
#
# Poissons Ratio (x) = 0.08673 0.14646
# Poissons Ratio (y) = 0.23705 0.10237
# Poissons Ratio (z) = 0.22516 0.05758
#
# Static dielectric constant tensor:
#      x y z
#    x 4.689960 -0.604450 -0.109330 
#    y -0.604450 4.117350 0.391580 
#    z -0.109330 0.391580 3.567730 
# 
# 
# High freq. dielectric constant tensor:
#      x y z
#    x 1.877180 0.001720 -0.003580 
#    y 0.001720 1.819700 0.027470 
#    z -0.003580 0.027470 1.806340 
# 
# From -- ./inp_files/126773.got.cif
#   From: 2010.06.25/outbox.cif.g09.slc.cpg/sg2_64_cif.got.tgz:126773.got - 2010.06.27 13:26:56.
