data_PCOD8009160
_publ_section_title
;
Structure prediction by ZEFSAII (Michael W. Deem and Ramdas Pophale) SiO2 
 PCOD8009160
Probable space group: P -1
;
_chemical_formula_sum "Si O2"
_cell_formula_units_Z 16
_cell_length_a 23.958787
_cell_length_b 9.299947
_cell_length_c 9.269617
_cell_angle_alpha 30.024214
_cell_angle_beta 137.456276
_cell_angle_gamma 138.832296
_cell_volume 657.255491
_symmetry_space_group_name_H-M "P -1"
_symmetry_group_IT_number 2
_symmetry_cell_setting 'triclinic'
loop_
_space_group_symop_operation_xyz
x,y,z
-x,-y,-z
loop_
_atom_site_type_symbol
_atom_site_label
_atom_site_fract_x
_atom_site_fract_y
_atom_site_fract_z
Si Si1 0.081702 0.653967 0.416211
Si Si2 0.860032 0.626564 0.775033
Si Si3 0.723704 0.754128 0.212206
Si Si4 0.651505 0.522436 0.975274
Si Si5 0.972290 0.206073 0.384302
Si Si6 0.807769 0.659569 0.955698
Si Si7 0.621897 0.164045 0.673053
Si Si8 0.547338 0.915813 0.448420
O O1 0.000000 0.500000 0.500000
O O2 0.053774 0.492488 0.347298
O O3 0.114871 0.019164 0.143544
O O4 0.166688 0.596392 0.688278
O O5 0.813286 0.705272 0.474969
O O6 0.798356 0.567644 0.849028
O O7 0.934279 0.961645 0.654160
O O8 0.900190 0.355637 0.057277
O O9 0.645176 0.508122 0.363764
O O10 0.714580 0.708414 0.063046
O O11 0.710937 0.078943 0.949684
O O12 0.710328 0.613286 0.864934
O O13 0.565119 0.610269 0.701576
O O14 0.612032 0.169191 0.248206
O O15 0.000000 0.000000 0.500000
O O16 0.555484 0.113086 0.728197
O O17 0.573585 0.943795 0.642627
#
# Coordination Sequence:
#
# PCOD8009160 Si02
#       8
#     2   2   2   2   2   2   2   2
#     4  12  23  45  68  89 120 164 219 256 305 384
#     4  12  24  44  64  90 129 165 205 256 320 380
#     4  10  21  36  58  90 125 158 204 254 312 369
#     4  10  21  36  57  92 122 158 206 256 308 359
#     4  12  27  45  65  95 121 163 210 268 317 367
#     4  12  24  41  68  90 123 169 208 259 310 374
#     4   9  17  33  58  88 119 164 202 249 309 360
#     4   9  17  33  58  87 123 156 207 256 296 362
#
# _framework density 24.343654000000001
#
# number of rings (size 3 to 8) (size 9 to 14) (size 15 to 20)
#    0.000    1.250    2.500    3.750    1.750    3.000 
#    0.000    0.000    0.000    4.500    0.000    0.000 
#    0.000    0.000    0.000    0.000    0.000    0.000 
#
# Total GULP energy -198248.389435 kJ/mol
# GULP energy per Si atom -12390.524340 kJ/mol
# Density = 2.428825 g / cm^3
# Si number density = 24.343654 Si / 1000 Ang^3
#
#
#
# Elastic Constant Matrix: (Units=GPa)
#
#
# Indices 1 2 3 4 5 6 
#
# 1 108.8064 12.2341 49.3130 -4.0890 8.1742 11.9322
# 2 12.2341 26.2266 3.6920 -3.5588 1.3010 -15.0518
# 3 49.3130 3.6920 126.4238 -5.9788 21.7077 -11.7530
# 4 -4.0890 -3.5588 -5.9788 30.7137 7.3902 -0.2321
# 5 8.1742 1.3010 21.7077 7.3902 40.9018 -3.7548
# 6 11.9322 -15.0518 -11.7530 -0.2321 -3.7548 22.0964
#
#
#
# Elastic Compliance Matrix: (Units=1/GPa)
#
#
# Indices 1 2 3 4 5 6 
#
# 1 0.022574 -0.032740 -0.011732 -0.003285 -0.000399 -0.040834
# 2 -0.032740 0.112839 0.019970 0.013500 -0.000423 0.105236
# 3 -0.011732 0.019970 0.015549 0.005180 -0.004962 0.027420
# 4 -0.003285 0.013500 0.005180 0.036712 -0.007984 0.012754
# 5 -0.000399 -0.000423 -0.004962 -0.007984 0.028810 0.002100
# 6 -0.040834 0.105236 0.027420 0.012754 0.002100 0.154068
#
#
# Mechanical properties :
#
#
# Convention : Reuss Voigt Hill
#
# Bulk Modulus (GPa) = 9.80799 43.54833 26.67816
# Shear Modulus (GPa) = 11.02434 31.82356 21.42395
#
# Velocity S-wave (km/s) = 2.13037 3.61953 2.96980
# Velocity P-wave (km/s) = 3.17632 5.94944 4.76890
#
# Compressibility (1/GPa) = 0.10195772
#
# Stress axis : x y z
#
# Youngs Moduli (GPa) = 44.29960 8.86215 64.31312
#
# Poissons Ratio (x) = 0.29014 0.75452
# Poissons Ratio (y) = 1.45035 -1.28430
# Poissons Ratio (z) = 0.51972 -0.17697
#
# Static dielectric constant tensor:
#      x y z
#    x 4.552060 0.304240 0.158260 
#    y 0.304240 4.257850 -0.142530 
#    z 0.158260 -0.142530 4.569180 
# 
# 
# High freq. dielectric constant tensor:
#      x y z
#    x 1.964190 0.013110 0.008200 
#    y 0.013110 1.937110 -0.018410 
#    z 0.008200 -0.018410 1.981760 
# 
# From -- ./inp_files/351979.got.cif
#   From: 2010.06.25/outbox.cif.g09.slc.cpg/sg2_176_cif.got.tgz:351979.got - 2010.06.27 13:26:56.
