data_PCOD8009442
_publ_section_title
;
Structure prediction by ZEFSAII (Michael W. Deem and Ramdas Pophale) SiO2 
 PCOD8009442
Probable space group: P -1
;
_chemical_formula_sum "Si O2"
_cell_formula_units_Z 16
_cell_length_a 6.641445
_cell_length_b 17.062052
_cell_length_c 7.913927
_cell_angle_alpha 53.936206
_cell_angle_beta 75.427121
_cell_angle_gamma 91.458603
_cell_volume 684.115750
_symmetry_space_group_name_H-M "P -1"
_symmetry_group_IT_number 2
_symmetry_cell_setting 'triclinic'
loop_
_space_group_symop_operation_xyz
x,y,z
-x,-y,-z
loop_
_atom_site_type_symbol
_atom_site_label
_atom_site_fract_x
_atom_site_fract_y
_atom_site_fract_z
Si Si1 0.857762 0.840672 0.645493
Si Si2 0.237727 0.361472 0.239382
Si Si3 0.919613 0.888529 0.948294
Si Si4 0.768371 0.430974 0.610079
Si Si5 0.636531 0.984035 0.333966
Si Si6 0.257876 0.928691 0.248824
Si Si7 0.430978 0.521685 0.753524
Si Si8 0.085151 0.747097 0.299314
O O1 0.768433 0.724374 0.787973
O O2 0.813470 0.867649 0.812515
O O3 0.731442 0.888503 0.471579
O O4 0.108251 0.882923 0.497535
O O5 0.441877 0.380383 0.298281
O O6 0.023489 0.331729 0.434187
O O7 0.252951 0.459938 0.997074
O O8 0.823019 0.977246 0.936769
O O9 0.175809 0.918938 0.846116
O O10 0.892991 0.787651 0.193693
O O11 0.602735 0.455209 0.751521
O O12 0.685038 0.446223 0.422187
O O13 0.788737 0.315299 0.769525
O O14 0.000000 0.500000 0.500000
O O15 0.499822 0.967264 0.211196
O O16 0.500000 0.000000 0.500000
O O17 0.249448 0.841612 0.224598
#
# Coordination Sequence:
#
# PCOD8009442 Si02
#       8
#     2   2   2   2   2   2   2   2
#     4  10  21  36  64  91 128 167 218 262 317 385
#     4  10  23  45  66  97 126 175 212 268 325 383
#     4  11  22  39  61  95 132 170 212 268 321 376
#     4  11  24  46  69  98 130 166 211 273 331 386
#     4  11  19  37  63  90 126 173 218 262 318 377
#     4  10  21  42  61  90 131 172 213 268 315 376
#     4  10  24  47  70  92 135 165 213 274 330 378
#     4  11  25  42  67  97 133 173 219 261 327 391
#
# _framework density 23.387854000000001
#
# number of rings (size 3 to 8) (size 9 to 14) (size 15 to 20)
#    0.000    1.500    3.750    1.125    3.500    2.000 
#    2.250    0.000    0.000    0.000    0.000    0.000 
#    0.000    0.000    0.000    0.000    0.000    0.000 
#
# Total GULP energy -198348.417845 kJ/mol
# GULP energy per Si atom -12396.776115 kJ/mol
# Density = 2.333462 g / cm^3
# Si number density = 23.387854 Si / 1000 Ang^3
#
#
#
# Elastic Constant Matrix: (Units=GPa)
#
#
# Indices 1 2 3 4 5 6 
#
# 1 104.4601 41.1797 24.9818 -8.1220 10.6482 14.5599
# 2 41.1797 125.7970 19.4009 -21.9744 4.6934 6.6003
# 3 24.9818 19.4009 72.8268 -6.1046 7.5237 1.5030
# 4 -8.1220 -21.9744 -6.1046 30.4685 2.8795 4.4911
# 5 10.6482 4.6934 7.5237 2.8795 33.8298 5.9146
# 6 14.5599 6.6003 1.5030 4.4911 5.9146 36.4700
#
#
#
# Elastic Compliance Matrix: (Units=1/GPa)
#
#
# Indices 1 2 3 4 5 6 
#
# 1 0.012397 -0.003072 -0.003014 0.001294 -0.002204 -0.004071
# 2 -0.003072 0.010382 -0.001063 0.006708 -0.000574 -0.001342
# 3 -0.003014 -0.001063 0.015438 0.001628 -0.002649 0.000989
# 4 0.001294 0.006708 0.001628 0.039597 -0.004017 -0.006022
# 5 -0.002204 -0.000574 -0.002649 -0.004017 0.031891 -0.003584
# 6 -0.004071 -0.001342 0.000989 -0.006022 -0.003584 0.030570
#
#
# Mechanical properties :
#
#
# Convention : Reuss Voigt Hill
#
# Bulk Modulus (GPa) = 41.80552 52.68986 47.24769
# Shear Modulus (GPa) = 30.76034 34.65509 32.70772
#
# Velocity S-wave (km/s) = 3.63054 3.85353 3.74370
# Velocity P-wave (km/s) = 5.95719 6.50978 6.23961
#
# Compressibility (1/GPa) = 0.02392028
#
# Stress axis : x y z
#
# Youngs Moduli (GPa) = 80.66143 96.31754 64.77523
#
# Poissons Ratio (x) = 0.29585 0.19525
# Poissons Ratio (y) = 0.24776 0.06885
# Poissons Ratio (z) = 0.24313 0.10238
#
# Static dielectric constant tensor:
#      x y z
#    x 5.881370 -0.281270 0.336660 
#    y -0.281270 4.425800 -0.060460 
#    z 0.336660 -0.060460 4.330290 
# 
# 
# High freq. dielectric constant tensor:
#      x y z
#    x 1.914210 0.012670 -0.001060 
#    y 0.012670 1.934260 0.006780 
#    z -0.001060 0.006780 1.924840 
# 
# From -- ./inp_files/138530.got.cif
#   From: 2010.06.25/outbox.cif.g09.slc.cpg/sg2_70_cif.got.tgz:138530.got - 2010.06.27 13:26:56.
