data_PCOD8009990
_publ_section_title
;
Structure prediction by ZEFSAII (Michael W. Deem and Ramdas Pophale) SiO2 
 PCOD8009990
Probable space group: P -1
;
_chemical_formula_sum "Si O2"
_cell_formula_units_Z 16
_cell_length_a 17.867530
_cell_length_b 11.895566
_cell_length_c 12.374237
_cell_angle_alpha 36.025860
_cell_angle_beta 46.051440
_cell_angle_gamma 29.453152
_cell_volume 760.144094
_symmetry_space_group_name_H-M "P -1"
_symmetry_group_IT_number 2
_symmetry_cell_setting 'triclinic'
loop_
_space_group_symop_operation_xyz
x,y,z
-x,-y,-z
loop_
_atom_site_type_symbol
_atom_site_label
_atom_site_fract_x
_atom_site_fract_y
_atom_site_fract_z
Si Si1 0.581733 0.112105 0.255593
Si Si2 0.637543 0.163481 0.401733
Si Si3 0.959663 0.294495 0.933737
Si Si4 0.448014 0.789271 0.143952
Si Si5 0.271241 0.444358 0.381529
Si Si6 0.630819 0.901648 0.801442
Si Si7 0.044227 0.146418 0.730069
Si Si8 0.755045 0.091878 0.917211
O O1 0.586645 0.195349 0.305819
O O2 0.404799 0.288447 0.278151
O O3 0.685269 0.781046 0.401922
O O4 0.632703 0.200371 0.048715
O O5 0.560302 0.459628 0.291089
O O6 0.587435 0.056569 0.611107
O O7 0.820681 0.931396 0.408776
O O8 0.808843 0.616825 0.853721
O O9 0.044958 0.227960 0.787789
O O10 0.918814 0.126741 0.099756
O O11 0.075185 0.191937 0.994863
O O12 0.290154 0.954289 0.111525
O O13 0.408275 0.897775 0.220766
O O14 0.528725 0.851195 0.950457
O O15 0.249100 0.675940 0.283584
O O16 0.118386 0.583686 0.367083
#
# Coordination Sequence:
#
# PCOD8009990 Si02
#       8
#     2   2   2   2   2   2   2   2
#     4  11  23  35  61  98 127 162 201 249 322 373
#     4  12  23  41  67  92 127 163 205 262 311 369
#     4  10  21  39  63  95 126 165 199 255 316 370
#     4  11  26  45  63  90 121 172 216 254 304 359
#     4  10  23  36  55  93 134 160 197 245 309 381
#     4  11  26  44  66  88 123 166 221 258 293 371
#     4  10  21  37  63  96 130 160 197 255 322 373
#     4  11  23  39  64  88 132 161 202 256 314 371
#
# _framework density 21.048641
#
# number of rings (size 3 to 8) (size 9 to 14) (size 15 to 20)
#    0.000    1.250    3.750    1.500    7.000    1.500 
#    0.000    0.000    0.000    1.500    0.000    0.000 
#    0.000    0.000    0.000    0.000    0.000    0.000 
#
# Total GULP energy -198431.197678 kJ/mol
# GULP energy per Si atom -12401.949855 kJ/mol
# Density = 2.100073 g / cm^3
# Si number density = 21.048641 Si / 1000 Ang^3
#
#
#
# Elastic Constant Matrix: (Units=GPa)
#
#
# Indices 1 2 3 4 5 6 
#
# 1 88.7100 31.1828 22.1068 -13.2408 0.4386 -11.9693
# 2 31.1828 86.0585 31.4240 -11.8389 -3.2740 -6.2687
# 3 22.1068 31.4240 70.5266 -5.2056 -7.4930 2.2551
# 4 -13.2408 -11.8389 -5.2056 29.9289 -0.2833 0.8914
# 5 0.4386 -3.2740 -7.4930 -0.2833 22.4113 -7.2077
# 6 -11.9693 -6.2687 2.2551 0.8914 -7.2077 26.7703
#
#
#
# Elastic Compliance Matrix: (Units=1/GPa)
#
#
# Indices 1 2 3 4 5 6 
#
# 1 0.014601 -0.003124 -0.003018 0.004524 0.000223 0.005961
# 2 -0.003124 0.015597 -0.005635 0.003732 0.001468 0.003001
# 3 -0.003018 -0.005635 0.018173 -0.000272 0.004336 -0.003023
# 4 0.004524 0.003732 -0.000272 0.036795 0.001506 0.002100
# 5 0.000223 0.001468 0.004336 0.001506 0.050698 0.013678
# 6 0.005961 0.003001 -0.003023 0.002100 0.013678 0.044590
#
#
# Mechanical properties :
#
#
# Convention : Reuss Voigt Hill
#
# Bulk Modulus (GPa) = 40.29289 46.08027 43.18658
# Shear Modulus (GPa) = 23.55370 26.52751 25.04061
#
# Velocity S-wave (km/s) = 3.34879 3.55392 3.45288
# Velocity P-wave (km/s) = 5.84268 6.22738 6.03809
#
# Compressibility (1/GPa) = 0.02481828
#
# Stress axis : x y z
#
# Youngs Moduli (GPa) = 68.48798 64.11339 55.02653
#
# Poissons Ratio (x) = 0.20027 0.16607
# Poissons Ratio (y) = 0.21393 0.31007
# Poissons Ratio (z) = 0.20670 0.36128
#
# Static dielectric constant tensor:
#      x y z
#    x 3.812800 -0.190920 -0.162150 
#    y -0.190920 3.708510 -0.119490 
#    z -0.162150 -0.119490 3.808970 
# 
# 
# High freq. dielectric constant tensor:
#      x y z
#    x 1.827580 -0.019130 -0.015360 
#    y -0.019130 1.811840 -0.018850 
#    z -0.015360 -0.018850 1.827900 
# 
# From -- ./inp_files/427709.got.cif
#   From: 2010.06.25/outbox.cif.g09.slc.cpg/sg2_214_cif.got.tgz:427709.got - 2010.06.27 13:26:56.
