data_PCOD8009099
_publ_section_title
;
Structure prediction by ZEFSAII (Michael W. Deem and Ramdas Pophale) SiO2 
 PCOD8009099
Probable space group: P -1
;
_chemical_formula_sum "Si O2"
_cell_formula_units_Z 16
_cell_length_a 14.374440
_cell_length_b 16.300951
_cell_length_c 5.113958
_cell_angle_alpha 121.283596
_cell_angle_beta 69.121107
_cell_angle_gamma 123.904964
_cell_volume 846.167329
_symmetry_space_group_name_H-M "P -1"
_symmetry_group_IT_number 2
_symmetry_cell_setting 'triclinic'
loop_
_space_group_symop_operation_xyz
x,y,z
-x,-y,-z
loop_
_atom_site_type_symbol
_atom_site_label
_atom_site_fract_x
_atom_site_fract_y
_atom_site_fract_z
Si Si1 0.870814 0.442213 0.614227
Si Si2 0.894723 0.042863 0.922106
Si Si3 0.719588 0.516978 0.549568
Si Si4 0.852587 0.909013 0.236590
Si Si5 0.356680 0.320539 0.896990
Si Si6 0.493004 0.384717 0.354761
Si Si7 0.919217 0.619647 0.205845
Si Si8 0.935410 0.274639 0.263846
O O1 0.792309 0.475255 0.575854
O O2 0.839143 0.315039 0.400605
O O3 0.000000 0.500000 0.500000
O O4 0.879210 0.490284 0.979794
O O5 0.028284 0.090591 0.893796
O O6 0.845515 0.977984 0.599503
O O7 0.869654 0.145004 0.122628
O O8 0.831188 0.962671 0.089953
O O9 0.621650 0.410267 0.327761
O O10 0.800389 0.610511 0.414688
O O11 0.662622 0.573202 0.880946
O O12 0.761903 0.785333 0.142765
O O13 0.411176 0.320019 0.565676
O O14 0.441124 0.316922 0.029590
O O15 0.500000 0.500000 0.500000
O O16 0.010600 0.676204 0.429791
O O17 0.967935 0.685477 0.994852
#
# Coordination Sequence:
#
# PCOD8009099 Si02
#       8
#     2   2   2   2   2   2   2   2
#     4  10  22  35  51  84 114 151 182 215 265 344
#     4  10  21  37  53  82 106 142 178 233 264 330
#     4  11  22  35  57  80 118 148 181 224 266 326
#     4  10  21  36  56  78 108 137 190 221 276 322
#     4  11  23  38  57  82 110 153 181 227 277 321
#     4  10  23  37  54  82 113 145 192 224 265 326
#     4  11  21  33  51  79 114 152 178 212 261 333
#     4  11  22  35  53  77 117 148 182 216 271 326
#
# _framework density 18.908788999999999
#
# number of rings (size 3 to 8) (size 9 to 14) (size 15 to 20)
#    0.000    1.500    2.500    4.125    7.000    2.000 
#    0.000    0.000    0.000    0.000    0.000    5.250 
#    0.000    0.000    0.000    0.000    0.000    0.000 
#
# Total GULP energy -198213.676766 kJ/mol
# GULP energy per Si atom -12388.354798 kJ/mol
# Density = 1.886575 g / cm^3
# Si number density = 18.908789 Si / 1000 Ang^3
#
#
#
# Elastic Constant Matrix: (Units=GPa)
#
#
# Indices 1 2 3 4 5 6 
#
# 1 92.1190 23.1769 25.3624 5.5319 3.7683 2.6839
# 2 23.1769 75.7798 22.3359 -0.0693 6.4402 -6.2285
# 3 25.3624 22.3359 67.4892 -3.1884 13.2642 -13.2968
# 4 5.5319 -0.0693 -3.1884 34.0727 -9.8830 1.4163
# 5 3.7683 6.4402 13.2642 -9.8830 22.0651 5.0555
# 6 2.6839 -6.2285 -13.2968 1.4163 5.0555 25.5631
#
#
#
# Elastic Compliance Matrix: (Units=1/GPa)
#
#
# Indices 1 2 3 4 5 6 
#
# 1 0.013350 -0.003082 -0.005649 -0.001753 0.002488 -0.005486
# 2 -0.003082 0.015505 -0.002606 -0.000917 -0.003649 0.003518
# 3 -0.005649 -0.002606 0.024413 -0.002672 -0.017891 0.016343
# 4 -0.001753 -0.000917 -0.002672 0.035398 0.019697 -0.007286
# 5 0.002488 -0.003649 -0.017891 0.019697 0.071420 -0.025672
# 6 -0.005486 0.003518 0.016343 -0.007286 -0.025672 0.054534
#
#
# Mechanical properties :
#
#
# Convention : Reuss Voigt Hill
#
# Bulk Modulus (GPa) = 32.68750 41.90427 37.29589
# Shear Modulus (GPa) = 20.20265 27.30769 23.75517
#
# Velocity S-wave (km/s) = 3.27223 3.80436 3.54828
# Velocity P-wave (km/s) = 5.62148 6.44259 6.04599
#
# Compressibility (1/GPa) = 0.03059273
#
# Stress axis : x y z
#
# Youngs Moduli (GPa) = 74.90865 64.49392 40.96198
#
# Poissons Ratio (x) = 0.19875 0.23141
# Poissons Ratio (y) = 0.23084 0.10677
# Poissons Ratio (z) = 0.42319 0.16810
#
# Static dielectric constant tensor:
#      x y z
#    x 4.099660 -0.138620 -0.390590 
#    y -0.138620 3.561910 0.002660 
#    z -0.390590 0.002660 3.911210 
# 
# 
# High freq. dielectric constant tensor:
#      x y z
#    x 1.716390 -0.005190 0.023030 
#    y -0.005190 1.712120 -0.013010 
#    z 0.023030 -0.013010 1.743360 
# 
# From -- ./inp_files/99468.got.cif
#   From: 2010.06.25/outbox.cif.g09.slc.cpg/sg2_50_cif.got.tgz:99468.got - 2010.06.27 13:26:56.
