data_PCOD8009067
_publ_section_title
;
Structure prediction by ZEFSAII (Michael W. Deem and Ramdas Pophale) SiO2 
 PCOD8009067
Probable space group: P -1
;
_chemical_formula_sum "Si O2"
_cell_formula_units_Z 16
_cell_length_a 19.160816
_cell_length_b 12.937526
_cell_length_c 9.136184
_cell_angle_alpha 105.064780
_cell_angle_beta 132.394859
_cell_angle_gamma 37.503001
_cell_volume 805.640667
_symmetry_space_group_name_H-M "P -1"
_symmetry_group_IT_number 2
_symmetry_cell_setting 'triclinic'
loop_
_space_group_symop_operation_xyz
x,y,z
-x,-y,-z
loop_
_atom_site_type_symbol
_atom_site_label
_atom_site_fract_x
_atom_site_fract_y
_atom_site_fract_z
Si Si1 0.297138 0.245951 0.838831
Si Si2 0.751319 0.078293 0.889654
Si Si3 0.708381 0.330254 0.768500
Si Si4 0.992568 0.542690 0.272895
Si Si5 0.698509 0.483680 0.556974
Si Si6 0.832345 0.401284 0.153558
Si Si7 0.008882 0.670706 0.935539
Si Si8 0.965389 0.254901 0.606156
O O1 0.160830 0.352219 0.552000
O O2 0.311014 0.361156 0.922440
O O3 0.212796 0.271802 0.873260
O O4 0.500000 0.000000 0.000000
O O5 0.814658 0.121381 0.902886
O O6 0.527313 0.288110 0.674135
O O7 0.828423 0.900819 0.844357
O O8 0.852459 0.985659 0.157860
O O9 0.500000 0.500000 0.500000
O O10 0.785631 0.300897 0.712444
O O11 0.712584 0.418406 0.931269
O O12 0.015042 0.434173 0.134486
O O13 0.008004 0.647178 0.272664
O O14 0.774046 0.397451 0.466119
O O15 0.792207 0.497912 0.764724
O O16 0.984207 0.293710 0.209765
O O17 0.950753 0.251439 0.410915
#
# Coordination Sequence:
#
# PCOD8009067 Si02
#       8
#     2   2   2   2   2   2   2   2
#     4   9  18  33  55  79 111 149 181 216 265 326
#     4  10  21  37  57  79 106 148 187 220 274 328
#     4   9  19  38  58  78 106 141 188 231 264 319
#     4   9  19  34  50  81 115 142 179 224 268 315
#     4   9  20  37  54  78 110 141 182 229 268 317
#     4   9  19  36  56  83 112 139 178 230 273 314
#     4   9  19  36  58  78 108 147 186 221 259 321
#     4  10  21  36  54  80 117 143 172 228 280 324
#
# _framework density 19.859971000000002
#
# number of rings (size 3 to 8) (size 9 to 14) (size 15 to 20)
#    0.000    2.750    0.000    0.750    0.000   13.000 
#    0.000    7.500    0.000    0.000    0.000    0.000 
#    0.000    0.000    0.000    0.000    0.000    0.000 
#
# Total GULP energy -198265.709243 kJ/mol
# GULP energy per Si atom -12391.606828 kJ/mol
# Density = 1.981477 g / cm^3
# Si number density = 19.859971 Si / 1000 Ang^3
#
#
#
# Elastic Constant Matrix: (Units=GPa)
#
#
# Indices 1 2 3 4 5 6 
#
# 1 87.2099 25.1862 43.2799 -5.9777 -8.1608 -1.7342
# 2 25.1862 54.4308 40.4126 -8.1373 10.4674 -1.7013
# 3 43.2799 40.4126 101.0186 -9.0073 -1.2652 -6.2474
# 4 -5.9777 -8.1373 -9.0073 38.2317 -1.1906 7.8144
# 5 -8.1608 10.4674 -1.2652 -1.1906 37.2271 2.9690
# 6 -1.7342 -1.7013 -6.2474 7.8144 2.9690 33.8649
#
#
#
# Elastic Compliance Matrix: (Units=1/GPa)
#
#
# Indices 1 2 3 4 5 6 
#
# 1 0.015614 -0.004432 -0.004853 0.000677 0.004596 -0.000878
# 2 -0.004432 0.030202 -0.010051 0.003157 -0.009669 -0.000445
# 3 -0.004853 -0.010051 0.016198 0.000596 0.002180 0.001906
# 4 0.000677 0.003157 0.000596 0.028385 0.000692 -0.006307
# 5 0.004596 -0.009669 0.002180 0.000692 0.030901 -0.002717
# 6 -0.000878 -0.000445 0.001906 -0.006307 -0.002717 0.031507
#
#
# Mechanical properties :
#
#
# Convention : Reuss Voigt Hill
#
# Bulk Modulus (GPa) = 42.83982 51.15742 46.99862
# Shear Modulus (GPa) = 25.09288 30.78344 27.93816
#
# Velocity S-wave (km/s) = 3.55842 3.94131 3.75475
# Velocity P-wave (km/s) = 6.20491 6.82106 6.52027
#
# Compressibility (1/GPa) = 0.02334277
#
# Stress axis : x y z
#
# Youngs Moduli (GPa) = 64.04560 33.10988 61.73758
#
# Poissons Ratio (x) = 0.14673 0.29961
# Poissons Ratio (y) = 0.28383 0.62052
# Poissons Ratio (z) = 0.31081 0.33279
#
# Static dielectric constant tensor:
#      x y z
#    x 4.102490 0.254630 -0.086080 
#    y 0.254630 3.523150 0.163390 
#    z -0.086080 0.163390 3.545320 
# 
# 
# High freq. dielectric constant tensor:
#      x y z
#    x 1.786910 0.008290 -0.007260 
#    y 0.008290 1.753090 0.010480 
#    z -0.007260 0.010480 1.768340 
# 
# From -- ./inp_files/333419.got.cif
#   From: 2010.06.25/outbox.cif.g09.slc.cpg/sg2_167_cif.got.tgz:333419.got - 2010.06.27 13:26:56.
