data_PCOD8009083
_publ_section_title
;
Structure prediction by ZEFSAII (Michael W. Deem and Ramdas Pophale) SiO2 
 PCOD8009083
Probable space group: P -1
;
_chemical_formula_sum "Si O2"
_cell_formula_units_Z 16
_cell_length_a 8.721316
_cell_length_b 19.413895
_cell_length_c 14.434796
_cell_angle_alpha 21.240452
_cell_angle_beta 119.263845
_cell_angle_gamma 121.241111
_cell_volume 756.917611
_symmetry_space_group_name_H-M "P -1"
_symmetry_group_IT_number 2
_symmetry_cell_setting 'triclinic'
loop_
_space_group_symop_operation_xyz
x,y,z
-x,-y,-z
loop_
_atom_site_type_symbol
_atom_site_label
_atom_site_fract_x
_atom_site_fract_y
_atom_site_fract_z
Si Si1 0.749254 0.826116 0.903660
Si Si2 0.802088 0.058232 0.257963
Si Si3 0.358951 0.203321 0.305394
Si Si4 0.260393 0.361381 0.543233
Si Si5 0.959539 0.566993 0.215922
Si Si6 0.514052 0.752943 0.098735
Si Si7 0.252558 0.596478 0.804323
Si Si8 0.033928 0.192230 0.515989
O O1 0.679572 0.822383 0.782245
O O2 0.584743 0.797967 0.959649
O O3 0.882491 0.021801 0.725869
O O4 0.862514 0.652857 0.164694
O O5 0.749687 0.989548 0.433688
O O6 0.862200 0.877806 0.451316
O O7 0.959566 0.250714 0.059268
O O8 0.627115 0.110745 0.090408
O O9 0.574215 0.229667 0.349540
O O10 0.300975 0.389843 0.103172
O O11 0.114735 0.460331 0.430765
O O12 0.426205 0.526283 0.354650
O O13 0.328754 0.212227 0.820798
O O14 0.178826 0.255786 0.559084
O O15 0.810915 0.413339 0.309376
O O16 0.079338 0.641257 0.754524
#
# Coordination Sequence:
#
# PCOD8009083 Si02
#       8
#     2   2   2   2   2   2   2   2
#     4  10  21  36  56  81 110 144 180 217 267 321
#     4  10  21  36  55  80 112 145 179 217 264 320
#     4  10  21  37  55  79 112 146 178 219 263 315
#     4   9  20  39  59  79 107 139 178 228 273 314
#     4   8  18  37  56  80 110 139 178 222 266 322
#     4  10  21  38  58  79 106 144 182 220 269 322
#     4   9  19  35  54  77 108 142 181 218 261 315
#     4  10  21  36  55  81 109 140 180 223 267 319
#
# _framework density 21.138363999999999
#
# number of rings (size 3 to 8) (size 9 to 14) (size 15 to 20)
#    0.000    2.500    0.000    0.750    0.000   11.500 
#    0.000    3.750    0.000    0.000    0.000    0.000 
#    0.000    0.000    0.000    0.000    0.000    0.000 
#
# Total GULP energy -198270.513881 kJ/mol
# GULP energy per Si atom -12391.907118 kJ/mol
# Density = 2.109025 g / cm^3
# Si number density = 21.138364 Si / 1000 Ang^3
#
#
#
# Elastic Constant Matrix: (Units=GPa)
#
#
# Indices 1 2 3 4 5 6 
#
# 1 104.7010 38.5383 31.2693 12.1264 11.1319 2.6811
# 2 38.5383 93.7348 20.8382 3.7299 -4.1197 15.2933
# 3 31.2693 20.8382 50.7287 10.3353 7.3247 -2.2961
# 4 12.1264 3.7299 10.3353 25.2145 3.8101 1.4422
# 5 11.1319 -4.1197 7.3247 3.8101 28.1254 1.1797
# 6 2.6811 15.2933 -2.2961 1.4422 1.1797 26.1425
#
#
#
# Elastic Compliance Matrix: (Units=1/GPa)
#
#
# Indices 1 2 3 4 5 6 
#
# 1 0.013623 -0.004743 -0.005112 -0.003167 -0.004381 0.001301
# 2 -0.004743 0.015428 -0.004997 0.001735 0.005595 -0.009326
# 3 -0.005112 -0.004997 0.027514 -0.007681 -0.005107 0.006518
# 4 -0.003167 0.001735 -0.007681 0.044648 -0.002384 -0.003721
# 5 -0.004381 0.005595 -0.005107 -0.002384 0.039969 -0.004944
# 6 0.001301 -0.009326 0.006518 -0.003721 -0.004944 0.044575
#
#
# Mechanical properties :
#
#
# Convention : Reuss Voigt Hill
#
# Bulk Modulus (GPa) = 37.23052 47.82845 42.52948
# Shear Modulus (GPa) = 22.28023 26.46441 24.37232
#
# Velocity S-wave (km/s) = 3.25009 3.54214 3.39925
# Velocity P-wave (km/s) = 5.63339 6.27730 5.96404
#
# Compressibility (1/GPa) = 0.02685969
#
# Stress axis : x y z
#
# Youngs Moduli (GPa) = 73.40574 64.81776 36.34531
#
# Poissons Ratio (x) = 0.30745 0.18580
# Poissons Ratio (y) = 0.34818 0.18162
# Poissons Ratio (z) = 0.37526 0.32390
#
# Static dielectric constant tensor:
#      x y z
#    x 4.060790 0.244100 0.423550 
#    y 0.244100 3.616740 -0.124800 
#    z 0.423550 -0.124800 3.802230 
# 
# 
# High freq. dielectric constant tensor:
#      x y z
#    x 1.836870 0.021320 0.030180 
#    y 0.021320 1.813670 -0.011390 
#    z 0.030180 -0.011390 1.813030 
# 
# From -- ./inp_files/203809.got.cif
#   From: 2010.06.25/outbox.cif.g09.slc.cpg/sg2_102_cif.got.tgz:203809.got - 2010.06.27 13:26:56.
