data_PCOD8009356
_publ_section_title
;
Structure prediction by ZEFSAII (Michael W. Deem and Ramdas Pophale) SiO2 
 PCOD8009356
Probable space group: P -1
;
_chemical_formula_sum "Si O2"
_cell_formula_units_Z 16
_cell_length_a 10.380443
_cell_length_b 8.838627
_cell_length_c 13.926020
_cell_angle_alpha 114.088235
_cell_angle_beta 51.228119
_cell_angle_gamma 88.638801
_cell_volume 836.436428
_symmetry_space_group_name_H-M "P -1"
_symmetry_group_IT_number 2
_symmetry_cell_setting 'triclinic'
loop_
_space_group_symop_operation_xyz
x,y,z
-x,-y,-z
loop_
_atom_site_type_symbol
_atom_site_label
_atom_site_fract_x
_atom_site_fract_y
_atom_site_fract_z
Si Si1 0.288124 0.800614 0.463685
Si Si2 0.669314 0.034548 0.035682
Si Si3 0.505250 0.760639 0.020447
Si Si4 0.370619 0.374485 0.615284
Si Si5 0.098479 0.197783 0.672649
Si Si6 0.257068 0.646360 0.237726
Si Si7 0.943341 0.042467 0.221254
Si Si8 0.363171 0.754427 0.711097
O O1 0.492574 0.712943 0.383212
O O2 0.255144 0.691391 0.362476
O O3 0.150910 0.799507 0.613542
O O4 0.241789 0.010128 0.511793
O O5 0.883814 0.945377 0.904241
O O6 0.596616 0.130093 0.994879
O O7 0.609613 0.872563 0.048691
O O8 0.591890 0.187318 0.191786
O O9 0.360423 0.750818 0.160877
O O10 0.646625 0.566032 0.874675
O O11 0.197063 0.326557 0.691543
O O12 0.300495 0.589484 0.710391
O O13 0.460618 0.304763 0.452184
O O14 0.944793 0.293041 0.691077
O O15 0.013287 0.151507 0.798030
O O16 0.798217 0.073369 0.212955
#
# Coordination Sequence:
#
# PCOD8009356 Si02
#       8
#     2   2   2   2   2   2   2   2
#     4   9  20  37  64  80 120 148 189 238 288 332
#     4  11  21  41  57  84 115 159 186 231 295 340
#     4  10  24  37  61  80 120 148 196 237 279 348
#     4  10  21  39  59  93 112 148 194 242 280 340
#     4  10  21  36  62  82 122 144 191 241 281 334
#     4  11  21  41  59  89 111 153 194 242 282 334
#     4   9  21  37  57  85 116 147 190 237 275 349
#     4  10  22  37  62  82 121 149 190 234 289 344
#
# _framework density 19.128769999999999
#
# number of rings (size 3 to 8) (size 9 to 14) (size 15 to 20)
#    0.750    1.250    1.250    1.875    3.500    0.000 
#    2.250    1.250    0.000    0.000    0.000    0.000 
#    0.000    0.000    0.000    0.000    0.000    0.000 
#
# Total GULP energy -198361.496968 kJ/mol
# GULP energy per Si atom -12397.593560 kJ/mol
# Density = 1.908523 g / cm^3
# Si number density = 19.128770 Si / 1000 Ang^3
#
#
#
# Elastic Constant Matrix: (Units=GPa)
#
#
# Indices 1 2 3 4 5 6 
#
# 1 748.9645 299.6947 252.0680 -64.9931 47.9812 -145.2395
# 2 299.6947 185.3537 115.1591 -23.1584 20.3228 -45.8757
# 3 252.0680 115.1591 135.5665 -19.1405 26.4506 -42.4685
# 4 -64.9931 -23.1584 -19.1405 21.9015 -2.5906 14.9357
# 5 47.9812 20.3228 26.4506 -2.5906 29.5852 -9.3108
# 6 -145.2395 -45.8757 -42.4685 14.9357 -9.3108 70.0419
#
#
#
# Elastic Compliance Matrix: (Units=1/GPa)
#
#
# Indices 1 2 3 4 5 6 
#
# 1 0.007870 -0.006397 -0.006036 0.006476 -0.000182 0.007064
# 2 -0.006397 0.017094 -0.004410 -0.001753 0.001093 -0.004224
# 3 -0.006036 -0.004410 0.023091 -0.001963 -0.008670 -0.002139
# 4 0.006476 -0.001753 -0.001963 0.062796 -0.002890 -0.002685
# 5 -0.000182 0.001093 -0.008670 -0.002890 0.041214 0.001175
# 6 0.007064 -0.004224 -0.002139 -0.002685 0.001175 0.025591
#
#
# Mechanical properties :
#
#
# Convention : Reuss Voigt Hill
#
# Bulk Modulus (GPa) = 69.59906 267.08091 168.33999
# Shear Modulus (GPa) = 23.13377 51.16990 37.15183
#
# Velocity S-wave (km/s) = 3.48137 5.17767 4.41182
# Velocity P-wave (km/s) = 7.25420 13.25406 10.68395
#
# Compressibility (1/GPa) = 0.01436801
#
# Stress axis : x y z
#
# Youngs Moduli (GPa) = 127.06462 58.49915 43.30666
#
# Poissons Ratio (x) = 0.37422 0.26141
# Poissons Ratio (y) = 0.81283 0.19100
# Poissons Ratio (z) = 0.76700 0.25800
#
# Static dielectric constant tensor:
#      x y z
#    x 3.409740 -0.066410 -0.010490 
#    y -0.066410 3.519110 0.005080 
#    z -0.010490 0.005080 3.318350 
# 
# 
# High freq. dielectric constant tensor:
#      x y z
#    x 1.746810 -0.010830 -0.002130 
#    y -0.010830 1.741140 0.002740 
#    z -0.002130 0.002740 1.732610 
# 
# From -- ./inp_files/280794.got.cif
#   From: 2010.06.25/outbox.cif.g09.slc.cpg/sg2_141_cif.got.tgz:280794.got - 2010.06.27 13:26:56.
