data_PCOD8009246
_publ_section_title
;
Structure prediction by ZEFSAII (Michael W. Deem and Ramdas Pophale) SiO2 
 PCOD8009246
Probable space group: P -1
;
_chemical_formula_sum "Si O2"
_cell_formula_units_Z 14
_cell_length_a 19.574005
_cell_length_b 8.838945
_cell_length_c 9.175554
_cell_angle_alpha 98.216744
_cell_angle_beta 113.029305
_cell_angle_gamma 136.630524
_cell_volume 739.177268
_symmetry_space_group_name_H-M "P -1"
_symmetry_group_IT_number 2
_symmetry_cell_setting 'triclinic'
loop_
_space_group_symop_operation_xyz
x,y,z
-x,-y,-z
loop_
_atom_site_type_symbol
_atom_site_label
_atom_site_fract_x
_atom_site_fract_y
_atom_site_fract_z
Si Si1 0.906532 0.958184 0.826830
Si Si2 0.654002 0.455171 0.744341
Si Si3 0.851368 0.320941 0.102497
Si Si4 0.674174 0.136947 0.675396
Si Si5 0.035320 0.909409 0.433971
Si Si6 0.827902 0.969903 0.166757
Si Si7 0.945530 0.560123 0.798109
O O1 0.740948 0.666498 0.704063
O O2 0.901135 0.926913 0.645393
O O3 0.000000 0.000000 0.000000
O O4 0.983731 0.256513 0.964944
O O5 0.679557 0.319547 0.763765
O O6 0.486285 0.198466 0.547041
O O7 0.708695 0.641071 0.959244
O O8 0.890658 0.548212 0.248161
O O9 0.005083 0.528357 0.193638
O O10 0.784159 0.071404 0.119815
O O11 0.731830 0.132094 0.852075
O O12 0.772762 0.282921 0.631938
O O13 0.153602 0.026338 0.645149
O O14 0.000000 0.000000 0.500000
O O15 0.982119 0.212602 0.243090
#
# Coordination Sequence:
#
# PCOD8009246 Si02
#       7
#     2   2   2   2   2   2   2
#     4  11  19  37  60  87 115 144 203 234 280 338
#     4  10  22  36  59  89 115 153 192 244 281 336
#     4  10  21  36  59  90 115 147 199 234 291 333
#     4  11  19  35  62  87 117 147 196 244 285 328
#     4  12  22  34  61  86 118 151 189 241 286 339
#     4   9  22  37  54  87 117 150 191 230 290 341
#     4   9  19  33  61  85 110 146 192 246 271 334
#
# _framework density 18.939978
#
# number of rings (size 3 to 8) (size 9 to 14) (size 15 to 20)
#    0.857    0.857    2.857    3.429    0.000    0.571 
#    0.000    0.000    3.143    4.286    0.000    0.000 
#    0.000    0.000    0.000    0.000    0.000    0.000 
#
# Total GULP energy -173457.179336 kJ/mol
# GULP energy per Si atom -12389.798524 kJ/mol
# Density = 1.889687 g / cm^3
# Si number density = 18.939978 Si / 1000 Ang^3
#
#
#
# Elastic Constant Matrix: (Units=GPa)
#
#
# Indices 1 2 3 4 5 6 
#
# 1 70.7681 28.1314 36.5853 4.5794 4.2344 0.1850
# 2 28.1314 79.7936 56.2852 -3.3981 6.2186 1.8748
# 3 36.5853 56.2852 116.5030 -9.3010 3.8754 10.6981
# 4 4.5794 -3.3981 -9.3010 37.3203 4.3260 2.4482
# 5 4.2344 6.2186 3.8754 4.3260 35.8007 4.0589
# 6 0.1850 1.8748 10.6981 2.4482 4.0589 30.9557
#
#
#
# Elastic Compliance Matrix: (Units=1/GPa)
#
#
# Indices 1 2 3 4 5 6 
#
# 1 0.018075 -0.003316 -0.004529 -0.003684 -0.000860 0.002062
# 2 -0.003316 0.019997 -0.008719 0.000194 -0.002401 0.002122
# 3 -0.004529 -0.008719 0.014957 0.003753 0.000542 -0.004982
# 4 -0.003684 0.000194 0.003753 0.028769 -0.003123 -0.003153
# 5 -0.000860 -0.002401 0.000542 -0.003123 0.029180 -0.003616
# 6 0.002062 0.002122 -0.004982 -0.003153 -0.003616 0.034609
#
#
# Mechanical properties :
#
#
# Convention : Reuss Voigt Hill
#
# Bulk Modulus (GPa) = 50.24869 56.56316 53.40592
# Shear Modulus (GPa) = 26.97620 30.55286 28.76453
#
# Velocity S-wave (km/s) = 3.77808 4.02075 3.90130
# Velocity P-wave (km/s) = 6.75426 7.17527 6.96794
#
# Compressibility (1/GPa) = 0.01990102
#
# Stress axis : x y z
#
# Youngs Moduli (GPa) = 55.32648 50.00640 66.85741
#
# Poissons Ratio (x) = 0.16582 0.30278
# Poissons Ratio (y) = 0.18346 0.58295
# Poissons Ratio (z) = 0.25056 0.43602
#
# Static dielectric constant tensor:
#      x y z
#    x 3.431610 -0.128590 -0.094670 
#    y -0.128590 3.535930 -0.045860 
#    z -0.094670 -0.045860 3.394500 
# 
# 
# High freq. dielectric constant tensor:
#      x y z
#    x 1.721620 -0.026950 -0.011220 
#    y -0.026950 1.735070 -0.004610 
#    z -0.011220 -0.004610 1.718660 
# 
# From -- ./inp_files/341156.got.cif
#   From: 2010.06.25/outbox.cif.g09.slc.cpg/sg2_171_cif.got.tgz:341156.got - 2010.06.27 13:26:56.
