data_PCOD8009871
_publ_section_title
;
Structure prediction by ZEFSAII (Michael W. Deem and Ramdas Pophale) SiO2 
 PCOD8009871
Probable space group: P -1
;
_chemical_formula_sum "Si O2"
_cell_formula_units_Z 16
_cell_length_a 11.253908
_cell_length_b 8.862587
_cell_length_c 21.121412
_cell_angle_alpha 46.589797
_cell_angle_beta 141.686745
_cell_angle_gamma 106.259311
_cell_volume 775.842647
_symmetry_space_group_name_H-M "P -1"
_symmetry_group_IT_number 2
_symmetry_cell_setting 'triclinic'
loop_
_space_group_symop_operation_xyz
x,y,z
-x,-y,-z
loop_
_atom_site_type_symbol
_atom_site_label
_atom_site_fract_x
_atom_site_fract_y
_atom_site_fract_z
Si Si1 0.976046 0.741508 0.502374
Si Si2 0.680235 0.221927 0.843040
Si Si3 0.095174 0.698030 0.199248
Si Si4 0.164372 0.592519 0.033247
Si Si5 0.341777 0.839687 0.658006
Si Si6 0.194808 0.868725 0.314089
Si Si7 0.841615 0.398052 0.512075
Si Si8 0.615777 0.870591 0.518365
O O1 0.203096 0.707636 0.637858
O O2 0.980791 0.782632 0.417092
O O3 0.970711 0.495145 0.579808
O O4 0.744423 0.971471 0.373273
O O5 0.748541 0.244106 0.794307
O O6 0.758770 0.363334 0.879750
O O7 0.400655 0.361173 0.689523
O O8 0.819787 0.922850 0.006990
O O9 0.171976 0.700344 0.302198
O O10 0.154695 0.418719 0.291241
O O11 0.390996 0.377060 0.151897
O O12 0.000000 0.500000 0.000000
O O13 0.034978 0.845494 0.864859
O O14 0.312561 0.974410 0.538646
O O15 0.216269 0.763693 0.423415
O O16 0.426286 0.860800 0.400623
O O17 0.500000 0.000000 0.500000
#
# Coordination Sequence:
#
# PCOD8009871 Si02
#       8
#     2   2   2   2   2   2   2   2
#     4  10  24  40  67  83 119 177 219 252 290 377
#     4  10  21  37  62  88 133 159 202 253 313 382
#     4  10  22  36  58  98 125 158 196 255 325 375
#     4  11  22  39  62  98 134 162 194 261 334 377
#     4  11  22  41  62  91 125 169 213 246 316 376
#     4  11  23  37  64  98 124 160 206 264 319 371
#     4  11  21  43  66  88 120 168 220 255 304 362
#     4  12  22  36  64  95 132 159 199 266 321 374
#
# _framework density 20.622737999999998
#
# number of rings (size 3 to 8) (size 9 to 14) (size 15 to 20)
#    0.000    1.250    3.750    2.625    1.750    1.000 
#    0.000    1.250   11.000    0.000    0.000    0.000 
#    0.000    0.000    0.000    0.000    0.000    0.000 
#
# Total GULP energy -198371.869226 kJ/mol
# GULP energy per Si atom -12398.241827 kJ/mol
# Density = 2.057580 g / cm^3
# Si number density = 20.622738 Si / 1000 Ang^3
#
#
#
# Elastic Constant Matrix: (Units=GPa)
#
#
# Indices 1 2 3 4 5 6 
#
# 1 85.4318 34.5191 46.8582 -3.4590 18.3465 -12.8668
# 2 34.5191 93.7579 38.7254 -11.8283 9.4460 -10.1556
# 3 46.8582 38.7254 119.7107 -19.0773 9.0782 -7.4007
# 4 -3.4590 -11.8283 -19.0773 27.2222 -5.4684 7.7146
# 5 18.3465 9.4460 9.0782 -5.4684 26.5610 -3.4123
# 6 -12.8668 -10.1556 -7.4007 7.7146 -3.4123 37.3868
#
#
#
# Elastic Compliance Matrix: (Units=1/GPa)
#
#
# Indices 1 2 3 4 5 6 
#
# 1 0.019560 -0.003831 -0.006451 -0.007267 -0.010807 0.004927
# 2 -0.003831 0.013620 -0.002247 0.003406 -0.000576 0.001181
# 3 -0.006451 -0.002247 0.012592 0.008008 0.002372 -0.001774
# 4 -0.007267 0.003406 0.008008 0.047365 0.009682 -0.008880
# 5 -0.010807 -0.000576 0.002372 0.009682 0.046350 -0.001174
# 6 0.004927 0.001181 -0.001774 -0.008880 -0.001174 0.030138
#
#
# Mechanical properties :
#
#
# Convention : Reuss Voigt Hill
#
# Bulk Modulus (GPa) = 48.27663 59.90066 54.08864
# Shear Modulus (GPa) = 24.80301 30.15384 27.47843
#
# Velocity S-wave (km/s) = 3.47176 3.82797 3.65421
# Velocity P-wave (km/s) = 6.28737 6.97473 6.63995
#
# Compressibility (1/GPa) = 0.02071396
#
# Stress axis : x y z
#
# Youngs Moduli (GPa) = 51.12427 73.42109 79.41582
#
# Poissons Ratio (x) = 0.28131 0.51231
# Poissons Ratio (y) = 0.19588 0.17842
# Poissons Ratio (z) = 0.32980 0.16496
#
# Static dielectric constant tensor:
#      x y z
#    x 3.666030 -0.105830 0.184170 
#    y -0.105830 3.888860 -0.172190 
#    z 0.184170 -0.172190 3.836910 
# 
# 
# High freq. dielectric constant tensor:
#      x y z
#    x 1.795260 -0.011020 0.010990 
#    y -0.011020 1.818310 -0.008950 
#    z 0.010990 -0.008950 1.793710 
# 
# From -- ./inp_files/181801.got.cif
#   From: 2010.06.25/outbox.cif.g09.slc.cpg/sg2_91_cif.got.tgz:181801.got - 2010.06.27 13:26:56.
