data_PCOD8009776
_publ_section_title
;
Structure prediction by ZEFSAII (Michael W. Deem and Ramdas Pophale) SiO2 
 PCOD8009776
Probable space group: P -1
;
_chemical_formula_sum "Si O2"
_cell_formula_units_Z 14
_cell_length_a 13.936858
_cell_length_b 9.331039
_cell_length_c 10.945754
_cell_angle_alpha 58.765861
_cell_angle_beta 130.506335
_cell_angle_gamma 136.812158
_cell_volume 737.944336
_symmetry_space_group_name_H-M "P -1"
_symmetry_group_IT_number 2
_symmetry_cell_setting 'triclinic'
loop_
_space_group_symop_operation_xyz
x,y,z
-x,-y,-z
loop_
_atom_site_type_symbol
_atom_site_label
_atom_site_fract_x
_atom_site_fract_y
_atom_site_fract_z
Si Si1 0.815980 0.828463 0.281883
Si Si2 0.957102 0.230522 0.360376
Si Si3 0.117590 0.698743 0.273372
Si Si4 0.557930 0.949877 0.687105
Si Si5 0.750927 0.243614 0.371497
Si Si6 0.524738 0.536445 0.861219
Si Si7 0.166476 0.345275 0.866632
O O1 0.630157 0.670168 0.236940
O O2 0.844735 0.818385 0.165823
O O3 0.904028 0.762684 0.465797
O O4 0.879581 0.065217 0.258272
O O5 0.818544 0.155428 0.377574
O O6 0.029768 0.459096 0.263922
O O7 0.182779 0.729826 0.450180
O O8 0.994485 0.756588 0.144695
O O9 0.258147 0.854603 0.224962
O O10 0.442132 0.913506 0.718608
O O11 0.540612 0.739218 0.740429
O O12 0.500000 0.000000 0.500000
O O13 0.808070 0.470318 0.275898
O O14 0.500000 0.500000 0.000000
O O15 0.689593 0.570532 0.955123
#
# Coordination Sequence:
#
# PCOD8009776 Si02
#       7
#     2   2   2   2   2   2   2
#     4  10  17  30  51  79 102 131 172 219 247 298
#     4  10  18  29  54  76 104 131 175 211 255 295
#     4  10  18  31  51  78 102 132 173 213 252 305
#     4  10  19  31  55  76 105 131 174 215 253 293
#     4  10  16  32  50  78  98 138 175 210 243 306
#     4  10  19  33  54  79 100 137 173 212 252 301
#     4  10  17  32  56  73 102 133 176 210 251 298
#
# _framework density 18.971620999999999
#
# number of rings (size 3 to 8) (size 9 to 14) (size 15 to 20)
#    0.000    2.000    5.714    1.714    0.000    0.571 
#    0.000    2.857    3.143    6.857    0.000    0.000 
#    0.000    0.000    0.000    0.000    0.000    0.000 
#
# Total GULP energy -173500.738572 kJ/mol
# GULP energy per Si atom -12392.909898 kJ/mol
# Density = 1.892844 g / cm^3
# Si number density = 18.971621 Si / 1000 Ang^3
#
#
#
# Elastic Constant Matrix: (Units=GPa)
#
#
# Indices 1 2 3 4 5 6 
#
# 1 104.4593 58.8466 26.3419 25.2904 30.2662 14.3951
# 2 58.8466 122.5824 22.9187 23.3869 12.9388 3.5270
# 3 26.3419 22.9187 51.7050 11.5561 26.3251 2.2420
# 4 25.2904 23.3869 11.5561 24.6855 9.0869 4.8598
# 5 30.2662 12.9388 26.3251 9.0869 30.2177 7.6781
# 6 14.3951 3.5270 2.2420 4.8598 7.6781 37.8785
#
#
#
# Elastic Compliance Matrix: (Units=1/GPa)
#
#
# Indices 1 2 3 4 5 6 
#
# 1 0.019760 -0.006584 0.003421 -0.008992 -0.016593 -0.002582
# 2 -0.006584 0.012482 -0.004184 -0.005655 0.006335 0.001029
# 3 0.003421 -0.004184 0.037854 -0.005603 -0.034065 0.004473
# 4 -0.008992 -0.005655 -0.005603 0.058497 -0.000487 -0.003131
# 5 -0.016593 0.006335 -0.034065 -0.000487 0.078907 -0.008200
# 6 -0.002582 0.001029 0.004473 -0.003131 -0.008200 0.029085
#
#
# Mechanical properties :
#
#
# Convention : Reuss Voigt Hill
#
# Bulk Modulus (GPa) = 18.05002 54.99567 36.52284
# Shear Modulus (GPa) = 18.53592 29.93231 24.23412
#
# Velocity S-wave (km/s) = 3.12915 3.97639 3.57793
# Velocity P-wave (km/s) = 4.75292 7.08050 6.03008
#
# Compressibility (1/GPa) = 0.05540161
#
# Stress axis : x y z
#
# Youngs Moduli (GPa) = 50.60696 80.11782 26.41725
#
# Poissons Ratio (x) = 0.52754 -0.09038
# Poissons Ratio (y) = 0.33322 0.11053
# Poissons Ratio (z) = -0.17315 0.33521
#
# Static dielectric constant tensor:
#      x y z
#    x 3.917000 0.534020 0.609700 
#    y 0.534020 3.731540 0.239100 
#    z 0.609700 0.239100 3.488780 
# 
# 
# High freq. dielectric constant tensor:
#      x y z
#    x 1.725410 0.018060 0.045450 
#    y 0.018060 1.728960 -0.003370 
#    z 0.045450 -0.003370 1.718560 
# 
# From -- ./inp_files/167969.got.cif
#   From: 2010.06.25/outbox.cif.g09.slc.cpg/sg2_84_cif.got.tgz:167969.got - 2010.06.27 13:26:56.
