data_PCOD8009242
_publ_section_title
;
Structure prediction by ZEFSAII (Michael W. Deem and Ramdas Pophale) SiO2 
 PCOD8009242
Probable space group: P -1
;
_chemical_formula_sum "Si O2"
_cell_formula_units_Z 16
_cell_length_a 9.774170
_cell_length_b 27.985902
_cell_length_c 9.984064
_cell_angle_alpha 41.299542
_cell_angle_beta 138.652888
_cell_angle_gamma 153.254562
_cell_volume 781.314795
_symmetry_space_group_name_H-M "P -1"
_symmetry_group_IT_number 2
_symmetry_cell_setting 'triclinic'
loop_
_space_group_symop_operation_xyz
x,y,z
-x,-y,-z
loop_
_atom_site_type_symbol
_atom_site_label
_atom_site_fract_x
_atom_site_fract_y
_atom_site_fract_z
Si Si1 0.793498 0.524199 0.438229
Si Si2 0.724671 0.845532 0.753428
Si Si3 0.178417 0.966470 0.060565
Si Si4 0.319498 0.482476 0.032974
Si Si5 0.765479 0.351109 0.732272
Si Si6 0.884286 0.889065 0.288258
Si Si7 0.821637 0.410056 0.176264
Si Si8 0.233034 0.976772 0.619264
O O1 0.455108 0.476373 0.275632
O O2 0.741790 0.430557 0.545113
O O3 0.053032 0.629422 0.308388
O O4 0.912590 0.560510 0.601649
O O5 0.417536 0.714277 0.788355
O O6 0.980476 0.901094 0.709557
O O7 0.634962 0.907058 0.553663
O O8 0.874495 0.861049 0.973256
O O9 0.127230 0.953498 0.208888
O O10 0.474472 0.995267 0.182004
O O11 0.244082 0.066356 0.854143
O O12 0.500000 0.500000 0.000000
O O13 0.363412 0.580359 0.886323
O O14 0.947770 0.371831 0.958224
O O15 0.409975 0.233158 0.720972
O O16 0.066624 0.901937 0.520439
O O17 0.000000 0.500000 0.000000
#
# Coordination Sequence:
#
# PCOD8009242 Si02
#       8
#     2   2   2   2   2   2   2   2
#     4   9  19  36  55  84 117 154 206 238 287 359
#     4  10  23  40  62  85 122 158 202 249 302 358
#     4  10  22  38  59  89 122 152 198 251 305 358
#     4   9  20  38  60  86 117 155 206 246 291 360
#     4   9  18  34  58  85 119 155 190 252 296 347
#     4  10  21  36  59  89 123 151 195 250 306 356
#     4  11  24  39  59  87 129 161 194 250 304 358
#     4  10  21  41  62  88 113 160 208 248 295 364
#
# _framework density 20.478300000000001
#
# number of rings (size 3 to 8) (size 9 to 14) (size 15 to 20)
#    0.000    2.250    0.000    2.250    3.500    4.500 
#    2.250    0.000    0.000    0.000    0.000    0.000 
#    0.000    0.000    0.000    0.000    0.000    0.000 
#
# Total GULP energy -198295.034946 kJ/mol
# GULP energy per Si atom -12393.439684 kJ/mol
# Density = 2.043169 g / cm^3
# Si number density = 20.478300 Si / 1000 Ang^3
#
#
#
# Elastic Constant Matrix: (Units=GPa)
#
#
# Indices 1 2 3 4 5 6 
#
# 1 47.4776 19.1544 24.9873 4.8656 -1.7410 -5.8590
# 2 19.1544 129.6156 42.8575 11.1576 4.3760 -6.5180
# 3 24.9873 42.8575 112.6702 30.5098 4.3247 -0.4120
# 4 4.8656 11.1576 30.5098 30.6995 1.6910 -8.4396
# 5 -1.7410 4.3760 4.3247 1.6910 25.1060 7.7365
# 6 -5.8590 -6.5180 -0.4120 -8.4396 7.7365 21.3208
#
#
#
# Elastic Compliance Matrix: (Units=1/GPa)
#
#
# Indices 1 2 3 4 5 6 
#
# 1 0.025644 -0.001698 -0.006441 0.005248 0.000244 0.008392
# 2 -0.001698 0.009244 -0.003437 0.001488 -0.002393 0.003750
# 3 -0.006441 -0.003437 0.015915 -0.016222 0.001415 -0.009448
# 4 0.005248 0.001488 -0.016222 0.055162 -0.009044 0.026700
# 5 0.000244 -0.002393 0.001415 -0.009044 0.047209 -0.021347
# 6 0.008392 0.003750 -0.009448 0.026700 -0.021347 0.068488
#
#
# Mechanical properties :
#
#
# Convention : Reuss Voigt Hill
#
# Bulk Modulus (GPa) = 36.16455 51.52909 43.84682
# Shear Modulus (GPa) = 19.68269 28.94286 24.31277
#
# Velocity S-wave (km/s) = 3.10360 3.76352 3.44938
# Velocity P-wave (km/s) = 5.52643 6.64100 6.10919
#
# Compressibility (1/GPa) = 0.02765139
#
# Stress axis : x y z
#
# Youngs Moduli (GPa) = 38.99509 108.18131 62.83303
#
# Poissons Ratio (x) = 0.18368 0.40471
# Poissons Ratio (y) = 0.06621 0.21596
# Poissons Ratio (z) = 0.25117 0.37182
#
# Static dielectric constant tensor:
#      x y z
#    x 3.670840 -0.139830 0.030830 
#    y -0.139830 3.638530 0.265720 
#    z 0.030830 0.265720 4.023380 
# 
# 
# High freq. dielectric constant tensor:
#      x y z
#    x 1.792570 -0.012090 0.000080 
#    y -0.012090 1.790340 0.024110 
#    z 0.000080 0.024110 1.807270 
# 
# From -- ./inp_files/226204.got.cif
#   From: 2010.06.25/outbox.cif.g09.slc.cpg/sg2_114_cif.got.tgz:226204.got - 2010.06.27 13:26:56.
