data_PCOD8009345
_publ_section_title
;
Structure prediction by ZEFSAII (Michael W. Deem and Ramdas Pophale) SiO2 
 PCOD8009345
Probable space group: P -1
;
_chemical_formula_sum "Si O2"
_cell_formula_units_Z 16
_cell_length_a 19.512543
_cell_length_b 26.334393
_cell_length_c 12.038627
_cell_angle_alpha 35.848888
_cell_angle_beta 152.399933
_cell_angle_gamma 163.309792
_cell_volume 788.257105
_symmetry_space_group_name_H-M "P -1"
_symmetry_group_IT_number 2
_symmetry_cell_setting 'triclinic'
loop_
_space_group_symop_operation_xyz
x,y,z
-x,-y,-z
loop_
_atom_site_type_symbol
_atom_site_label
_atom_site_fract_x
_atom_site_fract_y
_atom_site_fract_z
Si Si1 0.808307 0.316669 0.028603
Si Si2 0.854612 0.673878 0.411635
Si Si3 0.159300 0.676278 0.410390
Si Si4 0.102049 0.957238 0.691630
Si Si5 0.270388 0.790940 0.123406
Si Si6 0.956828 0.168662 0.380783
Si Si7 0.284137 0.958188 0.324712
Si Si8 0.854031 0.702972 0.968595
O O1 0.748882 0.288510 0.861664
O O2 0.474009 0.139814 0.925239
O O3 0.000000 0.500000 0.000000
O O4 0.030307 0.355302 0.318730
O O5 0.516576 0.487582 0.199530
O O6 0.810671 0.715063 0.384409
O O7 0.108093 0.834086 0.401511
O O8 0.217980 0.715527 0.295586
O O9 0.000000 0.500000 0.500000
O O10 0.485770 0.844721 0.652782
O O11 0.956516 0.654600 0.198251
O O12 0.016306 0.901218 0.536187
O O13 0.925969 0.791544 0.801756
O O14 0.000000 0.000000 0.500000
O O15 0.620971 0.012085 0.236624
O O16 0.010495 0.732038 0.832374
O O17 0.500000 0.000000 0.500000
O O18 0.021439 0.845475 0.055035
#
# Coordination Sequence:
#
# PCOD8009345 Si02
#       8
#     2   2   2   2   2   2   2   2
#     4  10  21  36  61  94 124 167 214 265 323 383
#     4  11  21  40  66  91 126 172 216 262 329 382
#     4  11  22  41  64  94 125 172 217 264 321 387
#     4  11  22  40  63  96 133 165 214 269 332 384
#     4   9  17  35  63  87 120 163 210 263 314 378
#     4   9  18  36  65  90 121 165 208 265 319 378
#     4  10  22  41  67  88 123 173 215 265 318 381
#     4  11  24  41  61  96 132 167 215 270 321 387
#
# _framework density 20.297946
#
# number of rings (size 3 to 8) (size 9 to 14) (size 15 to 20)
#    0.000    1.750    2.500    3.375    0.000    3.500 
#    4.500    3.125    0.000    0.000    0.000    0.000 
#    0.000    0.000    0.000    0.000    0.000    0.000 
#
# Total GULP energy -198222.386119 kJ/mol
# GULP energy per Si atom -12388.899132 kJ/mol
# Density = 2.025175 g / cm^3
# Si number density = 20.297946 Si / 1000 Ang^3
#
#
#
# Elastic Constant Matrix: (Units=GPa)
#
#
# Indices 1 2 3 4 5 6 
#
# 1 117.9206 54.3634 47.2169 -0.7062 -11.0811 -8.6689
# 2 54.3634 133.9981 42.1147 7.1738 -5.3857 -11.1348
# 3 47.2169 42.1147 78.6958 12.4451 -5.8735 -9.0834
# 4 -0.7062 7.1738 12.4451 35.5802 -4.4479 -5.2222
# 5 -11.0811 -5.3857 -5.8735 -4.4479 32.3393 0.3968
# 6 -8.6689 -11.1348 -9.0834 -5.2222 0.3968 30.1242
#
#
#
# Elastic Compliance Matrix: (Units=1/GPa)
#
#
# Indices 1 2 3 4 5 6 
#
# 1 0.012865 -0.003241 -0.006179 0.003655 0.003234 0.001232
# 2 -0.003241 0.009913 -0.003056 -0.000765 -0.000140 0.001679
# 3 -0.006179 -0.003056 0.019206 -0.005950 0.000021 0.001852
# 4 0.003655 -0.000765 -0.005950 0.031601 0.004337 0.004396
# 5 0.003234 -0.000140 0.000021 0.004337 0.032592 0.001208
# 6 0.001232 0.001679 0.001852 0.004396 0.001208 0.035476
#
#
# Mechanical properties :
#
#
# Convention : Reuss Voigt Hill
#
# Bulk Modulus (GPa) = 58.71209 68.66718 63.68963
# Shear Modulus (GPa) = 29.02217 32.07003 30.54610
#
# Velocity S-wave (km/s) = 3.78538 3.97919 3.88349
# Velocity P-wave (km/s) = 6.93494 7.41721 7.18013
#
# Compressibility (1/GPa) = 0.01703227
#
# Stress axis : x y z
#
# Youngs Moduli (GPa) = 77.73193 100.87823 52.06603
#
# Poissons Ratio (x) = 0.32690 0.32171
# Poissons Ratio (y) = 0.25190 0.15913
# Poissons Ratio (z) = 0.48030 0.30832
#
# Static dielectric constant tensor:
#      x y z
#    x 3.942250 -0.199130 -0.213810 
#    y -0.199130 3.794140 0.267340 
#    z -0.213810 0.267340 3.738460 
# 
# 
# High freq. dielectric constant tensor:
#      x y z
#    x 1.809190 -0.006420 -0.015100 
#    y -0.006420 1.790690 0.017850 
#    z -0.015100 0.017850 1.766820 
# 
# From -- ./inp_files/419301.got.cif
#   From: 2010.06.25/outbox.cif.g09.slc.cpg/sg2_210_cif.got.tgz:419301.got - 2010.06.27 13:26:56.
