data_PCOD8009014
_publ_section_title
;
Structure prediction by ZEFSAII (Michael W. Deem and Ramdas Pophale) SiO2 
 PCOD8009014
Probable space group: P -1
;
_chemical_formula_sum "Si O2"
_cell_formula_units_Z 16
_cell_length_a 8.502380
_cell_length_b 10.070403
_cell_length_c 14.736521
_cell_angle_alpha 141.042548
_cell_angle_beta 108.984914
_cell_angle_gamma 82.269922
_cell_volume 735.136167
_symmetry_space_group_name_H-M "P -1"
_symmetry_group_IT_number 2
_symmetry_cell_setting 'triclinic'
loop_
_space_group_symop_operation_xyz
x,y,z
-x,-y,-z
loop_
_atom_site_type_symbol
_atom_site_label
_atom_site_fract_x
_atom_site_fract_y
_atom_site_fract_z
Si Si1 0.546002 0.522469 0.305727
Si Si2 0.696548 0.918860 0.640818
Si Si3 0.402709 0.146805 0.669648
Si Si4 0.688858 0.124334 0.105949
Si Si5 0.892985 0.087287 0.603029
Si Si6 0.794764 0.730067 0.970800
Si Si7 0.201546 0.386198 0.885401
Si Si8 0.170066 0.814739 0.032612
O O1 0.575677 0.681807 0.483670
O O2 0.596721 0.660804 0.298485
O O3 0.682089 0.366587 0.263887
O O4 0.353248 0.391906 0.189272
O O5 0.587717 0.103190 0.698790
O O6 0.851949 0.943379 0.610710
O O7 0.773370 0.967187 0.781125
O O8 0.318237 0.223153 0.784911
O O9 0.289756 0.923360 0.486541
O O10 0.781740 0.983056 0.116252
O O11 0.780335 0.123681 0.026813
O O12 0.500000 0.000000 0.000000
O O13 0.003289 0.314244 0.777898
O O14 0.000000 0.000000 0.500000
O O15 0.784672 0.611507 0.002397
O O16 0.970213 0.723892 0.951604
O O17 0.265027 0.627827 0.988514
#
# Coordination Sequence:
#
# PCOD8009014 Si02
#       8
#     2   2   2   2   2   2   2   2
#     4  10  21  42  62  92 127 172 208 257 317 384
#     4  11  23  37  63  99 130 165 213 265 316 378
#     4  10  21  35  63  93 137 164 212 255 330 367
#     4  10  24  46  67  89 128 176 213 258 320 386
#     4   9  19  36  55  92 138 165 192 262 328 373
#     4  11  24  40  68  92 131 164 219 257 324 378
#     4  11  22  37  64 102 128 162 213 271 319 371
#     4  12  24  41  68  98 128 162 219 270 312 378
#
# _framework density 21.764672999999998
#
# number of rings (size 3 to 8) (size 9 to 14) (size 15 to 20)
#    0.000    1.500    2.500    3.000    7.000    1.000 
#    0.000    3.125    0.000    0.000    0.000    0.000 
#    0.000    0.000    0.000    0.000    0.000    0.000 
#
# Total GULP energy -198221.311382 kJ/mol
# GULP energy per Si atom -12388.831961 kJ/mol
# Density = 2.171514 g / cm^3
# Si number density = 21.764673 Si / 1000 Ang^3
#
#
#
# Elastic Constant Matrix: (Units=GPa)
#
#
# Indices 1 2 3 4 5 6 
#
# 1 81.6417 9.6345 23.6697 -0.3917 -2.9989 6.4190
# 2 9.6345 56.6142 10.5038 15.5022 0.0570 -2.9859
# 3 23.6697 10.5038 125.6120 0.4822 8.2254 -4.9131
# 4 -0.3917 15.5022 0.4822 28.4711 -3.9623 -5.2827
# 5 -2.9989 0.0570 8.2254 -3.9623 23.2028 0.2835
# 6 6.4190 -2.9859 -4.9131 -5.2827 0.2835 24.0630
#
#
#
# Elastic Compliance Matrix: (Units=1/GPa)
#
#
# Indices 1 2 3 4 5 6 
#
# 1 0.013789 -0.002378 -0.002771 0.001150 0.003019 -0.004322
# 2 -0.002378 0.021584 -0.001162 -0.011955 -0.001996 0.000475
# 3 -0.002771 -0.001162 0.008905 0.000434 -0.003469 0.002549
# 4 0.001150 -0.011955 0.000434 0.044146 0.007467 0.007902
# 5 0.003019 -0.001996 -0.003469 0.007467 0.046006 -0.000664
# 6 -0.004322 0.000475 0.002549 0.007902 -0.000664 0.045033
#
#
# Mechanical properties :
#
#
# Convention : Reuss Voigt Hill
#
# Bulk Modulus (GPa) = 31.58815 39.05378 35.32096
# Shear Modulus (GPa) = 24.67459 29.81805 27.24632
#
# Velocity S-wave (km/s) = 3.37070 3.70539 3.54200
# Velocity P-wave (km/s) = 5.44920 6.02405 5.74382
#
# Compressibility (1/GPa) = 0.03165744
#
# Stress axis : x y z
#
# Youngs Moduli (GPa) = 72.52243 46.33004 112.29063
#
# Poissons Ratio (x) = 0.11019 0.31111
# Poissons Ratio (y) = 0.17249 0.13043
# Poissons Ratio (z) = 0.20093 0.05382
#
# Static dielectric constant tensor:
#      x y z
#    x 4.144470 -0.236750 0.073440 
#    y -0.236750 3.713610 0.064310 
#    z 0.073440 0.064310 4.245430 
# 
# 
# High freq. dielectric constant tensor:
#      x y z
#    x 1.864910 0.002930 0.003710 
#    y 0.002930 1.819040 0.003180 
#    z 0.003710 0.003180 1.860770 
# 
# From -- ./inp_files/338058.got.cif
#   From: 2010.06.25/outbox.cif.g09.slc.cpg/sg2_170_cif.got.tgz:338058.got - 2010.06.27 13:26:56.
