data_PCOD8009055
_publ_section_title
;
Structure prediction by ZEFSAII (Michael W. Deem and Ramdas Pophale) SiO2 
 PCOD8009055
Probable space group: P -1
;
_chemical_formula_sum "Si O2"
_cell_formula_units_Z 16
_cell_length_a 24.477343
_cell_length_b 21.364112
_cell_length_c 8.697523
_cell_angle_alpha 135.113949
_cell_angle_beta 146.880521
_cell_angle_gamma 20.821909
_cell_volume 816.130434
_symmetry_space_group_name_H-M "P -1"
_symmetry_group_IT_number 2
_symmetry_cell_setting 'triclinic'
loop_
_space_group_symop_operation_xyz
x,y,z
-x,-y,-z
loop_
_atom_site_type_symbol
_atom_site_label
_atom_site_fract_x
_atom_site_fract_y
_atom_site_fract_z
Si Si1 0.536588 0.948970 0.673178
Si Si2 0.999663 0.855109 0.529122
Si Si3 0.361047 0.691167 0.054407
Si Si4 0.241439 0.521428 0.311403
Si Si5 0.868083 0.820262 0.734776
Si Si6 0.127813 0.196063 0.646053
Si Si7 0.741115 0.602711 0.581778
Si Si8 0.296308 0.876307 0.970005
O O1 0.703183 0.736695 0.706474
O O2 0.500000 0.000000 0.500000
O O3 0.306986 0.110330 0.489908
O O4 0.640373 0.952161 0.007543
O O5 0.910071 0.873006 0.496370
O O6 0.124475 0.687111 0.425939
O O7 0.811491 0.046751 0.317358
O O8 0.157710 0.811430 0.879652
O O9 0.511451 0.640501 0.420539
O O10 0.500000 0.500000 0.000000
O O11 0.272021 0.805297 0.886117
O O12 0.245608 0.427707 0.256958
O O13 0.107319 0.608569 0.992188
O O14 0.872920 0.810527 0.548226
O O15 0.808068 0.965697 0.896729
O O16 0.953551 0.405317 0.651197
O O17 0.545599 0.700201 0.218403
#
# Coordination Sequence:
#
# PCOD8009055 Si02
#       8
#     2   2   2   2   2   2   2   2
#     4  11  21  37  58  77 101 138 178 215 256 308
#     4   9  17  31  53  78 103 136 177 215 253 304
#     4   9  16  29  55  82 102 133 181 221 248 296
#     4   8  16  33  53  75 105 137 171 212 258 306
#     4  10  21  36  53  78 108 137 169 214 266 313
#     4  11  21  35  53  79 109 136 170 216 262 311
#     4   9  18  34  55  77 102 137 175 212 255 306
#     4   9  17  33  55  78 105 140 175 213 257 304
#
# _framework density 19.604709
#
# number of rings (size 3 to 8) (size 9 to 14) (size 15 to 20)
#    0.000    2.500    0.000    4.875    0.000    0.000 
#    0.000   11.250    0.000    0.000    0.000    0.000 
#    0.000    0.000    0.000    0.000    0.000    0.000 
#
# Total GULP energy -198332.776764 kJ/mol
# GULP energy per Si atom -12395.798548 kJ/mol
# Density = 1.956009 g / cm^3
# Si number density = 19.604709 Si / 1000 Ang^3
#
#
#
# Elastic Constant Matrix: (Units=GPa)
#
#
# Indices 1 2 3 4 5 6 
#
# 1 168.4162 38.0812 97.4046 -10.8611 -0.4260 16.1072
# 2 38.0812 36.9437 34.8489 -12.2313 -0.5788 19.4536
# 3 97.4046 34.8489 132.8195 -27.9125 -3.9719 -1.4149
# 4 -10.8611 -12.2313 -27.9125 22.8175 5.2529 -5.0172
# 5 -0.4260 -0.5788 -3.9719 5.2529 38.3524 -0.4318
# 6 16.1072 19.4536 -1.4149 -5.0172 -0.4318 29.6020
#
#
#
# Elastic Compliance Matrix: (Units=1/GPa)
#
#
# Indices 1 2 3 4 5 6 
#
# 1 0.013045 -0.001930 -0.011364 -0.010590 0.000297 -0.008164
# 2 -0.001930 0.069886 -0.015776 0.008009 -0.002196 -0.044306
# 3 -0.011364 -0.015776 0.024643 0.021066 -0.000458 0.021293
# 4 -0.010590 0.008009 0.021066 0.073686 -0.007751 0.013882
# 5 0.000297 -0.002196 -0.000458 -0.007751 0.027062 0.000341
# 6 -0.008164 -0.044306 0.021293 0.013882 0.000341 0.070716
#
#
# Mechanical properties :
#
#
# Convention : Reuss Voigt Hill
#
# Bulk Modulus (GPa) = 20.22889 75.42766 47.82828
# Shear Modulus (GPa) = 14.13808 29.34403 21.74106
#
# Velocity S-wave (km/s) = 2.68835 3.87303 3.33373
# Velocity P-wave (km/s) = 4.46957 7.65234 6.26639
#
# Compressibility (1/GPa) = 0.04943424
#
# Stress axis : x y z
#
# Youngs Moduli (GPa) = 76.65755 14.30897 40.58025
#
# Poissons Ratio (x) = 0.02761 0.46115
# Poissons Ratio (y) = 0.14793 0.64019
# Poissons Ratio (z) = 0.87114 0.22574
#
# Static dielectric constant tensor:
#      x y z
#    x 3.704530 0.301760 0.370590 
#    y 0.301760 3.578970 -0.555610 
#    z 0.370590 -0.555610 4.173080 
# 
# 
# High freq. dielectric constant tensor:
#      x y z
#    x 1.759340 0.030840 0.017750 
#    y 0.030840 1.739400 -0.029200 
#    z 0.017750 -0.029200 1.769650 
# 
# From -- ./inp_files/212257.got.cif
#   From: 2010.06.25/outbox.cif.g09.slc.cpg/sg2_107_cif.got.tgz:212257.got - 2010.06.27 13:26:56.
