data_PCOD8009256
_publ_section_title
;
Structure prediction by ZEFSAII (Michael W. Deem and Ramdas Pophale) SiO2 
 PCOD8009256
Probable space group: P -1
;
_chemical_formula_sum "Si O2"
_cell_formula_units_Z 16
_cell_length_a 12.747092
_cell_length_b 12.001112
_cell_length_c 11.874917
_cell_angle_alpha 125.422435
_cell_angle_beta 122.621102
_cell_angle_gamma 102.625913
_cell_volume 789.928860
_symmetry_space_group_name_H-M "P -1"
_symmetry_group_IT_number 2
_symmetry_cell_setting 'triclinic'
loop_
_space_group_symop_operation_xyz
x,y,z
-x,-y,-z
loop_
_atom_site_type_symbol
_atom_site_label
_atom_site_fract_x
_atom_site_fract_y
_atom_site_fract_z
Si Si1 0.141645 0.945109 0.970435
Si Si2 0.998774 0.170396 0.718326
Si Si3 0.734654 0.692799 0.243882
Si Si4 0.916987 0.611636 0.447716
Si Si5 0.575297 0.293640 0.394770
Si Si6 0.875832 0.756630 0.917039
Si Si7 0.456640 0.819186 0.926401
Si Si8 0.799881 0.206620 0.475336
O O1 0.038835 0.757302 0.713182
O O2 0.033792 0.844070 0.967682
O O3 0.363784 0.086424 0.206324
O O4 0.146957 0.100598 0.011596
O O5 0.918563 0.248754 0.674811
O O6 0.189174 0.286523 0.823743
O O7 0.821995 0.913370 0.454906
O O8 0.057874 0.240527 0.921927
O O9 0.811613 0.653925 0.359468
O O10 0.500000 0.500000 0.000000
O O11 0.751815 0.360377 0.236998
O O12 0.056599 0.652942 0.465571
O O13 0.667678 0.509996 0.624300
O O14 0.545393 0.292552 0.241827
O O15 0.711237 0.279011 0.495342
O O16 0.500000 0.000000 0.000000
O O17 0.633492 0.950947 0.195563
#
# Coordination Sequence:
#
# PCOD8009256 Si02
#       8
#     2   2   2   2   2   2   2   2
#     4  11  23  40  62  92 122 163 214 253 312 368
#     4  10  22  41  61  91 128 164 206 257 308 370
#     4  10  21  37  64  93 121 163 208 260 311 360
#     4  11  20  38  65  92 125 159 205 266 317 361
#     4  11  23  39  61  91 124 169 204 255 311 368
#     4  11  24  42  60  89 128 169 208 254 306 376
#     4  10  21  36  59  92 125 157 201 255 307 369
#     4  10  23  40  62  94 126 160 211 259 312 369
#
# _framework density 20.254988000000001
#
# number of rings (size 3 to 8) (size 9 to 14) (size 15 to 20)
#    0.000    1.500    3.750    1.125    0.000    6.500 
#    0.000    0.625    0.000    0.000    0.000    0.000 
#    0.000    0.000    0.000    0.000    0.000    0.000 
#
# Total GULP energy -198418.302565 kJ/mol
# GULP energy per Si atom -12401.143910 kJ/mol
# Density = 2.020889 g / cm^3
# Si number density = 20.254988 Si / 1000 Ang^3
#
#
#
# Elastic Constant Matrix: (Units=GPa)
#
#
# Indices 1 2 3 4 5 6 
#
# 1 81.1000 41.5143 35.5102 -2.8001 26.0119 11.8192
# 2 41.5143 94.4243 46.6581 0.2093 1.2926 17.9534
# 3 35.5102 46.6581 112.6574 6.4572 18.5978 26.7306
# 4 -2.8001 0.2093 6.4572 36.9496 12.7605 1.3461
# 5 26.0119 1.2926 18.5978 12.7605 37.4199 1.1432
# 6 11.8192 17.9534 26.7306 1.3461 1.1432 26.8495
#
#
#
# Elastic Compliance Matrix: (Units=1/GPa)
#
#
# Indices 1 2 3 4 5 6 
#
# 1 0.024476 -0.009767 -0.000045 0.008805 -0.019541 -0.003808
# 2 -0.009767 0.017796 -0.005072 -0.003270 0.009896 -0.002809
# 3 -0.000045 -0.005072 0.014706 0.000217 -0.006842 -0.010949
# 4 0.008805 -0.003270 0.000217 0.033889 -0.017585 -0.002856
# 5 -0.019541 0.009896 -0.006842 -0.017585 0.049131 0.007586
# 6 -0.003808 -0.002809 -0.010949 -0.002856 0.007586 0.051520
#
#
# Mechanical properties :
#
#
# Convention : Reuss Voigt Hill
#
# Bulk Modulus (GPa) = 36.74963 59.50523 48.12743
# Shear Modulus (GPa) = 21.70548 31.21043 26.45796
#
# Velocity S-wave (km/s) = 3.27710 3.92966 3.61812
# Velocity P-wave (km/s) = 5.70106 7.07329 6.42392
#
# Compressibility (1/GPa) = 0.02721116
#
# Stress axis : x y z
#
# Youngs Moduli (GPa) = 40.85599 56.19098 67.99765
#
# Poissons Ratio (x) = 0.54880 0.00309
# Poissons Ratio (y) = 0.39903 0.34488
# Poissons Ratio (z) = 0.00185 0.28500
#
# Static dielectric constant tensor:
#      x y z
#    x 3.650180 0.129930 0.111230 
#    y 0.129930 3.696490 -0.053920 
#    z 0.111230 -0.053920 4.030180 
# 
# 
# High freq. dielectric constant tensor:
#      x y z
#    x 1.787170 0.002300 0.012160 
#    y 0.002300 1.788810 0.006630 
#    z 0.012160 0.006630 1.798210 
# 
# From -- ./inp_files/370538.got.cif
#   From: 2010.06.25/outbox.cif.g09.slc.cpg/sg2_186_cif.got.tgz:370538.got - 2010.06.27 13:26:56.
