data_PCOD8009026
_publ_section_title
;
Structure prediction by ZEFSAII (Michael W. Deem and Ramdas Pophale) SiO2 
 PCOD8009026
Probable space group: P -1
;
_chemical_formula_sum "Si O2"
_cell_formula_units_Z 14
_cell_length_a 24.172652
_cell_length_b 5.329110
_cell_length_c 14.827493
_cell_angle_alpha 110.810289
_cell_angle_beta 159.012997
_cell_angle_gamma 66.448973
_cell_volume 626.196290
_symmetry_space_group_name_H-M "P -1"
_symmetry_group_IT_number 2
_symmetry_cell_setting 'triclinic'
loop_
_space_group_symop_operation_xyz
x,y,z
-x,-y,-z
loop_
_atom_site_type_symbol
_atom_site_label
_atom_site_fract_x
_atom_site_fract_y
_atom_site_fract_z
Si Si1 0.157811 0.631986 0.173335
Si Si2 0.513758 0.266834 0.109116
Si Si3 0.257649 0.471139 0.618810
Si Si4 0.394172 0.948367 0.248015
Si Si5 0.890949 0.989456 0.703918
Si Si6 0.504532 0.313703 0.311950
Si Si7 0.072283 0.200750 0.871563
O O1 0.316941 0.704792 0.384041
O O2 0.158301 0.697807 0.290170
O O3 0.152978 0.323299 0.096641
O O4 0.998601 0.810553 0.917417
O O5 0.677749 0.364564 0.344337
O O6 0.496097 0.233688 0.184452
O O7 0.364612 0.494563 0.872653
O O8 0.500000 0.000000 0.000000
O O9 0.264614 0.146379 0.562486
O O10 0.070814 0.588019 0.368670
O O11 0.409022 0.624451 0.217265
O O12 0.500000 0.000000 0.500000
O O13 0.438724 0.094629 0.244259
O O14 0.208605 0.073478 0.994256
O O15 0.987320 0.971212 0.754959
#
# Coordination Sequence:
#
# PCOD8009026 Si02
#       7
#     2   2   2   2   2   2   2
#     4  10  21  35  64  96 137 170 229 282 351 413
#     4  11  25  46  72 100 137 174 233 298 358 410
#     4  10  23  41  71  97 133 176 225 292 361 403
#     4  12  27  46  70 101 146 192 234 280 338 419
#     4  10  21  37  64 101 132 174 225 289 358 411
#     4  12  27  44  72 105 137 189 238 282 346 417
#     4  11  22  40  64  94 138 183 226 283 345 408
#
# _framework density 22.357209000000001
#
# number of rings (size 3 to 8) (size 9 to 14) (size 15 to 20)
#    0.000    1.143    1.429    4.286   10.000    1.143 
#    0.000    1.429    0.000    0.000    0.000    0.000 
#    0.000    0.000    0.000    0.000    0.000    0.000 
#
# Total GULP energy -173447.124998 kJ/mol
# GULP energy per Si atom -12389.080357 kJ/mol
# Density = 2.230632 g / cm^3
# Si number density = 22.357209 Si / 1000 Ang^3
#
#
#
# Elastic Constant Matrix: (Units=GPa)
#
#
# Indices 1 2 3 4 5 6 
#
# 1 128.1305 25.3360 46.2036 4.4522 6.5587 6.5015
# 2 25.3360 65.9603 17.0406 20.6271 -2.0995 -7.2595
# 3 46.2036 17.0406 134.2870 -4.9389 6.2171 -12.7813
# 4 4.4522 20.6271 -4.9389 27.3741 3.1006 10.6119
# 5 6.5587 -2.0995 6.2171 3.1006 40.2682 -1.3483
# 6 6.5015 -7.2595 -12.7813 10.6119 -1.3483 36.0699
#
#
#
# Elastic Compliance Matrix: (Units=1/GPa)
#
#
# Indices 1 2 3 4 5 6 
#
# 1 0.010107 -0.004798 -0.003129 0.003561 -0.001855 -0.005013
# 2 -0.004798 0.027130 -0.001682 -0.025749 0.004890 0.013488
# 3 -0.003129 -0.001682 0.009135 0.002507 -0.001092 0.002684
# 4 0.003561 -0.025749 0.002507 0.066340 -0.008247 -0.024762
# 5 -0.001855 0.004890 -0.001092 -0.008247 0.026340 0.004343
# 6 -0.005013 0.013488 0.002684 -0.024762 0.004343 0.039740
#
#
# Mechanical properties :
#
#
# Convention : Reuss Voigt Hill
#
# Bulk Modulus (GPa) = 36.82548 56.17090 46.49819
# Shear Modulus (GPa) = 24.14735 36.72893 30.43814
#
# Velocity S-wave (km/s) = 3.29001 4.05757 3.69378
# Velocity P-wave (km/s) = 5.56232 6.86518 6.24780
#
# Compressibility (1/GPa) = 0.02715511
#
# Stress axis : x y z
#
# Youngs Moduli (GPa) = 98.93881 36.85890 109.47024
#
# Poissons Ratio (x) = 0.17686 0.34253
# Poissons Ratio (y) = 0.47474 0.18407
# Poissons Ratio (z) = 0.30958 0.06198
#
# Static dielectric constant tensor:
#      x y z
#    x 3.945600 -0.100050 -0.171480 
#    y -0.100050 4.318390 0.002280 
#    z -0.171480 0.002280 4.688500 
# 
# 
# High freq. dielectric constant tensor:
#      x y z
#    x 1.856230 0.015020 0.001230 
#    y 0.015020 1.884140 -0.009990 
#    z 0.001230 -0.009990 1.906040 
# 
# From -- ./inp_files/68972.got.cif
#   From: 2010.06.25/outbox.cif.g09.slc.cpg/sg2_35_cif.got.tgz:68972.got - 2010.06.27 13:26:56.
