data_PCOD8009731
_publ_section_title
;
Structure prediction by ZEFSAII (Michael W. Deem and Ramdas Pophale) SiO2 
 PCOD8009731
Probable space group: P -1
;
_chemical_formula_sum "Si O2"
_cell_formula_units_Z 16
_cell_length_a 8.838062
_cell_length_b 14.452472
_cell_length_c 17.044195
_cell_angle_alpha 140.697479
_cell_angle_beta 142.133338
_cell_angle_gamma 58.928129
_cell_volume 820.937140
_symmetry_space_group_name_H-M "P -1"
_symmetry_group_IT_number 2
_symmetry_cell_setting 'triclinic'
loop_
_space_group_symop_operation_xyz
x,y,z
-x,-y,-z
loop_
_atom_site_type_symbol
_atom_site_label
_atom_site_fract_x
_atom_site_fract_y
_atom_site_fract_z
Si Si1 0.871732 0.374902 0.196373
Si Si2 0.335664 0.614449 0.318673
Si Si3 0.176730 0.357873 0.547900
Si Si4 0.411730 0.332866 0.385073
Si Si5 0.469821 0.822737 0.377446
Si Si6 0.290077 0.137679 0.064272
Si Si7 0.281974 0.808905 0.850527
Si Si8 0.903649 0.333335 0.005876
O O1 0.898287 0.543820 0.348653
O O2 0.661516 0.259750 0.087236
O O3 0.118079 0.310172 0.271821
O O4 0.805048 0.375325 0.077536
O O5 0.572296 0.551783 0.339391
O O6 0.417443 0.689730 0.486171
O O7 0.294044 0.748304 0.331654
O O8 0.083537 0.480076 0.134472
O O9 0.250521 0.210610 0.519978
O O10 0.938751 0.313047 0.363405
O O11 0.500000 0.500000 0.500000
O O12 0.449313 0.218190 0.257193
O O13 0.343076 0.734146 0.190661
O O14 0.500000 0.000000 0.500000
O O15 0.459424 0.160388 0.071197
O O16 0.049467 0.203457 0.992358
O O17 0.190640 0.961597 0.926429
#
# Coordination Sequence:
#
# PCOD8009731 Si02
#       8
#     2   2   2   2   2   2   2   2
#     4  11  21  32  60  85 118 145 189 244 287 340
#     4  10  21  37  60  88 110 155 192 238 282 342
#     4  10  22  35  61  82 113 152 193 235 290 338
#     4  11  19  35  56  90 115 145 189 234 289 345
#     4  10  23  41  61  81 113 155 200 239 280 343
#     4  10  23  34  59  81 126 151 191 232 294 345
#     4  11  21  37  53  90 118 157 182 239 293 350
#     4  11  22  38  60  87 113 152 198 237 281 339
#
# _framework density 19.489920000000001
#
# number of rings (size 3 to 8) (size 9 to 14) (size 15 to 20)
#    0.750    0.750    3.750    3.000    0.000    3.500 
#    0.000    0.000    0.000    0.750    0.000    0.000 
#    0.000    0.000    0.000    0.000    0.000    0.000 
#
# Total GULP energy -198312.367517 kJ/mol
# GULP energy per Si atom -12394.522970 kJ/mol
# Density = 1.944556 g / cm^3
# Si number density = 19.489920 Si / 1000 Ang^3
#
#
#
# Elastic Constant Matrix: (Units=GPa)
#
#
# Indices 1 2 3 4 5 6 
#
# 1 67.7573 28.9239 29.1977 7.0952 -17.4358 17.8386
# 2 28.9239 84.5223 26.5237 11.0149 -16.0980 24.6191
# 3 29.1977 26.5237 85.3623 0.4430 -16.3359 24.1272
# 4 7.0952 11.0149 0.4430 35.5976 -1.7538 -1.5353
# 5 -17.4358 -16.0980 -16.3359 -1.7538 28.1973 -2.9779
# 6 17.8386 24.6191 24.1272 -1.5353 -2.9779 28.9577
#
#
#
# Elastic Compliance Matrix: (Units=1/GPa)
#
#
# Indices 1 2 3 4 5 6 
#
# 1 0.021904 -0.001657 -0.002442 -0.003729 0.009978 -0.009222
# 2 -0.001657 0.018883 0.000499 -0.005763 0.008111 -0.014920
# 3 -0.002442 0.000499 0.017412 -0.000060 0.007522 -0.012657
# 4 -0.003729 -0.005763 -0.000060 0.030851 -0.002804 0.008594
# 5 0.009978 0.008111 0.007522 -0.002804 0.048924 -0.014427
# 6 -0.009222 -0.014920 -0.012657 0.008594 -0.014427 0.062416
#
#
# Mechanical properties :
#
#
# Convention : Reuss Voigt Hill
#
# Bulk Modulus (GPa) = 19.60834 45.21474 32.41154
# Shear Modulus (GPa) = 22.26254 28.75029 25.50641
#
# Velocity S-wave (km/s) = 3.38340 3.84492 3.62152
# Velocity P-wave (km/s) = 5.03446 6.55443 5.84407
#
# Compressibility (1/GPa) = 0.05099872
#
# Stress axis : x y z
#
# Youngs Moduli (GPa) = 45.65374 52.95631 57.43053
#
# Poissons Ratio (x) = 0.08775 0.14025
# Poissons Ratio (y) = 0.07565 -0.02863
# Poissons Ratio (z) = 0.11149 -0.02640
#
# Static dielectric constant tensor:
#      x y z
#    x 3.666840 0.201300 -0.230210 
#    y 0.201300 3.399610 0.116240 
#    z -0.230210 0.116240 3.387570 
# 
# 
# High freq. dielectric constant tensor:
#      x y z
#    x 1.753900 0.017150 -0.014190 
#    y 0.017150 1.748300 0.004610 
#    z -0.014190 0.004610 1.753560 
# 
# From -- ./inp_files/292953.got.cif
#   From: 2010.06.25/outbox.cif.g09.slc.cpg/sg2_147_cif.got.tgz:292953.got - 2010.06.27 13:26:56.
