data_PCOD8009241
_publ_section_title
;
Structure prediction by ZEFSAII (Michael W. Deem and Ramdas Pophale) SiO2 
 PCOD8009241
Probable space group: P -1
;
_chemical_formula_sum "Si O2"
_cell_formula_units_Z 16
_cell_length_a 26.686196
_cell_length_b 18.415400
_cell_length_c 15.094931
_cell_angle_alpha 159.540720
_cell_angle_beta 160.274337
_cell_angle_gamma 19.249779
_cell_volume 743.893167
_symmetry_space_group_name_H-M "P -1"
_symmetry_group_IT_number 2
_symmetry_cell_setting 'triclinic'
loop_
_space_group_symop_operation_xyz
x,y,z
-x,-y,-z
loop_
_atom_site_type_symbol
_atom_site_label
_atom_site_fract_x
_atom_site_fract_y
_atom_site_fract_z
Si Si1 0.734317 0.968191 0.389507
Si Si2 0.371463 0.120406 0.226901
Si Si3 0.010734 0.585678 0.824770
Si Si4 0.108197 0.049373 0.809185
Si Si5 0.688066 0.638653 0.272189
Si Si6 0.795729 0.380275 0.979287
Si Si7 0.572529 0.449120 0.161996
Si Si8 0.509105 0.141551 0.045180
O O1 0.869873 0.695910 0.270007
O O2 0.622755 0.954731 0.268826
O O3 0.826646 0.111646 0.738443
O O4 0.609927 0.127788 0.285098
O O5 0.373194 0.364895 0.502694
O O6 0.553792 0.916885 0.340509
O O7 0.354481 0.028676 0.997111
O O8 0.203329 0.170965 0.058825
O O9 0.062107 0.640525 0.877239
O O10 0.812171 0.649093 0.564419
O O11 0.025638 0.753336 0.116204
O O12 0.251060 0.812654 0.830800
O O13 0.000000 0.000000 0.500000
O O14 0.813895 0.475953 0.214615
O O15 0.582501 0.519921 0.998235
O O16 0.599708 0.574974 0.841246
O O17 0.500000 0.500000 0.000000
#
# Coordination Sequence:
#
# PCOD8009241 Si02
#       8
#     2   2   2   2   2   2   2   2
#     4  10  21  36  59  89 122 160 201 251 306 372
#     4  10  22  41  66  87 120 165 208 255 308 367
#     4  11  24  39  59  91 130 163 203 256 312 368
#     4  11  27  44  61  94 131 164 212 264 309 371
#     4  10  22  42  63  95 127 156 211 260 306 372
#     4  10  21  38  63  89 122 166 198 255 314 368
#     4  11  23  42  70  91 120 172 213 256 314 370
#     4   9  20  38  58  88 119 157 205 252 301 369
#
# _framework density 21.508465999999999
#
# number of rings (size 3 to 8) (size 9 to 14) (size 15 to 20)
#    0.000    1.750    0.000    3.000    3.500    6.000 
#    4.500    0.000    0.000    0.000    0.000    0.000 
#    0.000    0.000    0.000    0.000    0.000    0.000 
#
# Total GULP energy -198426.330470 kJ/mol
# GULP energy per Si atom -12401.645654 kJ/mol
# Density = 2.145951 g / cm^3
# Si number density = 21.508466 Si / 1000 Ang^3
#
#
#
# Elastic Constant Matrix: (Units=GPa)
#
#
# Indices 1 2 3 4 5 6 
#
# 1 104.7022 33.3452 25.5030 11.2782 -5.8923 -9.2336
# 2 33.3452 73.2625 36.3949 12.0194 -3.3478 -1.9851
# 3 25.5030 36.3949 98.1916 14.6600 0.7963 -3.4698
# 4 11.2782 12.0194 14.6600 35.1304 5.7053 -3.0005
# 5 -5.8923 -3.3478 0.7963 5.7053 33.3328 1.5899
# 6 -9.2336 -1.9851 -3.4698 -3.0005 1.5899 31.9257
#
#
#
# Elastic Compliance Matrix: (Units=1/GPa)
#
#
# Indices 1 2 3 4 5 6 
#
# 1 0.011747 -0.004340 -0.001076 -0.001906 0.001862 0.002739
# 2 -0.004340 0.018918 -0.005461 -0.003194 0.001861 -0.001065
# 3 -0.001076 -0.005461 0.012967 -0.003066 -0.000547 0.000498
# 4 -0.001906 -0.003194 -0.003066 0.032667 -0.006285 0.002300
# 5 0.001862 0.001861 -0.000547 -0.006285 0.031680 -0.001574
# 6 0.002739 -0.001065 0.000498 0.002300 -0.001574 0.032397
#
#
# Mechanical properties :
#
#
# Convention : Reuss Voigt Hill
#
# Bulk Modulus (GPa) = 45.70700 51.84918 48.77809
# Shear Modulus (GPa) = 29.51204 32.13866 30.82535
#
# Velocity S-wave (km/s) = 3.70822 3.86972 3.78983
# Velocity P-wave (km/s) = 6.29535 6.64267 6.47134
#
# Compressibility (1/GPa) = 0.02187849
#
# Stress axis : x y z
#
# Youngs Moduli (GPa) = 85.12962 52.86066 77.11622
#
# Poissons Ratio (x) = 0.22941 0.08299
# Poissons Ratio (y) = 0.36946 0.42110
# Poissons Ratio (z) = 0.09161 0.28865
#
# Static dielectric constant tensor:
#      x y z
#    x 3.954780 0.045990 0.076250 
#    y 0.045990 3.814380 0.120460 
#    z 0.076250 0.120460 3.744220 
# 
# 
# High freq. dielectric constant tensor:
#      x y z
#    x 1.851860 0.002170 0.000360 
#    y 0.002170 1.841540 0.009280 
#    z 0.000360 0.009280 1.842390 
# 
# From -- ./inp_files/71007.got.cif
#   From: 2010.06.25/outbox.cif.g09.slc.cpg/sg2_36_cif.got.tgz:71007.got - 2010.06.27 13:26:56.
