data_PCOD8009407
_publ_section_title
;
Structure prediction by ZEFSAII (Michael W. Deem and Ramdas Pophale) SiO2 
 PCOD8009407
Probable space group: P -1
;
_chemical_formula_sum "Si O2"
_cell_formula_units_Z 16
_cell_length_a 9.596097
_cell_length_b 15.077630
_cell_length_c 11.918915
_cell_angle_alpha 45.966686
_cell_angle_beta 60.773838
_cell_angle_gamma 35.098624
_cell_volume 699.248930
_symmetry_space_group_name_H-M "P -1"
_symmetry_group_IT_number 2
_symmetry_cell_setting 'triclinic'
loop_
_space_group_symop_operation_xyz
x,y,z
-x,-y,-z
loop_
_atom_site_type_symbol
_atom_site_label
_atom_site_fract_x
_atom_site_fract_y
_atom_site_fract_z
Si Si1 0.738745 0.804016 0.134933
Si Si2 0.995293 0.118394 0.008588
Si Si3 0.134315 0.379290 0.292605
Si Si4 0.601913 0.348863 0.353110
Si Si5 0.599788 0.243404 0.210980
Si Si6 0.985156 0.819483 0.507933
Si Si7 0.225636 0.744573 0.256041
Si Si8 0.719118 0.696150 0.456550
O O1 0.649692 0.841853 0.265958
O O2 0.864446 0.603830 0.215146
O O3 0.956641 0.774217 0.058644
O O4 0.500000 0.000000 0.000000
O O5 0.737606 0.221851 0.070216
O O6 0.986736 0.137507 0.860017
O O7 0.223619 0.893131 0.154219
O O8 0.330006 0.355454 0.174547
O O9 0.088956 0.275469 0.340466
O O10 0.287546 0.256137 0.454618
O O11 0.587563 0.353180 0.219394
O O12 0.477668 0.546662 0.277535
O O13 0.455654 0.317789 0.486356
O O14 0.878585 0.192108 0.431657
O O15 0.745169 0.040752 0.382395
O O16 0.156441 0.708532 0.426457
O O17 0.000000 0.500000 0.500000
#
# Coordination Sequence:
#
# PCOD8009407 Si02
#       8
#     2   2   2   2   2   2   2   2
#     4  11  23  35  60  92 129 159 203 262 314 362
#     4  10  22  40  61  88 128 165 211 240 310 383
#     4  10  21  40  65  89 119 169 212 255 305 375
#     4  11  22  37  66  92 126 158 207 264 319 358
#     4  10  23  41  66  89 125 169 208 248 311 387
#     4  11  22  38  65  95 124 151 215 268 314 351
#     4  10  21  36  63  92 117 165 205 259 299 370
#     4   9  19  37  60  88 119 160 210 249 303 367
#
# _framework density 22.881695000000001
#
# number of rings (size 3 to 8) (size 9 to 14) (size 15 to 20)
#    0.000    1.750    0.000    5.625    5.250    2.000 
#    0.000    0.000    0.000    1.500    0.000    0.000 
#    0.000    0.000    0.000    0.000    0.000    0.000 
#
# Total GULP energy -198249.526772 kJ/mol
# GULP energy per Si atom -12390.595423 kJ/mol
# Density = 2.282962 g / cm^3
# Si number density = 22.881695 Si / 1000 Ang^3
#
#
#
# Elastic Constant Matrix: (Units=GPa)
#
#
# Indices 1 2 3 4 5 6 
#
# 1 116.9870 12.6514 27.8218 6.4076 -9.5144 -9.3536
# 2 12.6514 70.8086 9.8549 2.2635 -1.2626 5.4472
# 3 27.8218 9.8549 82.8914 -0.9156 0.2769 -7.7086
# 4 6.4076 2.2635 -0.9156 36.4660 -2.2099 -3.0481
# 5 -9.5144 -1.2626 0.2769 -2.2099 29.4968 -3.3487
# 6 -9.3536 5.4472 -7.7086 -3.0481 -3.3487 27.7217
#
#
#
# Elastic Compliance Matrix: (Units=1/GPa)
#
#
# Indices 1 2 3 4 5 6 
#
# 1 0.010006 -0.001523 -0.002911 -0.001265 0.003452 0.003144
# 2 -0.001523 0.014967 -0.001658 -0.001067 -0.000378 -0.004079
# 3 -0.002911 -0.001658 0.013547 0.001177 -0.000690 0.003157
# 4 -0.001265 -0.001067 0.001177 0.028153 0.002036 0.003452
# 5 0.003452 -0.000378 -0.000690 0.002036 0.035793 0.005595
# 6 0.003144 -0.004079 0.003157 0.003452 0.005595 0.039868
#
#
# Mechanical properties :
#
#
# Convention : Reuss Voigt Hill
#
# Bulk Modulus (GPa) = 37.96946 41.26035 39.61490
# Shear Modulus (GPa) = 30.61933 33.42751 32.02342
#
# Velocity S-wave (km/s) = 3.66205 3.82630 3.74508
# Velocity P-wave (km/s) = 5.87458 6.13123 6.00427
#
# Compressibility (1/GPa) = 0.02633696
#
# Stress axis : x y z
#
# Youngs Moduli (GPa) = 99.93808 66.81577 73.81768
#
# Poissons Ratio (x) = 0.10173 0.21485
# Poissons Ratio (y) = 0.15216 0.12240
# Poissons Ratio (z) = 0.29088 0.11079
#
# Static dielectric constant tensor:
#      x y z
#    x 4.939470 -0.973810 -1.773780 
#    y -0.973810 5.453300 2.238220 
#    z -1.773780 2.238220 7.794680 
# 
# 
# High freq. dielectric constant tensor:
#      x y z
#    x 1.889350 -0.000390 -0.013460 
#    y -0.000390 1.899190 -0.007180 
#    z -0.013460 -0.007180 1.894740 
# 
# From -- ./inp_files/298831.got.cif
#   From: 2010.06.25/outbox.cif.g09.slc.cpg/sg2_150_cif.got.tgz:298831.got - 2010.06.27 13:26:56.
