data_PCOD8009437
_publ_section_title
;
Structure prediction by ZEFSAII (Michael W. Deem and Ramdas Pophale) SiO2 
 PCOD8009437
Probable space group: P -1
;
_chemical_formula_sum "Si O2"
_cell_formula_units_Z 12
_cell_length_a 14.139437
_cell_length_b 11.106839
_cell_length_c 13.435898
_cell_angle_alpha 40.671148
_cell_angle_beta 158.687907
_cell_angle_gamma 134.320274
_cell_volume 499.513088
_symmetry_space_group_name_H-M "P -1"
_symmetry_group_IT_number 2
_symmetry_cell_setting 'triclinic'
loop_
_space_group_symop_operation_xyz
x,y,z
-x,-y,-z
loop_
_atom_site_type_symbol
_atom_site_label
_atom_site_fract_x
_atom_site_fract_y
_atom_site_fract_z
Si Si1 0.823814 0.860256 0.108696
Si Si2 0.302846 0.107054 0.447957
Si Si3 0.740522 0.234825 0.135169
Si Si4 0.387641 0.206112 0.260791
Si Si5 0.254142 0.200055 0.554019
Si Si6 0.559613 0.552961 0.136552
O O1 0.819652 0.775700 0.045112
O O2 0.592330 0.014773 0.797244
O O3 0.790318 0.700306 0.261433
O O4 0.100424 0.942746 0.349665
O O5 0.262263 0.234907 0.229361
O O6 0.251759 0.242352 0.406910
O O7 0.006139 0.295284 0.305835
O O8 0.750360 0.020136 0.304685
O O9 0.506539 0.282986 0.799216
O O10 0.690499 0.350251 0.114680
O O11 0.612427 0.357865 0.369068
O O12 0.500000 0.000000 0.500000
O O13 0.500000 0.500000 0.000000
#
# Coordination Sequence:
#
# PCOD8009437 Si02
#       6
#     2   2   2   2   2   2
#     4  10  21  37  63  92 125 159 212 254 308 366
#     4  11  20  39  63  92 122 167 206 252 313 370
#     4  10  21  38  59  95 122 162 208 260 306 364
#     4   9  21  41  62  91 130 169 205 259 319 376
#     4  10  21  36  64  89 126 163 208 254 307 375
#     4  10  21  41  65  96 128 163 212 265 313 371
#
# _framework density 24.023395000000001
#
# number of rings (size 3 to 8) (size 9 to 14) (size 15 to 20)
#    0.000    2.000    1.667    1.500    4.667    0.000 
#    0.000   32.500    0.000    0.000    0.000    0.000 
#    0.000    0.000    0.000    0.000    0.000    0.000 
#
# Total GULP energy -148691.402230 kJ/mol
# GULP energy per Si atom -12390.950186 kJ/mol
# Density = 2.396872 g / cm^3
# Si number density = 24.023395 Si / 1000 Ang^3
#
#
#
# Elastic Constant Matrix: (Units=GPa)
#
#
# Indices 1 2 3 4 5 6 
#
# 1 218.0098 43.5779 45.0307 0.5076 4.9426 -5.7612
# 2 43.5779 84.1712 17.3403 -11.1860 -1.9429 24.2449
# 3 45.0307 17.3403 74.9000 12.7752 7.7844 0.5342
# 4 0.5076 -11.1860 12.7752 20.2952 -2.6617 -0.8929
# 5 4.9426 -1.9429 7.7844 -2.6617 21.5481 -4.6653
# 6 -5.7612 24.2449 0.5342 -0.8929 -4.6653 49.8091
#
#
#
# Elastic Compliance Matrix: (Units=1/GPa)
#
#
# Indices 1 2 3 4 5 6 
#
# 1 0.005843 -0.003084 -0.002800 -0.000004 -0.000132 0.002194
# 2 -0.003084 0.019144 -0.005363 0.014158 0.004177 -0.008973
# 3 -0.002800 -0.005363 0.020033 -0.016626 -0.008929 0.000937
# 4 -0.000004 0.014158 -0.016626 0.069325 0.014966 -0.004069
# 5 -0.000132 0.004177 -0.008929 0.014966 0.052591 0.003241
# 6 0.002194 -0.008973 0.000937 -0.004069 0.003241 0.024919
#
#
# Mechanical properties :
#
#
# Convention : Reuss Voigt Hill
#
# Bulk Modulus (GPa) = 44.39184 65.44210 54.91697
# Shear Modulus (GPa) = 22.53696 36.40596 29.47146
#
# Velocity S-wave (km/s) = 3.06621 3.89709 3.50634
# Velocity P-wave (km/s) = 5.57263 6.89564 6.26913
#
# Compressibility (1/GPa) = 0.02252666
#
# Stress axis : x y z
#
# Youngs Moduli (GPa) = 171.15339 52.23442 49.91707
#
# Poissons Ratio (x) = 0.16108 0.13977
# Poissons Ratio (y) = 0.52780 0.26771
# Poissons Ratio (z) = 0.47923 0.28014
#
# Static dielectric constant tensor:
#      x y z
#    x 5.523610 0.309390 -0.111380 
#    y 0.309390 4.471110 0.022300 
#    z -0.111380 0.022300 3.920140 
# 
# 
# High freq. dielectric constant tensor:
#      x y z
#    x 1.982350 -0.000050 -0.000240 
#    y -0.000050 1.932230 0.010240 
#    z -0.000240 0.010240 1.914540 
# 
# From -- ./inp_files/72623.got.cif
#   From: 2010.06.25/outbox.cif.g09.slc.cpg/sg2_37_cif.got.tgz:72623.got - 2010.06.27 13:26:56.
