data_PCOD8009018
_publ_section_title
;
Structure prediction by ZEFSAII (Michael W. Deem and Ramdas Pophale) SiO2 
 PCOD8009018
Probable space group: P -1
;
_chemical_formula_sum "Si O2"
_cell_formula_units_Z 14
_cell_length_a 10.846853
_cell_length_b 16.301748
_cell_length_c 11.076061
_cell_angle_alpha 37.071413
_cell_angle_beta 47.447879
_cell_angle_gamma 32.896463
_cell_volume 641.092664
_symmetry_space_group_name_H-M "P -1"
_symmetry_group_IT_number 2
_symmetry_cell_setting 'triclinic'
loop_
_space_group_symop_operation_xyz
x,y,z
-x,-y,-z
loop_
_atom_site_type_symbol
_atom_site_label
_atom_site_fract_x
_atom_site_fract_y
_atom_site_fract_z
Si Si1 0.644985 0.800530 0.698266
Si Si2 0.673630 0.099251 0.580278
Si Si3 0.055121 0.003303 0.098237
Si Si4 0.584113 0.302940 0.164876
Si Si5 0.481511 0.102476 0.059691
Si Si6 0.119736 0.504121 0.804427
Si Si7 0.857374 0.216449 0.486901
O O1 0.549216 0.705304 0.840141
O O2 0.619084 0.838587 0.810393
O O3 0.919212 0.651252 0.666278
O O4 0.500000 0.000000 0.500000
O O5 0.545008 0.239805 0.388261
O O6 0.683954 0.205213 0.555163
O O7 0.541442 0.043312 0.795027
O O8 0.915574 0.912831 0.592305
O O9 0.842788 0.183931 0.095704
O O10 0.108359 0.836450 0.332064
O O11 0.256182 0.000564 0.987726
O O12 0.000000 0.000000 0.000000
O O13 0.500000 0.500000 0.000000
O O14 0.319655 0.296183 0.863014
O O15 0.238432 0.577564 0.689099
O O16 0.000000 0.500000 0.000000
#
# Coordination Sequence:
#
# PCOD8009018 Si02
#       7
#     2   2   2   2   2   2   2
#     4  11  19  38  66  96 125 172 225 263 314 387
#     4  10  21  38  63  89 129 174 219 262 328 387
#     4  11  24  41  66  96 135 174 214 273 339 385
#     4  11  24  40  66  97 125 174 224 274 320 387
#     4  11  22  39  64  94 130 173 215 270 327 388
#     4  10  21  35  63  97 123 164 223 269 306 386
#     4  10  21  38  60  93 130 169 213 265 323 388
#
# _framework density 21.837717000000001
#
# number of rings (size 3 to 8) (size 9 to 14) (size 15 to 20)
#    0.000    1.429    5.714    0.857    4.000    2.286 
#    0.000    0.714    0.000    0.000    0.000    0.000 
#    0.000    0.000    0.000    0.000    0.000    0.000 
#
# Total GULP energy -173484.312388 kJ/mol
# GULP energy per Si atom -12391.736599 kJ/mol
# Density = 2.178801 g / cm^3
# Si number density = 21.837717 Si / 1000 Ang^3
#
#
#
# Elastic Constant Matrix: (Units=GPa)
#
#
# Indices 1 2 3 4 5 6 
#
# 1 119.4067 41.9222 53.8227 -18.0461 -34.0795 -20.3010
# 2 41.9222 65.0263 52.0450 -13.2736 -15.6118 -19.8084
# 3 53.8227 52.0450 121.0864 -25.9538 -31.3578 -1.0392
# 4 -18.0461 -13.2736 -25.9538 35.6257 3.9704 -5.0876
# 5 -34.0795 -15.6118 -31.3578 3.9704 54.4945 0.2886
# 6 -20.3010 -19.8084 -1.0392 -5.0876 0.2886 32.2356
#
#
#
# Elastic Compliance Matrix: (Units=1/GPa)
#
#
# Indices 1 2 3 4 5 6 
#
# 1 0.014311 -0.001863 -0.002738 0.005061 0.006426 0.008520
# 2 -0.001863 0.033677 -0.011999 0.005601 0.001064 0.020009
# 3 -0.002738 -0.011999 0.016637 0.004680 0.004124 -0.007860
# 4 0.005061 0.005601 0.004680 0.037415 0.004670 0.012643
# 5 0.006426 0.001064 0.004124 0.004670 0.024679 0.005350
# 6 0.008520 0.020009 -0.007860 0.012643 0.005350 0.050377
#
#
# Mechanical properties :
#
#
# Convention : Reuss Voigt Hill
#
# Bulk Modulus (GPa) = 31.82285 66.78879 49.30582
# Shear Modulus (GPa) = 22.64804 34.98645 28.81724
#
# Velocity S-wave (km/s) = 3.22391 4.00698 3.63658
# Velocity P-wave (km/s) = 5.33499 7.21515 6.34510
#
# Compressibility (1/GPa) = 0.03142396
#
# Stress axis : x y z
#
# Youngs Moduli (GPa) = 69.87815 29.69388 60.10765
#
# Poissons Ratio (x) = 0.05532 0.16459
# Poissons Ratio (y) = 0.13019 0.72123
# Poissons Ratio (z) = 0.19134 0.35630
#
# Static dielectric constant tensor:
#      x y z
#    x 5.642550 -1.740700 0.709680 
#    y -1.740700 5.543820 -1.064190 
#    z 0.709680 -1.064190 4.712890 
# 
# 
# High freq. dielectric constant tensor:
#      x y z
#    x 1.863100 -0.009110 -0.011070 
#    y -0.009110 1.834930 -0.007510 
#    z -0.011070 -0.007510 1.866780 
# 
# From -- ./inp_files/189434.got.cif
#   From: 2010.06.25/outbox.cif.g09.slc.cpg/sg2_95_cif.got.tgz:189434.got - 2010.06.27 13:26:56.
