data_PCOD8009500
_publ_section_title
;
Structure prediction by ZEFSAII (Michael W. Deem and Ramdas Pophale) SiO2 
 PCOD8009500
Probable space group: P -1
;
_chemical_formula_sum "Si O2"
_cell_formula_units_Z 12
_cell_length_a 10.289823
_cell_length_b 9.903600
_cell_length_c 10.645103
_cell_angle_alpha 113.934700
_cell_angle_beta 143.113070
_cell_angle_gamma 76.538878
_cell_volume 586.775085
_symmetry_space_group_name_H-M "P -1"
_symmetry_group_IT_number 2
_symmetry_cell_setting 'triclinic'
loop_
_space_group_symop_operation_xyz
x,y,z
-x,-y,-z
loop_
_atom_site_type_symbol
_atom_site_label
_atom_site_fract_x
_atom_site_fract_y
_atom_site_fract_z
Si Si1 0.289236 0.969851 0.515849
Si Si2 0.313146 0.923850 0.987516
Si Si3 0.989398 0.670539 0.188509
Si Si4 0.744100 0.875729 0.207406
Si Si5 0.747513 0.580453 0.715556
Si Si6 0.896167 0.866512 0.779474
O O1 0.159997 0.023601 0.559443
O O2 0.275172 0.077567 0.427382
O O3 0.183742 0.800126 0.338676
O O4 0.546233 0.979858 0.755231
O O5 0.102311 0.818730 0.843970
O O6 0.218969 0.037101 0.863478
O O7 0.477963 0.829546 0.006889
O O8 0.097764 0.530308 0.264196
O O9 0.856747 0.727894 0.224880
O O10 0.819114 0.625765 0.928504
O O11 0.500000 0.500000 0.500000
O O12 0.765907 0.724676 0.696156
O O13 0.000000 0.000000 0.000000
#
# Coordination Sequence:
#
# PCOD8009500 Si02
#       6
#     2   2   2   2   2   2
#     4  10  21  36  71  97 124 162 216 266 311 371
#     4   9  21  35  65 101 125 155 218 260 311 370
#     4  11  22  42  66  92 128 173 212 262 317 389
#     4   9  19  39  66 102 126 162 215 263 320 372
#     4  11  28  44  62  91 133 175 210 259 333 377
#     4  12  23  42  63  98 128 165 224 265 307 380
#
# _framework density 20.450766999999999
#
# number of rings (size 3 to 8) (size 9 to 14) (size 15 to 20)
#    1.000    0.667    3.333    0.500    4.667    3.333 
#    0.000    1.667    0.000    0.000    0.000    0.000 
#    0.000    0.000    0.000    0.000    0.000    0.000 
#
# Total GULP energy -148748.687453 kJ/mol
# GULP energy per Si atom -12395.723954 kJ/mol
# Density = 2.040422 g / cm^3
# Si number density = 20.450767 Si / 1000 Ang^3
#
#
#
# Elastic Constant Matrix: (Units=GPa)
#
#
# Indices 1 2 3 4 5 6 
#
# 1 67.8331 34.0427 24.9068 8.0140 6.3671 6.4925
# 2 34.0427 115.1044 52.3094 0.6243 -9.3974 15.6168
# 3 24.9068 52.3094 122.2281 -9.6637 0.7794 13.1847
# 4 8.0140 0.6243 -9.6637 34.4839 5.2236 -4.1582
# 5 6.3671 -9.3974 0.7794 5.2236 33.1380 7.5692
# 6 6.4925 15.6168 13.1847 -4.1582 7.5692 35.1276
#
#
#
# Elastic Compliance Matrix: (Units=1/GPa)
#
#
# Indices 1 2 3 4 5 6 
#
# 1 0.018898 -0.004993 -0.002011 -0.004222 -0.004314 -0.000089
# 2 -0.004993 0.013327 -0.004339 -0.001841 0.006259 -0.004940
# 3 -0.002011 -0.004339 0.010859 0.003684 -0.001445 -0.001028
# 4 -0.004222 -0.001841 0.003684 0.032634 -0.006177 0.005410
# 5 -0.004314 0.006259 -0.001445 -0.006177 0.036060 -0.009944
# 6 -0.000089 -0.004940 -0.001028 0.005410 -0.009944 0.033849
#
#
# Mechanical properties :
#
#
# Convention : Reuss Voigt Hill
#
# Bulk Modulus (GPa) = 49.01910 58.63149 53.82530
# Shear Modulus (GPa) = 28.55289 33.47704 31.01496
#
# Velocity S-wave (km/s) = 3.74060 4.05032 3.89854
# Velocity P-wave (km/s) = 6.53280 7.11374 6.82945
#
# Compressibility (1/GPa) = 0.02040021
#
# Stress axis : x y z
#
# Youngs Moduli (GPa) = 52.91479 75.03309 92.08552
#
# Poissons Ratio (x) = 0.37461 0.18519
# Poissons Ratio (y) = 0.26418 0.39955
# Poissons Ratio (z) = 0.10641 0.32556
#
# Static dielectric constant tensor:
#      x y z
#    x 3.772230 -0.130690 -0.006350 
#    y -0.130690 3.590190 -0.186860 
#    z -0.006350 -0.186860 3.679010 
# 
# 
# High freq. dielectric constant tensor:
#      x y z
#    x 1.804490 -0.014430 0.006090 
#    y -0.014430 1.774690 -0.028430 
#    z 0.006090 -0.028430 1.802760 
# 
# From -- ./inp_files/415748.got.cif
#   From: 2010.06.25/outbox.cif.g09.slc.cpg/sg2_208_cif.got.tgz:415748.got - 2010.06.27 13:26:56.
