data_PCOD8009897
_publ_section_title
;
Structure prediction by ZEFSAII (Michael W. Deem and Ramdas Pophale) SiO2 
 PCOD8009897
Probable space group: P -1
;
_chemical_formula_sum "Si O2"
_cell_formula_units_Z 16
_cell_length_a 12.245044
_cell_length_b 10.024515
_cell_length_c 15.533167
_cell_angle_alpha 153.746472
_cell_angle_beta 73.591779
_cell_angle_gamma 98.026602
_cell_volume 779.480369
_symmetry_space_group_name_H-M "P -1"
_symmetry_group_IT_number 2
_symmetry_cell_setting 'triclinic'
loop_
_space_group_symop_operation_xyz
x,y,z
-x,-y,-z
loop_
_atom_site_type_symbol
_atom_site_label
_atom_site_fract_x
_atom_site_fract_y
_atom_site_fract_z
Si Si1 0.970374 0.745446 0.761912
Si Si2 0.870257 0.891982 0.695516
Si Si3 0.574557 0.227066 0.265633
Si Si4 0.383141 0.928209 0.182059
Si Si5 0.882532 0.515117 0.984314
Si Si6 0.841522 0.891939 0.041831
Si Si7 0.423080 0.219898 0.520782
Si Si8 0.647606 0.740702 0.251202
O O1 0.898686 0.970585 0.832875
O O2 0.020045 0.389750 0.517179
O O3 0.876233 0.731724 0.849079
O O4 0.086160 0.848623 0.822070
O O5 0.739031 0.839886 0.692934
O O6 0.864019 0.169829 0.790066
O O7 0.500000 0.500000 0.500000
O O8 0.591458 0.411549 0.282415
O O9 0.494363 0.983638 0.135312
O O10 0.701774 0.046827 0.171611
O O11 0.385427 0.021093 0.336589
O O12 0.387882 0.565477 0.954673
O O13 0.886275 0.629454 0.952357
O O14 0.775047 0.751178 0.194824
O O15 0.000000 0.500000 0.000000
O O16 0.345422 0.234481 0.632439
O O17 0.558609 0.051814 0.414408
#
# Coordination Sequence:
#
# PCOD8009897 Si02
#       8
#     2   2   2   2   2   2   2   2
#     4  10  22  41  62  90 122 160 212 249 308 371
#     4  10  22  41  62  88 124 164 200 257 311 368
#     4  10  21  37  62  92 122 161 207 253 313 362
#     4  10  21  39  64  87 128 161 202 260 312 366
#     4  11  22  39  61  89 123 162 201 254 309 362
#     4  11  23  39  66  90 122 164 207 255 306 373
#     4  10  21  40  61  92 120 168 207 251 311 370
#     4  10  23  39  63  88 127 164 208 251 311 376
#
# _framework density 20.526495000000001
#
# number of rings (size 3 to 8) (size 9 to 14) (size 15 to 20)
#    0.000    1.750    1.250    3.375    3.500    3.000 
#    0.000    2.500    0.000    0.000    0.000    0.000 
#    0.000    0.000    0.000    0.000    0.000    0.000 
#
# Total GULP energy -198284.113555 kJ/mol
# GULP energy per Si atom -12392.757097 kJ/mol
# Density = 2.047978 g / cm^3
# Si number density = 20.526495 Si / 1000 Ang^3
#
#
#
# Elastic Constant Matrix: (Units=GPa)
#
#
# Indices 1 2 3 4 5 6 
#
# 1 122.2450 42.3476 23.2477 -5.8153 -15.5746 -0.1481
# 2 42.3476 126.3336 43.8822 -0.8447 -8.5764 -10.2522
# 3 23.2477 43.8822 61.7646 -3.8093 -9.0047 -5.4147
# 4 -5.8153 -0.8447 -3.8093 34.6009 -3.4972 -3.5087
# 5 -15.5746 -8.5764 -9.0047 -3.4972 29.7418 1.0343
# 6 -0.1481 -10.2522 -5.4147 -3.5087 1.0343 29.8339
#
#
#
# Elastic Compliance Matrix: (Units=1/GPa)
#
#
# Indices 1 2 3 4 5 6 
#
# 1 0.009982 -0.002715 -0.001174 0.001816 0.004338 -0.001034
# 2 -0.002715 0.011424 -0.006974 -0.000726 -0.000414 0.002576
# 3 -0.001174 -0.006974 0.022572 0.002758 0.004468 0.001864
# 4 0.001816 -0.000726 0.002758 0.030370 0.005020 0.003658
# 5 0.004338 -0.000414 0.004468 0.005020 0.037719 -0.000027
# 6 -0.001034 0.002576 0.001864 0.003658 -0.000027 0.035168
#
#
# Mechanical properties :
#
#
# Convention : Reuss Voigt Hill
#
# Bulk Modulus (GPa) = 44.94080 58.81091 51.87586
# Shear Modulus (GPa) = 28.34788 32.22636 30.28712
#
# Velocity S-wave (km/s) = 3.72026 3.96661 3.84541
# Velocity P-wave (km/s) = 6.35574 7.04926 6.71146
#
# Compressibility (1/GPa) = 0.02225150
#
# Stress axis : x y z
#
# Youngs Moduli (GPa) = 100.17955 87.53325 44.30264
#
# Poissons Ratio (x) = 0.23769 0.05201
# Poissons Ratio (y) = 0.27203 0.30896
# Poissons Ratio (z) = 0.11762 0.61045
#
# Static dielectric constant tensor:
#      x y z
#    x 4.040380 0.146080 -0.074500 
#    y 0.146080 4.229150 0.096130 
#    z -0.074500 0.096130 3.676740 
# 
# 
# High freq. dielectric constant tensor:
#      x y z
#    x 1.808230 -0.004020 -0.018430 
#    y -0.004020 1.809100 0.003500 
#    z -0.018430 0.003500 1.792710 
# 
# From -- ./inp_files/216679.got.cif
#   From: 2010.06.25/outbox.cif.g09.slc.cpg/sg2_109_cif.got.tgz:216679.got - 2010.06.27 13:26:56.
