data_PCOD8009714
_publ_section_title
;
Structure prediction by ZEFSAII (Michael W. Deem and Ramdas Pophale) SiO2 
 PCOD8009714
Probable space group: P -1
;
_chemical_formula_sum "Si O2"
_cell_formula_units_Z 16
_cell_length_a 7.979473
_cell_length_b 19.172390
_cell_length_c 7.165253
_cell_angle_alpha 92.266070
_cell_angle_beta 124.163883
_cell_angle_gamma 114.995379
_cell_volume 764.011593
_symmetry_space_group_name_H-M "P -1"
_symmetry_group_IT_number 2
_symmetry_cell_setting 'triclinic'
loop_
_space_group_symop_operation_xyz
x,y,z
-x,-y,-z
loop_
_atom_site_type_symbol
_atom_site_label
_atom_site_fract_x
_atom_site_fract_y
_atom_site_fract_z
Si Si1 0.414736 0.875261 0.859360
Si Si2 0.875759 0.669413 0.813063
Si Si3 0.753469 0.066569 0.581101
Si Si4 0.035999 0.991703 0.806526
Si Si5 0.248362 0.431697 0.609859
Si Si6 0.540374 0.608291 0.928390
Si Si7 0.958657 0.153214 0.097721
Si Si8 0.263476 0.696183 0.805754
O O1 0.273656 0.885660 0.601520
O O2 0.300796 0.875548 0.984410
O O3 0.392005 0.787682 0.806688
O O4 0.684248 0.951029 0.056321
O O5 0.696676 0.590651 0.563071
O O6 0.787284 0.647417 0.967773
O O7 0.860485 0.748419 0.752674
O O8 0.150109 0.692275 0.943003
O O9 0.883087 0.018099 0.588333
O O10 0.500000 0.000000 0.500000
O O11 0.922762 0.131726 0.852930
O O12 0.943446 0.894285 0.722743
O O13 0.000000 0.000000 0.000000
O O14 0.325162 0.527048 0.679975
O O15 0.963975 0.369852 0.471575
O O16 0.413364 0.417702 0.848185
O O17 0.463050 0.673159 0.927156
#
# Coordination Sequence:
#
# PCOD8009714 Si02
#       8
#     2   2   2   2   2   2   2   2
#     4  11  22  42  57  85 123 150 193 255 283 343
#     4   9  22  39  60  92 122 154 201 249 286 362
#     4  11  23  38  61  83 113 159 197 239 292 349
#     4  10  21  37  60  85 113 155 204 233 289 359
#     4   9  22  42  59  98 116 154 208 235 298 372
#     4  11  20  41  69  81 128 161 185 255 303 342
#     4  10  22  40  58  85 121 151 198 246 289 344
#     4   9  23  39  60  93 121 154 204 242 295 362
#
# _framework density 20.942091000000001
#
# number of rings (size 3 to 8) (size 9 to 14) (size 15 to 20)
#    0.750    1.250    2.500    1.125    5.250    0.500 
#    2.250    2.500    0.000    0.000    0.000    0.000 
#    0.000    0.000    0.000    0.000    0.000    0.000 
#
# Total GULP energy -198217.604953 kJ/mol
# GULP energy per Si atom -12388.600310 kJ/mol
# Density = 2.089443 g / cm^3
# Si number density = 20.942091 Si / 1000 Ang^3
#
#
#
# Elastic Constant Matrix: (Units=GPa)
#
#
# Indices 1 2 3 4 5 6 
#
# 1 73.3231 17.7728 6.5126 -12.0046 -3.3221 -14.8304
# 2 17.7728 102.2501 3.4529 -12.6216 -0.1271 -24.3573
# 3 6.5126 3.4529 32.0700 -14.3756 5.8532 -11.3665
# 4 -12.0046 -12.6216 -14.3756 27.7317 -4.0118 5.5597
# 5 -3.3221 -0.1271 5.8532 -4.0118 18.1587 -1.7069
# 6 -14.8304 -24.3573 -11.3665 5.5597 -1.7069 35.0614
#
#
#
# Elastic Compliance Matrix: (Units=1/GPa)
#
#
# Indices 1 2 3 4 5 6 
#
# 1 0.016212 -0.000595 0.001065 0.006785 0.004676 0.005941
# 2 -0.000595 0.012657 0.004621 0.006178 0.000710 0.009094
# 3 0.001065 0.004621 0.047702 0.023023 -0.008647 0.015053
# 4 0.006785 0.006178 0.023023 0.053351 0.006258 0.006470
# 5 0.004676 0.000710 -0.008647 0.006258 0.060252 0.001609
# 6 0.005941 0.009094 0.015053 0.006470 0.001609 0.041284
#
#
# Mechanical properties :
#
#
# Convention : Reuss Voigt Hill
#
# Bulk Modulus (GPa) = 11.52695 29.23555 20.38125
# Shear Modulus (GPa) = 19.98445 28.18403 24.08424
#
# Velocity S-wave (km/s) = 3.09248 3.67251 3.39490
# Velocity P-wave (km/s) = 4.27404 5.65452 5.01203
#
# Compressibility (1/GPa) = 0.08675323
#
# Stress axis : x y z
#
# Youngs Moduli (GPa) = 61.68184 79.00647 20.96356
#
# Poissons Ratio (x) = 0.04704 -0.02233
# Poissons Ratio (y) = 0.03673 -0.09687
# Poissons Ratio (z) = -0.06571 -0.36509
#
# Static dielectric constant tensor:
#      x y z
#    x 3.359830 -0.274960 -0.273550 
#    y -0.274960 4.152540 0.030330 
#    z -0.273550 0.030330 3.363680 
# 
# 
# High freq. dielectric constant tensor:
#      x y z
#    x 1.823480 -0.008120 -0.005900 
#    y -0.008120 1.834670 0.008490 
#    z -0.005900 0.008490 1.781540 
# 
# From -- ./inp_files/215220.got.cif
#   From: 2010.06.25/outbox.cif.g09.slc.cpg/sg2_108_cif.got.tgz:215220.got - 2010.06.27 13:26:56.
