data_PCOD8009290
_publ_section_title
;
Structure prediction by ZEFSAII (Michael W. Deem and Ramdas Pophale) SiO2 
 PCOD8009290
Probable space group: P -1
;
_chemical_formula_sum "Si O2"
_cell_formula_units_Z 16
_cell_length_a 11.605743
_cell_length_b 9.122111
_cell_length_c 9.616743
_cell_angle_alpha 96.711326
_cell_angle_beta 120.170336
_cell_angle_gamma 63.387997
_cell_volume 779.190742
_symmetry_space_group_name_H-M "P -1"
_symmetry_group_IT_number 2
_symmetry_cell_setting 'triclinic'
loop_
_space_group_symop_operation_xyz
x,y,z
-x,-y,-z
loop_
_atom_site_type_symbol
_atom_site_label
_atom_site_fract_x
_atom_site_fract_y
_atom_site_fract_z
Si Si1 0.635557 0.851368 0.297902
Si Si2 0.626270 0.097767 0.550845
Si Si3 0.822342 0.260246 0.641949
Si Si4 0.688614 0.042158 0.898263
Si Si5 0.987292 0.569938 0.847085
Si Si6 0.307788 0.375675 0.463075
Si Si7 0.885440 0.190457 0.980759
Si Si8 0.135097 0.214467 0.801341
O O1 0.477883 0.892287 0.132799
O O2 0.704508 0.669391 0.387912
O O3 0.744417 0.872485 0.256127
O O4 0.600712 0.970660 0.424076
O O5 0.749915 0.138120 0.554380
O O6 0.689686 0.014415 0.729616
O O7 0.472235 0.264479 0.489322
O O8 0.719132 0.436384 0.530325
O O9 0.826662 0.290275 0.813046
O O10 0.991261 0.184736 0.676450
O O11 0.748232 0.180028 0.978730
O O12 0.797163 0.868094 0.017436
O O13 0.815801 0.649454 0.704273
O O14 0.089119 0.409709 0.796955
O O15 0.000000 0.500000 0.000000
O O16 0.044491 0.709713 0.878067
O O17 0.000000 0.000000 0.000000
#
# Coordination Sequence:
#
# PCOD8009290 Si02
#       8
#     2   2   2   2   2   2   2   2
#     4  11  25  38  59  89 123 168 188 243 296 356
#     4  10  23  36  64  90 116 160 198 242 299 345
#     4  10  21  36  60  92 116 155 193 256 294 341
#     4  10  21  40  61  88 121 156 203 247 284 349
#     4  11  22  36  64  92 112 158 192 247 296 346
#     4  10  21  39  60  85 125 150 204 238 294 360
#     4  11  20  34  62  93 114 142 202 255 288 337
#     4  11  23  41  60  88 126 153 204 240 297 352
#
# _framework density 20.534125
#
# number of rings (size 3 to 8) (size 9 to 14) (size 15 to 20)
#    0.000    1.500    3.750    2.250    8.750    2.500 
#    0.000    1.875    0.000    0.000    0.000    0.000 
#    0.000    0.000    0.000    0.000    0.000    0.000 
#
# Total GULP energy -198353.156662 kJ/mol
# GULP energy per Si atom -12397.072291 kJ/mol
# Density = 2.048739 g / cm^3
# Si number density = 20.534125 Si / 1000 Ang^3
#
#
#
# Elastic Constant Matrix: (Units=GPa)
#
#
# Indices 1 2 3 4 5 6 
#
# 1 151.8639 39.4888 31.1365 -5.3394 17.3757 6.7905
# 2 39.4888 72.6867 33.4599 -22.9542 4.9381 13.1906
# 3 31.1365 33.4599 62.1120 -18.2073 13.1275 -0.0638
# 4 -5.3394 -22.9542 -18.2073 31.9939 0.8687 5.8210
# 5 17.3757 4.9381 13.1275 0.8687 33.3445 3.9703
# 6 6.7905 13.1906 -0.0638 5.8210 3.9703 33.9694
#
#
#
# Elastic Compliance Matrix: (Units=1/GPa)
#
#
# Indices 1 2 3 4 5 6 
#
# 1 0.008374 -0.004590 -0.002031 -0.003152 -0.002920 0.000986
# 2 -0.004590 0.027384 -0.008195 0.016486 0.002665 -0.012868
# 3 -0.002031 -0.008195 0.025671 0.008029 -0.008430 0.003246
# 4 -0.003152 0.016486 0.008029 0.049747 -0.003606 -0.013860
# 5 -0.002920 0.002665 -0.008430 -0.003606 0.034999 -0.003940
# 6 0.000986 -0.012868 0.003246 -0.013860 -0.003940 0.037079
#
#
# Mechanical properties :
#
#
# Convention : Reuss Voigt Hill
#
# Bulk Modulus (GPa) = 31.44876 54.98144 43.21510
# Shear Modulus (GPa) = 22.37283 32.03339 27.20311
#
# Velocity S-wave (km/s) = 3.30440 3.95398 3.64370
# Velocity P-wave (km/s) = 5.46877 6.90500 6.22842
#
# Compressibility (1/GPa) = 0.03179775
#
# Stress axis : x y z
#
# Youngs Moduli (GPa) = 119.41715 36.51757 38.95411
#
# Poissons Ratio (x) = 0.16763 0.07911
# Poissons Ratio (y) = 0.54818 0.31921
# Poissons Ratio (z) = 0.24251 0.29924
#
# Static dielectric constant tensor:
#      x y z
#    x 3.959010 0.274450 0.373380 
#    y 0.274450 3.697580 -0.247710 
#    z 0.373380 -0.247710 3.682730 
# 
# 
# High freq. dielectric constant tensor:
#      x y z
#    x 1.811790 0.020610 0.027000 
#    y 0.020610 1.789430 -0.031310 
#    z 0.027000 -0.031310 1.787880 
# 
# From -- ./inp_files/244715.got.cif
#   From: 2010.06.25/outbox.cif.g09.slc.cpg/sg2_123_cif.got.tgz:244715.got - 2010.06.27 13:26:56.
