data_PCOD8009413
_publ_section_title
;
Structure prediction by ZEFSAII (Michael W. Deem and Ramdas Pophale) SiO2 
 PCOD8009413
Probable space group: P -1
;
_chemical_formula_sum "Si O2"
_cell_formula_units_Z 12
_cell_length_a 11.246366
_cell_length_b 14.416336
_cell_length_c 9.871003
_cell_angle_alpha 109.498964
_cell_angle_beta 87.639723
_cell_angle_gamma 30.445973
_cell_volume 554.296196
_symmetry_space_group_name_H-M "P -1"
_symmetry_group_IT_number 2
_symmetry_cell_setting 'triclinic'
loop_
_space_group_symop_operation_xyz
x,y,z
-x,-y,-z
loop_
_atom_site_type_symbol
_atom_site_label
_atom_site_fract_x
_atom_site_fract_y
_atom_site_fract_z
Si Si1 0.736960 0.234651 0.234786
Si Si2 0.302694 0.179957 0.228764
Si Si3 0.742917 0.958522 0.437323
Si Si4 0.865799 0.188342 0.500307
Si Si5 0.760555 0.747936 0.219931
Si Si6 0.373699 0.332871 0.409579
O O1 0.932718 0.111916 0.302526
O O2 0.524015 0.491325 0.313250
O O3 0.473134 0.352307 0.330769
O O4 0.000000 0.000000 0.000000
O O5 0.294536 0.305030 0.295855
O O6 0.945746 0.405733 0.354825
O O7 0.467700 0.012409 0.273299
O O8 0.500000 0.000000 0.000000
O O9 0.387465 0.205855 0.633079
O O10 0.680932 0.074893 0.366648
O O11 0.928562 0.715181 0.263836
O O12 0.950975 0.852665 0.489389
O O13 0.000000 0.000000 0.500000
O O14 0.000000 0.500000 0.000000
#
# Coordination Sequence:
#
# PCOD8009413 Si02
#       6
#     2   2   2   2   2   2
#     4  11  26  45  68 100 134 182 232 278 339 407
#     4  10  21  36  63  93 125 168 211 274 336 392
#     4  10  21  40  64  88 129 172 215 273 330 393
#     4  11  24  46  69  96 133 181 225 283 337 397
#     4  10  21  37  60  96 125 165 216 267 334 395
#     4  10  21  41  61  90 131 169 217 275 329 393
#
# _framework density 21.649076000000001
#
# number of rings (size 3 to 8) (size 9 to 14) (size 15 to 20)
#    0.000    1.667    1.667    2.000    0.000   10.000 
#    6.000    0.000    0.000    0.000    0.000    0.000 
#    0.000    0.000    0.000    0.000    0.000    0.000 
#
# Total GULP energy -148763.472250 kJ/mol
# GULP energy per Si atom -12396.956021 kJ/mol
# Density = 2.159980 g / cm^3
# Si number density = 21.649076 Si / 1000 Ang^3
#
#
#
# Elastic Constant Matrix: (Units=GPa)
#
#
# Indices 1 2 3 4 5 6 
#
# 1 115.1438 46.8120 56.8394 -4.1755 12.6326 -14.7514
# 2 46.8120 115.4392 40.2247 -2.2722 9.5400 7.8153
# 3 56.8394 40.2247 187.4682 5.7722 19.0067 -3.6639
# 4 -4.1755 -2.2722 5.7722 27.9823 -0.3300 6.0311
# 5 12.6326 9.5400 19.0067 -0.3300 31.0786 -4.5443
# 6 -14.7514 7.8153 -3.6639 6.0311 -4.5443 36.1402
#
#
#
# Elastic Compliance Matrix: (Units=1/GPa)
#
#
# Indices 1 2 3 4 5 6 
#
# 1 0.012718 -0.004474 -0.002679 0.000870 -0.001334 0.005574
# 2 -0.004474 0.011340 -0.001043 0.001493 -0.001718 -0.004849
# 3 -0.002679 -0.001043 0.006701 -0.001851 -0.002741 -0.000224
# 4 0.000870 0.001493 -0.001851 0.037765 -0.000228 -0.006486
# 5 -0.001334 -0.001718 -0.002741 -0.000228 0.035513 0.004053
# 6 0.005574 -0.004849 -0.000224 -0.006486 0.004053 0.032563
#
#
# Mechanical properties :
#
#
# Convention : Reuss Voigt Hill
#
# Bulk Modulus (GPa) = 69.60473 78.42258 74.01365
# Shear Modulus (GPa) = 31.68961 37.31856 34.50409
#
# Velocity S-wave (km/s) = 3.83010 4.15637 3.99656
# Velocity P-wave (km/s) = 7.19588 7.70305 7.45378
#
# Compressibility (1/GPa) = 0.01436684
#
# Stress axis : x y z
#
# Youngs Moduli (GPa) = 78.62893 88.18343 149.23588
#
# Poissons Ratio (x) = 0.39453 0.39976
# Poissons Ratio (y) = 0.35178 0.15570
# Poissons Ratio (z) = 0.21062 0.09201
#
# Static dielectric constant tensor:
#      x y z
#    x 4.193100 -0.016740 0.581170 
#    y -0.016740 4.380450 -0.119930 
#    z 0.581170 -0.119930 4.083610 
# 
# 
# High freq. dielectric constant tensor:
#      x y z
#    x 1.848590 0.005350 0.021070 
#    y 0.005350 1.866550 -0.006740 
#    z 0.021070 -0.006740 1.836460 
# 
# From -- ./inp_files/44748.got.cif
#   From: 2010.06.25/outbox.cif.g09.slc.cpg/sg2_23_cif.got.tgz:44748.got - 2010.06.27 13:26:56.
