data_PCOD8009275
_publ_section_title
;
Structure prediction by ZEFSAII (Michael W. Deem and Ramdas Pophale) SiO2 
 PCOD8009275
Probable space group: P -1
;
_chemical_formula_sum "Si O2"
_cell_formula_units_Z 14
_cell_length_a 13.780674
_cell_length_b 15.078616
_cell_length_c 14.344515
_cell_angle_alpha 150.445651
_cell_angle_beta 44.878458
_cell_angle_gamma 151.643944
_cell_volume 677.367071
_symmetry_space_group_name_H-M "P -1"
_symmetry_group_IT_number 2
_symmetry_cell_setting 'triclinic'
loop_
_space_group_symop_operation_xyz
x,y,z
-x,-y,-z
loop_
_atom_site_type_symbol
_atom_site_label
_atom_site_fract_x
_atom_site_fract_y
_atom_site_fract_z
Si Si1 0.231501 0.171681 0.695611
Si Si2 0.519182 0.413304 0.265598
Si Si3 0.445738 0.244198 0.778895
Si Si4 0.772064 0.612505 0.457461
Si Si5 0.733051 0.182070 0.156920
Si Si6 0.859541 0.212153 0.285805
Si Si7 0.874902 0.627156 0.903530
O O1 0.369975 0.411459 0.744187
O O2 0.376799 0.166644 0.645670
O O3 0.152276 0.230006 0.881692
O O4 0.025618 0.872837 0.519833
O O5 0.693957 0.593459 0.391602
O O6 0.324014 0.350166 0.365022
O O7 0.430880 0.124162 0.053071
O O8 0.649462 0.325216 0.743073
O O9 0.250621 0.999571 0.750601
O O10 0.500000 0.500000 0.000000
O O11 0.687015 0.329169 0.278419
O O12 0.701664 0.152849 0.264411
O O13 0.980105 0.376254 0.143804
O O14 0.000000 0.500000 0.500000
O O15 0.995658 0.200567 0.122667
#
# Coordination Sequence:
#
# PCOD8009275 Si02
#       7
#     2   2   2   2   2   2   2
#     4  11  22  41  64  93 129 164 210 261 313 369
#     4  11  24  44  67  91 125 166 212 266 314 370
#     4  10  21  36  60  88 122 166 201 242 310 372
#     4  11  23  44  67  93 122 164 217 263 313 371
#     4  10  21  43  65  91 129 165 204 262 313 368
#     4  10  21  38  58  89 129 163 206 254 297 375
#     4   9  22  39  61  89 134 161 204 252 310 376
#
# _framework density 20.668261999999999
#
# number of rings (size 3 to 8) (size 9 to 14) (size 15 to 20)
#    0.857    0.857    1.429    3.429    0.000    5.143 
#    5.143    0.714    0.000    0.000    0.000    0.000 
#    0.000    0.000    0.000    0.000    0.000    0.000 
#
# Total GULP energy -173435.203211 kJ/mol
# GULP energy per Si atom -12388.228801 kJ/mol
# Density = 2.062122 g / cm^3
# Si number density = 20.668262 Si / 1000 Ang^3
#
#
#
# Elastic Constant Matrix: (Units=GPa)
#
#
# Indices 1 2 3 4 5 6 
#
# 1 81.0410 42.7283 23.3479 4.0050 14.1566 -5.3542
# 2 42.7283 113.0579 42.6479 18.5598 1.6451 -19.1486
# 3 23.3479 42.6479 85.2554 15.6414 2.7100 -6.9943
# 4 4.0050 18.5598 15.6414 27.3602 0.7615 4.9522
# 5 14.1566 1.6451 2.7100 0.7615 34.5968 9.1444
# 6 -5.3542 -19.1486 -6.9943 4.9522 9.1444 31.4014
#
#
#
# Elastic Compliance Matrix: (Units=1/GPa)
#
#
# Indices 1 2 3 4 5 6 
#
# 1 0.017152 -0.006068 -0.001947 0.002852 -0.006719 0.000298
# 2 -0.006068 0.015603 -0.003690 -0.009242 -0.000191 0.009172
# 3 -0.001947 -0.003690 0.015475 -0.006415 -0.000644 0.002064
# 4 0.002852 -0.009242 -0.006415 0.048716 0.002678 -0.015041
# 5 -0.006719 -0.000191 -0.000644 0.002678 0.034817 -0.011967
# 6 0.000298 0.009172 0.002064 -0.015041 -0.011967 0.043806
#
#
# Mechanical properties :
#
#
# Convention : Reuss Voigt Hill
#
# Bulk Modulus (GPa) = 40.28768 55.20025 47.74397
# Shear Modulus (GPa) = 24.12513 30.04701 27.08607
#
# Velocity S-wave (km/s) = 3.42022 3.81698 3.62403
# Velocity P-wave (km/s) = 5.92723 6.79643 6.37666
#
# Compressibility (1/GPa) = 0.02482148
#
# Stress axis : x y z
#
# Youngs Moduli (GPa) = 58.30236 64.08884 64.62010
#
# Poissons Ratio (x) = 0.38888 0.12582
# Poissons Ratio (y) = 0.35376 0.23842
# Poissons Ratio (z) = 0.11352 0.23646
#
# Static dielectric constant tensor:
#      x y z
#    x 4.188910 0.258260 0.297410 
#    y 0.258260 3.730600 0.010400 
#    z 0.297410 0.010400 3.548540 
# 
# 
# High freq. dielectric constant tensor:
#      x y z
#    x 1.813120 0.003490 0.019660 
#    y 0.003490 1.800240 0.006680 
#    z 0.019660 0.006680 1.803390 
# 
# From -- ./inp_files/534568.got.cif
#   From: 2010.06.25/outbox.cif.g09.slc.cpg/sg2_268_cif.got.tgz:534568.got - 2010.06.27 13:26:56.
