data_PCOD8009419
_publ_section_title
;
Structure prediction by ZEFSAII (Michael W. Deem and Ramdas Pophale) SiO2 
 PCOD8009419
Probable space group: P -1
;
_chemical_formula_sum "Si O2"
_cell_formula_units_Z 16
_cell_length_a 6.776752
_cell_length_b 20.812011
_cell_length_c 8.105047
_cell_angle_alpha 126.469280
_cell_angle_beta 119.212782
_cell_angle_gamma 94.708247
_cell_volume 680.266581
_symmetry_space_group_name_H-M "P -1"
_symmetry_group_IT_number 2
_symmetry_cell_setting 'triclinic'
loop_
_space_group_symop_operation_xyz
x,y,z
-x,-y,-z
loop_
_atom_site_type_symbol
_atom_site_label
_atom_site_fract_x
_atom_site_fract_y
_atom_site_fract_z
Si Si1 0.160600 0.484928 0.248011
Si Si2 0.223150 0.170334 0.669765
Si Si3 0.382312 0.561252 0.102407
Si Si4 0.757692 0.897903 0.070045
Si Si5 0.769934 0.104506 0.124324
Si Si6 0.332153 0.348961 0.156966
Si Si7 0.794456 0.746878 0.693027
Si Si8 0.325068 0.032842 0.381046
O O1 0.262157 0.539703 0.202208
O O2 0.145779 0.386182 0.075978
O O3 0.369635 0.558476 0.578101
O O4 0.867725 0.460798 0.147301
O O5 0.175853 0.123714 0.756928
O O6 0.945638 0.133245 0.403901
O O7 0.418790 0.144191 0.606844
O O8 0.349054 0.281369 0.925392
O O9 0.617952 0.671034 0.364257
O O10 0.500000 0.500000 0.000000
O O11 0.032377 0.990200 0.273347
O O12 0.519782 0.915668 0.988950
O O13 0.674089 0.811477 0.779216
O O14 0.910474 0.184897 0.160752
O O15 0.711683 0.003705 0.877409
O O16 0.203242 0.301264 0.208181
O O17 0.500000 0.000000 0.500000
#
# Coordination Sequence:
#
# PCOD8009419 Si02
#       8
#     2   2   2   2   2   2   2   2
#     4   9  20  41  63  89 131 168 210 269 320 382
#     4  11  23  40  69  97 123 176 218 260 325 386
#     4  10  21  36  63  94 126 167 212 263 325 382
#     4  10  23  45  65  91 131 175 210 263 326 380
#     4  11  24  42  67  93 132 168 216 270 317 385
#     4   9  20  42  66  91 128 172 215 264 328 377
#     4   9  22  41  58  96 129 164 213 268 317 382
#     4  11  23  46  66  96 138 168 211 269 323 385
#
# _framework density 23.520192000000002
#
# number of rings (size 3 to 8) (size 9 to 14) (size 15 to 20)
#    0.000    2.000    1.250    0.750    3.500    3.500 
#    6.750    5.625    0.000    0.000    0.000    0.000 
#    0.000    0.000    0.000    0.000    0.000    0.000 
#
# Total GULP energy -198243.324708 kJ/mol
# GULP energy per Si atom -12390.207794 kJ/mol
# Density = 2.346666 g / cm^3
# Si number density = 23.520192 Si / 1000 Ang^3
#
#
#
# Elastic Constant Matrix: (Units=GPa)
#
#
# Indices 1 2 3 4 5 6 
#
# 1 135.5618 30.2103 71.2892 13.0600 6.9493 -41.8749
# 2 30.2103 58.3899 31.0740 5.7100 1.5209 -32.6817
# 3 71.2892 31.0740 139.7998 6.9032 -18.4251 -35.6317
# 4 13.0600 5.7100 6.9032 39.9257 -14.4023 -7.7404
# 5 6.9493 1.5209 -18.4251 -14.4023 40.5694 2.2936
# 6 -41.8749 -32.6817 -35.6317 -7.7404 2.2936 43.4774
#
#
#
# Elastic Compliance Matrix: (Units=1/GPa)
#
#
# Indices 1 2 3 4 5 6 
#
# 1 0.013687 0.001905 -0.005694 -0.004492 -0.007135 0.009525
# 2 0.001905 0.030377 -0.002479 -0.001790 -0.004502 0.022556
# 3 -0.005694 -0.002479 0.012168 0.003421 0.007649 0.002830
# 4 -0.004492 -0.001790 0.003421 0.031416 0.013429 0.002016
# 5 -0.007135 -0.004502 0.007649 0.013429 0.034475 -0.003415
# 6 0.009525 0.022556 0.002830 0.002016 -0.003415 0.051988
#
#
# Mechanical properties :
#
#
# Convention : Reuss Voigt Hill
#
# Bulk Modulus (GPa) = 22.88529 66.54427 44.71478
# Shear Modulus (GPa) = 24.84914 38.20637 31.52776
#
# Velocity S-wave (km/s) = 3.25391 4.03477 3.66519
# Velocity P-wave (km/s) = 4.88554 7.07528 6.07981
#
# Compressibility (1/GPa) = 0.04369619
#
# Stress axis : x y z
#
# Youngs Moduli (GPa) = 73.05989 32.91914 82.18036
#
# Poissons Ratio (x) = -0.06271 0.46794
# Poissons Ratio (y) = -0.13918 0.20376
# Poissons Ratio (z) = 0.41601 0.08162
#
# Static dielectric constant tensor:
#      x y z
#    x 4.215820 -0.173100 -0.187050 
#    y -0.173100 4.301160 0.178240 
#    z -0.187050 0.178240 4.744730 
# 
# 
# High freq. dielectric constant tensor:
#      x y z
#    x 1.921580 -0.014080 -0.015090 
#    y -0.014080 1.929070 0.002720 
#    z -0.015090 0.002720 1.941170 
# 
# From -- ./inp_files/142703.got.cif
#   From: 2010.06.25/outbox.cif.g09.slc.cpg/sg2_72_cif.got.tgz:142703.got - 2010.06.27 13:26:56.
