data_PCOD8009552
_publ_section_title
;
Structure prediction by ZEFSAII (Michael W. Deem and Ramdas Pophale) SiO2 
 PCOD8009552
Probable space group: P -1
;
_chemical_formula_sum "Si O2"
_cell_formula_units_Z 16
_cell_length_a 9.613603
_cell_length_b 22.514589
_cell_length_c 8.856291
_cell_angle_alpha 53.300289
_cell_angle_beta 148.760881
_cell_angle_gamma 117.343755
_cell_volume 790.901522
_symmetry_space_group_name_H-M "P -1"
_symmetry_group_IT_number 2
_symmetry_cell_setting 'triclinic'
loop_
_space_group_symop_operation_xyz
x,y,z
-x,-y,-z
loop_
_atom_site_type_symbol
_atom_site_label
_atom_site_fract_x
_atom_site_fract_y
_atom_site_fract_z
Si Si1 0.276737 0.917426 0.810444
Si Si2 0.935107 0.306636 0.295457
Si Si3 0.615702 0.792241 0.763751
Si Si4 0.847735 0.304959 0.560210
Si Si5 0.515989 0.790556 0.013643
Si Si6 0.753775 0.460451 0.384882
Si Si7 0.738158 0.918406 0.465951
Si Si8 0.781424 0.460419 0.767546
O O1 0.993107 0.888219 0.639958
O O2 0.212183 0.999690 0.549518
O O3 0.469945 0.862916 0.965261
O O4 0.449765 0.925451 0.107724
O O5 0.858156 0.333634 0.353475
O O6 0.249318 0.273797 0.614825
O O7 0.768893 0.240168 0.199594
O O8 0.846254 0.373285 0.997093
O O9 0.347022 0.760070 0.502503
O O10 0.704976 0.863328 0.655765
O O11 0.586755 0.817138 0.872722
O O12 0.852834 0.725201 0.064301
O O13 0.760314 0.373480 0.484901
O O14 0.762360 0.471288 0.554969
O O15 0.000000 0.500000 0.500000
O O16 0.500000 0.500000 0.000000
O O17 0.500000 0.500000 0.500000
O O18 0.000000 0.500000 0.000000
#
# Coordination Sequence:
#
# PCOD8009552 Si02
#       8
#     2   2   2   2   2   2   2   2
#     4  10  21  37  57  83 116 153 192 238 291 346
#     4  10  21  38  59  86 118 151 192 243 296 349
#     4  10  21  37  59  85 115 152 193 240 292 347
#     4  10  21  38  59  86 118 151 192 243 296 349
#     4  10  21  37  59  85 115 152 193 240 292 347
#     4  12  25  42  64  90 120 158 201 246 299 357
#     4  10  21  37  57  83 116 153 192 238 291 346
#     4  12  25  42  64  90 120 158 201 246 299 357
#
# _framework density 20.230077999999999
#
# number of rings (size 3 to 8) (size 9 to 14) (size 15 to 20)
#    0.000    1.500    0.000    5.250    0.000    5.500 
#    0.000    0.000    0.000    9.000    0.000    0.000 
#    0.000    0.000    0.000    0.000    0.000    0.000 
#
# Total GULP energy -198344.871119 kJ/mol
# GULP energy per Si atom -12396.554445 kJ/mol
# Density = 2.018403 g / cm^3
# Si number density = 20.230078 Si / 1000 Ang^3
#
#
#
# Elastic Constant Matrix: (Units=GPa)
#
#
# Indices 1 2 3 4 5 6 
#
# 1 121.3568 54.1490 56.4889 -14.8519 -4.2091 -1.3150
# 2 54.1490 74.0223 38.2988 -13.0172 -6.9908 -1.2618
# 3 56.4889 38.2988 100.2285 7.3422 2.2618 1.6048
# 4 -14.8519 -13.0172 7.3422 35.8891 3.5224 2.1257
# 5 -4.2091 -6.9908 2.2618 3.5224 38.3886 -3.4749
# 6 -1.3150 -1.2618 1.6048 2.1257 -3.4749 39.8304
#
#
#
# Elastic Compliance Matrix: (Units=1/GPa)
#
#
# Indices 1 2 3 4 5 6 
#
# 1 0.014659 -0.006699 -0.006068 0.004829 0.000328 0.000287
# 2 -0.006699 0.022600 -0.005395 0.006176 0.003192 0.000661
# 3 -0.006068 -0.005395 0.016066 -0.007514 -0.001976 -0.000790
# 4 0.004829 0.006176 -0.007514 0.033823 -0.001119 -0.001245
# 5 0.000328 0.003192 -0.001976 -0.001119 0.027123 0.002618
# 6 0.000287 0.000661 -0.000790 -0.001245 0.002618 0.025463
#
#
# Mechanical properties :
#
#
# Convention : Reuss Voigt Hill
#
# Bulk Modulus (GPa) = 58.81881 65.94232 62.38057
# Shear Modulus (GPa) = 27.51383 32.59969 30.05676
#
# Velocity S-wave (km/s) = 3.69188 4.01864 3.85872
# Velocity P-wave (km/s) = 6.87833 7.36203 7.12429
#
# Compressibility (1/GPa) = 0.01700136
#
# Stress axis : x y z
#
# Youngs Moduli (GPa) = 68.21697 44.24706 62.24154
#
# Poissons Ratio (x) = 0.29641 0.37767
# Poissons Ratio (y) = 0.45698 0.33582
# Poissons Ratio (z) = 0.41393 0.23873
#
# Static dielectric constant tensor:
#      x y z
#    x 3.801130 0.122870 0.020410 
#    y 0.122870 3.680190 0.035110 
#    z 0.020410 0.035110 3.894820 
# 
# 
# High freq. dielectric constant tensor:
#      x y z
#    x 1.785420 0.005720 0.011060 
#    y 0.005720 1.793700 0.004910 
#    z 0.011060 0.004910 1.808350 
# 
# From -- ./inp_files/52682.got.cif
#   From: 2010.06.25/outbox.cif.g09.slc.cpg/sg2_27_cif.got.tgz:52682.got - 2010.06.27 13:26:56.
