data_PCOD8009851
_publ_section_title
;
Structure prediction by ZEFSAII (Michael W. Deem and Ramdas Pophale) SiO2 
 PCOD8009851
Probable space group: P -1
;
_chemical_formula_sum "Si O2"
_cell_formula_units_Z 16
_cell_length_a 9.229907
_cell_length_b 14.182876
_cell_length_c 8.865460
_cell_angle_alpha 113.334838
_cell_angle_beta 104.840494
_cell_angle_gamma 54.872252
_cell_volume 870.925775
_symmetry_space_group_name_H-M "P -1"
_symmetry_group_IT_number 2
_symmetry_cell_setting 'triclinic'
loop_
_space_group_symop_operation_xyz
x,y,z
-x,-y,-z
loop_
_atom_site_type_symbol
_atom_site_label
_atom_site_fract_x
_atom_site_fract_y
_atom_site_fract_z
Si Si1 0.980630 0.204467 0.936057
Si Si2 0.351814 0.970709 0.918891
Si Si3 0.754022 0.325216 0.660825
Si Si4 0.077674 0.572206 0.750354
Si Si5 0.325619 0.798051 0.999647
Si Si6 0.544049 0.591864 0.144350
Si Si7 0.211668 0.488618 0.406718
Si Si8 0.406913 0.742577 0.661858
O O1 0.905696 0.256529 0.782832
O O2 0.864219 0.159140 0.954258
O O3 0.176383 0.091416 0.893725
O O4 0.983440 0.300255 0.108641
O O5 0.407385 0.867400 0.739329
O O6 0.500000 0.000000 0.000000
O O7 0.326533 0.919603 0.039535
O O8 0.558428 0.375826 0.705525
O O9 0.772198 0.431950 0.667001
O O10 0.755830 0.240167 0.473183
O O11 0.248102 0.466522 0.816750
O O12 0.129343 0.568762 0.586743
O O13 0.918533 0.551020 0.715723
O O14 0.478982 0.711760 0.103296
O O15 0.363707 0.720023 0.806535
O O16 0.500000 0.500000 0.000000
O O17 0.403290 0.369003 0.412480
#
# Coordination Sequence:
#
# PCOD8009851 Si02
#       8
#     2   2   2   2   2   2   2   2
#     4  11  22  39  58  88 113 152 199 235 281 340
#     4  10  23  40  61  83 114 154 198 239 281 342
#     4  11  22  34  62  86 118 147 193 245 285 345
#     4  11  23  36  59  83 127 151 189 238 292 348
#     4   9  21  36  62  84 109 153 192 237 280 338
#     4  11  19  37  58  90 114 151 193 235 288 345
#     4  11  23  37  55  91 118 156 185 239 298 345
#     4  10  21  37  62  83 113 154 193 237 288 341
#
# _framework density 18.371255000000001
#
# number of rings (size 3 to 8) (size 9 to 14) (size 15 to 20)
#    0.750    0.750    3.750    3.000    0.000    2.000 
#    0.000    0.000    0.000    3.000    0.000    0.000 
#    0.000    0.000    0.000    0.000    0.000    0.000 
#
# Total GULP energy -198303.957652 kJ/mol
# GULP energy per Si atom -12393.997353 kJ/mol
# Density = 1.832944 g / cm^3
# Si number density = 18.371255 Si / 1000 Ang^3
#
#
#
# Elastic Constant Matrix: (Units=GPa)
#
#
# Indices 1 2 3 4 5 6 
#
# 1 90.2035 69.5500 50.5079 -8.6003 14.1485 0.3305
# 2 69.5500 126.5658 53.3307 0.6350 10.6476 -1.3727
# 3 50.5079 53.3307 90.6717 -8.2029 4.9940 9.0161
# 4 -8.6003 0.6350 -8.2029 19.7334 -2.2466 3.1889
# 5 14.1485 10.6476 4.9940 -2.2466 27.3709 0.4881
# 6 0.3305 -1.3727 9.0161 3.1889 0.4881 29.0159
#
#
#
# Elastic Compliance Matrix: (Units=1/GPa)
#
#
# Indices 1 2 3 4 5 6 
#
# 1 0.024296 -0.009982 -0.006695 0.007240 -0.006872 0.000651
# 2 -0.009982 0.015362 -0.004392 -0.007232 -0.000662 0.003011
# 3 -0.006695 -0.004392 0.018425 0.006223 0.002436 -0.006582
# 4 0.007240 -0.007232 0.006223 0.058405 0.002887 -0.008826
# 5 -0.006872 -0.000662 0.002436 0.002887 0.040168 -0.001703
# 6 0.000651 0.003011 -0.006582 -0.008826 -0.001703 0.037643
#
#
# Mechanical properties :
#
#
# Convention : Reuss Voigt Hill
#
# Bulk Modulus (GPa) = 62.71236 72.69092 67.70164
# Shear Modulus (GPa) = 20.68245 24.16086 22.42166
#
# Velocity S-wave (km/s) = 3.35894 3.63043 3.49732
# Velocity P-wave (km/s) = 7.01809 7.56485 7.29659
#
# Compressibility (1/GPa) = 0.01594582
#
# Stress axis : x y z
#
# Youngs Moduli (GPa) = 41.15820 65.09772 54.27494
#
# Poissons Ratio (x) = 0.64978 0.36334
# Poissons Ratio (y) = 0.41082 0.23839
# Poissons Ratio (z) = 0.27553 0.28593
#
# Static dielectric constant tensor:
#      x y z
#    x 3.265080 0.011210 0.060910 
#    y 0.011210 3.243450 -0.099670 
#    z 0.060910 -0.099670 3.516250 
# 
# 
# High freq. dielectric constant tensor:
#      x y z
#    x 1.712390 -0.003190 0.003660 
#    y -0.003190 1.703210 -0.004930 
#    z 0.003660 -0.004930 1.715780 
# 
# From -- ./inp_files/203209.got.cif
#   From: 2010.06.25/outbox.cif.g09.slc.cpg/sg2_102_cif.got.tgz:203209.got - 2010.06.27 13:26:56.
