data_PCOD8009069
_publ_section_title
;
Structure prediction by ZEFSAII (Michael W. Deem and Ramdas Pophale) SiO2 
 PCOD8009069
Probable space group: P -1
;
_chemical_formula_sum "Si O2"
_cell_formula_units_Z 14
_cell_length_a 13.982243
_cell_length_b 13.582033
_cell_length_c 7.761442
_cell_angle_alpha 97.535582
_cell_angle_beta 95.519433
_cell_angle_gamma 147.866773
_cell_volume 714.669446
_symmetry_space_group_name_H-M "P -1"
_symmetry_group_IT_number 2
_symmetry_cell_setting 'triclinic'
loop_
_space_group_symop_operation_xyz
x,y,z
-x,-y,-z
loop_
_atom_site_type_symbol
_atom_site_label
_atom_site_fract_x
_atom_site_fract_y
_atom_site_fract_z
Si Si1 0.613380 0.454056 0.614918
Si Si2 0.287844 0.886681 0.108488
Si Si3 0.334053 0.030660 0.504291
Si Si4 0.106645 0.368933 0.035212
Si Si5 0.447496 0.815405 0.080083
Si Si6 0.039814 0.913905 0.319680
Si Si7 0.298213 0.308659 0.579216
O O1 0.503325 0.253181 0.511611
O O2 0.485168 0.414136 0.705196
O O3 0.641467 0.533531 0.457381
O O4 0.819880 0.612382 0.770366
O O5 0.322115 0.802357 0.060692
O O6 0.062516 0.703373 0.973897
O O7 0.313370 0.929605 0.327481
O O8 0.433343 0.082991 0.056416
O O9 0.396242 0.041904 0.702155
O O10 0.133330 0.914459 0.465462
O O11 0.005121 0.183729 0.884724
O O12 0.293130 0.585040 0.015591
O O13 0.841772 0.788904 0.313137
O O14 0.194400 0.143248 0.380176
#
# Coordination Sequence:
#
# PCOD8009069 Si02
#       7
#     2   2   2   2   2   2   2
#     4   9  19  33  53  76 105 140 175 218 269 311
#     4  10  21  37  57  81 110 143 177 222 273 318
#     4   9  19  36  55  80 108 142 179 220 265 323
#     4  10  21  36  54  82 106 138 182 224 263 322
#     4  10  21  37  57  81 110 143 177 222 273 318
#     4   9  19  33  53  76 105 140 175 218 269 311
#     4   9  18  34  51  74 106 140 175 218 264 325
#
# _framework density 19.589475
#
# number of rings (size 3 to 8) (size 9 to 14) (size 15 to 20)
#    0.000    2.571    0.000    0.857    4.000    1.143 
#    0.000    0.000    0.000    8.571    0.000    0.000 
#    0.000    0.000    0.000    0.000    0.000    0.000 
#
# Total GULP energy -173442.568148 kJ/mol
# GULP energy per Si atom -12388.754868 kJ/mol
# Density = 1.954489 g / cm^3
# Si number density = 19.589475 Si / 1000 Ang^3
#
#
#
# Elastic Constant Matrix: (Units=GPa)
#
#
# Indices 1 2 3 4 5 6 
#
# 1 60.4380 9.7120 22.2188 10.2302 10.7014 6.6342
# 2 9.7120 42.8725 0.9509 -0.6430 4.6553 6.1442
# 3 22.2188 0.9509 54.4887 9.4405 9.1254 7.7666
# 4 10.2302 -0.6430 9.4405 24.7629 5.1481 6.6818
# 5 10.7014 4.6553 9.1254 5.1481 27.0885 3.9913
# 6 6.6342 6.1442 7.7666 6.6818 3.9913 29.6739
#
#
#
# Elastic Compliance Matrix: (Units=1/GPa)
#
#
# Indices 1 2 3 4 5 6 
#
# 1 0.021516 -0.004284 -0.007002 -0.005346 -0.004344 -0.000303
# 2 -0.004284 0.025413 0.001942 0.003780 -0.003278 -0.005223
# 3 -0.007002 0.001942 0.023045 -0.004081 -0.004054 -0.003404
# 4 -0.005346 0.003780 -0.004081 0.047586 -0.004944 -0.008569
# 5 -0.004344 -0.003278 -0.004054 -0.004944 0.041765 -0.001793
# 6 -0.000303 -0.005223 -0.003404 -0.008569 -0.001793 0.037910
#
#
# Mechanical properties :
#
#
# Convention : Reuss Voigt Hill
#
# Bulk Modulus (GPa) = 19.49831 24.84027 22.16929
# Shear Modulus (GPa) = 21.45758 24.63290 23.04524
#
# Velocity S-wave (km/s) = 3.31322 3.54991 3.43360
# Velocity P-wave (km/s) = 4.96101 5.43235 5.20202
#
# Compressibility (1/GPa) = 0.05128649
#
# Stress axis : x y z
#
# Youngs Moduli (GPa) = 46.47787 39.34923 43.39371
#
# Poissons Ratio (x) = 0.16856 0.30383
# Poissons Ratio (y) = 0.19910 -0.08426
# Poissons Ratio (z) = 0.32543 -0.07641
#
# Static dielectric constant tensor:
#      x y z
#    x 3.787580 0.148430 0.236350 
#    y 0.148430 3.613930 0.218070 
#    z 0.236350 0.218070 3.345210 
# 
# 
# High freq. dielectric constant tensor:
#      x y z
#    x 1.779820 0.006320 0.013770 
#    y 0.006320 1.759490 0.016820 
#    z 0.013770 0.016820 1.731100 
# 
# From -- ./inp_files/74654.got.cif
#   From: 2010.06.25/outbox.cif.g09.slc.cpg/sg2_38_cif.got.tgz:74654.got - 2010.06.27 13:26:56.
