data_PCOD8009132
_publ_section_title
;
Structure prediction by ZEFSAII (Michael W. Deem and Ramdas Pophale) SiO2 
 PCOD8009132
Probable space group: P -1
;
_chemical_formula_sum "Si O2"
_cell_formula_units_Z 14
_cell_length_a 15.785468
_cell_length_b 7.701811
_cell_length_c 16.790404
_cell_angle_alpha 65.388765
_cell_angle_beta 154.156829
_cell_angle_gamma 123.570483
_cell_volume 722.645851
_symmetry_space_group_name_H-M "P -1"
_symmetry_group_IT_number 2
_symmetry_cell_setting 'triclinic'
loop_
_space_group_symop_operation_xyz
x,y,z
-x,-y,-z
loop_
_atom_site_type_symbol
_atom_site_label
_atom_site_fract_x
_atom_site_fract_y
_atom_site_fract_z
Si Si1 0.088426 0.494028 0.450721
Si Si2 0.915219 0.562656 0.133783
Si Si3 0.093424 0.103658 0.475442
Si Si4 0.260037 0.928952 0.277278
Si Si5 0.874912 0.958722 0.015594
Si Si6 0.224328 0.917697 0.924069
Si Si7 0.291886 0.808443 0.698024
O O1 0.201553 0.359914 0.530011
O O2 0.265637 0.670385 0.623014
O O3 0.010003 0.603052 0.295833
O O4 0.874646 0.333619 0.348734
O O5 0.119531 0.673816 0.223995
O O6 0.773432 0.697276 0.985007
O O7 0.778757 0.313685 0.044922
O O8 0.262203 0.016833 0.607336
O O9 0.000000 0.000000 0.500000
O O10 0.906701 0.033700 0.264750
O O11 0.500000 0.000000 0.500000
O O12 0.264820 0.979298 0.177718
O O13 0.130553 0.048004 0.188709
O O14 0.870702 0.070312 0.073081
O O15 0.465876 0.106162 0.080932
#
# Coordination Sequence:
#
# PCOD8009132 Si02
#       7
#     2   2   2   2   2   2   2
#     4   9  19  37  57  81 117 154 193 235 270 343
#     4   9  20  38  58  84 117 145 191 234 281 339
#     4   9  20  37  52  80 119 148 192 234 269 329
#     4   9  20  41  63  79 115 150 178 240 297 335
#     4   9  21  39  59  86 115 140 193 238 280 346
#     4  11  22  36  60  88 115 153 190 236 277 337
#     4  10  21  36  57  82 117 157 191 230 285 321
#
# _framework density 19.373251
#
# number of rings (size 3 to 8) (size 9 to 14) (size 15 to 20)
#    0.857    1.714    0.000    0.857    2.000    6.857 
#    2.571   10.714    0.000    0.000    0.000    0.000 
#    0.000    0.000    0.000    0.000    0.000    0.000 
#
# Total GULP energy -173452.963507 kJ/mol
# GULP energy per Si atom -12389.497393 kJ/mol
# Density = 1.932916 g / cm^3
# Si number density = 19.373251 Si / 1000 Ang^3
#
#
#
# Elastic Constant Matrix: (Units=GPa)
#
#
# Indices 1 2 3 4 5 6 
#
# 1 66.6720 31.1255 43.7067 -5.7769 -26.6197 -10.2112
# 2 31.1255 66.3872 32.7568 -7.4778 -17.7710 0.4665
# 3 43.7067 32.7568 115.8187 -12.8517 -20.8726 -1.2064
# 4 -5.7769 -7.4778 -12.8517 29.5525 5.6646 -4.8108
# 5 -26.6197 -17.7710 -20.8726 5.6646 33.0241 -2.3640
# 6 -10.2112 0.4665 -1.2064 -4.8108 -2.3640 27.4305
#
#
#
# Elastic Compliance Matrix: (Units=1/GPa)
#
#
# Indices 1 2 3 4 5 6 
#
# 1 0.032212 -0.006801 -0.006634 0.000239 0.019037 0.013497
# 2 -0.006801 0.020640 -0.002452 0.001750 0.003605 -0.002373
# 3 -0.006634 -0.002452 0.012243 0.003109 0.000444 -0.001306
# 4 0.000239 0.001750 0.003109 0.037279 -0.002831 0.006490
# 5 0.019037 0.003605 0.000444 -0.002831 0.049104 0.010780
# 6 0.013497 -0.002373 -0.001306 0.006490 0.010780 0.043530
#
#
# Mechanical properties :
#
#
# Convention : Reuss Voigt Hill
#
# Bulk Modulus (GPa) = 30.01174 51.56176 40.78675
# Shear Modulus (GPa) = 21.01822 27.42069 24.21946
#
# Velocity S-wave (km/s) = 3.29737 3.76625 3.53958
# Velocity P-wave (km/s) = 5.47922 6.75171 6.14847
#
# Compressibility (1/GPa) = 0.03332030
#
# Stress axis : x y z
#
# Youngs Moduli (GPa) = 31.04480 48.44854 81.68135
#
# Poissons Ratio (x) = 0.32949 0.54190
# Poissons Ratio (y) = 0.21113 0.20029
# Poissons Ratio (z) = 0.20596 0.11880
#
# Static dielectric constant tensor:
#      x y z
#    x 3.679570 -0.148860 -0.247000 
#    y -0.148860 3.767460 -0.277920 
#    z -0.247000 -0.277920 3.431330 
# 
# 
# High freq. dielectric constant tensor:
#      x y z
#    x 1.745780 -0.003910 -0.018360 
#    y -0.003910 1.751930 -0.017110 
#    z -0.018360 -0.017110 1.744930 
# 
# From -- ./inp_files/340268.got.cif
#   From: 2010.06.25/outbox.cif.g09.slc.cpg/sg2_171_cif.got.tgz:340268.got - 2010.06.27 13:26:56.
