data_PCOD8009495
_publ_section_title
;
Structure prediction by ZEFSAII (Michael W. Deem and Ramdas Pophale) SiO2 
 PCOD8009495
Probable space group: P -1
;
_chemical_formula_sum "Si O2"
_cell_formula_units_Z 16
_cell_length_a 12.554740
_cell_length_b 19.247053
_cell_length_c 9.153113
_cell_angle_alpha 57.295447
_cell_angle_beta 131.339948
_cell_angle_gamma 154.230298
_cell_volume 711.812967
_symmetry_space_group_name_H-M "P -1"
_symmetry_group_IT_number 2
_symmetry_cell_setting 'triclinic'
loop_
_space_group_symop_operation_xyz
x,y,z
-x,-y,-z
loop_
_atom_site_type_symbol
_atom_site_label
_atom_site_fract_x
_atom_site_fract_y
_atom_site_fract_z
Si Si1 0.469958 0.080855 0.191650
Si Si2 0.477732 0.763754 0.404291
Si Si3 0.087743 0.902006 0.458684
Si Si4 0.215761 0.531913 0.653866
Si Si5 0.117950 0.467059 0.951655
Si Si6 0.849842 0.200399 0.620905
Si Si7 0.386055 0.205320 0.825704
Si Si8 0.800217 0.171748 0.143372
O O1 0.604215 0.139369 0.409566
O O2 0.723123 0.194969 0.178894
O O3 0.240232 0.891055 0.203980
O O4 0.336407 0.101865 0.005667
O O5 0.464546 0.678792 0.599921
O O6 0.657186 0.837363 0.336603
O O7 0.166203 0.626147 0.226309
O O8 0.613207 0.904320 0.464145
O O9 0.084580 0.839064 0.390592
O O10 0.038404 0.826694 0.649643
O O11 0.846055 0.846428 0.277905
O O12 0.311715 0.565481 0.870069
O O13 0.000000 0.500000 0.500000
O O14 0.106924 0.388330 0.667563
O O15 0.304143 0.601957 0.093142
O O16 0.023638 0.327108 0.064668
O O17 0.500000 0.000000 0.000000
#
# Coordination Sequence:
#
# PCOD8009495 Si02
#       8
#     2   2   2   2   2   2   2   2
#     4  10  21  36  68  93 132 172 233 268 328 391
#     4  11  23  43  69  99 131 180 228 279 326 407
#     4  11  26  42  69  99 141 177 221 281 346 395
#     4  10  23  40  67 100 134 169 224 279 335 390
#     4  11  23  39  70  96 130 174 230 276 330 396
#     4  10  23  41  67 101 135 180 226 279 329 400
#     4  12  25  43  67 103 137 179 220 281 348 396
#     4  11  20  39  66  96 128 174 234 279 319 397
#
# _framework density 22.477816000000001
#
# number of rings (size 3 to 8) (size 9 to 14) (size 15 to 20)
#    0.000    1.250    2.500    3.000   14.000    1.000 
#    0.000    0.625    0.000    0.000    0.000    0.000 
#    0.000    0.000    0.000    0.000    0.000    0.000 
#
# Total GULP energy -198213.815032 kJ/mol
# GULP energy per Si atom -12388.363440 kJ/mol
# Density = 2.242666 g / cm^3
# Si number density = 22.477816 Si / 1000 Ang^3
#
#
#
# Elastic Constant Matrix: (Units=GPa)
#
#
# Indices 1 2 3 4 5 6 
#
# 1 81.6319 21.3063 40.3050 -4.4691 -1.6572 -14.5681
# 2 21.3063 116.5007 49.7188 -30.0623 -9.2890 -18.0872
# 3 40.3050 49.7188 112.4924 -36.3901 9.7279 3.8481
# 4 -4.4691 -30.0623 -36.3901 52.5187 3.3212 -7.2878
# 5 -1.6572 -9.2890 9.7279 3.3212 36.6275 -0.2044
# 6 -14.5681 -18.0872 3.8481 -7.2878 -0.2044 31.0015
#
#
#
# Elastic Compliance Matrix: (Units=1/GPa)
#
#
# Indices 1 2 3 4 5 6 
#
# 1 0.017699 0.001581 -0.008445 -0.002320 0.003710 0.009766
# 2 0.001581 0.014373 -0.005947 0.005486 0.004861 0.011188
# 3 -0.008445 -0.005947 0.017937 0.007676 -0.007394 -0.007909
# 4 -0.002320 0.005486 0.007676 0.028601 -0.003302 0.007860
# 5 0.003710 0.004861 -0.007394 -0.003302 0.030993 0.004925
# 6 0.009766 0.011188 -0.007909 0.007860 0.004925 0.046235
#
#
# Mechanical properties :
#
#
# Convention : Reuss Voigt Hill
#
# Bulk Modulus (GPa) = 41.00938 59.25391 50.13164
# Shear Modulus (GPa) = 26.37268 37.31588 31.84428
#
# Velocity S-wave (km/s) = 3.42903 4.07888 3.76799
# Velocity P-wave (km/s) = 5.82766 6.97146 6.42506
#
# Compressibility (1/GPa) = 0.02438467
#
# Stress axis : x y z
#
# Youngs Moduli (GPa) = 56.50191 69.57537 55.75118
#
# Poissons Ratio (x) = -0.10998 0.47083
# Poissons Ratio (y) = -0.08931 0.33157
# Poissons Ratio (z) = 0.47717 0.41378
#
# Static dielectric constant tensor:
#      x y z
#    x 3.923090 0.057520 -0.543630 
#    y 0.057520 4.279970 -0.619930 
#    z -0.543630 -0.619930 4.548070 
# 
# 
# High freq. dielectric constant tensor:
#      x y z
#    x 1.862350 -0.016070 -0.027330 
#    y -0.016070 1.888690 -0.027700 
#    z -0.027330 -0.027700 1.884660 
# 
# From -- ./inp_files/263450.got.cif
#   From: 2010.06.25/outbox.cif.g09.slc.cpg/sg2_132_cif.got.tgz:263450.got - 2010.06.27 13:26:56.
