data_PCOD8009907
_publ_section_title
;
Structure prediction by ZEFSAII (Michael W. Deem and Ramdas Pophale) SiO2 
 PCOD8009907
Probable space group: P -1
;
_chemical_formula_sum "Si O2"
_cell_formula_units_Z 12
_cell_length_a 5.237953
_cell_length_b 22.939113
_cell_length_c 25.216679
_cell_angle_alpha 169.601652
_cell_angle_beta 54.246301
_cell_angle_gamma 124.809506
_cell_volume 443.648000
_symmetry_space_group_name_H-M "P -1"
_symmetry_group_IT_number 2
_symmetry_cell_setting 'triclinic'
loop_
_space_group_symop_operation_xyz
x,y,z
-x,-y,-z
loop_
_atom_site_type_symbol
_atom_site_label
_atom_site_fract_x
_atom_site_fract_y
_atom_site_fract_z
Si Si1 0.653342 0.869814 0.418349
Si Si2 0.356830 0.242247 0.482962
Si Si3 0.079430 0.914432 0.127170
Si Si4 0.888758 0.486338 0.576521
Si Si5 0.541812 0.132910 0.775286
Si Si6 0.594404 0.180769 0.239023
O O1 0.500000 0.000000 0.500000
O O2 0.449218 0.997058 0.607326
O O3 0.680693 0.484878 0.067954
O O4 0.000000 0.000000 0.500000
O O5 0.736306 0.330244 0.509886
O O6 0.285022 0.972209 0.206291
O O7 0.227415 0.120643 0.448237
O O8 0.155192 0.560272 0.778139
O O9 0.720925 0.889990 0.167512
O O10 0.210379 0.157004 0.280752
O O11 0.795646 0.249328 0.328266
O O12 0.271468 0.571356 0.601946
O O13 0.698847 0.821618 0.887267
#
# Coordination Sequence:
#
# PCOD8009907 Si02
#       6
#     2   2   2   2   2   2
#     4  12  30  52  78 106 139 180 223 280 350 428
#     4  10  21  37  62  93 131 175 220 274 334 392
#     4  10  21  37  62  93 131 175 220 274 334 392
#     4   8  14  27  49  80 120 169 218 264 319 382
#     4  12  26  44  73 100 136 170 226 276 343 414
#     4   8  14  27  49  80 120 169 218 264 319 382
#
# _framework density 27.048469000000001
#
# number of rings (size 3 to 8) (size 9 to 14) (size 15 to 20)
#    0.000    2.000    0.000    3.000    7.000    0.000 
#    0.000    0.833    0.000    0.000    0.000   25.667 
#    0.000    0.000    0.000    0.000    0.000    0.000 
#
# Total GULP energy -148661.838170 kJ/mol
# GULP energy per Si atom -12388.486514 kJ/mol
# Density = 2.698691 g / cm^3
# Si number density = 27.048469 Si / 1000 Ang^3
#
#
#
# Elastic Constant Matrix: (Units=GPa)
#
#
# Indices 1 2 3 4 5 6 
#
# 1 83.9761 40.5518 32.0971 17.7571 4.2845 -4.2707
# 2 40.5518 137.1933 50.4430 29.2298 -18.1307 -25.5073
# 3 32.0971 50.4430 119.9826 23.9606 8.2077 -25.3415
# 4 17.7571 29.2298 23.9606 63.8519 -9.4904 -11.7373
# 5 4.2845 -18.1307 8.2077 -9.4904 24.4434 -1.1789
# 6 -4.2707 -25.5073 -25.3415 -11.7373 -1.1789 51.4612
#
#
#
# Elastic Compliance Matrix: (Units=1/GPa)
#
#
# Indices 1 2 3 4 5 6 
#
# 1 0.015765 -0.004850 -0.001655 -0.003118 -0.007150 -0.002785
# 2 -0.004850 0.012473 -0.003762 -0.000512 0.011363 0.004071
# 3 -0.001655 -0.003762 0.012117 -0.002912 -0.007549 0.003128
# 4 -0.003118 -0.000512 -0.002912 0.019686 0.008920 0.002748
# 5 -0.007150 0.011363 -0.007549 0.008920 0.056815 0.004657
# 6 -0.002785 0.004071 0.003128 0.002748 0.004657 0.023493
#
#
# Mechanical properties :
#
#
# Convention : Reuss Voigt Hill
#
# Bulk Modulus (GPa) = 50.44756 65.25952 57.85354
# Shear Modulus (GPa) = 29.85248 42.48865 36.17057
#
# Velocity S-wave (km/s) = 3.32575 3.96767 3.66081
# Velocity P-wave (km/s) = 5.78263 6.72080 6.26929
#
# Compressibility (1/GPa) = 0.01982256
#
# Stress axis : x y z
#
# Youngs Moduli (GPa) = 63.43127 80.17118 82.52653
#
# Poissons Ratio (x) = 0.38882 0.13658
# Poissons Ratio (y) = 0.30763 0.31044
# Poissons Ratio (z) = 0.10498 0.30158
#
# Static dielectric constant tensor:
#      x y z
#    x 4.507450 0.250820 -0.211880 
#    y 0.250820 5.725860 0.225800 
#    z -0.211880 0.225800 5.028020 
# 
# 
# High freq. dielectric constant tensor:
#      x y z
#    x 2.079860 0.012960 -0.021380 
#    y 0.012960 2.137110 0.023610 
#    z -0.021380 0.023610 2.118730 
# 
# From -- ./inp_files/5121.got.cif
#   From: 2010.06.25/outbox.cif.g09.slc.cpg/sg2_3_cif.got.tgz:5121.got - 2010.06.27 13:26:56.
