data_PCOD8009682
_publ_section_title
;
Structure prediction by ZEFSAII (Michael W. Deem and Ramdas Pophale) SiO2 
 PCOD8009682
Probable space group: P -1
;
_chemical_formula_sum "Si O2"
_cell_formula_units_Z 16
_cell_length_a 8.085399
_cell_length_b 18.566332
_cell_length_c 8.543531
_cell_angle_alpha 111.145045
_cell_angle_beta 91.355442
_cell_angle_gamma 131.558235
_cell_volume 829.107559
_symmetry_space_group_name_H-M "P -1"
_symmetry_group_IT_number 2
_symmetry_cell_setting 'triclinic'
loop_
_space_group_symop_operation_xyz
x,y,z
-x,-y,-z
loop_
_atom_site_type_symbol
_atom_site_label
_atom_site_fract_x
_atom_site_fract_y
_atom_site_fract_z
Si Si1 0.188951 0.701739 0.621011
Si Si2 0.577188 0.337033 0.606085
Si Si3 0.210182 0.728672 0.302749
Si Si4 0.701811 0.542340 0.658868
Si Si5 0.867412 0.840847 0.353847
Si Si6 0.059592 0.273393 0.951796
Si Si7 0.318089 0.060541 0.662714
Si Si8 0.591703 0.104610 0.995012
O O1 0.342932 0.675808 0.566970
O O2 0.125145 0.723592 0.472283
O O3 0.357680 0.810585 0.815574
O O4 0.943370 0.598852 0.620894
O O5 0.728171 0.343226 0.752537
O O6 0.620984 0.442682 0.683376
O O7 0.299180 0.227983 0.551601
O O8 0.011869 0.680532 0.131104
O O9 0.447406 0.858549 0.376437
O O10 0.500000 0.500000 0.500000
O O11 0.746841 0.628758 0.845165
O O12 0.812070 0.900708 0.307297
O O13 0.824025 0.756377 0.166597
O O14 0.140787 0.935188 0.493314
O O15 0.830705 0.163828 0.952154
O O16 0.383277 0.062957 0.843725
O O17 0.500000 0.000000 0.000000
#
# Coordination Sequence:
#
# PCOD8009682 Si02
#       8
#     2   2   2   2   2   2   2   2
#     4   9  21  41  58  84 115 149 195 229 286 337
#     4   9  21  38  62  80 111 159 190 234 280 334
#     4   8  19  38  62  83 107 154 191 232 272 334
#     4  11  24  40  57  87 117 146 187 242 297 333
#     4  10  21  37  59  88 116 150 192 236 279 329
#     4  10  23  38  59  85 116 145 194 241 279 338
#     4   9  20  37  58  86 119 150 191 227 276 341
#     4  10  22  35  59  88 116 155 186 228 287 345
#
# _framework density 19.297857
#
# number of rings (size 3 to 8) (size 9 to 14) (size 15 to 20)
#    0.750    1.750    0.000    0.375    5.250    4.000 
#    0.000    2.500    0.000    0.000    0.000    0.000 
#    0.000    0.000    0.000    0.000    0.000    0.000 
#
# Total GULP energy -198318.334743 kJ/mol
# GULP energy per Si atom -12394.895921 kJ/mol
# Density = 1.925393 g / cm^3
# Si number density = 19.297857 Si / 1000 Ang^3
#
#
#
# Elastic Constant Matrix: (Units=GPa)
#
#
# Indices 1 2 3 4 5 6 
#
# 1 66.4831 33.4257 47.2467 8.9040 -2.3412 -2.0474
# 2 33.4257 117.3799 45.3908 3.1391 8.5406 -11.7008
# 3 47.2467 45.3908 122.3847 4.6263 9.6208 0.8852
# 4 8.9040 3.1391 4.6263 26.7169 -1.8749 0.9541
# 5 -2.3412 8.5406 9.6208 -1.8749 33.6841 -5.8800
# 6 -2.0474 -11.7008 0.8852 0.9541 -5.8800 23.5410
#
#
#
# Elastic Compliance Matrix: (Units=1/GPa)
#
#
# Indices 1 2 3 4 5 6 
#
# 1 0.023481 -0.003635 -0.007893 -0.005763 0.004832 0.001973
# 2 -0.003635 0.011187 -0.002671 0.000080 -0.001453 0.004979
# 3 -0.007893 -0.002671 0.012527 0.000618 -0.004029 -0.003516
# 4 -0.005763 0.000080 0.000618 0.039387 0.001288 -0.001759
# 5 0.004832 -0.001453 -0.004029 0.001288 0.033018 0.008045
# 6 0.001973 0.004979 -0.003516 -0.001759 0.008045 0.047338
#
#
# Mechanical properties :
#
#
# Convention : Reuss Voigt Hill
#
# Bulk Modulus (GPa) = 53.19689 62.04154 57.61922
# Shear Modulus (GPa) = 24.80132 28.80070 26.80101
#
# Velocity S-wave (km/s) = 3.58884 3.86739 3.73071
# Velocity P-wave (km/s) = 6.69321 7.22229 6.96278
#
# Compressibility (1/GPa) = 0.01879809
#
# Stress axis : x y z
#
# Youngs Moduli (GPa) = 42.58780 89.38869 79.82591
#
# Poissons Ratio (x) = 0.32494 0.63005
# Poissons Ratio (y) = 0.15481 0.21318
# Poissons Ratio (z) = 0.33614 0.23872
#
# Static dielectric constant tensor:
#      x y z
#    x 3.427140 0.078360 0.091650 
#    y 0.078360 3.641820 -0.028530 
#    z 0.091650 -0.028530 3.446070 
# 
# 
# High freq. dielectric constant tensor:
#      x y z
#    x 1.741090 0.002100 0.000350 
#    y 0.002100 1.760200 -0.003060 
#    z 0.000350 -0.003060 1.737320 
# 
# From -- ./inp_files/215528.got.cif
#   From: 2010.06.25/outbox.cif.g09.slc.cpg/sg2_108_cif.got.tgz:215528.got - 2010.06.27 13:26:56.
