data_PCOD8009929
_publ_section_title
;
Structure prediction by ZEFSAII (Michael W. Deem and Ramdas Pophale) SiO2 
 PCOD8009929
Probable space group: P -1
;
_chemical_formula_sum "Si O2"
_cell_formula_units_Z 16
_cell_length_a 7.353364
_cell_length_b 5.173920
_cell_length_c 18.494440
_cell_angle_alpha 76.949559
_cell_angle_beta 68.663725
_cell_angle_gamma 108.431904
_cell_volume 573.670655
_symmetry_space_group_name_H-M "P -1"
_symmetry_group_IT_number 2
_symmetry_cell_setting 'triclinic'
loop_
_space_group_symop_operation_xyz
x,y,z
-x,-y,-z
loop_
_atom_site_type_symbol
_atom_site_label
_atom_site_fract_x
_atom_site_fract_y
_atom_site_fract_z
Si Si1 0.117486 0.966786 0.869112
Si Si2 0.394195 0.721533 0.651444
Si Si3 0.437847 0.511142 0.236754
Si Si4 0.819120 0.121546 0.512012
Si Si5 0.104589 0.039706 0.712106
Si Si6 0.857558 0.225682 0.979585
Si Si7 0.434641 0.617536 0.072206
Si Si8 0.897419 0.342779 0.640690
O O1 0.365982 0.164616 0.799697
O O2 0.995097 0.887030 0.814475
O O3 0.087456 0.686775 0.944614
O O4 0.042170 0.156879 0.921271
O O5 0.516559 0.734613 0.710382
O O6 0.249283 0.384999 0.677690
O O7 0.577876 0.856903 0.553577
O O8 0.242629 0.888122 0.667466
O O9 0.401528 0.425251 0.162169
O O10 0.229089 0.548646 0.291802
O O11 0.792745 0.274797 0.580718
O O12 0.872011 0.360023 0.424379
O O13 0.000000 0.000000 0.500000
O O14 0.919778 0.048045 0.684241
O O15 0.621489 0.943157 0.041121
O O16 0.804941 0.422965 0.916602
O O17 0.500000 0.500000 0.000000
#
# Coordination Sequence:
#
# PCOD8009929 Si02
#       8
#     2   2   2   2   2   2   2   2
#     4   9  19  40  64  86 129 173 222 278 340 406
#     4  11  25  46  69 101 141 184 229 287 353 413
#     4  10  21  43  67  92 136 180 230 275 343 411
#     4  11  24  45  73  99 137 181 231 282 353 419
#     4  11  26  44  69 105 139 181 231 290 347 410
#     4   9  19  39  59  89 126 173 222 273 342 397
#     4  10  21  37  62  96 129 171 223 280 327 399
#     4  11  25  45  71 102 136 184 232 288 343 420
#
# _framework density 27.89057
#
# number of rings (size 3 to 8) (size 9 to 14) (size 15 to 20)
#    0.000    1.750    1.250    2.250    5.250    1.000 
#   11.250    1.875    0.000    0.000    0.000    0.000 
#    0.000    0.000    0.000    0.000    0.000    0.000 
#
# Total GULP energy -198277.032555 kJ/mol
# GULP energy per Si atom -12392.314535 kJ/mol
# Density = 2.782709 g / cm^3
# Si number density = 27.890570 Si / 1000 Ang^3
#
#
#
# Elastic Constant Matrix: (Units=GPa)
#
#
# Indices 1 2 3 4 5 6 
#
# 1 110.7555 12.6976 31.5761 -5.1812 12.6300 -22.2714
# 2 12.6976 84.7597 35.5422 -5.0469 4.6530 -36.7120
# 3 31.5761 35.5422 163.6102 -7.7401 13.3868 -23.5410
# 4 -5.1812 -5.0469 -7.7401 54.7422 -6.7550 0.1802
# 5 12.6300 4.6530 13.3868 -6.7550 44.2004 0.9594
# 6 -22.2714 -36.7120 -23.5410 0.1802 0.9594 60.9460
#
#
#
# Elastic Compliance Matrix: (Units=1/GPa)
#
#
# Indices 1 2 3 4 5 6 
#
# 1 0.010427 0.000862 -0.001408 0.000528 -0.002646 0.003826
# 2 0.000862 0.016958 -0.002295 0.001119 -0.001375 0.009662
# 3 -0.001408 -0.002295 0.007153 0.000483 -0.001468 0.000888
# 4 0.000528 0.001119 0.000483 0.018786 0.002435 0.000960
# 5 -0.002646 -0.001375 -0.001468 0.002435 0.024402 -0.002754
# 6 0.003826 0.009662 0.000888 0.000960 -0.002754 0.024010
#
#
# Mechanical properties :
#
#
# Convention : Reuss Voigt Hill
#
# Bulk Modulus (GPa) = 34.65238 57.63967 46.14603
# Shear Modulus (GPa) = 42.72194 50.59837 46.66016
#
# Velocity S-wave (km/s) = 3.91803 4.26393 4.09464
# Velocity P-wave (km/s) = 5.73754 6.70468 6.23987
#
# Compressibility (1/GPa) = 0.02885804
#
# Stress axis : x y z
#
# Youngs Moduli (GPa) = 95.90277 58.96840 139.80230
#
# Poissons Ratio (x) = -0.05084 0.19680
# Poissons Ratio (y) = -0.08268 0.32079
# Poissons Ratio (z) = 0.13500 0.13531
#
# Static dielectric constant tensor:
#      x y z
#    x 22.416830 -9.115730 9.264440 
#    y -9.115730 11.144120 -5.784710 
#    z 9.264440 -5.784710 10.167590 
# 
# 
# High freq. dielectric constant tensor:
#      x y z
#    x 2.150710 0.016320 0.012540 
#    y 0.016320 2.129840 -0.033320 
#    z 0.012540 -0.033320 2.147000 
# 
# From -- ./inp_files/585192.got.cif
#   From: 2010.06.25/outbox.cif.g09.slc.cpg/sg2_293_cif.got.tgz:585192.got - 2010.06.27 13:26:56.
