data_PCOD8009557
_publ_section_title
;
Structure prediction by ZEFSAII (Michael W. Deem and Ramdas Pophale) SiO2 
 PCOD8009557
Probable space group: P -1
;
_chemical_formula_sum "Si O2"
_cell_formula_units_Z 16
_cell_length_a 8.293498
_cell_length_b 24.191007
_cell_length_c 7.062747
_cell_angle_alpha 115.900963
_cell_angle_beta 89.887139
_cell_angle_gamma 135.424831
_cell_volume 779.983815
_symmetry_space_group_name_H-M "P -1"
_symmetry_group_IT_number 2
_symmetry_cell_setting 'triclinic'
loop_
_space_group_symop_operation_xyz
x,y,z
-x,-y,-z
loop_
_atom_site_type_symbol
_atom_site_label
_atom_site_fract_x
_atom_site_fract_y
_atom_site_fract_z
Si Si1 0.920590 0.054649 0.395585
Si Si2 0.693347 0.414953 0.848575
Si Si3 0.385572 0.101366 0.541731
Si Si4 0.270933 0.971442 0.043467
Si Si5 0.225240 0.480170 0.320978
Si Si6 0.565913 0.588135 0.841350
Si Si7 0.136299 0.202230 0.916081
Si Si8 0.363754 0.707279 0.071213
O O1 0.138980 0.070082 0.456566
O O2 0.999510 0.143085 0.627050
O O3 0.655064 0.951410 0.347398
O O4 0.887133 0.048597 0.162629
O O5 0.640256 0.421523 0.643701
O O6 0.575122 0.314398 0.769128
O O7 0.570607 0.432924 0.997561
O O8 0.000000 0.500000 0.000000
O O9 0.636110 0.221115 0.759132
O O10 0.420219 0.068552 0.310228
O O11 0.062765 0.871010 0.020642
O O12 0.500000 0.000000 0.000000
O O13 0.323584 0.512624 0.582188
O O14 0.304456 0.438920 0.167343
O O15 0.908890 0.391464 0.178652
O O16 0.790789 0.703816 0.945251
O O17 0.400653 0.239647 0.995635
#
# Coordination Sequence:
#
# PCOD8009557 Si02
#       8
#     2   2   2   2   2   2   2   2
#     4   9  19  38  58  79 110 145 185 233 277 325
#     4   9  19  36  56  79 108 145 187 229 274 323
#     4   9  19  37  58  81 110 145 186 230 276 328
#     4  11  23  37  58  87 116 148 183 227 285 340
#     4  10  21  37  58  84 116 149 186 234 283 330
#     4  10  21  37  57  84 116 150 186 230 283 334
#     4   9  21  38  56  82 113 150 191 229 277 332
#     4   9  19  37  60  83 110 150 192 233 277 325
#
# _framework density 20.513248000000001
#
# number of rings (size 3 to 8) (size 9 to 14) (size 15 to 20)
#    0.000    2.500    0.000    1.500    0.000   11.500 
#    0.000   11.250    0.000    0.000    0.000    0.000 
#    0.000    0.000    0.000    0.000    0.000    0.000 
#
# Total GULP energy -198256.716596 kJ/mol
# GULP energy per Si atom -12391.044787 kJ/mol
# Density = 2.046656 g / cm^3
# Si number density = 20.513248 Si / 1000 Ang^3
#
#
#
# Elastic Constant Matrix: (Units=GPa)
#
#
# Indices 1 2 3 4 5 6 
#
# 1 48.9778 30.0004 2.9265 4.3261 -1.7781 -1.2278
# 2 30.0004 108.0311 36.2359 2.5115 -3.0580 2.7809
# 3 2.9265 36.2359 57.6732 0.0447 -5.5475 -3.7417
# 4 4.3261 2.5115 0.0447 31.8771 -7.2876 -7.5257
# 5 -1.7781 -3.0580 -5.5475 -7.2876 29.6569 0.0478
# 6 -1.2278 2.7809 -3.7417 -7.5257 0.0478 29.9451
#
#
#
# Elastic Compliance Matrix: (Units=1/GPa)
#
#
# Indices 1 2 3 4 5 6 
#
# 1 0.025656 -0.008525 0.004263 -0.002174 0.000919 0.001828
# 2 -0.008525 0.014762 -0.009131 -0.000935 -0.000922 -0.003095
# 3 0.004263 -0.009131 0.023558 0.002139 0.004239 0.004497
# 4 -0.002174 -0.000935 0.002139 0.035989 0.009002 0.009295
# 5 0.000919 -0.000922 0.004239 0.009002 0.036679 0.002857
# 6 0.001828 -0.003095 0.004497 0.009295 0.002857 0.036650
#
#
# Mechanical properties :
#
#
# Convention : Reuss Voigt Hill
#
# Bulk Modulus (GPa) = 26.88930 39.22308 33.05619
# Shear Modulus (GPa) = 23.53205 27.99712 25.76459
#
# Velocity S-wave (km/s) = 3.39065 3.69837 3.54785
# Velocity P-wave (km/s) = 5.33530 6.11552 5.73869
#
# Compressibility (1/GPa) = 0.03718952
#
# Stress axis : x y z
#
# Youngs Moduli (GPa) = 38.97754 67.74104 42.44907
#
# Poissons Ratio (x) = 0.57750 -0.18097
# Poissons Ratio (y) = 0.33229 0.38761
# Poissons Ratio (z) = -0.16617 0.61855
#
# Static dielectric constant tensor:
#      x y z
#    x 3.719620 -0.300080 -0.116730 
#    y -0.300080 4.441710 -0.035250 
#    z -0.116730 -0.035250 3.883840 
# 
# 
# High freq. dielectric constant tensor:
#      x y z
#    x 1.800220 -0.004530 -0.007870 
#    y -0.004530 1.806690 0.002000 
#    z -0.007870 0.002000 1.787240 
# 
# From -- ./inp_files/56535.got.cif
#   From: 2010.06.25/outbox.cif.g09.slc.cpg/sg2_29_cif.got.tgz:56535.got - 2010.06.27 13:26:56.
