data_PCOD8009445
_publ_section_title
;
Structure prediction by ZEFSAII (Michael W. Deem and Ramdas Pophale) SiO2 
 PCOD8009445
Probable space group: P -1
;
_chemical_formula_sum "Si O2"
_cell_formula_units_Z 14
_cell_length_a 20.903795
_cell_length_b 6.408367
_cell_length_c 11.339553
_cell_angle_alpha 54.345508
_cell_angle_beta 31.920547
_cell_angle_gamma 65.478584
_cell_volume 641.288157
_symmetry_space_group_name_H-M "P -1"
_symmetry_group_IT_number 2
_symmetry_cell_setting 'triclinic'
loop_
_space_group_symop_operation_xyz
x,y,z
-x,-y,-z
loop_
_atom_site_type_symbol
_atom_site_label
_atom_site_fract_x
_atom_site_fract_y
_atom_site_fract_z
Si Si1 0.077355 0.654615 0.221939
Si Si2 0.885205 0.752275 0.028965
Si Si3 0.484832 0.296076 0.917325
Si Si4 0.291740 0.495748 0.804660
Si Si5 0.652211 0.401164 0.819573
Si Si6 0.467645 0.167381 0.733604
Si Si7 0.083467 0.488085 0.699976
O O1 0.000000 0.500000 0.500000
O O2 0.995894 0.669468 0.227692
O O3 0.126631 0.953777 0.083202
O O4 0.192350 0.514970 0.056712
O O5 0.017186 0.705915 0.789992
O O6 0.777227 0.549912 0.198984
O O7 0.881860 0.708131 0.189801
O O8 0.600943 0.465499 0.749409
O O9 0.478335 0.356802 0.769955
O O10 0.360402 0.359128 0.152350
O O11 0.500000 0.000000 0.000000
O O12 0.360277 0.251039 0.796165
O O13 0.394737 0.763191 0.559564
O O14 0.791402 0.361281 0.605637
O O15 0.566335 0.139607 0.090115
#
# Coordination Sequence:
#
# PCOD8009445 Si02
#       7
#     2   2   2   2   2   2   2
#     4  11  26  40  66  95 125 166 213 266 316 371
#     4  10  23  44  64  89 129 166 213 263 313 373
#     4   9  20  36  55  89 122 158 201 252 306 366
#     4  10  24  41  61  92 127 168 209 255 318 375
#     4  10  21  36  64  92 124 162 209 256 316 374
#     4  10  22  39  61  90 127 166 207 255 312 377
#     4  10  23  41  66  94 121 168 211 259 319 371
#
# _framework density 21.831059
#
# number of rings (size 3 to 8) (size 9 to 14) (size 15 to 20)
#    0.000    2.000    0.000    1.286    6.000    6.857 
#    0.000    2.857    0.000    0.000    0.000    0.000 
#    0.000    0.000    0.000    0.000    0.000    0.000 
#
# Total GULP energy -173531.847092 kJ/mol
# GULP energy per Si atom -12395.131935 kJ/mol
# Density = 2.178137 g / cm^3
# Si number density = 21.831059 Si / 1000 Ang^3
#
#
#
# Elastic Constant Matrix: (Units=GPa)
#
#
# Indices 1 2 3 4 5 6 
#
# 1 92.3711 27.7285 40.4858 12.4277 0.4828 -4.6831
# 2 27.7285 96.4431 48.5676 1.7331 1.5646 -0.1526
# 3 40.4858 48.5676 137.0874 14.4125 -8.9211 -4.4742
# 4 12.4277 1.7331 14.4125 33.2772 -4.7385 4.6911
# 5 0.4828 1.5646 -8.9211 -4.7385 31.7558 5.7601
# 6 -4.6831 -0.1526 -4.4742 4.6911 5.7601 26.2027
#
#
#
# Elastic Compliance Matrix: (Units=1/GPa)
#
#
# Indices 1 2 3 4 5 6 
#
# 1 0.013509 -0.002407 -0.002695 -0.004503 -0.002098 0.003208
# 2 -0.002407 0.013214 -0.004310 0.002056 -0.001306 -0.001170
# 3 -0.002695 -0.004310 0.010129 -0.002982 0.002432 0.001222
# 4 -0.004503 0.002056 -0.002982 0.035019 0.005966 -0.008883
# 5 -0.002098 -0.001306 0.002432 0.005966 0.034733 -0.008671
# 6 0.003208 -0.001170 0.001222 -0.008883 -0.008671 0.042436
#
#
# Mechanical properties :
#
#
# Convention : Reuss Voigt Hill
#
# Bulk Modulus (GPa) = 55.46919 62.16280 58.81600
# Shear Modulus (GPa) = 28.75674 32.18845 30.47260
#
# Velocity S-wave (km/s) = 3.63332 3.84400 3.74014
# Velocity P-wave (km/s) = 6.56238 6.94536 6.75659
#
# Compressibility (1/GPa) = 0.01802803
#
# Stress axis : x y z
#
# Youngs Moduli (GPa) = 74.02376 75.67968 98.72401
#
# Poissons Ratio (x) = 0.18213 0.26610
# Poissons Ratio (y) = 0.17815 0.42550
# Poissons Ratio (z) = 0.19952 0.32618
#
# Static dielectric constant tensor:
#      x y z
#    x 4.362260 0.220320 0.014850 
#    y 0.220320 3.751290 0.274030 
#    z 0.014850 0.274030 3.857600 
# 
# 
# High freq. dielectric constant tensor:
#      x y z
#    x 1.867710 0.002410 -0.006150 
#    y 0.002410 1.847580 0.017110 
#    z -0.006150 0.017110 1.849950 
# 
# From -- ./inp_files/68880.got.cif
#   From: 2010.06.25/outbox.cif.g09.slc.cpg/sg2_35_cif.got.tgz:68880.got - 2010.06.27 13:26:56.
