data_PCOD8009394
_publ_section_title
;
Structure prediction by ZEFSAII (Michael W. Deem and Ramdas Pophale) SiO2 
 PCOD8009394
Probable space group: P -1
;
_chemical_formula_sum "Si O2"
_cell_formula_units_Z 16
_cell_length_a 18.857979
_cell_length_b 23.777424
_cell_length_c 9.202917
_cell_angle_alpha 142.237030
_cell_angle_beta 32.231594
_cell_angle_gamma 159.624427
_cell_volume 766.212720
_symmetry_space_group_name_H-M "P -1"
_symmetry_group_IT_number 2
_symmetry_cell_setting 'triclinic'
loop_
_space_group_symop_operation_xyz
x,y,z
-x,-y,-z
loop_
_atom_site_type_symbol
_atom_site_label
_atom_site_fract_x
_atom_site_fract_y
_atom_site_fract_z
Si Si1 0.939732 0.119375 0.727964
Si Si2 0.552078 0.649636 0.599814
Si Si3 0.847594 0.580913 0.984135
Si Si4 0.238954 0.990356 0.876540
Si Si5 0.550470 0.432314 0.706621
Si Si6 0.996676 0.329026 0.424833
Si Si7 0.689372 0.315459 0.838463
Si Si8 0.898767 0.938504 0.212164
O O1 0.175944 0.210807 0.571316
O O2 0.973786 0.247569 0.893813
O O3 0.869465 0.023103 0.508747
O O4 0.759739 0.014552 0.959675
O O5 0.412576 0.533844 0.748376
O O6 0.459954 0.551820 0.412987
O O7 0.489471 0.722806 0.835937
O O8 0.880424 0.492359 0.791403
O O9 0.866167 0.601825 0.823126
O O10 0.154931 0.849561 0.655226
O O11 0.515579 0.164882 0.716233
O O12 0.079804 0.983700 0.086350
O O13 0.358555 0.251186 0.727049
O O14 0.811985 0.548044 0.530400
O O15 0.500000 0.500000 0.000000
O O16 0.826873 0.320277 0.706841
O O17 0.000000 0.000000 0.000000
#
# Coordination Sequence:
#
# PCOD8009394 Si02
#       8
#     2   2   2   2   2   2   2   2
#     4  11  20  40  62  88 123 153 206 245 301 357
#     4  10  21  36  63  86 119 160 199 241 299 354
#     4   9  22  37  64  86 117 160 203 249 291 353
#     4  11  21  41  63  89 119 163 198 251 297 362
#     4  12  24  40  61  89 127 155 199 252 309 357
#     4  11  23  40  61  90 125 160 201 250 297 356
#     4  10  22  38  65  87 119 162 212 240 292 360
#     4  12  25  36  60  94 122 151 193 257 309 346
#
# _framework density 20.881929
#
# number of rings (size 3 to 8) (size 9 to 14) (size 15 to 20)
#    0.750    0.500    3.750    3.000    5.250    0.500 
#    0.000    0.000    0.000    0.750    0.000    0.000 
#    0.000    0.000    0.000    0.000    0.000    0.000 
#
# Total GULP energy -198220.902830 kJ/mol
# GULP energy per Si atom -12388.806427 kJ/mol
# Density = 2.083440 g / cm^3
# Si number density = 20.881929 Si / 1000 Ang^3
#
#
#
# Elastic Constant Matrix: (Units=GPa)
#
#
# Indices 1 2 3 4 5 6 
#
# 1 41.8513 37.5451 16.6788 9.1636 -1.9624 3.4875
# 2 37.5451 126.9025 33.1721 31.3688 -9.7707 1.3696
# 3 16.6788 33.1721 66.8102 14.9164 1.0099 1.5758
# 4 9.1636 31.3688 14.9164 28.9498 1.9775 -1.7761
# 5 -1.9624 -9.7707 1.0099 1.9775 38.6528 -2.2875
# 6 3.4875 1.3696 1.5758 -1.7761 -2.2875 36.2244
#
#
#
# Elastic Compliance Matrix: (Units=1/GPa)
#
#
# Indices 1 2 3 4 5 6 
#
# 1 0.033728 -0.009287 -0.004035 0.001353 -0.000759 -0.002702
# 2 -0.009287 0.014429 -0.002277 -0.011777 0.003845 0.000113
# 3 -0.004035 -0.002277 0.018413 -0.005715 -0.001009 -0.000670
# 4 0.001353 -0.011777 -0.005715 0.050340 -0.005174 0.002705
# 5 -0.000759 0.003845 -0.001009 -0.005174 0.027181 0.001434
# 6 -0.002702 0.000113 -0.000670 0.002705 0.001434 0.028114
#
#
# Mechanical properties :
#
#
# Convention : Reuss Voigt Hill
#
# Bulk Modulus (GPa) = 28.27277 45.59511 36.93394
# Shear Modulus (GPa) = 23.23495 30.64326 26.93911
#
# Velocity S-wave (km/s) = 3.33931 3.83489 3.59565
# Velocity P-wave (km/s) = 5.33261 6.44132 5.91301
#
# Compressibility (1/GPa) = 0.03536972
#
# Stress axis : x y z
#
# Youngs Moduli (GPa) = 29.64939 69.30468 54.31039
#
# Poissons Ratio (x) = 0.64366 0.21917
# Poissons Ratio (y) = 0.27537 0.12366
# Poissons Ratio (z) = 0.11965 0.15780
#
# Static dielectric constant tensor:
#      x y z
#    x 3.649270 -0.047940 -0.038910 
#    y -0.047940 4.209880 0.325250 
#    z -0.038910 0.325250 3.826470 
# 
# 
# High freq. dielectric constant tensor:
#      x y z
#    x 1.782320 -0.017450 -0.009580 
#    y -0.017450 1.832060 0.015620 
#    z -0.009580 0.015620 1.817910 
# 
# From -- ./inp_files/338615.got.cif
#   From: 2010.06.25/outbox.cif.g09.slc.cpg/sg2_170_cif.got.tgz:338615.got - 2010.06.27 13:26:56.
