data_PCOD8009263
_publ_section_title
;
Structure prediction by ZEFSAII (Michael W. Deem and Ramdas Pophale) SiO2 
 PCOD8009263
Probable space group: P -1
;
_chemical_formula_sum "Si O2"
_cell_formula_units_Z 16
_cell_length_a 15.607075
_cell_length_b 14.654878
_cell_length_c 14.657690
_cell_angle_alpha 20.041042
_cell_angle_beta 136.515343
_cell_angle_gamma 140.215117
_cell_volume 735.075214
_symmetry_space_group_name_H-M "P -1"
_symmetry_group_IT_number 2
_symmetry_cell_setting 'triclinic'
loop_
_space_group_symop_operation_xyz
x,y,z
-x,-y,-z
loop_
_atom_site_type_symbol
_atom_site_label
_atom_site_fract_x
_atom_site_fract_y
_atom_site_fract_z
Si Si1 0.910425 0.673245 0.245802
Si Si2 0.678230 0.543564 0.329530
Si Si3 0.528682 0.740541 0.719112
Si Si4 0.071444 0.475283 0.787951
Si Si5 0.230598 0.835106 0.121753
Si Si6 0.206794 0.124062 0.314309
Si Si7 0.833895 0.665553 0.737705
Si Si8 0.148946 0.875083 0.814729
O O1 0.806419 0.615896 0.298400
O O2 0.844654 0.550698 0.212470
O O3 0.000000 0.500000 0.500000
O O4 0.000000 0.000000 0.000000
O O5 0.553153 0.368711 0.334240
O O6 0.687925 0.364074 0.595685
O O7 0.675732 0.848650 0.070123
O O8 0.680810 0.845174 0.703080
O O9 0.500000 0.000000 0.500000
O O10 0.500000 0.500000 0.000000
O O11 0.913893 0.301138 0.813038
O O12 0.100026 0.800396 0.533415
O O13 0.124649 0.329435 0.044250
O O14 0.207368 0.855250 0.977855
O O15 0.254353 0.233300 0.351394
O O16 0.989173 0.776115 0.783320
O O17 0.803204 0.803535 0.490502
O O18 0.793494 0.325181 0.013720
#
# Coordination Sequence:
#
# PCOD8009263 Si02
#       8
#     2   2   2   2   2   2   2   2
#     4  12  21  35  52  84 121 152 192 247 304 374
#     4  12  24  41  63  89 125 171 213 253 323 376
#     4  12  27  49  68  90 126 174 223 268 298 362
#     4  12  23  37  60  96 127 162 205 259 323 372
#     4  12  23  39  62  95 132 162 200 260 328 388
#     4  12  24  41  66  91 125 169 217 260 308 375
#     4  10  21  36  61  92 128 167 203 254 317 384
#     4  10  21  36  59  94 134 158 200 259 325 381
#
# _framework density 21.766480000000001
#
# number of rings (size 3 to 8) (size 9 to 14) (size 15 to 20)
#    0.000    0.500    3.750    6.000    3.500    0.000 
#    0.000    0.000    0.000    4.500    0.000    0.000 
#    0.000    0.000    0.000    0.000    0.000    0.000 
#
# Total GULP energy -198230.134367 kJ/mol
# GULP energy per Si atom -12389.383398 kJ/mol
# Density = 2.171694 g / cm^3
# Si number density = 21.766480 Si / 1000 Ang^3
#
#
#
# Elastic Constant Matrix: (Units=GPa)
#
#
# Indices 1 2 3 4 5 6 
#
# 1 8.7347 11.4756 143.2382 -26.1740 49.0457 -30.2366
# 2 11.4756 98.1422 42.4243 -1.9909 -4.7874 -14.4709
# 3 143.2382 42.4243 -86.6711 31.3534 -101.3222 12.3599
# 4 -26.1740 -1.9909 31.3534 37.0553 1.1440 -2.5197
# 5 49.0457 -4.7874 -101.3222 1.1440 -12.6349 8.4006
# 6 -30.2366 -14.4709 12.3599 -2.5197 8.4006 33.7342
#
#
#
# Elastic Compliance Matrix: (Units=1/GPa)
#
#
# Indices 1 2 3 4 5 6 
#
# 1 0.010246 -0.001586 0.003919 0.003754 0.012157 0.004320
# 2 -0.001586 0.011804 -0.001654 0.000978 0.004799 0.003126
# 3 0.003919 -0.001654 0.003160 0.000462 -0.007159 0.003463
# 4 0.003754 0.000978 0.000462 0.028997 0.014558 0.002156
# 5 0.012157 0.004799 -0.007159 0.014558 0.030918 0.008966
# 6 0.004320 0.003126 0.003463 0.002156 0.008966 0.031516
#
#
# Mechanical properties :
#
#
# Convention : Reuss Voigt Hill
#
# Bulk Modulus (GPa) = 37.63696 46.05355 41.84526
# Shear Modulus (GPa) = 40.27717 -0.16457 20.05630
#
# Velocity S-wave (km/s) = 4.30632 -0.27527 3.03880
# Velocity P-wave (km/s) = 6.48496 4.59379 5.61950
#
# Compressibility (1/GPa) = 0.02656962
#
# Stress axis : x y z
#
# Youngs Moduli (GPa) = 97.60062 84.71394 316.42277
#
# Poissons Ratio (x) = 0.13435 -1.24011
# Poissons Ratio (y) = 0.15479 0.52326
# Poissons Ratio (z) = -0.38251 0.14009
#
# Static dielectric constant tensor:
#      x y z
#    x 10.287430 5.595200 -3.175560 
#    y 5.595200 8.900360 -2.473460 
#    z -3.175560 -2.473460 5.472680 
# 
# 
# High freq. dielectric constant tensor:
#      x y z
#    x 1.833870 -0.035300 -0.006200 
#    y -0.035300 1.840580 -0.000140 
#    z -0.006200 -0.000140 1.883860 
# 
# From -- ./inp_files/538862.got.cif
#   From: 2010.06.25/outbox.cif.g09.slc.cpg/sg2_270_cif.got.tgz:538862.got - 2010.06.27 13:26:56.
