data_PCOD8009712
_publ_section_title
;
Structure prediction by ZEFSAII (Michael W. Deem and Ramdas Pophale) SiO2 
 PCOD8009712
Probable space group: P -1
;
_chemical_formula_sum "Si O2"
_cell_formula_units_Z 14
_cell_length_a 14.633178
_cell_length_b 6.258680
_cell_length_c 14.750465
_cell_angle_alpha 75.116902
_cell_angle_beta 28.521584
_cell_angle_gamma 80.193438
_cell_volume 618.905598
_symmetry_space_group_name_H-M "P -1"
_symmetry_group_IT_number 2
_symmetry_cell_setting 'triclinic'
loop_
_space_group_symop_operation_xyz
x,y,z
-x,-y,-z
loop_
_atom_site_type_symbol
_atom_site_label
_atom_site_fract_x
_atom_site_fract_y
_atom_site_fract_z
Si Si1 0.542966 0.717497 0.739878
Si Si2 0.803324 0.536121 0.853497
Si Si3 0.807891 0.901918 0.230468
Si Si4 0.192763 0.495119 0.593503
Si Si5 0.096528 0.737282 0.355949
Si Si6 0.741707 0.893746 0.717473
Si Si7 0.439231 0.869198 0.444985
O O1 0.728050 0.603692 0.557628
O O2 0.568068 0.818750 0.808726
O O3 0.497880 0.903588 0.688359
O O4 0.361957 0.525089 0.921330
O O5 0.824958 0.301412 0.808136
O O6 0.742011 0.720186 0.818656
O O7 0.004969 0.615329 0.719497
O O8 0.865850 0.702232 0.263155
O O9 0.635246 0.800945 0.325303
O O10 0.724129 0.094336 0.341920
O O11 0.000000 0.000000 0.000000
O O12 0.356641 0.675221 0.470833
O O13 0.000000 0.500000 0.500000
O O14 0.934163 0.905945 0.484908
O O15 0.269127 0.858717 0.257249
#
# Coordination Sequence:
#
# PCOD8009712 Si02
#       7
#     2   2   2   2   2   2   2
#     4  11  24  39  59  91 125 159 208 251 297 363
#     4  11  23  38  59  90 122 164 209 247 299 359
#     4  10  22  44  66  90 120 153 200 249 304 371
#     4  11  24  40  63  90 125 157 197 252 308 359
#     4   9  20  36  59  83 116 160 211 249 299 344
#     4  10  21  37  60  84 123 166 207 252 298 349
#     4  10  24  40  64  92 121 158 198 250 307 360
#
# _framework density 22.620574000000001
#
# number of rings (size 3 to 8) (size 9 to 14) (size 15 to 20)
#    0.000    1.714    1.429    1.714    6.000    3.429 
#    0.000    0.000    0.000    0.000    0.000    0.000 
#    0.000    0.000    0.000    0.000    0.000    0.000 
#
# Total GULP energy -173558.101804 kJ/mol
# GULP energy per Si atom -12397.007272 kJ/mol
# Density = 2.256909 g / cm^3
# Si number density = 22.620574 Si / 1000 Ang^3
#
#
#
# Elastic Constant Matrix: (Units=GPa)
#
#
# Indices 1 2 3 4 5 6 
#
# 1 119.3525 27.2036 40.6470 -3.3316 -4.8606 8.1209
# 2 27.2036 66.6058 26.1103 -12.6130 4.7007 13.5272
# 3 40.6470 26.1103 136.7201 -10.2084 8.0689 -7.2108
# 4 -3.3316 -12.6130 -10.2084 18.9437 -2.3557 -8.3637
# 5 -4.8606 4.7007 8.0689 -2.3557 30.7364 -8.3587
# 6 8.1209 13.5272 -7.2108 -8.3637 -8.3587 38.0744
#
#
#
# Elastic Compliance Matrix: (Units=1/GPa)
#
#
# Indices 1 2 3 4 5 6 
#
# 1 0.010228 -0.003380 -0.002785 -0.002343 0.002271 -0.001524
# 2 -0.003380 0.020436 -0.002332 0.008622 -0.004010 -0.005968
# 3 -0.002785 -0.002332 0.009195 0.004505 -0.001087 0.003915
# 4 -0.002343 0.008622 0.004505 0.067749 0.006277 0.014550
# 5 0.002271 -0.004010 -0.001087 0.006277 0.037061 0.010249
# 6 -0.001524 -0.005968 0.003915 0.014550 0.010249 0.034897
#
#
# Mechanical properties :
#
#
# Convention : Reuss Voigt Hill
#
# Bulk Modulus (GPa) = 43.73548 56.73337 50.23442
# Shear Modulus (GPa) = 24.48794 32.79873 28.64333
#
# Velocity S-wave (km/s) = 3.29378 3.81195 3.56230
# Velocity P-wave (km/s) = 5.81736 6.67155 6.25904
#
# Compressibility (1/GPa) = 0.02286473
#
# Stress axis : x y z
#
# Youngs Moduli (GPa) = 97.76945 48.93254 108.76012
#
# Poissons Ratio (x) = 0.16541 0.30286
# Poissons Ratio (y) = 0.33049 0.25365
# Poissons Ratio (z) = 0.27225 0.11412
#
# Static dielectric constant tensor:
#      x y z
#    x 4.118390 0.261810 0.063130 
#    y 0.261810 4.218120 0.191820 
#    z 0.063130 0.191820 4.106290 
# 
# 
# High freq. dielectric constant tensor:
#      x y z
#    x 1.892910 0.007930 -0.002070 
#    y 0.007930 1.879660 -0.004920 
#    z -0.002070 -0.004920 1.891720 
# 
# From -- ./inp_files/525590.got.cif
#   From: 2010.06.25/outbox.cif.g09.slc.cpg/sg2_263_cif.got.tgz:525590.got - 2010.06.27 13:26:56.
