data_PCOD8009775
_publ_section_title
;
Structure prediction by ZEFSAII (Michael W. Deem and Ramdas Pophale) SiO2 
 PCOD8009775
Probable space group: P -1
;
_chemical_formula_sum "Si O2"
_cell_formula_units_Z 16
_cell_length_a 21.124208
_cell_length_b 20.213891
_cell_length_c 9.373346
_cell_angle_alpha 134.058785
_cell_angle_beta 35.534707
_cell_angle_gamma 159.970841
_cell_volume 747.103136
_symmetry_space_group_name_H-M "P -1"
_symmetry_group_IT_number 2
_symmetry_cell_setting 'triclinic'
loop_
_space_group_symop_operation_xyz
x,y,z
-x,-y,-z
loop_
_atom_site_type_symbol
_atom_site_label
_atom_site_fract_x
_atom_site_fract_y
_atom_site_fract_z
Si Si1 0.344296 0.628675 0.557710
Si Si2 0.773395 0.759784 0.558210
Si Si3 0.214523 0.102526 0.696156
Si Si4 0.404183 0.549116 0.718196
Si Si5 0.046649 0.225701 0.520628
Si Si6 0.393011 0.013970 0.895440
Si Si7 0.784028 0.403383 0.946226
Si Si8 0.302478 0.747183 0.576846
O O1 0.626086 0.814148 0.339325
O O2 0.303261 0.659856 0.543724
O O3 0.198275 0.425821 0.486966
O O4 0.250598 0.610109 0.841926
O O5 0.533583 0.637133 0.768667
O O6 0.771920 0.671811 0.317885
O O7 0.772536 0.713644 0.648178
O O8 0.000000 0.000000 0.500000
O O9 0.386004 0.286178 0.543268
O O10 0.096306 0.924163 0.573843
O O11 0.000000 0.000000 0.000000
O O12 0.242832 0.519136 0.969732
O O13 0.851654 0.111589 0.825394
O O14 0.587363 0.183754 0.916543
O O15 0.483096 0.104170 0.706780
O O16 0.337645 0.863776 0.785365
O O17 0.052395 0.565665 0.672671
#
# Coordination Sequence:
#
# PCOD8009775 Si02
#       8
#     2   2   2   2   2   2   2   2
#     4  11  24  44  67  98 133 175 223 263 333 399
#     4  11  19  35  65  94 117 166 220 258 321 390
#     4  11  24  44  64  93 132 168 219 279 324 387
#     4  10  21  37  60  95 124 164 217 266 320 387
#     4  12  22  43  70  92 131 183 213 269 334 397
#     4  11  23  41  69  96 136 169 222 270 328 385
#     4  11  20  42  67  92 134 171 216 268 324 391
#     4  11  25  41  65 104 131 173 218 275 321 389
#
# _framework density 21.416052000000001
#
# number of rings (size 3 to 8) (size 9 to 14) (size 15 to 20)
#    0.000    1.000    7.500    0.750    0.000    3.000 
#    2.250    2.500    0.000    0.000    0.000    0.000 
#    0.000    0.000    0.000    0.000    0.000    0.000 
#
# Total GULP energy -198359.477243 kJ/mol
# GULP energy per Si atom -12397.467328 kJ/mol
# Density = 2.136731 g / cm^3
# Si number density = 21.416052 Si / 1000 Ang^3
#
#
#
# Elastic Constant Matrix: (Units=GPa)
#
#
# Indices 1 2 3 4 5 6 
#
# 1 161.6500 70.1037 41.8790 -10.0164 -30.4853 -9.1720
# 2 70.1037 172.8235 20.6832 11.6728 -6.7434 5.9785
# 3 41.8790 20.6832 83.5252 -2.7505 -16.0820 3.5933
# 4 -10.0164 11.6728 -2.7505 22.8258 7.3538 -6.3391
# 5 -30.4853 -6.7434 -16.0820 7.3538 22.2072 -7.7770
# 6 -9.1720 5.9785 3.5933 -6.3391 -7.7770 29.5862
#
#
#
# Elastic Compliance Matrix: (Units=1/GPa)
#
#
# Indices 1 2 3 4 5 6 
#
# 1 0.013220 -0.005200 -0.002394 0.005848 0.016788 0.011106
# 2 -0.005200 0.008418 -0.000344 -0.006776 -0.004672 -0.005951
# 3 -0.002394 -0.000344 0.014686 -0.001769 0.007532 -0.000855
# 4 0.005848 -0.006776 -0.001769 0.056260 -0.009395 0.012981
# 5 0.016788 -0.004672 0.007532 -0.009395 0.084093 0.025325
# 6 0.011106 -0.005951 -0.000855 0.012981 0.025325 0.047987
#
#
# Mechanical properties :
#
#
# Convention : Reuss Voigt Hill
#
# Bulk Modulus (GPa) = 48.90098 75.92563 62.41331
# Shear Modulus (GPa) = 20.21379 33.94604 27.07992
#
# Velocity S-wave (km/s) = 3.07557 3.98562 3.55979
# Velocity P-wave (km/s) = 5.95781 7.53059 6.78990
#
# Compressibility (1/GPa) = 0.02044949
#
# Stress axis : x y z
#
# Youngs Moduli (GPa) = 75.64267 118.79281 68.09042
#
# Poissons Ratio (x) = 0.61774 0.16297
# Poissons Ratio (y) = 0.39335 0.02341
# Poissons Ratio (z) = 0.18105 0.04084
#
# Static dielectric constant tensor:
#      x y z
#    x 3.893120 0.184950 -0.225060 
#    y 0.184950 4.303540 0.152480 
#    z -0.225060 0.152480 3.861780 
# 
# 
# High freq. dielectric constant tensor:
#      x y z
#    x 1.837810 0.010360 -0.021470 
#    y 0.010360 1.866270 0.006540 
#    z -0.021470 0.006540 1.810360 
# 
# From -- ./inp_files/349533.got.cif
#   From: 2010.06.25/outbox.cif.g09.slc.cpg/sg2_175_cif.got.tgz:349533.got - 2010.06.27 13:26:56.
