data_PCOD8009732
_publ_section_title
;
Structure prediction by ZEFSAII (Michael W. Deem and Ramdas Pophale) SiO2 
 PCOD8009732
Probable space group: P -1
;
_chemical_formula_sum "Si O2"
_cell_formula_units_Z 16
_cell_length_a 16.639885
_cell_length_b 10.968430
_cell_length_c 9.314819
_cell_angle_alpha 70.360828
_cell_angle_beta 65.226991
_cell_angle_gamma 125.828945
_cell_volume 767.725114
_symmetry_space_group_name_H-M "P -1"
_symmetry_group_IT_number 2
_symmetry_cell_setting 'triclinic'
loop_
_space_group_symop_operation_xyz
x,y,z
-x,-y,-z
loop_
_atom_site_type_symbol
_atom_site_label
_atom_site_fract_x
_atom_site_fract_y
_atom_site_fract_z
Si Si1 0.525521 0.414225 0.618825
Si Si2 0.340455 0.688138 0.458219
Si Si3 0.850181 0.592573 0.576140
Si Si4 0.803437 0.281312 0.245104
Si Si5 0.336359 0.109150 0.295579
Si Si6 0.285602 0.776117 0.988587
Si Si7 0.676829 0.626727 0.721743
Si Si8 0.805725 0.111617 0.811350
O O1 0.500000 0.500000 0.500000
O O2 0.643323 0.444075 0.457230
O O3 0.597388 0.560743 0.653709
O O4 0.342707 0.130694 0.888624
O O5 0.264821 0.603806 0.389101
O O6 0.223631 0.620750 0.683176
O O7 0.522553 0.979714 0.201610
O O8 0.835998 0.730183 0.546175
O O9 0.041639 0.796793 0.322732
O O10 0.783992 0.452453 0.832310
O O11 0.726193 0.205957 0.176391
O O12 0.705946 0.036906 0.481795
O O13 0.000000 0.500000 0.000000
O O14 0.257985 0.156234 0.350202
O O15 0.250117 0.934831 0.292321
O O16 0.536402 0.378828 0.022234
O O17 0.160661 0.709045 0.207747
#
# Coordination Sequence:
#
# PCOD8009732 Si02
#       8
#     2   2   2   2   2   2   2   2
#     4   9  20  40  61  85 117 155 200 240 288 359
#     4  10  22  39  59  87 115 159 202 234 297 350
#     4  11  20  39  60  88 119 148 205 240 292 357
#     4  12  24  39  59  92 125 153 193 253 301 340
#     4  10  21  41  60  83 122 156 202 232 297 359
#     4  11  22  37  62  87 119 157 197 243 294 345
#     4   9  21  38  63  86 111 164 195 244 289 349
#     4  10  21  37  60  88 113 159 193 243 299 340
#
# _framework density 20.840793000000001
#
# number of rings (size 3 to 8) (size 9 to 14) (size 15 to 20)
#    0.000    1.750    0.000    4.875    3.500    0.500 
#    6.750    1.250    0.000    0.000    0.000    0.000 
#    0.000    0.000    0.000    0.000    0.000    0.000 
#
# Total GULP energy -198383.309230 kJ/mol
# GULP energy per Si atom -12398.956827 kJ/mol
# Density = 2.079336 g / cm^3
# Si number density = 20.840793 Si / 1000 Ang^3
#
#
#
# Elastic Constant Matrix: (Units=GPa)
#
#
# Indices 1 2 3 4 5 6 
#
# 1 118.9397 32.5112 62.2762 13.5394 2.1778 -7.2334
# 2 32.5112 72.4561 30.2600 20.4506 8.8671 -10.2760
# 3 62.2762 30.2600 81.2137 21.8300 1.2203 -2.4557
# 4 13.5394 20.4506 21.8300 26.3491 -0.8199 -6.6349
# 5 2.1778 8.8671 1.2203 -0.8199 48.9933 5.0920
# 6 -7.2334 -10.2760 -2.4557 -6.6349 5.0920 34.3463
#
#
#
# Elastic Compliance Matrix: (Units=1/GPa)
#
#
# Indices 1 2 3 4 5 6 
#
# 1 0.014808 -0.002835 -0.011492 0.004706 -0.000026 0.002362
# 2 -0.002835 0.020268 -0.002036 -0.011796 -0.004068 0.003646
# 3 -0.011492 -0.002036 0.025751 -0.014875 0.000417 -0.004123
# 4 0.004706 -0.011796 -0.014875 0.058958 0.002512 0.007415
# 5 -0.000026 -0.004068 0.000417 0.002512 0.021586 -0.003907
# 6 0.002362 0.003646 -0.004123 0.007415 -0.003907 0.032420
#
#
# Mechanical properties :
#
#
# Convention : Reuss Voigt Hill
#
# Bulk Modulus (GPa) = 35.58482 58.07825 46.83153
# Shear Modulus (GPa) = 23.16046 31.77521 27.46784
#
# Velocity S-wave (km/s) = 3.33724 3.90893 3.63434
# Velocity P-wave (km/s) = 5.65343 6.94990 6.33491
#
# Compressibility (1/GPa) = 0.02810187
#
# Stress axis : x y z
#
# Youngs Moduli (GPa) = 67.53057 49.33868 38.83296
#
# Poissons Ratio (x) = 0.13989 0.44627
# Poissons Ratio (y) = 0.19147 0.07904
# Poissons Ratio (z) = 0.77606 0.10043
#
# Static dielectric constant tensor:
#      x y z
#    x 3.090140 0.872720 -0.565610 
#    y 0.872720 2.504900 0.701920 
#    z -0.565610 0.701920 3.450440 
# 
# 
# High freq. dielectric constant tensor:
#      x y z
#    x 1.827940 -0.007430 -0.007660 
#    y -0.007430 1.812890 0.011720 
#    z -0.007660 0.011720 1.803860 
# 
# From -- ./inp_files/176512.got.cif
#   From: 2010.06.25/outbox.cif.g09.slc.cpg/sg2_89_cif.got.tgz:176512.got - 2010.06.27 13:26:56.
