data_PCOD8009089
_publ_section_title
;
Structure prediction by ZEFSAII (Michael W. Deem and Ramdas Pophale) SiO2 
 PCOD8009089
Probable space group: P -1
;
_chemical_formula_sum "Si O2"
_cell_formula_units_Z 16
_cell_length_a 12.594351
_cell_length_b 9.382652
_cell_length_c 17.509390
_cell_angle_alpha 76.314895
_cell_angle_beta 49.620863
_cell_angle_gamma 116.855436
_cell_volume 882.157505
_symmetry_space_group_name_H-M "P -1"
_symmetry_group_IT_number 2
_symmetry_cell_setting 'triclinic'
loop_
_space_group_symop_operation_xyz
x,y,z
-x,-y,-z
loop_
_atom_site_type_symbol
_atom_site_label
_atom_site_fract_x
_atom_site_fract_y
_atom_site_fract_z
Si Si1 0.167210 0.590533 0.843465
Si Si2 0.602622 0.287878 0.700538
Si Si3 0.970457 0.531706 0.784088
Si Si4 0.285855 0.854071 0.453149
Si Si5 0.617208 0.462707 0.908989
Si Si6 0.093404 0.241092 0.411882
Si Si7 0.915900 0.084500 0.002386
Si Si8 0.669263 0.990686 0.993780
O O1 0.086095 0.604627 0.803132
O O2 0.442589 0.858813 0.699311
O O3 0.000000 0.500000 0.000000
O O4 0.127843 0.382083 0.884101
O O5 0.736048 0.295048 0.579233
O O6 0.771764 0.576268 0.599237
O O7 0.338847 0.101930 0.811316
O O8 0.555340 0.172957 0.821262
O O9 0.183643 0.712897 0.599687
O O10 0.829107 0.566440 0.846438
O O11 0.782233 0.242597 0.885003
O O12 0.136200 0.859556 0.489490
O O13 0.716384 0.605697 0.764588
O O14 0.500000 0.500000 0.000000
O O15 0.413462 0.164408 0.024256
O O16 0.000000 0.000000 0.500000
O O17 0.864048 0.053721 0.939283
O O18 0.000000 0.000000 0.000000
#
# Coordination Sequence:
#
# PCOD8009089 Si02
#       8
#     2   2   2   2   2   2   2   2
#     4  11  21  38  59  84 107 150 196 224 282 345
#     4   9  19  38  56  82 109 147 196 221 275 337
#     4  10  21  36  55  83 114 144 186 237 283 330
#     4  11  21  36  58  83 117 146 186 239 283 333
#     4  10  21  36  55  82 114 149 187 233 282 332
#     4  10  23  37  55  85 117 151 185 236 285 331
#     4   9  19  34  59  82 109 142 193 235 267 324
#     4   8  18  36  55  78 107 147 193 221 271 335
#
# _framework density 18.137350999999999
#
# number of rings (size 3 to 8) (size 9 to 14) (size 15 to 20)
#    0.750    1.500    1.250    1.125    1.750    4.000 
#    0.000    0.000    0.000    1.500    0.000    0.000 
#    0.000    0.000    0.000    0.000    0.000    0.000 
#
# Total GULP energy -198300.428513 kJ/mol
# GULP energy per Si atom -12393.776782 kJ/mol
# Density = 1.809607 g / cm^3
# Si number density = 18.137351 Si / 1000 Ang^3
#
#
#
# Elastic Constant Matrix: (Units=GPa)
#
#
# Indices 1 2 3 4 5 6 
#
# 1 83.7659 52.6048 38.1872 8.1453 5.4478 -14.6879
# 2 52.6048 129.6852 69.5419 0.4073 -3.3756 -3.1665
# 3 38.1872 69.5419 113.1848 -2.8903 -1.0549 -5.8074
# 4 8.1453 0.4073 -2.8903 38.3387 -3.2142 -1.1203
# 5 5.4478 -3.3756 -1.0549 -3.2142 21.7555 -2.3885
# 6 -14.6879 -3.1665 -5.8074 -1.1203 -2.3885 25.3182
#
#
#
# Elastic Compliance Matrix: (Units=1/GPa)
#
#
# Indices 1 2 3 4 5 6 
#
# 1 0.019549 -0.006660 -0.002194 -0.004453 -0.005675 0.009272
# 2 -0.006660 0.013826 -0.006358 0.000970 0.003292 -0.003240
# 3 -0.002194 -0.006358 0.013590 0.001642 0.000594 0.001178
# 4 -0.004453 0.000970 0.001642 0.027584 0.005381 -0.000357
# 5 -0.005675 0.003292 0.000594 0.005381 0.048953 0.002112
# 6 0.009272 -0.003240 0.001178 -0.000357 0.002112 0.044925
#
#
# Mechanical properties :
#
#
# Convention : Reuss Voigt Hill
#
# Bulk Modulus (GPa) = 60.46399 71.92265 66.19332
# Shear Modulus (GPa) = 24.46604 28.16928 26.31766
#
# Velocity S-wave (km/s) = 3.67676 3.94523 3.81336
# Velocity P-wave (km/s) = 7.17174 7.77776 7.48089
#
# Compressibility (1/GPa) = 0.01653877
#
# Stress axis : x y z
#
# Youngs Moduli (GPa) = 51.15354 72.32847 73.58393
#
# Poissons Ratio (x) = 0.48174 0.16146
# Poissons Ratio (y) = 0.34071 0.46787
# Poissons Ratio (z) = 0.11224 0.45989
#
# Static dielectric constant tensor:
#      x y z
#    x 3.407510 0.124360 -0.367930 
#    y 0.124360 3.492780 -0.384030 
#    z -0.367930 -0.384030 4.184260 
# 
# 
# High freq. dielectric constant tensor:
#      x y z
#    x 1.694490 0.002660 -0.003160 
#    y 0.002660 1.702580 -0.015600 
#    z -0.003160 -0.015600 1.701610 
# 
# From -- ./inp_files/283061.got.cif
#   From: 2010.06.25/outbox.cif.g09.slc.cpg/sg2_142_cif.got.tgz:283061.got - 2010.06.27 13:26:56.
