data_PCOD8009938
_publ_section_title
;
Structure prediction by ZEFSAII (Michael W. Deem and Ramdas Pophale) SiO2 
 PCOD8009938
Probable space group: P -1
;
_chemical_formula_sum "Si O2"
_cell_formula_units_Z 16
_cell_length_a 16.918628
_cell_length_b 8.641025
_cell_length_c 9.900052
_cell_angle_alpha 29.880734
_cell_angle_beta 89.165235
_cell_angle_gamma 89.410416
_cell_volume 720.970351
_symmetry_space_group_name_H-M "P -1"
_symmetry_group_IT_number 2
_symmetry_cell_setting 'triclinic'
loop_
_space_group_symop_operation_xyz
x,y,z
-x,-y,-z
loop_
_atom_site_type_symbol
_atom_site_label
_atom_site_fract_x
_atom_site_fract_y
_atom_site_fract_z
Si Si1 0.301557 0.519867 0.206501
Si Si2 0.474070 0.058393 0.108965
Si Si3 0.199036 0.310083 0.771371
Si Si4 0.468220 0.266859 0.393747
Si Si5 0.303538 0.836871 0.247255
Si Si6 0.799741 0.997496 0.278314
Si Si7 0.970403 0.952588 0.386444
Si Si8 0.973695 0.717101 0.119026
O O1 0.379533 0.343279 0.290069
O O2 0.325548 0.722376 0.183092
O O3 0.231995 0.285443 0.420151
O O4 0.266151 0.731223 0.926920
O O5 0.478747 0.425340 0.859881
O O6 0.500000 0.000000 0.000000
O O7 0.531474 0.859426 0.356142
O O8 0.385394 0.944855 0.230599
O O9 0.260368 0.582646 0.531399
O O10 0.181910 0.095046 0.805736
O O11 0.114159 0.415278 0.748774
O O12 0.241898 0.116611 0.033040
O O13 0.500000 0.000000 0.500000
O O14 0.882449 0.094327 0.269899
O O15 0.000000 0.000000 0.500000
O O16 0.024626 0.153614 0.131425
O O17 0.970166 0.582365 0.631983
O O18 0.000000 0.000000 0.000000
#
# Coordination Sequence:
#
# PCOD8009938 Si02
#       8
#     2   2   2   2   2   2   2   2
#     4  10  21  38  65  96 129 173 227 276 330 406
#     4  12  24  42  71 101 134 177 232 283 338 403
#     4  10  21  37  63 100 131 168 224 288 334 385
#     4  12  26  44  67 103 142 181 225 279 347 409
#     4  10  21  37  63 100 131 168 224 288 334 385
#     4  10  21  38  65  96 129 173 227 276 330 406
#     4  12  26  44  67 103 142 181 225 279 347 409
#     4  12  24  42  71 101 134 177 232 283 338 403
#
# _framework density 22.192314
#
# number of rings (size 3 to 8) (size 9 to 14) (size 15 to 20)
#    0.000    1.000    2.500    4.500    7.000    0.000 
#    0.000    5.000    0.000    0.000    0.000    0.000 
#    0.000    0.000    0.000    0.000    0.000    0.000 
#
# Total GULP energy -198437.944983 kJ/mol
# GULP energy per Si atom -12402.371561 kJ/mol
# Density = 2.214180 g / cm^3
# Si number density = 22.192314 Si / 1000 Ang^3
#
#
#
# Elastic Constant Matrix: (Units=GPa)
#
#
# Indices 1 2 3 4 5 6 
#
# 1 143.8508 55.0528 32.8383 -5.0723 11.9457 2.1140
# 2 55.0528 63.4902 31.6987 -6.3000 4.1655 1.9255
# 3 32.8383 31.6987 106.4809 -9.3676 17.3958 3.4865
# 4 -5.0723 -6.3000 -9.3676 35.0747 -2.4427 3.1167
# 5 11.9457 4.1655 17.3958 -2.4427 42.3594 -5.2924
# 6 2.1140 1.9255 3.4865 3.1167 -5.2924 25.2912
#
#
#
# Elastic Compliance Matrix: (Units=1/GPa)
#
#
# Indices 1 2 3 4 5 6 
#
# 1 0.010604 -0.008927 -0.000274 -0.000237 -0.002086 -0.000576
# 2 -0.008927 0.026167 -0.005183 0.002206 0.002156 -0.000352
# 3 -0.000274 -0.005183 0.012029 0.002144 -0.004536 -0.002454
# 4 -0.000237 0.002206 0.002144 0.029820 0.000179 -0.004081
# 5 -0.002086 0.002156 -0.004536 0.000179 0.026630 0.006186
# 6 -0.000576 -0.000352 -0.002454 -0.004081 0.006186 0.041750
#
#
# Mechanical properties :
#
#
# Convention : Reuss Voigt Hill
#
# Bulk Modulus (GPa) = 49.92217 61.44463 55.68340
# Shear Modulus (GPa) = 27.40530 33.49388 30.44959
#
# Velocity S-wave (km/s) = 3.51793 3.88913 3.70818
# Velocity P-wave (km/s) = 6.24861 6.92203 6.59393
#
# Compressibility (1/GPa) = 0.02003118
#
# Stress axis : x y z
#
# Youngs Moduli (GPa) = 94.30388 38.21553 83.13309
#
# Poissons Ratio (x) = 0.34116 0.02277
# Poissons Ratio (y) = 0.84188 0.43091
# Poissons Ratio (z) = 0.02583 0.19809
#
# Static dielectric constant tensor:
#      x y z
#    x 4.165280 0.042500 0.167810 
#    y 0.042500 3.687670 -0.106350 
#    z 0.167810 -0.106350 4.332550 
# 
# 
# High freq. dielectric constant tensor:
#      x y z
#    x 1.885020 0.001280 0.002140 
#    y 0.001280 1.834700 -0.008040 
#    z 0.002140 -0.008040 1.896560 
# 
# From -- ./inp_files/328288.got.cif
#   From: 2010.06.25/outbox.cif.g09.slc.cpg/sg2_165_cif.got.tgz:328288.got - 2010.06.27 13:26:56.
