data_PCOD8009293
_publ_section_title
;
Structure prediction by ZEFSAII (Michael W. Deem and Ramdas Pophale) SiO2 
 PCOD8009293
Probable space group: P -1
;
_chemical_formula_sum "Si O2"
_cell_formula_units_Z 16
_cell_length_a 6.129308
_cell_length_b 11.127222
_cell_length_c 16.370106
_cell_angle_alpha 119.052373
_cell_angle_beta 54.040919
_cell_angle_gamma 90.360246
_cell_volume 726.068623
_symmetry_space_group_name_H-M "P -1"
_symmetry_group_IT_number 2
_symmetry_cell_setting 'triclinic'
loop_
_space_group_symop_operation_xyz
x,y,z
-x,-y,-z
loop_
_atom_site_type_symbol
_atom_site_label
_atom_site_fract_x
_atom_site_fract_y
_atom_site_fract_z
Si Si1 0.529010 0.078934 0.101738
Si Si2 0.022469 0.146197 0.950726
Si Si3 0.680237 0.641134 0.060325
Si Si4 0.252301 0.383126 0.458807
Si Si5 0.833581 0.627059 0.198488
Si Si6 0.583499 0.561184 0.395477
Si Si7 0.060760 0.866757 0.218777
Si Si8 0.042946 0.174828 0.358878
O O1 0.199883 0.175420 0.237353
O O2 0.693864 0.963117 0.098833
O O3 0.718439 0.177712 0.075389
O O4 0.500000 0.000000 0.000000
O O5 0.053882 0.302445 0.986735
O O6 0.009923 0.079786 0.841693
O O7 0.628857 0.634067 0.167040
O O8 0.391941 0.746134 0.112313
O O9 0.824181 0.479713 0.931228
O O10 0.544815 0.404472 0.368864
O O11 0.193136 0.424687 0.581161
O O12 0.248199 0.218251 0.392959
O O13 0.000000 0.500000 0.500000
O O14 0.705486 0.565517 0.280765
O O15 0.840361 0.789596 0.271871
O O16 0.283025 0.702676 0.526212
O O17 0.029826 0.013239 0.326945
#
# Coordination Sequence:
#
# PCOD8009293 Si02
#       8
#     2   2   2   2   2   2   2   2
#     4  11  21  37  59  96 128 163 202 256 322 374
#     4  10  21  36  60  92 128 159 208 253 316 377
#     4  10  21  43  64  91 125 161 210 268 311 370
#     4   9  22  44  61  88 124 168 207 254 304 369
#     4  10  24  41  66  89 122 171 210 255 313 374
#     4  10  23  45  64  92 128 164 215 252 310 379
#     4  11  22  41  61  94 126 160 207 264 313 370
#     4  11  23  38  65  91 129 163 201 260 316 372
#
# _framework density 22.036486
#
# number of rings (size 3 to 8) (size 9 to 14) (size 15 to 20)
#    0.000    1.750    2.500    0.375    3.500    2.500 
#   11.250    1.250    0.000    0.000    0.000    0.000 
#    0.000    0.000    0.000    0.000    0.000    0.000 
#
# Total GULP energy -198244.502050 kJ/mol
# GULP energy per Si atom -12390.281378 kJ/mol
# Density = 2.198633 g / cm^3
# Si number density = 22.036486 Si / 1000 Ang^3
#
#
#
# Elastic Constant Matrix: (Units=GPa)
#
#
# Indices 1 2 3 4 5 6 
#
# 1 108.1568 34.7800 43.8377 0.5582 24.7458 -13.0582
# 2 34.7800 92.4968 31.4085 -7.4140 24.1324 8.1324
# 3 43.8377 31.4085 88.9944 -11.2719 13.5042 -1.9149
# 4 0.5582 -7.4140 -11.2719 43.4177 -0.4422 7.5767
# 5 24.7458 24.1324 13.5042 -0.4422 37.3678 4.3378
# 6 -13.0582 8.1324 -1.9149 7.5767 4.3378 43.2830
#
#
#
# Elastic Compliance Matrix: (Units=1/GPa)
#
#
# Indices 1 2 3 4 5 6 
#
# 1 0.014583 -0.002638 -0.005512 -0.003162 -0.006680 0.005874
# 2 -0.002638 0.014926 -0.002758 0.002411 -0.006461 -0.003497
# 3 -0.005512 -0.002758 0.015373 0.003789 0.000052 -0.001133
# 4 -0.003162 0.002411 0.003789 0.025466 0.000132 -0.005710
# 5 -0.006680 -0.006461 0.000052 0.000132 0.035853 -0.004415
# 6 0.005874 -0.003497 -0.001133 -0.005710 -0.004415 0.026925
#
#
# Mechanical properties :
#
#
# Convention : Reuss Voigt Hill
#
# Bulk Modulus (GPa) = 43.35669 56.63338 49.99504
# Shear Modulus (GPa) = 30.74456 36.78850 33.76653
#
# Velocity S-wave (km/s) = 3.73924 4.09031 3.91871
# Velocity P-wave (km/s) = 6.19357 6.93275 6.57356
#
# Compressibility (1/GPa) = 0.02306449
#
# Stress axis : x y z
#
# Youngs Moduli (GPa) = 68.57526 66.99682 65.04954
#
# Poissons Ratio (x) = 0.17677 0.35858
# Poissons Ratio (y) = 0.18093 0.17938
# Poissons Ratio (z) = 0.37802 0.18475
#
# Static dielectric constant tensor:
#      x y z
#    x 4.382580 0.430600 0.317760 
#    y 0.430600 4.312730 0.076640 
#    z 0.317760 0.076640 3.715350 
# 
# 
# High freq. dielectric constant tensor:
#      x y z
#    x 1.881430 0.014880 0.014540 
#    y 0.014880 1.869290 0.002020 
#    z 0.014540 0.002020 1.833690 
# 
# From -- ./inp_files/95090.got.cif
#   From: 2010.06.25/outbox.cif.g09.slc.cpg/sg2_48_cif.got.tgz:95090.got - 2010.06.27 13:26:56.
