data_PCOD8009850
_publ_section_title
;
Structure prediction by ZEFSAII (Michael W. Deem and Ramdas Pophale) SiO2 
 PCOD8009850
Probable space group: P -1
;
_chemical_formula_sum "Si O2"
_cell_formula_units_Z 16
_cell_length_a 24.626979
_cell_length_b 24.335366
_cell_length_c 8.546556
_cell_angle_alpha 43.697136
_cell_angle_beta 136.541931
_cell_angle_gamma 168.332514
_cell_volume 709.758743
_symmetry_space_group_name_H-M "P -1"
_symmetry_group_IT_number 2
_symmetry_cell_setting 'triclinic'
loop_
_space_group_symop_operation_xyz
x,y,z
-x,-y,-z
loop_
_atom_site_type_symbol
_atom_site_label
_atom_site_fract_x
_atom_site_fract_y
_atom_site_fract_z
Si Si1 0.729241 0.285797 0.395331
Si Si2 0.726351 0.783626 0.383153
Si Si3 0.324901 0.597179 0.056817
Si Si4 0.258068 0.860775 0.809578
Si Si5 0.496236 0.296661 0.119985
Si Si6 0.843583 0.031176 0.359676
Si Si7 0.962874 0.188403 0.611049
Si Si8 0.763665 0.317968 0.736829
O O1 0.712537 0.310213 0.480566
O O2 0.000000 0.500000 0.500000
O O3 0.500000 0.000000 0.500000
O O4 0.726552 0.358120 0.122609
O O5 0.500000 0.500000 0.500000
O O6 0.755442 0.864972 0.432187
O O7 0.647046 0.758787 0.115812
O O8 0.000000 0.000000 0.500000
O O9 0.570398 0.820095 0.231996
O O10 0.418253 0.666924 0.932210
O O11 0.070613 0.296860 0.187727
O O12 0.078990 0.767216 0.658433
O O13 0.079512 0.635906 0.778985
O O14 0.557263 0.163490 0.741882
O O15 0.289454 0.829529 0.085426
O O16 0.751898 0.553232 0.241773
O O17 0.266642 0.031036 0.285241
O O18 0.934097 0.099052 0.588783
#
# Coordination Sequence:
#
# PCOD8009850 Si02
#       8
#     2   2   2   2   2   2   2   2
#     4  12  25  37  58  87 124 166 222 280 323 365
#     4  11  23  46  74 100 134 173 208 253 321 409
#     4  11  23  43  65  90 133 178 229 270 325 400
#     4  10  21  37  62  76 121 163 207 269 318 380
#     4  11  24  43  70  98 126 175 219 257 320 399
#     4  11  25  43  68 102 132 172 217 269 332 393
#     4  12  23  40  66  97 134 165 223 272 326 370
#     4  10  22  39  52  86 112 164 221 260 328 375
#
# _framework density 22.542873
#
# number of rings (size 3 to 8) (size 9 to 14) (size 15 to 20)
#    0.000    1.000    0.000    8.250    3.500    0.000 
#    0.000    3.750    0.000    0.000    0.000    0.000 
#    0.000    0.000    0.000    0.000    0.000    0.000 
#
# Total GULP energy -198241.461791 kJ/mol
# GULP energy per Si atom -12390.091362 kJ/mol
# Density = 2.249156 g / cm^3
# Si number density = 22.542873 Si / 1000 Ang^3
#
#
#
# Elastic Constant Matrix: (Units=GPa)
#
#
# Indices 1 2 3 4 5 6 
#
# 1 54.0718 22.1563 26.8076 6.7259 4.4472 -2.3885
# 2 22.1563 150.3613 30.4840 8.6347 13.8612 1.5122
# 3 26.8076 30.4840 89.1688 21.6482 20.9399 -0.6870
# 4 6.7259 8.6347 21.6482 52.3990 3.4139 4.2460
# 5 4.4472 13.8612 20.9399 3.4139 38.5518 7.0708
# 6 -2.3885 1.5122 -0.6870 4.2460 7.0708 33.8836
#
#
#
# Elastic Compliance Matrix: (Units=1/GPa)
#
#
# Indices 1 2 3 4 5 6 
#
# 1 0.022462 -0.002167 -0.006299 -0.000118 0.001385 0.001278
# 2 -0.002167 0.007427 -0.001464 -0.000226 -0.001576 -0.000157
# 3 -0.006299 -0.001464 0.016813 -0.005573 -0.007805 0.002289
# 4 -0.000118 -0.000226 -0.005573 0.021581 0.001796 -0.003190
# 5 0.001385 -0.001576 -0.007805 0.001796 0.031679 -0.006826
# 6 0.001278 -0.000157 0.002289 -0.003190 -0.006826 0.031481
#
#
# Mechanical properties :
#
#
# Convention : Reuss Voigt Hill
#
# Bulk Modulus (GPa) = 37.25524 50.27754 43.76639
# Shear Modulus (GPa) = 31.20185 39.24379 35.22282
#
# Velocity S-wave (km/s) = 3.72440 4.17688 3.95711
# Velocity P-wave (km/s) = 5.92091 6.75376 6.35100
#
# Compressibility (1/GPa) = 0.02684186
#
# Stress axis : x y z
#
# Youngs Moduli (GPa) = 44.52001 134.65253 59.47953
#
# Poissons Ratio (x) = 0.29173 0.37467
# Poissons Ratio (y) = 0.09646 0.08706
# Poissons Ratio (z) = 0.28044 0.19710
#
# Static dielectric constant tensor:
#      x y z
#    x 3.998760 0.000070 0.273520 
#    y 0.000070 4.214780 0.342060 
#    z 0.273520 0.342060 5.106880 
# 
# 
# High freq. dielectric constant tensor:
#      x y z
#    x 1.870470 0.000490 -0.002800 
#    y 0.000490 1.911490 0.010730 
#    z -0.002800 0.010730 1.893070 
# 
# From -- ./inp_files/357956.got.cif
#   From: 2010.06.25/outbox.cif.g09.slc.cpg/sg2_179_cif.got.tgz:357956.got - 2010.06.27 13:26:56.
