data_PCOD8009078
_publ_section_title
;
Structure prediction by ZEFSAII (Michael W. Deem and Ramdas Pophale) SiO2 
 PCOD8009078
Probable space group: P -1
;
_chemical_formula_sum "Si O2"
_cell_formula_units_Z 16
_cell_length_a 25.993687
_cell_length_b 11.501822
_cell_length_c 5.377713
_cell_angle_alpha 122.286870
_cell_angle_beta 46.362483
_cell_angle_gamma 139.687580
_cell_volume 752.687048
_symmetry_space_group_name_H-M "P -1"
_symmetry_group_IT_number 2
_symmetry_cell_setting 'triclinic'
loop_
_space_group_symop_operation_xyz
x,y,z
-x,-y,-z
loop_
_atom_site_type_symbol
_atom_site_label
_atom_site_fract_x
_atom_site_fract_y
_atom_site_fract_z
Si Si1 0.074013 0.201320 0.077864
Si Si2 0.515648 0.695029 0.942355
Si Si3 0.035880 0.413073 0.135305
Si Si4 0.224246 0.216194 0.808460
Si Si5 0.425625 0.545115 0.572478
Si Si6 0.073646 0.882251 0.202322
Si Si7 0.818193 0.214339 0.090891
Si Si8 0.720222 0.019156 0.708868
O O1 0.084032 0.351848 0.059383
O O2 0.028471 0.186770 0.477113
O O3 0.174720 0.255578 0.820752
O O4 0.000000 0.000000 0.000000
O O5 0.468309 0.680729 0.821462
O O6 0.532870 0.554932 0.698525
O O7 0.610005 0.896820 0.901747
O O8 0.449640 0.647310 0.344949
O O9 0.117306 0.569668 0.858985
O O10 0.000000 0.500000 0.500000
O O11 0.943319 0.239966 0.114456
O O12 0.314764 0.405097 0.828040
O O13 0.254320 0.108319 0.467810
O O14 0.147384 0.094593 0.140581
O O15 0.116619 0.840463 0.229682
O O16 0.750938 0.142051 0.991842
O O17 0.763980 0.131240 0.436458
#
# Coordination Sequence:
#
# PCOD8009078 Si02
#       8
#     2   2   2   2   2   2   2   2
#     4  12  24  39  59  84 125 169 210 246 311 358
#     4   9  17  33  54  82 116 151 185 244 312 363
#     4  12  24  41  60  85 118 170 217 256 295 352
#     4  10  21  36  54  88 119 162 198 247 301 368
#     4   9  18  31  53  82 117 152 191 237 302 373
#     4  11  23  39  58  82 126 164 206 254 305 352
#     4  11  22  36  60  87 114 157 205 254 294 349
#     4  10  21  37  60  89 121 151 199 256 310 363
#
# _framework density 21.257173000000002
#
# number of rings (size 3 to 8) (size 9 to 14) (size 15 to 20)
#    0.000    1.500    2.500    3.750    1.750    7.000 
#    0.000    0.000    0.000    0.000    0.000    5.250 
#    0.000    0.000    0.000    0.000    0.000    0.000 
#
# Total GULP energy -198278.438182 kJ/mol
# GULP energy per Si atom -12392.402386 kJ/mol
# Density = 2.120879 g / cm^3
# Si number density = 21.257173 Si / 1000 Ang^3
#
#
#
# Elastic Constant Matrix: (Units=GPa)
#
#
# Indices 1 2 3 4 5 6 
#
# 1 121.5336 68.9063 45.7396 -10.2245 15.5222 12.6208
# 2 68.9063 113.3980 46.9871 -26.9607 -1.0840 6.6982
# 3 45.7396 46.9871 72.3558 -17.9716 21.7290 5.9747
# 4 -10.2245 -26.9607 -17.9716 28.6270 1.3810 -0.9831
# 5 15.5222 -1.0840 21.7290 1.3810 31.8988 2.6028
# 6 12.6208 6.6982 5.9747 -0.9831 2.6028 45.4271
#
#
#
# Elastic Compliance Matrix: (Units=1/GPa)
#
#
# Indices 1 2 3 4 5 6 
#
# 1 0.014866 -0.008745 -0.003247 -0.004804 -0.004929 -0.002235
# 2 -0.008745 0.019877 -0.007787 0.010243 0.009777 0.000184
# 3 -0.003247 -0.007787 0.029430 0.010890 -0.019163 -0.000487
# 4 -0.004804 0.010243 0.010890 0.050027 -0.006888 -0.000131
# 5 -0.004929 0.009777 -0.019163 -0.006888 0.047466 -0.000420
# 6 -0.002235 0.000184 -0.000487 -0.000131 -0.000420 0.022692
#
#
# Mechanical properties :
#
#
# Convention : Reuss Voigt Hill
#
# Bulk Modulus (GPa) = 40.62571 70.06148 55.34359
# Shear Modulus (GPa) = 21.54056 30.90088 26.22072
#
# Velocity S-wave (km/s) = 3.18674 3.81684 3.51593
# Velocity P-wave (km/s) = 5.71782 7.24257 6.52489
#
# Compressibility (1/GPa) = 0.02461496
#
# Stress axis : x y z
#
# Youngs Moduli (GPa) = 67.26806 50.31015 33.97937
#
# Poissons Ratio (x) = 0.43997 0.11033
# Poissons Ratio (y) = 0.58827 0.26458
# Poissons Ratio (z) = 0.21841 0.39175
#
# Static dielectric constant tensor:
#      x y z
#    x 3.960050 0.013380 -0.136570 
#    y 0.013380 3.980090 -0.218180 
#    z -0.136570 -0.218180 3.563490 
# 
# 
# High freq. dielectric constant tensor:
#      x y z
#    x 1.824590 0.013720 0.022130 
#    y 0.013720 1.828570 -0.020940 
#    z 0.022130 -0.020940 1.807460 
# 
# From -- ./inp_files/126754.got.cif
#   From: 2010.06.25/outbox.cif.g09.slc.cpg/sg2_64_cif.got.tgz:126754.got - 2010.06.27 13:26:56.
