data_PCOD8009507
_publ_section_title
;
Structure prediction by ZEFSAII (Michael W. Deem and Ramdas Pophale) SiO2 
 PCOD8009507
Probable space group: P -1
;
_chemical_formula_sum "Si O2"
_cell_formula_units_Z 14
_cell_length_a 11.428422
_cell_length_b 13.023441
_cell_length_c 6.277957
_cell_angle_alpha 77.646793
_cell_angle_beta 123.422709
_cell_angle_gamma 81.636320
_cell_volume 720.998586
_symmetry_space_group_name_H-M "P -1"
_symmetry_group_IT_number 2
_symmetry_cell_setting 'triclinic'
loop_
_space_group_symop_operation_xyz
x,y,z
-x,-y,-z
loop_
_atom_site_type_symbol
_atom_site_label
_atom_site_fract_x
_atom_site_fract_y
_atom_site_fract_z
Si Si1 0.439907 0.445459 0.153206
Si Si2 0.395971 0.962319 0.569997
Si Si3 0.561944 0.733638 0.064058
Si Si4 0.353907 0.656535 0.214415
Si Si5 0.047640 0.845127 0.896429
Si Si6 0.137606 0.043059 0.972351
Si Si7 0.764235 0.854525 0.356596
O O1 0.329774 0.545476 0.137760
O O2 0.571061 0.372235 0.468008
O O3 0.500000 0.500000 0.000000
O O4 0.367332 0.362549 0.998997
O O5 0.500000 0.000000 0.500000
O O6 0.356965 0.048660 0.685199
O O7 0.468922 0.841416 0.792283
O O8 0.246944 0.966273 0.293015
O O9 0.454565 0.703336 0.139489
O O10 0.700322 0.751710 0.320336
O O11 0.195081 0.744056 0.056413
O O12 0.925016 0.818007 0.640717
O O13 0.073451 0.961403 0.804670
O O14 0.993480 0.861140 0.081438
O O15 0.226263 0.102695 0.890674
#
# Coordination Sequence:
#
# PCOD8009507 Si02
#       7
#     2   2   2   2   2   2   2
#     4   9  21  39  62  90 109 144 199 249 291 343
#     4  11  22  34  56  89 120 153 197 232 282 342
#     4  11  22  35  62  88 118 153 192 248 292 332
#     4  10  21  40  64  86 114 148 199 245 292 342
#     4  10  22  36  57  82 118 161 190 234 288 349
#     4  10  21  37  54  82 122 160 199 232 277 350
#     4  11  23  36  54  87 122 156 191 235 289 348
#
# _framework density 19.417513
#
# number of rings (size 3 to 8) (size 9 to 14) (size 15 to 20)
#    0.000    1.714    1.429    2.571    4.000    4.571 
#    0.000    0.714    0.000    8.571    0.000    0.000 
#    0.000    0.000    0.000    0.000    0.000    0.000 
#
# Total GULP energy -173522.042546 kJ/mol
# GULP energy per Si atom -12394.431610 kJ/mol
# Density = 1.937332 g / cm^3
# Si number density = 19.417513 Si / 1000 Ang^3
#
#
#
# Elastic Constant Matrix: (Units=GPa)
#
#
# Indices 1 2 3 4 5 6 
#
# 1 107.5858 62.3923 48.7294 -0.0764 2.4512 -6.1059
# 2 62.3923 156.7347 63.1100 22.1618 15.4458 -4.0269
# 3 48.7294 63.1100 99.0256 3.7339 1.2413 -0.4400
# 4 -0.0764 22.1618 3.7339 30.6917 7.9829 0.6833
# 5 2.4512 15.4458 1.2413 7.9829 33.0493 -0.4796
# 6 -6.1059 -4.0269 -0.4400 0.6833 -0.4796 28.8395
#
#
#
# Elastic Compliance Matrix: (Units=1/GPa)
#
#
# Indices 1 2 3 4 5 6 
#
# 1 0.013789 -0.004272 -0.004189 0.003497 0.000318 0.002181
# 2 -0.004272 0.011301 -0.004802 -0.006787 -0.003135 0.000709
# 3 -0.004189 -0.004802 0.015147 0.001208 0.001675 -0.001327
# 4 0.003497 -0.006787 0.001208 0.039086 -0.006592 -0.001225
# 5 0.000318 -0.003135 0.001675 -0.006592 0.033234 0.000364
# 6 0.002181 0.000709 -0.001327 -0.001225 0.000364 0.035250
#
#
# Mechanical properties :
#
#
# Convention : Reuss Voigt Hill
#
# Bulk Modulus (GPa) = 72.92873 79.08996 76.00934
# Shear Modulus (GPa) = 27.94804 31.12374 29.53589
#
# Velocity S-wave (km/s) = 3.79795 4.00793 3.90435
# Velocity P-wave (km/s) = 7.54138 7.88908 7.71719
#
# Compressibility (1/GPa) = 0.01371202
#
# Stress axis : x y z
#
# Youngs Moduli (GPa) = 72.52290 88.48724 66.01824
#
# Poissons Ratio (x) = 0.37803 0.27654
# Poissons Ratio (y) = 0.30983 0.31699
# Poissons Ratio (z) = 0.30378 0.42488
#
# Static dielectric constant tensor:
#      x y z
#    x 3.569950 -0.056980 -0.076970 
#    y -0.056980 3.955760 0.329650 
#    z -0.076970 0.329650 3.471100 
# 
# 
# High freq. dielectric constant tensor:
#      x y z
#    x 1.751280 -0.003480 -0.011990 
#    y -0.003480 1.759080 0.018750 
#    z -0.011990 0.018750 1.757620 
# 
# From -- ./inp_files/36954.got.cif
#   From: 2010.06.25/outbox.cif.g09.slc.cpg/sg2_19_cif.got.tgz:36954.got - 2010.06.27 13:26:56.
