data_PCOD8009210
_publ_section_title
;
Structure prediction by ZEFSAII (Michael W. Deem and Ramdas Pophale) SiO2 
 PCOD8009210
Probable space group: P -1
;
_chemical_formula_sum "Si O2"
_cell_formula_units_Z 14
_cell_length_a 8.889493
_cell_length_b 10.066592
_cell_length_c 7.077428
_cell_angle_alpha 96.161880
_cell_angle_beta 107.197217
_cell_angle_gamma 93.652759
_cell_volume 598.481808
_symmetry_space_group_name_H-M "P -1"
_symmetry_group_IT_number 2
_symmetry_cell_setting 'triclinic'
loop_
_space_group_symop_operation_xyz
x,y,z
-x,-y,-z
loop_
_atom_site_type_symbol
_atom_site_label
_atom_site_fract_x
_atom_site_fract_y
_atom_site_fract_z
Si Si1 0.302668 0.725385 0.792663
Si Si2 0.658312 0.821500 0.323407
Si Si3 0.831849 0.890396 0.758099
Si Si4 0.822776 0.440032 0.957119
Si Si5 0.687510 0.160973 0.796494
Si Si6 0.351333 0.310737 0.078030
Si Si7 0.873889 0.058385 0.324920
O O1 0.209809 0.593662 0.836374
O O2 0.472802 0.694909 0.769257
O O3 0.193807 0.799580 0.613428
O O4 0.331049 0.843218 0.982414
O O5 0.773167 0.799240 0.539416
O O6 0.488914 0.843670 0.354594
O O7 0.724444 0.948533 0.238592
O O8 0.642836 0.696990 0.150478
O O9 0.771443 0.811254 0.909767
O O10 0.767679 0.035029 0.726839
O O11 0.025703 0.911791 0.830704
O O12 0.786213 0.304069 0.798552
O O13 0.706374 0.547774 0.862557
O O14 0.000000 0.500000 0.000000
O O15 0.000000 0.000000 0.500000
#
# Coordination Sequence:
#
# PCOD8009210 Si02
#       7
#     2   2   2   2   2   2   2
#     4   9  20  37  61  91 121 167 216 247 316 379
#     4  10  22  38  62  93 131 159 215 254 318 371
#     4  11  22  37  63  95 128 163 211 263 314 367
#     4  10  22  39  64  96 126 163 218 259 316 381
#     4   9  21  37  62  91 126 164 210 258 314 377
#     4  11  22  40  70  88 129 174 207 261 315 376
#     4  10  21  36  58  93 131 158 205 264 313 364
#
# _framework density 23.392524999999999
#
# number of rings (size 3 to 8) (size 9 to 14) (size 15 to 20)
#    0.857    1.143    0.000    3.429    2.000    4.571 
#    0.000    0.714    6.286    2.571    0.000    0.000 
#    0.000    0.000    0.000    0.000    0.000    0.000 
#
# Total GULP energy -173442.105774 kJ/mol
# GULP energy per Si atom -12388.721841 kJ/mol
# Density = 2.333928 g / cm^3
# Si number density = 23.392525 Si / 1000 Ang^3
#
#
#
# Elastic Constant Matrix: (Units=GPa)
#
#
# Indices 1 2 3 4 5 6 
#
# 1 145.2126 61.7256 4.7190 -1.0614 24.9032 3.5582
# 2 61.7256 133.6309 9.5814 -4.2983 15.7901 -10.4244
# 3 4.7190 9.5814 35.0479 4.3272 0.2484 -8.5908
# 4 -1.0614 -4.2983 4.3272 24.4976 -2.2527 5.9393
# 5 24.9032 15.7901 0.2484 -2.2527 25.2706 1.7225
# 6 3.5582 -10.4244 -8.5908 5.9393 1.7225 52.1023
#
#
#
# Elastic Compliance Matrix: (Units=1/GPa)
#
#
# Indices 1 2 3 4 5 6 
#
# 1 0.009753 -0.003725 -0.000470 -0.000526 -0.007245 -0.001189
# 2 -0.003725 0.009811 -0.001859 0.001213 -0.002460 0.001854
# 3 -0.000470 -0.001859 0.031379 -0.007233 0.000286 0.005649
# 4 -0.000526 0.001213 -0.007233 0.044148 0.004182 -0.006085
# 5 -0.007245 -0.002460 0.000286 0.004182 0.048757 -0.002039
# 6 -0.001189 0.001854 0.005649 -0.006085 -0.002039 0.021338
#
#
# Mechanical properties :
#
#
# Convention : Reuss Voigt Hill
#
# Bulk Modulus (GPa) = 25.74889 51.77150 38.76019
# Shear Modulus (GPa) = 26.28278 36.23180 31.25729
#
# Velocity S-wave (km/s) = 3.35558 3.93983 3.65938
# Velocity P-wave (km/s) = 5.10338 6.54798 5.87028
#
# Compressibility (1/GPa) = 0.03883663
#
# Stress axis : x y z
#
# Youngs Moduli (GPa) = 102.53469 101.92218 31.86797
#
# Poissons Ratio (x) = 0.37965 0.01498
# Poissons Ratio (y) = 0.38193 0.05923
# Poissons Ratio (z) = 0.04820 0.18943
#
# Static dielectric constant tensor:
#      x y z
#    x 4.653770 0.090230 0.096230 
#    y 0.090230 4.148720 -0.128600 
#    z 0.096230 -0.128600 3.702390 
# 
# 
# High freq. dielectric constant tensor:
#      x y z
#    x 1.946770 0.005860 0.009400 
#    y 0.005860 1.914810 -0.009780 
#    z 0.009400 -0.009780 1.880970 
# 
# From -- ./inp_files/151748.got.cif
#   From: 2010.06.25/outbox.cif.g09.slc.cpg/sg2_76_cif.got.tgz:151748.got - 2010.06.27 13:26:56.
