data_PCOD8009576
_publ_section_title
;
Structure prediction by ZEFSAII (Michael W. Deem and Ramdas Pophale) SiO2 
 PCOD8009576
Probable space group: P -1
;
_chemical_formula_sum "Si O2"
_cell_formula_units_Z 14
_cell_length_a 19.799299
_cell_length_b 23.613435
_cell_length_c 7.774585
_cell_angle_alpha 131.141129
_cell_angle_beta 128.152248
_cell_angle_gamma 14.278632
_cell_volume 671.276996
_symmetry_space_group_name_H-M "P -1"
_symmetry_group_IT_number 2
_symmetry_cell_setting 'triclinic'
loop_
_space_group_symop_operation_xyz
x,y,z
-x,-y,-z
loop_
_atom_site_type_symbol
_atom_site_label
_atom_site_fract_x
_atom_site_fract_y
_atom_site_fract_z
Si Si1 0.576780 0.353853 0.451647
Si Si2 0.708364 0.739763 0.673268
Si Si3 0.677268 0.777798 0.329830
Si Si4 0.137344 0.943459 0.378334
Si Si5 0.491664 0.560813 0.945381
Si Si6 0.344574 0.038445 0.008462
Si Si7 0.894636 0.293476 0.814083
O O1 0.617587 0.278473 0.545909
O O2 0.437242 0.553465 0.673035
O O3 0.379284 0.466072 0.250549
O O4 0.871363 0.114835 0.344861
O O5 0.648119 0.755090 0.418763
O O6 0.998391 0.473037 0.679975
O O7 0.472967 0.907565 0.766147
O O8 0.714843 0.823897 0.818406
O O9 0.500000 0.000000 0.500000
O O10 0.557424 0.834914 0.087550
O O11 0.256639 0.819486 0.129428
O O12 0.085375 0.075483 0.576341
O O13 0.789024 0.352022 0.953066
O O14 0.500000 0.500000 0.000000
O O15 0.055697 0.236971 0.978325
#
# Coordination Sequence:
#
# PCOD8009576 Si02
#       7
#     2   2   2   2   2   2   2
#     4   9  19  34  56  76 109 146 191 233 275 344
#     4   9  19  39  62  83 112 158 193 228 288 356
#     4   9  18  37  63  85 109 151 198 230 281 360
#     4   9  18  36  55  77 106 153 189 230 285 329
#     4   9  18  36  57  76 107 151 191 227 277 338
#     4  10  21  37  57  87 120 150 188 241 295 339
#     4  11  22  35  52  88 115 140 192 238 284 340
#
# _framework density 20.855772000000002
#
# number of rings (size 3 to 8) (size 9 to 14) (size 15 to 20)
#    0.000    2.571    0.000    3.000    0.000    3.429 
#   12.857    0.000    0.000    0.000    0.000    0.000 
#    0.000    0.000    0.000    0.000    0.000    0.000 
#
# Total GULP energy -173441.595787 kJ/mol
# GULP energy per Si atom -12388.685413 kJ/mol
# Density = 2.080830 g / cm^3
# Si number density = 20.855772 Si / 1000 Ang^3
#
#
#
# Elastic Constant Matrix: (Units=GPa)
#
#
# Indices 1 2 3 4 5 6 
#
# 1 76.8216 44.6250 34.2370 -13.0282 -14.8242 -20.1339
# 2 44.6250 100.8657 37.8785 -8.3405 -13.3633 0.9665
# 3 34.2370 37.8785 81.4512 10.3088 -22.5264 -13.7187
# 4 -13.0282 -8.3405 10.3088 48.2358 -1.4667 -3.1761
# 5 -14.8242 -13.3633 -22.5264 -1.4667 26.0091 5.0044
# 6 -20.1339 0.9665 -13.7187 -3.1761 5.0044 36.3751
#
#
#
# Elastic Compliance Matrix: (Units=1/GPa)
#
#
# Indices 1 2 3 4 5 6 
#
# 1 0.025213 -0.008521 -0.004230 0.007203 0.004306 0.012623
# 2 -0.008521 0.015738 -0.004944 0.001029 0.000344 -0.006957
# 3 -0.004230 -0.004944 0.021102 -0.005900 0.012312 0.003540
# 4 0.007203 0.001029 -0.005900 0.024373 0.000159 0.003840
# 5 0.004306 0.000344 0.012312 0.000159 0.051769 -0.000090
# 6 0.012623 -0.006957 0.003540 0.003840 -0.000090 0.036346
#
#
# Mechanical properties :
#
#
# Convention : Reuss Voigt Hill
#
# Bulk Modulus (GPa) = 37.50427 54.73549 46.11988
# Shear Modulus (GPa) = 22.84992 31.61720 27.23356
#
# Velocity S-wave (km/s) = 3.31360 3.89780 3.61751
# Velocity P-wave (km/s) = 5.71504 6.82341 6.29367
#
# Compressibility (1/GPa) = 0.02666363
#
# Stress axis : x y z
#
# Youngs Moduli (GPa) = 39.66211 63.54035 47.38834
#
# Poissons Ratio (x) = 0.54144 0.20044
# Poissons Ratio (y) = 0.33797 0.23428
# Poissons Ratio (z) = 0.16776 0.31414
#
# Static dielectric constant tensor:
#      x y z
#    x 3.618210 0.230050 -0.507760 
#    y 0.230050 3.947730 0.200400 
#    z -0.507760 0.200400 4.246640 
# 
# 
# High freq. dielectric constant tensor:
#      x y z
#    x 1.787930 0.017010 -0.033040 
#    y 0.017010 1.817020 0.015560 
#    z -0.033040 0.015560 1.814220 
# 
# From -- ./inp_files/355693.got.cif
#   From: 2010.06.25/outbox.cif.g09.slc.cpg/sg2_178_cif.got.tgz:355693.got - 2010.06.27 13:26:56.
