data_PCOD8009045
_publ_section_title
;
Structure prediction by ZEFSAII (Michael W. Deem and Ramdas Pophale) SiO2 
 PCOD8009045
Probable space group: P -1
;
_chemical_formula_sum "Si O2"
_cell_formula_units_Z 16
_cell_length_a 15.537612
_cell_length_b 9.396356
_cell_length_c 21.443800
_cell_angle_alpha 36.868458
_cell_angle_beta 149.968678
_cell_angle_gamma 142.114304
_cell_volume 890.077220
_symmetry_space_group_name_H-M "P -1"
_symmetry_group_IT_number 2
_symmetry_cell_setting 'triclinic'
loop_
_space_group_symop_operation_xyz
x,y,z
-x,-y,-z
loop_
_atom_site_type_symbol
_atom_site_label
_atom_site_fract_x
_atom_site_fract_y
_atom_site_fract_z
Si Si1 0.432331 0.035032 0.149568
Si Si2 0.923381 0.767202 0.578743
Si Si3 0.470892 0.509376 0.854251
Si Si4 0.527632 0.132251 0.374541
Si Si5 0.827227 0.769130 0.147351
Si Si6 0.576856 0.775052 0.427180
Si Si7 0.273386 0.688297 0.850394
Si Si8 0.216046 0.774841 0.379767
O O1 0.483708 0.267151 0.146869
O O2 0.584885 0.073888 0.178289
O O3 0.435832 0.798012 0.276438
O O4 0.239580 0.012031 0.003485
O O5 0.778641 0.829266 0.509694
O O6 0.836340 0.508543 0.577807
O O7 0.090697 0.747755 0.733478
O O8 0.000000 0.000000 0.500000
O O9 0.472236 0.610717 0.749347
O O10 0.275999 0.313380 0.822008
O O11 0.629193 0.379554 0.003721
O O12 0.663049 0.211425 0.488859
O O13 0.599745 0.969835 0.428793
O O14 0.326309 0.968986 0.328135
O O15 0.776587 0.537290 0.150469
O O16 0.043612 0.860843 0.260526
O O17 0.500000 0.500000 0.500000
#
# Coordination Sequence:
#
# PCOD8009045 Si02
#       8
#     2   2   2   2   2   2   2   2
#     4   8  14  28  49  72 102 130 161 213 256 291
#     4  11  20  34  55  79 103 135 171 209 254 306
#     4   8  15  29  50  74  98 128 170 214 248 290
#     4  10  21  36  52  73 108 138 167 211 255 303
#     4   8  15  29  50  74  96 129 174 209 249 295
#     4  11  20  34  51  79 105 135 172 207 257 301
#     4   8  14  28  49  74 100 128 166 210 253 294
#     4  10  21  36  52  75 104 139 171 206 258 304
#
# _framework density 17.975968000000002
#
# number of rings (size 3 to 8) (size 9 to 14) (size 15 to 20)
#    0.000    2.750    2.500    1.500    1.750    0.500 
#    2.250    2.500    0.000    3.000    0.000    0.000 
#    0.000    0.000    0.000    0.000    0.000    0.000 
#
# Total GULP energy -198253.965470 kJ/mol
# GULP energy per Si atom -12390.872842 kJ/mol
# Density = 1.793505 g / cm^3
# Si number density = 17.975968 Si / 1000 Ang^3
#
#
#
# Elastic Constant Matrix: (Units=GPa)
#
#
# Indices 1 2 3 4 5 6 
#
# 1 96.4769 34.5373 70.3367 -0.6903 -0.0834 27.9516
# 2 34.5373 50.1210 44.3274 0.2796 0.4766 18.3900
# 3 70.3367 44.3274 148.0667 -6.9532 3.9615 28.1473
# 4 -0.6903 0.2796 -6.9532 24.3410 9.7421 -1.4347
# 5 -0.0834 0.4766 3.9615 9.7421 30.0587 0.4642
# 6 27.9516 18.3900 28.1473 -1.4347 0.4642 26.6917
#
#
#
# Elastic Compliance Matrix: (Units=1/GPa)
#
#
# Indices 1 2 3 4 5 6 
#
# 1 0.019507 -0.003813 -0.006106 -0.002604 0.001942 -0.011535
# 2 -0.003813 0.032132 -0.005654 -0.003435 0.001530 -0.012394
# 3 -0.006106 -0.005654 0.012031 0.004362 -0.002894 -0.002112
# 4 -0.002604 -0.003435 0.004362 0.049097 -0.016493 0.003420
# 5 0.001942 0.001530 -0.002894 -0.016493 0.039001 -0.001600
# 6 -0.011535 -0.012394 -0.002112 0.003420 -0.001600 0.060522
#
#
# Mechanical properties :
#
#
# Convention : Reuss Voigt Hill
#
# Bulk Modulus (GPa) = 30.74785 65.89638 48.32211
# Shear Modulus (GPa) = 19.66343 25.91582 22.78963
#
# Velocity S-wave (km/s) = 3.31096 3.80108 3.56446
# Velocity P-wave (km/s) = 5.63549 7.48344 6.62422
#
# Compressibility (1/GPa) = 0.03252260
#
# Stress axis : x y z
#
# Youngs Moduli (GPa) = 51.26335 31.12164 83.11822
#
# Poissons Ratio (x) = 0.11866 0.50756
# Poissons Ratio (y) = 0.19546 0.46999
# Poissons Ratio (z) = 0.31304 0.17598
#
# Static dielectric constant tensor:
#      x y z
#    x 3.303790 0.329140 0.055160 
#    y 0.329140 3.031270 -0.161180 
#    z 0.055160 -0.161180 4.013560 
# 
# 
# High freq. dielectric constant tensor:
#      x y z
#    x 1.682290 0.024100 0.004250 
#    y 0.024100 1.654900 -0.008760 
#    z 0.004250 -0.008760 1.714420 
# 
# From -- ./inp_files/202537.got.cif
#   From: 2010.06.25/outbox.cif.g09.slc.cpg/sg2_102_cif.got.tgz:202537.got - 2010.06.27 13:26:56.
