data_PCOD8009347
_publ_section_title
;
Structure prediction by ZEFSAII (Michael W. Deem and Ramdas Pophale) SiO2 
 PCOD8009347
Probable space group: P -1
;
_chemical_formula_sum "Si O2"
_cell_formula_units_Z 16
_cell_length_a 8.711697
_cell_length_b 18.118401
_cell_length_c 7.509543
_cell_angle_alpha 86.012687
_cell_angle_beta 73.191551
_cell_angle_gamma 43.290971
_cell_volume 759.906128
_symmetry_space_group_name_H-M "P -1"
_symmetry_group_IT_number 2
_symmetry_cell_setting 'triclinic'
loop_
_space_group_symop_operation_xyz
x,y,z
-x,-y,-z
loop_
_atom_site_type_symbol
_atom_site_label
_atom_site_fract_x
_atom_site_fract_y
_atom_site_fract_z
Si Si1 0.423462 0.121976 0.330781
Si Si2 0.464671 0.232599 0.551884
Si Si3 0.150537 0.804575 0.723106
Si Si4 0.869316 0.770458 0.928467
Si Si5 0.186811 0.371898 0.931041
Si Si6 0.810211 0.038538 0.700084
Si Si7 0.160959 0.130712 0.720974
Si Si8 0.292094 0.795652 0.063190
O O1 0.420603 0.209224 0.380469
O O2 0.355894 0.144463 0.142430
O O3 0.226596 0.146753 0.510801
O O4 0.683320 0.997034 0.286363
O O5 0.657316 0.234713 0.482437
O O6 0.229816 0.345685 0.707708
O O7 0.555492 0.134179 0.669426
O O8 0.101837 0.733370 0.771854
O O9 0.268145 0.797576 0.861173
O O10 0.886276 0.930087 0.752947
O O11 0.928990 0.663416 0.944619
O O12 0.797114 0.830401 0.131136
O O13 0.435433 0.310374 0.950357
O O14 0.000000 0.500000 0.000000
O O15 0.800545 0.091450 0.871295
O O16 0.000000 0.000000 0.500000
O O17 0.882411 0.204805 0.784825
#
# Coordination Sequence:
#
# PCOD8009347 Si02
#       8
#     2   2   2   2   2   2   2   2
#     4  11  22  35  65  96 143 167 204 237 316 375
#     4  10  21  39  61  90 127 172 209 248 310 379
#     4  10  21  36  61  95 128 159 207 246 306 393
#     4  11  24  40  62  95 131 166 215 262 304 369
#     4  11  25  47  67  85 119 164 218 281 329 359
#     4   9  18  30  56  88 127 166 196 234 298 380
#     4  10  22  37  59 102 137 172 194 251 303 387
#     4  10  21  38  61  84 125 168 213 247 316 370
#
# _framework density 21.055232
#
# number of rings (size 3 to 8) (size 9 to 14) (size 15 to 20)
#    0.000    1.750    1.250    3.000    8.750    5.000 
#    0.000    5.625    0.000    0.000    0.000    0.000 
#    0.000    0.000    0.000    0.000    0.000    0.000 
#
# Total GULP energy -198287.284960 kJ/mol
# GULP energy per Si atom -12392.955310 kJ/mol
# Density = 2.100731 g / cm^3
# Si number density = 21.055232 Si / 1000 Ang^3
#
#
#
# Elastic Constant Matrix: (Units=GPa)
#
#
# Indices 1 2 3 4 5 6 
#
# 1 108.9732 48.2630 45.9317 2.7043 -11.6460 12.0477
# 2 48.2630 105.8652 54.4779 17.2826 -12.1436 18.1262
# 3 45.9317 54.4779 53.7683 2.7050 -2.5723 4.7873
# 4 2.7043 17.2826 2.7050 24.4126 1.9307 1.0291
# 5 -11.6460 -12.1436 -2.5723 1.9307 46.9965 -5.2948
# 6 12.0477 18.1262 4.7873 1.0291 -5.2948 22.7478
#
#
#
# Elastic Compliance Matrix: (Units=1/GPa)
#
#
# Indices 1 2 3 4 5 6 
#
# 1 0.015377 0.002029 -0.014443 -0.001520 0.002934 -0.005969
# 2 0.002029 0.030334 -0.029788 -0.018127 0.005555 -0.016864
# 3 -0.014443 -0.029788 0.058491 0.016042 -0.006846 0.016757
# 4 -0.001520 -0.018127 0.016042 0.052265 -0.005400 0.008252
# 5 0.002934 0.005555 -0.006846 -0.005400 0.023418 0.001155
# 6 -0.005969 -0.016864 0.016757 0.008252 0.001155 0.056928
#
#
# Mechanical properties :
#
#
# Convention : Reuss Voigt Hill
#
# Bulk Modulus (GPa) = 50.51245 62.88353 56.69799
# Shear Modulus (GPa) = 15.25242 26.82699 21.03971
#
# Velocity S-wave (km/s) = 2.69439 3.57336 3.16454
# Velocity P-wave (km/s) = 5.80708 6.85245 6.35131
#
# Compressibility (1/GPa) = 0.01979710
#
# Stress axis : x y z
#
# Youngs Moduli (GPa) = 65.03247 32.96670 17.09662
#
# Poissons Ratio (x) = -0.06689 0.24693
# Poissons Ratio (y) = -0.13195 0.50928
# Poissons Ratio (z) = 0.93928 0.98201
#
# Static dielectric constant tensor:
#      x y z
#    x 4.194470 0.104850 -0.085820 
#    y 0.104850 3.372750 -0.136880 
#    z -0.085820 -0.136880 4.067610 
# 
# 
# High freq. dielectric constant tensor:
#      x y z
#    x 1.841420 0.002790 -0.003350 
#    y 0.002790 1.752430 -0.011490 
#    z -0.003350 -0.011490 1.846450 
# 
# From -- ./inp_files/217457.got.cif
#   From: 2010.06.25/outbox.cif.g09.slc.cpg/sg2_109_cif.got.tgz:217457.got - 2010.06.27 13:26:56.
