data_PCOD8009716
_publ_section_title
;
Structure prediction by ZEFSAII (Michael W. Deem and Ramdas Pophale) SiO2 
 PCOD8009716
Probable space group: P -1
;
_chemical_formula_sum "Si O2"
_cell_formula_units_Z 16
_cell_length_a 24.381781
_cell_length_b 18.973316
_cell_length_c 13.450657
_cell_angle_alpha 149.373681
_cell_angle_beta 19.265325
_cell_angle_gamma 156.917026
_cell_volume 803.403440
_symmetry_space_group_name_H-M "P -1"
_symmetry_group_IT_number 2
_symmetry_cell_setting 'triclinic'
loop_
_space_group_symop_operation_xyz
x,y,z
-x,-y,-z
loop_
_atom_site_type_symbol
_atom_site_label
_atom_site_fract_x
_atom_site_fract_y
_atom_site_fract_z
Si Si1 0.756168 0.384794 0.245051
Si Si2 0.892373 0.638685 0.805551
Si Si3 0.459886 0.463779 0.248643
Si Si4 0.746583 0.481823 0.173021
Si Si5 0.543948 0.011889 0.251416
Si Si6 0.912680 0.170124 0.100477
Si Si7 0.692083 0.293757 0.853878
Si Si8 0.192736 0.058421 0.171177
O O1 0.643620 0.473775 0.570699
O O2 0.767438 0.376933 0.096352
O O3 0.611745 0.196427 0.319154
O O4 0.000000 0.500000 0.000000
O O5 0.772203 0.437994 0.805740
O O6 0.949914 0.772833 0.962596
O O7 0.112875 0.710624 0.459645
O O8 0.722742 0.615927 0.989469
O O9 0.376246 0.448376 0.486993
O O10 0.381456 0.273878 0.111342
O O11 0.612834 0.335542 0.136809
O O12 0.976554 0.653033 0.943032
O O13 0.323928 0.901761 0.555833
O O14 0.514997 0.897614 0.066317
O O15 0.723386 0.044278 0.056402
O O16 0.892713 0.015648 0.885086
O O17 0.000000 0.000000 0.500000
#
# Coordination Sequence:
#
# PCOD8009716 Si02
#       8
#     2   2   2   2   2   2   2   2
#     4  10  22  42  57  80 125 162 185 237 307 351
#     4   9  18  36  58  90 121 147 194 247 295 338
#     4  10  21  37  60  85 117 158 190 243 292 345
#     4   9  20  36  61  83 122 152 194 230 304 342
#     4  11  22  38  64  84 118 154 201 239 291 349
#     4  10  21  37  60  92 115 153 195 246 288 349
#     4   9  18  34  60  90 114 152 196 243 288 351
#     4  12  21  36  58  93 113 149 203 251 279 341
#
# _framework density 19.915275999999999
#
# number of rings (size 3 to 8) (size 9 to 14) (size 15 to 20)
#    0.750    1.250    2.500    2.625    0.000    3.500 
#    0.000    3.125    2.750    0.000    0.000    0.000 
#    0.000    0.000    0.000    0.000    0.000    0.000 
#
# Total GULP energy -198247.705534 kJ/mol
# GULP energy per Si atom -12390.481596 kJ/mol
# Density = 1.986995 g / cm^3
# Si number density = 19.915276 Si / 1000 Ang^3
#
#
#
# Elastic Constant Matrix: (Units=GPa)
#
#
# Indices 1 2 3 4 5 6 
#
# 1 38.4867 30.2698 9.2551 11.4698 -10.6881 8.0688
# 2 30.2698 88.2525 18.3396 12.9038 3.0731 15.2845
# 3 9.2551 18.3396 53.5850 1.7235 -10.3890 7.0982
# 4 11.4698 12.9038 1.7235 29.6061 6.8983 5.4224
# 5 -10.6881 3.0731 -10.3890 6.8983 38.3668 2.7057
# 6 8.0688 15.2845 7.0982 5.4224 2.7057 39.7560
#
#
#
# Elastic Compliance Matrix: (Units=1/GPa)
#
#
# Indices 1 2 3 4 5 6 
#
# 1 0.047070 -0.014105 0.001056 -0.015625 0.017576 -0.003384
# 2 -0.014105 0.017814 -0.004534 -0.000048 -0.006383 -0.002736
# 3 0.001056 -0.004534 0.021751 -0.000806 0.006884 -0.002713
# 4 -0.015625 -0.000048 -0.000806 0.043050 -0.012187 -0.001709
# 5 0.017576 -0.006383 0.006884 -0.012187 0.035746 -0.003113
# 6 -0.003384 -0.002736 -0.002713 -0.001709 -0.003113 0.027821
#
#
# Mechanical properties :
#
#
# Convention : Reuss Voigt Hill
#
# Bulk Modulus (GPa) = 19.42929 32.89480 26.16204
# Shear Modulus (GPa) = 20.36021 29.70976 25.03499
#
# Velocity S-wave (km/s) = 3.20088 3.86658 3.54937
# Velocity P-wave (km/s) = 4.84128 6.04046 5.47381
#
# Compressibility (1/GPa) = 0.05146868
#
# Stress axis : x y z
#
# Youngs Moduli (GPa) = 21.24497 56.13429 45.97428
#
# Poissons Ratio (x) = 0.79180 -0.04856
# Poissons Ratio (y) = 0.29967 0.20846
# Poissons Ratio (z) = -0.02244 0.25453
#
# Static dielectric constant tensor:
#      x y z
#    x 3.574930 0.300670 -0.018060 
#    y 0.300670 3.775240 0.100860 
#    z -0.018060 0.100860 3.593360 
# 
# 
# High freq. dielectric constant tensor:
#      x y z
#    x 1.754130 0.029270 -0.002640 
#    y 0.029270 1.767530 -0.000440 
#    z -0.002640 -0.000440 1.769750 
# 
# From -- ./inp_files/544440.got.cif
#   From: 2010.06.25/outbox.cif.g09.slc.cpg/sg2_273_cif.got.tgz:544440.got - 2010.06.27 13:26:56.
