data_PCOD8009531
_publ_section_title
;
Structure prediction by ZEFSAII (Michael W. Deem and Ramdas Pophale) SiO2 
 PCOD8009531
Probable space group: P -1
;
_chemical_formula_sum "Si O2"
_cell_formula_units_Z 16
_cell_length_a 5.738100
_cell_length_b 26.192634
_cell_length_c 4.984152
_cell_angle_alpha 83.381897
_cell_angle_beta 84.882380
_cell_angle_gamma 128.121907
_cell_volume 572.931500
_symmetry_space_group_name_H-M "P -1"
_symmetry_group_IT_number 2
_symmetry_cell_setting 'triclinic'
loop_
_space_group_symop_operation_xyz
x,y,z
-x,-y,-z
loop_
_atom_site_type_symbol
_atom_site_label
_atom_site_fract_x
_atom_site_fract_y
_atom_site_fract_z
Si Si1 0.298246 0.603364 0.493926
Si Si2 0.271225 0.278330 0.944540
Si Si3 0.443531 0.741724 0.600180
Si Si4 0.748453 0.077715 0.392582
Si Si5 0.651662 0.492255 0.734634
Si Si6 0.841380 0.864875 0.179947
Si Si7 0.215965 0.371151 0.174918
Si Si8 0.626208 0.162225 0.134136
O O1 0.438421 0.678183 0.320257
O O2 0.253861 0.554438 0.294876
O O3 0.559404 0.620090 0.641696
O O4 0.976834 0.566516 0.703826
O O5 0.356511 0.267571 0.231187
O O6 0.192662 0.328474 0.954535
O O7 0.957637 0.207514 0.927994
O O8 0.634500 0.782944 0.277280
O O9 0.413156 0.792322 0.714838
O O10 0.117717 0.669139 0.636785
O O11 0.591415 0.112107 0.393841
O O12 0.024017 0.105276 0.554624
O O13 0.500000 0.000000 0.500000
O O14 0.870553 0.096789 0.064540
O O15 0.500000 0.500000 0.500000
O O16 0.383082 0.448956 0.021093
O O17 0.618523 0.876278 0.060025
#
# Coordination Sequence:
#
# PCOD8009531 Si02
#       8
#     2   2   2   2   2   2   2   2
#     4  10  21  37  57  87 124 175 223 287 346 421
#     4  10  21  40  63  96 135 176 230 292 353 418
#     4  11  23  43  68 104 136 184 235 294 359 423
#     4  12  29  50  76 109 149 191 238 292 356 427
#     4  10  21  37  56  83 127 170 227 283 351 416
#     4  12  25  48  73 109 141 192 237 291 357 425
#     4  10  22  36  61  93 128 175 229 288 354 420
#     4  11  24  45  74 101 149 182 241 292 357 420
#
# _framework density 27.926552000000001
#
# number of rings (size 3 to 8) (size 9 to 14) (size 15 to 20)
#    0.000    1.250    2.500    2.250    1.750    4.500 
#    0.000    0.000    0.000    0.000    0.000    0.000 
#    0.000    0.000    0.000    0.000    0.000    0.000 
#
# Total GULP energy -198306.095393 kJ/mol
# GULP energy per Si atom -12394.130962 kJ/mol
# Density = 2.786299 g / cm^3
# Si number density = 27.926552 Si / 1000 Ang^3
#
#
#
# Elastic Constant Matrix: (Units=GPa)
#
#
# Indices 1 2 3 4 5 6 
#
# 1 117.7802 70.5318 56.9493 -21.3111 3.3473 19.9413
# 2 70.5318 194.6508 72.5704 -59.9475 5.8509 14.1175
# 3 56.9493 72.5704 177.7627 -43.4216 -6.1821 9.0873
# 4 -21.3111 -59.9475 -43.4216 56.5101 11.0001 5.6141
# 5 3.3473 5.8509 -6.1821 11.0001 61.5301 3.7778
# 6 19.9413 14.1175 9.0873 5.6141 3.7778 50.7909
#
#
#
# Elastic Compliance Matrix: (Units=1/GPa)
#
#
# Indices 1 2 3 4 5 6 
#
# 1 0.012211 -0.003415 -0.002492 -0.000546 -0.000289 -0.003318
# 2 -0.003415 0.009619 -0.000578 0.009123 -0.002291 -0.002067
# 3 -0.002492 -0.000578 0.007799 0.004473 0.000222 -0.000767
# 4 -0.000546 0.009123 0.004473 0.032354 -0.005788 -0.006267
# 5 -0.000289 -0.002291 0.000222 -0.005788 0.017540 0.000046
# 6 -0.003318 -0.002067 -0.000767 -0.006267 0.000046 0.022392
#
#
# Mechanical properties :
#
#
# Convention : Reuss Voigt Hill
#
# Bulk Modulus (GPa) = 60.02570 98.92185 79.47378
# Shear Modulus (GPa) = 41.51483 53.10902 47.31192
#
# Velocity S-wave (km/s) = 3.85979 4.36562 4.12048
# Velocity P-wave (km/s) = 6.43465 7.80453 7.15246
#
# Compressibility (1/GPa) = 0.01665953
#
# Stress axis : x y z
#
# Youngs Moduli (GPa) = 81.89229 103.96254 128.21508
#
# Poissons Ratio (x) = 0.35499 0.31950
# Poissons Ratio (y) = 0.27963 0.07416
# Poissons Ratio (z) = 0.20407 0.06013
#
# Static dielectric constant tensor:
#      x y z
#    x 5.939950 -0.348490 -0.667960 
#    y -0.348490 5.899820 -0.544440 
#    z -0.667960 -0.544440 5.750950 
# 
# 
# High freq. dielectric constant tensor:
#      x y z
#    x 2.159760 -0.017870 -0.028150 
#    y -0.017870 2.146300 -0.022940 
#    z -0.028150 -0.022940 2.140960 
# 
# From -- ./inp_files/14773.got.cif
#   From: 2010.06.25/outbox.cif.g09.slc.cpg/sg2_8_cif.got.tgz:14773.got - 2010.06.27 13:26:56.
