data_PCOD8009498
_publ_section_title
;
Structure prediction by ZEFSAII (Michael W. Deem and Ramdas Pophale) SiO2 
 PCOD8009498
Probable space group: P -1
;
_chemical_formula_sum "Si O2"
_cell_formula_units_Z 14
_cell_length_a 16.604880
_cell_length_b 9.390678
_cell_length_c 10.002766
_cell_angle_alpha 95.085874
_cell_angle_beta 134.185241
_cell_angle_gamma 47.620353
_cell_volume 573.770603
_symmetry_space_group_name_H-M "P -1"
_symmetry_group_IT_number 2
_symmetry_cell_setting 'triclinic'
loop_
_space_group_symop_operation_xyz
x,y,z
-x,-y,-z
loop_
_atom_site_type_symbol
_atom_site_label
_atom_site_fract_x
_atom_site_fract_y
_atom_site_fract_z
Si Si1 0.573119 0.318433 0.191711
Si Si2 0.699408 0.973791 0.674213
Si Si3 0.439220 0.714720 0.216983
Si Si4 0.074438 0.470992 0.910711
Si Si5 0.263374 0.375084 0.580826
Si Si6 0.418937 0.210954 0.117236
Si Si7 0.061479 0.097370 0.596881
O O1 0.565699 0.424197 0.325350
O O2 0.414864 0.355058 0.029791
O O3 0.813911 0.995847 0.405273
O O4 0.500000 0.500000 0.000000
O O5 0.928432 0.750284 0.840687
O O6 0.632896 0.182741 0.704880
O O7 0.512269 0.151314 0.365247
O O8 0.730636 0.801048 0.792475
O O9 0.608358 0.652080 0.363507
O O10 0.221615 0.948480 0.895063
O O11 0.919333 0.504103 0.707588
O O12 0.173919 0.424050 0.883423
O O13 0.152314 0.572158 0.597870
O O14 0.436871 0.069335 0.810131
O O15 0.000000 0.000000 0.500000
#
# Coordination Sequence:
#
# PCOD8009498 Si02
#       7
#     2   2   2   2   2   2   2
#     4  10  25  47  65  88 137 180 218 277 328 383
#     4  10  21  36  69  97 137 169 210 273 328 399
#     4  11  22  42  68  97 130 178 215 264 340 388
#     4  10  21  38  65 106 134 168 209 270 338 394
#     4  11  21  39  71 100 130 171 224 269 324 397
#     4  11  23  42  65 102 135 168 222 273 328 391
#     4  11  22  42  68  93 125 178 224 266 325 393
#
# _framework density 24.399995000000001
#
# number of rings (size 3 to 8) (size 9 to 14) (size 15 to 20)
#    0.000    1.429    4.286    0.429    4.000    1.143 
#   10.286    7.143    0.000    0.000    0.000    0.000 
#    0.000    0.000    0.000    0.000    0.000    0.000 
#
# Total GULP energy -173488.312736 kJ/mol
# GULP energy per Si atom -12392.022338 kJ/mol
# Density = 2.434446 g / cm^3
# Si number density = 24.399995 Si / 1000 Ang^3
#
#
#
# Elastic Constant Matrix: (Units=GPa)
#
#
# Indices 1 2 3 4 5 6 
#
# 1 126.7295 57.9594 32.4423 -14.8820 38.0032 2.6324
# 2 57.9594 217.2412 29.1648 -23.8904 23.4230 -35.4148
# 3 32.4423 29.1648 80.4875 11.5496 20.8455 -5.3141
# 4 -14.8820 -23.8904 11.5496 26.1651 -0.9850 9.8988
# 5 38.0032 23.4230 20.8455 -0.9850 32.9085 1.8804
# 6 2.6324 -35.4148 -5.3141 9.8988 1.8804 48.4966
#
#
#
# Elastic Compliance Matrix: (Units=1/GPa)
#
#
# Indices 1 2 3 4 5 6 
#
# 1 0.014593 -0.001607 -0.003521 0.009317 -0.012985 -0.003750
# 2 -0.001607 0.006550 -0.001579 0.004212 -0.001903 0.003912
# 3 -0.003521 -0.001579 0.018455 -0.013400 -0.007134 0.004072
# 4 0.009317 0.004212 -0.013400 0.057117 -0.002963 -0.010442
# 5 -0.012985 -0.001903 -0.007134 -0.002963 0.051330 -0.002852
# 6 -0.003750 0.003912 0.004072 -0.010442 -0.002852 0.026368
#
#
# Mechanical properties :
#
#
# Convention : Reuss Voigt Hill
#
# Bulk Modulus (GPa) = 38.19232 73.73235 55.96234
# Shear Modulus (GPa) = 25.43814 41.84016 33.63915
#
# Velocity S-wave (km/s) = 3.23235 4.14546 3.71705
# Velocity P-wave (km/s) = 5.44218 7.29362 6.43484
#
# Compressibility (1/GPa) = 0.02618327
#
# Stress axis : x y z
#
# Youngs Moduli (GPa) = 68.52531 152.67135 54.18628
#
# Poissons Ratio (x) = 0.24541 0.19080
# Poissons Ratio (y) = 0.11015 0.08554
# Poissons Ratio (z) = 0.24129 0.24102
#
# Static dielectric constant tensor:
#      x y z
#    x 4.304430 -0.504790 0.413830 
#    y -0.504790 5.284230 -0.243670 
#    z 0.413830 -0.243670 4.375230 
# 
# 
# High freq. dielectric constant tensor:
#      x y z
#    x 1.949240 -0.025560 0.021500 
#    y -0.025560 1.987970 -0.001500 
#    z 0.021500 -0.001500 1.964210 
# 
# From -- ./inp_files/461418.got.cif
#   From: 2010.06.25/outbox.cif.g09.slc.cpg/sg2_231_cif.got.tgz:461418.got - 2010.06.27 13:26:56.
