data_PCOD8009205
_publ_section_title
;
Structure prediction by ZEFSAII (Michael W. Deem and Ramdas Pophale) SiO2 
 PCOD8009205
Probable space group: P -1
;
_chemical_formula_sum "Si O2"
_cell_formula_units_Z 16
_cell_length_a 18.634086
_cell_length_b 10.948791
_cell_length_c 9.895582
_cell_angle_alpha 70.938669
_cell_angle_beta 121.849354
_cell_angle_gamma 150.585720
_cell_volume 798.233840
_symmetry_space_group_name_H-M "P -1"
_symmetry_group_IT_number 2
_symmetry_cell_setting 'triclinic'
loop_
_space_group_symop_operation_xyz
x,y,z
-x,-y,-z
loop_
_atom_site_type_symbol
_atom_site_label
_atom_site_fract_x
_atom_site_fract_y
_atom_site_fract_z
Si Si1 0.401252 0.235014 0.016417
Si Si2 0.796699 0.694713 0.608463
Si Si3 0.884134 0.986337 0.082923
Si Si4 0.882504 0.041494 0.761094
Si Si5 0.261334 0.415660 0.709151
Si Si6 0.551073 0.716553 0.480589
Si Si7 0.569456 0.892804 0.161576
Si Si8 0.242527 0.596981 0.825733
O O1 0.217998 0.017058 0.984402
O O2 0.359298 0.106894 0.882531
O O3 0.500000 0.500000 0.000000
O O4 0.532483 0.323064 0.203275
O O5 0.833782 0.746605 0.465740
O O6 0.594225 0.399478 0.537089
O O7 0.855704 0.908544 0.656690
O O8 0.914847 0.737917 0.774183
O O9 0.801373 0.757447 0.166040
O O10 0.868926 0.942129 0.923009
O O11 0.065949 0.354207 0.820670
O O12 0.740205 0.967495 0.644829
O O13 0.223000 0.510656 0.686454
O O14 0.500000 0.500000 0.500000
O O15 0.552657 0.780297 0.313427
O O16 0.708830 0.189175 0.219531
O O17 0.385949 0.709246 0.010348
#
# Coordination Sequence:
#
# PCOD8009205 Si02
#       8
#     2   2   2   2   2   2   2   2
#     4   9  21  33  62  86 121 151 198 249 305 349
#     4  11  22  35  58  91 128 152 206 256 301 347
#     4  11  21  34  59  90 125 153 203 256 299 349
#     4  11  23  36  59  93 122 163 197 252 303 357
#     4  10  21  36  58  92 122 159 196 254 301 355
#     4  10  24  35  61  88 126 153 204 253 303 345
#     4  10  22  43  61  93 118 168 196 250 298 373
#     4  10  22  40  66  83 128 161 209 233 306 371
#
# _framework density 20.044252
#
# number of rings (size 3 to 8) (size 9 to 14) (size 15 to 20)
#    0.000    1.750    1.250    2.250   17.500    0.500 
#    0.000    1.250    0.000    0.000    0.000    0.000 
#    0.000    0.000    0.000    0.000    0.000    0.000 
#
# Total GULP energy -198280.003762 kJ/mol
# GULP energy per Si atom -12392.500235 kJ/mol
# Density = 1.999863 g / cm^3
# Si number density = 20.044252 Si / 1000 Ang^3
#
#
#
# Elastic Constant Matrix: (Units=GPa)
#
#
# Indices 1 2 3 4 5 6 
#
# 1 112.8586 60.0542 48.2672 8.2462 -5.6926 9.9694
# 2 60.0542 96.8873 50.2159 8.4375 -3.7447 13.1756
# 3 48.2672 50.2159 124.1641 -8.0673 -15.1703 1.9373
# 4 8.2462 8.4375 -8.0673 23.5009 6.3495 15.1179
# 5 -5.6926 -3.7447 -15.1703 6.3495 34.1776 14.1567
# 6 9.9694 13.1756 1.9373 15.1179 14.1567 35.6762
#
#
#
# Elastic Compliance Matrix: (Units=1/GPa)
#
#
# Indices 1 2 3 4 5 6 
#
# 1 0.014045 -0.006895 -0.002773 -0.003617 0.001075 -0.000122
# 2 -0.006895 0.017757 -0.004609 -0.003754 0.000723 -0.003077
# 3 -0.002773 -0.004609 0.012057 0.007604 0.004251 -0.003087
# 4 -0.003617 -0.003754 0.007604 0.063907 0.001058 -0.025517
# 5 0.001075 0.000723 0.004251 0.001058 0.037964 -0.016311
# 6 -0.000122 -0.003077 -0.003087 -0.025517 -0.016311 0.046653
#
#
# Mechanical properties :
#
#
# Convention : Reuss Voigt Hill
#
# Bulk Modulus (GPa) = 65.33440 72.33164 68.83302
# Shear Modulus (GPa) = 22.12006 30.36244 26.24125
#
# Velocity S-wave (km/s) = 3.32559 3.89623 3.62217
# Velocity P-wave (km/s) = 6.88563 7.51033 7.20476
#
# Compressibility (1/GPa) = 0.01530587
#
# Stress axis : x y z
#
# Youngs Moduli (GPa) = 71.20021 56.31526 82.93829
#
# Poissons Ratio (x) = 0.38831 0.22997
# Poissons Ratio (y) = 0.49095 0.38223
# Poissons Ratio (z) = 0.19742 0.25953
#
# Static dielectric constant tensor:
#      x y z
#    x 4.657050 0.814240 0.186840 
#    y 0.814240 3.794870 0.349930 
#    z 0.186840 0.349930 3.898840 
# 
# 
# High freq. dielectric constant tensor:
#      x y z
#    x 1.779740 0.038410 0.004600 
#    y 0.038410 1.755610 0.014430 
#    z 0.004600 0.014430 1.785130 
# 
# From -- ./inp_files/332288.got.cif
#   From: 2010.06.25/outbox.cif.g09.slc.cpg/sg2_167_cif.got.tgz:332288.got - 2010.06.27 13:26:56.
