data_PCOD8009245
_publ_section_title
;
Structure prediction by ZEFSAII (Michael W. Deem and Ramdas Pophale) SiO2 
 PCOD8009245
Probable space group: P -1
;
_chemical_formula_sum "Si O2"
_cell_formula_units_Z 16
_cell_length_a 9.575346
_cell_length_b 9.802357
_cell_length_c 18.645869
_cell_angle_alpha 129.567650
_cell_angle_beta 140.643952
_cell_angle_gamma 42.903580
_cell_volume 745.352713
_symmetry_space_group_name_H-M "P -1"
_symmetry_group_IT_number 2
_symmetry_cell_setting 'triclinic'
loop_
_space_group_symop_operation_xyz
x,y,z
-x,-y,-z
loop_
_atom_site_type_symbol
_atom_site_label
_atom_site_fract_x
_atom_site_fract_y
_atom_site_fract_z
Si Si1 0.313212 0.871921 0.727836
Si Si2 0.759143 0.067657 0.563313
Si Si3 0.786102 0.810233 0.833186
Si Si4 0.571752 0.770721 0.385804
Si Si5 0.093831 0.620665 0.027001
Si Si6 0.354280 0.613637 0.787674
Si Si7 0.543121 0.296592 0.415260
Si Si8 0.911036 0.983835 0.814856
O O1 0.518452 0.946827 0.816408
O O2 0.420952 0.726637 0.790102
O O3 0.296548 0.750101 0.610375
O O4 0.027069 0.049879 0.687434
O O5 0.551569 0.239864 0.590685
O O6 0.701482 0.119209 0.474789
O O7 0.770980 0.849626 0.506931
O O8 0.727139 0.688561 0.706345
O O9 0.876576 0.951113 0.875108
O O10 0.992452 0.645994 0.913962
O O11 0.708732 0.551903 0.328700
O O12 0.349671 0.941494 0.305678
O O13 0.397891 0.499822 0.102357
O O14 0.001076 0.846061 0.098136
O O15 0.000000 0.500000 0.000000
O O16 0.120569 0.770819 0.794393
O O17 0.500000 0.500000 0.500000
#
# Coordination Sequence:
#
# PCOD8009245 Si02
#       8
#     2   2   2   2   2   2   2   2
#     4  10  21  38  64  93 130 169 224 260 325 392
#     4  11  20  38  62  97 127 182 218 271 324 393
#     4  10  23  43  64  98 134 171 214 277 327 382
#     4  10  22  38  65  92 137 169 222 272 328 386
#     4  11  23  45  73  95 130 172 220 277 330 393
#     4  11  23  42  67  98 126 174 222 270 330 400
#     4  10  21  36  59  89 132 170 212 262 321 381
#     4  11  23  44  69  96 135 170 219 275 337 388
#
# _framework density 21.466346999999999
#
# number of rings (size 3 to 8) (size 9 to 14) (size 15 to 20)
#    0.750    0.750    3.750    1.500    0.000    2.500 
#    0.000    1.250    0.000    0.000    0.000    0.000 
#    0.000    0.000    0.000    0.000    0.000    0.000 
#
# Total GULP energy -198285.480399 kJ/mol
# GULP energy per Si atom -12392.842525 kJ/mol
# Density = 2.141749 g / cm^3
# Si number density = 21.466347 Si / 1000 Ang^3
#
#
#
# Elastic Constant Matrix: (Units=GPa)
#
#
# Indices 1 2 3 4 5 6 
#
# 1 116.2404 46.7614 19.3555 -3.4416 1.3858 8.1694
# 2 46.7614 92.9342 38.0163 3.0913 0.9920 -4.8785
# 3 19.3555 38.0163 78.7239 -14.5473 -7.0625 5.5809
# 4 -3.4416 3.0913 -14.5473 39.8540 11.9182 -7.0559
# 5 1.3858 0.9920 -7.0625 11.9182 23.5171 -5.2881
# 6 8.1694 -4.8785 5.5809 -7.0559 -5.2881 35.4689
#
#
#
# Elastic Compliance Matrix: (Units=1/GPa)
#
#
# Indices 1 2 3 4 5 6 
#
# 1 0.011287 -0.006124 0.000558 0.001582 -0.001825 -0.003487
# 2 -0.006124 0.017458 -0.007964 -0.004115 0.000282 0.004288
# 3 0.000558 -0.007964 0.017907 0.006161 0.001992 -0.002519
# 4 0.001582 -0.004115 0.006161 0.032400 -0.013934 0.002468
# 5 -0.001825 0.000282 0.001992 -0.013934 0.051411 0.005039
# 6 -0.003487 0.004288 -0.002519 0.002468 0.005039 0.031225
#
#
# Mechanical properties :
#
#
# Convention : Reuss Voigt Hill
#
# Bulk Modulus (GPa) = 51.04022 55.12941 53.08482
# Shear Modulus (GPa) = 25.60422 32.01903 28.81163
#
# Velocity S-wave (km/s) = 3.45738 3.86630 3.66755
# Velocity P-wave (km/s) = 6.30607 6.75786 6.53587
#
# Compressibility (1/GPa) = 0.01959239
#
# Stress axis : x y z
#
# Youngs Moduli (GPa) = 88.59687 57.27884 55.84344
#
# Poissons Ratio (x) = 0.35076 -0.03115
# Poissons Ratio (y) = 0.54254 0.44476
# Poissons Ratio (z) = -0.04942 0.45619
#
# Static dielectric constant tensor:
#      x y z
#    x 4.055290 0.317710 -0.154530 
#    y 0.317710 3.740560 -0.296890 
#    z -0.154530 -0.296890 4.002780 
# 
# 
# High freq. dielectric constant tensor:
#      x y z
#    x 1.839180 0.014690 -0.003890 
#    y 0.014690 1.819120 -0.018340 
#    z -0.003890 -0.018340 1.847300 
# 
# From -- ./inp_files/557501.got.cif
#   From: 2010.06.25/outbox.cif.g09.slc.cpg/sg2_279_cif.got.tgz:557501.got - 2010.06.27 13:26:56.
