data_PCOD8009509
_publ_section_title
;
Structure prediction by ZEFSAII (Michael W. Deem and Ramdas Pophale) SiO2 
 PCOD8009509
Probable space group: P -1
;
_chemical_formula_sum "Si O2"
_cell_formula_units_Z 16
_cell_length_a 14.772958
_cell_length_b 13.572390
_cell_length_c 8.517419
_cell_angle_alpha 84.957601
_cell_angle_beta 55.928914
_cell_angle_gamma 40.528024
_cell_volume 715.528588
_symmetry_space_group_name_H-M "P -1"
_symmetry_group_IT_number 2
_symmetry_cell_setting 'triclinic'
loop_
_space_group_symop_operation_xyz
x,y,z
-x,-y,-z
loop_
_atom_site_type_symbol
_atom_site_label
_atom_site_fract_x
_atom_site_fract_y
_atom_site_fract_z
Si Si1 0.105264 0.187071 0.809061
Si Si2 0.271466 0.993204 0.176280
Si Si3 0.988619 0.353904 0.590289
Si Si4 0.677035 0.739297 0.666902
Si Si5 0.534046 0.191900 0.673159
Si Si6 0.354448 0.709734 0.607408
Si Si7 0.760347 0.711384 0.244260
Si Si8 0.085765 0.026799 0.076671
O O1 0.928250 0.371321 0.830158
O O2 0.256706 0.155859 0.741222
O O3 0.235811 0.016644 0.589593
O O4 0.019936 0.181365 0.029178
O O5 0.437538 0.820238 0.167076
O O6 0.063698 0.208039 0.422639
O O7 0.180370 0.975478 0.162450
O O8 0.424379 0.944774 0.927447
O O9 0.201749 0.255312 0.406847
O O10 0.785541 0.563672 0.679193
O O11 0.690213 0.709833 0.471479
O O12 0.485251 0.336782 0.625299
O O13 0.371638 0.230177 0.781044
O O14 0.500000 0.500000 0.500000
O O15 0.135327 0.860915 0.700643
O O16 0.270427 0.817006 0.841757
O O17 0.000000 0.500000 0.000000
#
# Coordination Sequence:
#
# PCOD8009509 Si02
#       8
#     2   2   2   2   2   2   2   2
#     4   9  20  40  60  88 128 161 204 255 298 368
#     4  11  23  37  63  87 126 161 203 258 310 362
#     4   9  21  36  56  88 126 172 201 253 302 363
#     4  10  21  37  54  87 130 166 214 243 298 368
#     4  10  23  41  61  91 122 165 206 249 314 365
#     4  10  23  44  69  88 119 158 210 260 307 370
#     4  11  24  36  61  92 127 164 206 252 304 366
#     4  10  23  41  65  95 119 162 209 254 309 368
#
# _framework density 22.361090999999998
#
# number of rings (size 3 to 8) (size 9 to 14) (size 15 to 20)
#    0.000    2.000    0.000    2.250    8.750    3.500 
#    0.000    0.625    0.000    0.000    0.000    0.000 
#    0.000    0.000    0.000    0.000    0.000    0.000 
#
# Total GULP energy -198286.771283 kJ/mol
# GULP energy per Si atom -12392.923205 kJ/mol
# Density = 2.231020 g / cm^3
# Si number density = 22.361091 Si / 1000 Ang^3
#
#
#
# Elastic Constant Matrix: (Units=GPa)
#
#
# Indices 1 2 3 4 5 6 
#
# 1 148.3356 36.1287 26.1156 -5.8726 20.2515 -12.2441
# 2 36.1287 85.7450 4.4943 -3.2757 20.9427 2.8023
# 3 26.1156 4.4943 61.3949 -9.2491 9.8643 -1.0509
# 4 -5.8726 -3.2757 -9.2491 18.9751 0.1196 2.4146
# 5 20.2515 20.9427 9.8643 0.1196 29.0259 -3.6621
# 6 -12.2441 2.8023 -1.0509 2.4146 -3.6621 41.4193
#
#
#
# Elastic Compliance Matrix: (Units=1/GPa)
#
#
# Indices 1 2 3 4 5 6 
#
# 1 0.008516 -0.002864 -0.002888 0.000447 -0.002595 0.002382
# 2 -0.002864 0.015495 0.002186 0.003294 -0.010309 -0.002943
# 3 -0.002888 0.002186 0.019791 0.009378 -0.006532 -0.001624
# 4 0.000447 0.003294 0.009378 0.058510 -0.006602 -0.003847
# 5 -0.002595 -0.010309 -0.006532 -0.006602 0.046485 0.004259
# 6 0.002382 -0.002943 -0.001624 -0.003847 0.004259 0.025606
#
#
# Mechanical properties :
#
#
# Convention : Reuss Voigt Hill
#
# Bulk Modulus (GPa) = 27.26986 47.66142 37.46564
# Shear Modulus (GPa) = 25.80542 33.13317 29.46930
#
# Velocity S-wave (km/s) = 3.40079 3.85350 3.63420
# Velocity P-wave (km/s) = 5.25759 6.41561 5.86525
#
# Compressibility (1/GPa) = 0.03667052
#
# Stress axis : x y z
#
# Youngs Moduli (GPa) = 117.42525 64.53871 50.52855
#
# Poissons Ratio (x) = 0.18483 0.14591
# Poissons Ratio (y) = 0.33628 -0.11046
# Poissons Ratio (z) = 0.33910 -0.14109
#
# Static dielectric constant tensor:
#      x y z
#    x 0.789620 -2.411100 0.629750 
#    y -2.411100 2.381000 0.185950 
#    z 0.629750 0.185950 3.904210 
# 
# 
# High freq. dielectric constant tensor:
#      x y z
#    x 1.876130 -0.003650 0.010240 
#    y -0.003650 1.871950 0.000770 
#    z 0.010240 0.000770 1.877120 
# 
# From -- ./inp_files/313297.got.cif
#   From: 2010.06.25/outbox.cif.g09.slc.cpg/sg2_157_cif.got.tgz:313297.got - 2010.06.27 13:26:56.
