data_PCOD8009133
_publ_section_title
;
Structure prediction by ZEFSAII (Michael W. Deem and Ramdas Pophale) SiO2 
 PCOD8009133
Probable space group: P -1
;
_chemical_formula_sum "Si O2"
_cell_formula_units_Z 14
_cell_length_a 25.602806
_cell_length_b 25.071380
_cell_length_c 17.162228
_cell_angle_alpha 20.276762
_cell_angle_beta 19.570249
_cell_angle_gamma 11.464260
_cell_volume 715.582522
_symmetry_space_group_name_H-M "P -1"
_symmetry_group_IT_number 2
_symmetry_cell_setting 'triclinic'
loop_
_space_group_symop_operation_xyz
x,y,z
-x,-y,-z
loop_
_atom_site_type_symbol
_atom_site_label
_atom_site_fract_x
_atom_site_fract_y
_atom_site_fract_z
Si Si1 0.159319 0.034714 0.761810
Si Si2 0.271948 0.232200 0.439671
Si Si3 0.449635 0.508716 0.957960
Si Si4 0.487116 0.369334 0.924993
Si Si5 0.095542 0.952025 0.651065
Si Si6 0.186389 0.214727 0.163220
Si Si7 0.000063 0.789846 0.424805
O O1 0.197632 0.155869 0.591498
O O2 0.863741 0.189543 0.985594
O O3 0.162092 0.086400 0.597700
O O4 0.413827 0.709960 0.866276
O O5 0.000000 0.500000 0.500000
O O6 0.500000 0.000000 0.500000
O O7 0.374930 0.294642 0.158318
O O8 0.431678 0.424655 0.019668
O O9 0.659482 0.483478 0.685620
O O10 0.336460 0.632838 0.730244
O O11 0.810119 0.113627 0.799818
O O12 0.138158 0.085238 0.368880
O O13 0.088576 0.981751 0.715015
O O14 0.101279 0.272977 0.294718
O O15 0.000000 0.500000 0.000000
O O16 0.500000 0.000000 0.000000
#
# Coordination Sequence:
#
# PCOD8009133 Si02
#       7
#     2   2   2   2   2   2   2
#     4  12  22  36  51  81 111 158 176 223 257 311
#     4  12  22  34  51  73 109 149 196 221 245 303
#     4  11  21  33  54  77 116 145 185 210 266 317
#     4  11  18  35  49  76 104 147 178 218 245 308
#     4   9  21  33  56  74 107 128 175 220 271 321
#     4  10  21  36  57  83 106 133 171 227 287 330
#     4   9  23  35  56  81 115 137 185 213 281 335
#
# _framework density 19.56448
#
# number of rings (size 3 to 8) (size 9 to 14) (size 15 to 20)
#    0.857    0.571    2.857    4.286    0.000    3.429 
#    0.000    0.000    0.000    0.000    0.000    6.000 
#    0.000    0.000    0.000    0.000    0.000    0.000 
#
# Total GULP energy -173522.377757 kJ/mol
# GULP energy per Si atom -12394.455554 kJ/mol
# Density = 1.951995 g / cm^3
# Si number density = 19.564480 Si / 1000 Ang^3
#
#
#
# Elastic Constant Matrix: (Units=GPa)
#
#
# Indices 1 2 3 4 5 6 
#
# 1 53.9372 30.4508 36.2867 0.1101 -0.1706 -4.8699
# 2 30.4508 133.7004 55.9046 -1.2334 -0.4547 -10.1930
# 3 36.2867 55.9046 150.8088 0.4153 1.5821 -8.4756
# 4 0.1101 -1.2334 0.4153 41.2310 -0.7364 2.3696
# 5 -0.1706 -0.4547 1.5821 -0.7364 29.4500 1.7225
# 6 -4.8699 -10.1930 -8.4756 2.3696 1.7225 16.5261
#
#
#
# Elastic Compliance Matrix: (Units=1/GPa)
#
#
# Indices 1 2 3 4 5 6 
#
# 1 0.023562 -0.003379 -0.004266 -0.000273 0.000149 0.002695
# 2 -0.003379 0.009586 -0.002539 0.000116 0.000058 0.003592
# 3 -0.004266 -0.002539 0.008704 -0.000264 -0.000640 0.001745
# 4 -0.000273 0.000116 -0.000264 0.024491 0.000846 -0.003744
# 5 0.000149 0.000058 -0.000640 0.000846 0.034244 -0.003939
# 6 0.002695 0.003592 0.001745 -0.003744 -0.003939 0.065362
#
#
# Mechanical properties :
#
#
# Convention : Reuss Voigt Hill
#
# Bulk Modulus (GPa) = 46.54848 64.85894 55.70371
# Shear Modulus (GPa) = 25.84253 31.82837 28.83545
#
# Velocity S-wave (km/s) = 3.63835 4.03779 3.84326
# Velocity P-wave (km/s) = 6.44159 7.41362 6.94463
#
# Compressibility (1/GPa) = 0.02148298
#
# Stress axis : x y z
#
# Youngs Moduli (GPa) = 42.44079 104.31929 114.88554
#
# Poissons Ratio (x) = 0.35251 0.49011
# Poissons Ratio (y) = 0.14341 0.29175
# Poissons Ratio (z) = 0.18106 0.26492
#
# Static dielectric constant tensor:
#      x y z
#    x 3.346200 -0.112510 -0.158130 
#    y -0.112510 3.660030 0.007910 
#    z -0.158130 0.007910 3.570120 
# 
# 
# High freq. dielectric constant tensor:
#      x y z
#    x 1.717590 -0.013990 -0.015350 
#    y -0.013990 1.784000 -0.002030 
#    z -0.015350 -0.002030 1.757540 
# 
# From -- ./inp_files/579942.got.cif
#   From: 2010.06.25/outbox.cif.g09.slc.cpg/sg2_290_cif.got.tgz:579942.got - 2010.06.27 13:26:56.
