data_PCOD8009798
_publ_section_title
;
Structure prediction by ZEFSAII (Michael W. Deem and Ramdas Pophale) SiO2 
 PCOD8009798
Probable space group: P -1
;
_chemical_formula_sum "Si O2"
_cell_formula_units_Z 14
_cell_length_a 15.060107
_cell_length_b 12.618260
_cell_length_c 9.120514
_cell_angle_alpha 54.070104
_cell_angle_beta 32.058413
_cell_angle_gamma 59.772370
_cell_volume 744.840786
_symmetry_space_group_name_H-M "P -1"
_symmetry_group_IT_number 2
_symmetry_cell_setting 'triclinic'
loop_
_space_group_symop_operation_xyz
x,y,z
-x,-y,-z
loop_
_atom_site_type_symbol
_atom_site_label
_atom_site_fract_x
_atom_site_fract_y
_atom_site_fract_z
Si Si1 0.612384 0.625879 0.093950
Si Si2 0.262183 0.524236 0.691142
Si Si3 0.658412 0.913164 0.889354
Si Si4 0.014344 0.091120 0.763869
Si Si5 0.927055 0.670868 0.074923
Si Si6 0.139158 0.041410 0.160279
Si Si7 0.093656 0.370672 0.527268
O O1 0.426194 0.586583 0.339047
O O2 0.698354 0.513876 0.165342
O O3 0.608182 0.761986 0.076956
O O4 0.717612 0.636054 0.790374
O O5 0.208946 0.394627 0.785829
O O6 0.115477 0.631997 0.797909
O O7 0.812121 0.939868 0.540982
O O8 0.694803 0.948054 0.981658
O O9 0.500000 0.000000 0.000000
O O10 0.995961 0.242496 0.712697
O O11 0.858821 0.063027 0.892390
O O12 0.000000 0.000000 0.000000
O O13 0.890051 0.623739 0.327347
O O14 0.909747 0.824508 0.959959
O O15 0.000000 0.000000 0.500000
O O16 0.000000 0.500000 0.500000
#
# Coordination Sequence:
#
# PCOD8009798 Si02
#       7
#     2   2   2   2   2   2   2
#     4  10  21  39  57  88 122 153 195 248 296 359
#     4  10  22  36  61  89 116 153 206 243 294 357
#     4  10  22  39  61  84 121 154 198 251 299 344
#     4  10  21  38  63  88 118 157 205 241 293 366
#     4  11  21  38  64  87 117 158 202 248 298 355
#     4  10  21  37  61  88 117 155 205 245 295 355
#     4  11  22  39  61  89 124 158 195 247 305 354
#
# _framework density 18.795964000000001
#
# number of rings (size 3 to 8) (size 9 to 14) (size 15 to 20)
#    0.000    1.714    4.286    0.000    4.000    0.571 
#    0.000    0.714    0.000    0.000    0.000    0.000 
#    0.000    0.000    0.000    0.000    0.000    0.000 
#
# Total GULP energy -173566.412369 kJ/mol
# GULP energy per Si atom -12397.600883 kJ/mol
# Density = 1.875318 g / cm^3
# Si number density = 18.795964 Si / 1000 Ang^3
#
#
#
# Elastic Constant Matrix: (Units=GPa)
#
#
# Indices 1 2 3 4 5 6 
#
# 1 102.5843 29.5510 39.4428 1.2889 -6.0681 -2.1029
# 2 29.5510 83.4534 31.5210 -6.7854 -9.2034 -6.0287
# 3 39.4428 31.5210 83.3410 -12.6252 -6.2383 2.3200
# 4 1.2889 -6.7854 -12.6252 24.3974 -0.1155 4.5950
# 5 -6.0681 -9.2034 -6.2383 -0.1155 35.5295 -5.3905
# 6 -2.1029 -6.0287 2.3200 4.5950 -5.3905 30.6137
#
#
#
# Elastic Compliance Matrix: (Units=1/GPa)
#
#
# Indices 1 2 3 4 5 6 
#
# 1 0.012857 -0.002529 -0.005832 -0.004711 0.000754 0.001667
# 2 -0.002529 0.015194 -0.004162 0.001566 0.003306 0.003481
# 3 -0.005832 -0.004162 0.017860 0.009121 0.000507 -0.003853
# 4 -0.004711 0.001566 0.009121 0.047874 0.000165 -0.007863
# 5 0.000754 0.003306 0.000507 0.000165 0.030122 0.005944
# 6 0.001667 0.003481 -0.003853 -0.007863 0.005944 0.035984
#
#
# Mechanical properties :
#
#
# Convention : Reuss Voigt Hill
#
# Bulk Modulus (GPa) = 47.92748 52.26761 50.09754
# Shear Modulus (GPa) = 26.05648 29.36571 27.71110
#
# Velocity S-wave (km/s) = 3.72732 3.95693 3.84384
# Velocity P-wave (km/s) = 6.63913 6.98174 6.81259
#
# Compressibility (1/GPa) = 0.02086486
#
# Stress axis : x y z
#
# Youngs Moduli (GPa) = 77.77896 65.81689 55.99169
#
# Poissons Ratio (x) = 0.16648 0.32653
# Poissons Ratio (y) = 0.19673 0.23302
# Poissons Ratio (z) = 0.45359 0.27391
#
# Static dielectric constant tensor:
#      x y z
#    x 3.894630 0.287470 -0.004450 
#    y 0.287470 3.550940 -0.184310 
#    z -0.004450 -0.184310 3.427560 
# 
# 
# High freq. dielectric constant tensor:
#      x y z
#    x 1.737680 0.008370 0.004870 
#    y 0.008370 1.733150 -0.020630 
#    z 0.004870 -0.020630 1.720780 
# 
# From -- ./inp_files/168907.got.cif
#   From: 2010.06.25/outbox.cif.g09.slc.cpg/sg2_85_cif.got.tgz:168907.got - 2010.06.27 13:26:56.
