data_PCOD8009799
_publ_section_title
;
Structure prediction by ZEFSAII (Michael W. Deem and Ramdas Pophale) SiO2 
 PCOD8009799
Probable space group: P -1
;
_chemical_formula_sum "Si O2"
_cell_formula_units_Z 16
_cell_length_a 11.130773
_cell_length_b 14.536459
_cell_length_c 8.470770
_cell_angle_alpha 107.624254
_cell_angle_beta 40.146959
_cell_angle_gamma 86.637881
_cell_volume 742.456247
_symmetry_space_group_name_H-M "P -1"
_symmetry_group_IT_number 2
_symmetry_cell_setting 'triclinic'
loop_
_space_group_symop_operation_xyz
x,y,z
-x,-y,-z
loop_
_atom_site_type_symbol
_atom_site_label
_atom_site_fract_x
_atom_site_fract_y
_atom_site_fract_z
Si Si1 0.325119 0.563804 0.840896
Si Si2 0.205028 0.930269 0.539272
Si Si3 0.050900 0.632528 0.604765
Si Si4 0.933503 0.272869 0.047929
Si Si5 0.702905 0.290068 0.785126
Si Si6 0.392557 0.072210 0.491021
Si Si7 0.758179 0.113899 0.153701
Si Si8 0.695003 0.580817 0.943043
O O1 0.500000 0.500000 0.500000
O O2 0.101764 0.647711 0.025010
O O3 0.389098 0.640248 0.926541
O O4 0.288028 0.477094 0.936068
O O5 0.257081 0.834575 0.308395
O O6 0.260761 0.885691 0.638002
O O7 0.337879 0.994290 0.391696
O O8 0.955570 0.009238 0.827511
O O9 0.143518 0.649498 0.683286
O O10 0.077995 0.708849 0.482837
O O11 0.193483 0.506092 0.352872
O O12 0.807038 0.658499 0.881308
O O13 0.774777 0.222072 0.148781
O O14 0.170563 0.180185 0.799735
O O15 0.545858 0.346577 0.825805
O O16 0.553182 0.112372 0.279508
O O17 0.500000 0.000000 0.500000
#
# Coordination Sequence:
#
# PCOD8009799 Si02
#       8
#     2   2   2   2   2   2   2   2
#     4  11  24  41  61  88 127 167 198 247 307 363
#     4   9  18  32  60  89 114 149 202 248 297 346
#     4  10  21  37  61  88 119 153 206 257 291 354
#     4  11  21  36  60  89 121 159 197 240 308 361
#     4  11  21  39  65  88 119 162 206 247 298 356
#     4   9  20  34  57  92 120 149 196 248 297 357
#     4   9  18  35  55  90 121 149 191 254 297 352
#     4  10  23  40  60  89 117 158 207 254 298 349
#
# _framework density 21.550090000000001
#
# number of rings (size 3 to 8) (size 9 to 14) (size 15 to 20)
#    0.000    2.000    1.250    3.750    3.500    0.500 
#    0.000    8.750    0.000    1.500    0.000    0.000 
#    0.000    0.000    0.000    0.000    0.000    0.000 
#
# Total GULP energy -198256.528490 kJ/mol
# GULP energy per Si atom -12391.033031 kJ/mol
# Density = 2.150104 g / cm^3
# Si number density = 21.550090 Si / 1000 Ang^3
#
#
#
# Elastic Constant Matrix: (Units=GPa)
#
#
# Indices 1 2 3 4 5 6 
#
# 1 86.4982 59.8828 62.7276 -1.5148 -4.0615 12.7038
# 2 59.8828 96.6238 61.6264 2.9717 -0.9121 22.1163
# 3 62.7276 61.6264 90.7924 -3.2836 2.4666 18.9199
# 4 -1.5148 2.9717 -3.2836 26.5575 11.1859 -2.8380
# 5 -4.0615 -0.9121 2.4666 11.1859 35.5023 2.7170
# 6 12.7038 22.1163 18.9199 -2.8380 2.7170 51.4538
#
#
#
# Elastic Compliance Matrix: (Units=1/GPa)
#
#
# Indices 1 2 3 4 5 6 
#
# 1 0.027171 -0.008628 -0.013394 -0.000593 0.003875 0.001688
# 2 -0.008628 0.022421 -0.008519 -0.005532 0.002291 -0.004800
# 3 -0.013394 -0.008519 0.026875 0.005431 -0.005150 -0.002342
# 4 -0.000593 -0.005532 0.005431 0.045769 -0.015303 0.003860
# 5 0.003875 0.002291 -0.005150 -0.015303 0.034055 -0.002690
# 6 0.001688 -0.004800 -0.002342 0.003860 -0.002690 0.022297
#
#
# Mechanical properties :
#
#
# Convention : Reuss Voigt Hill
#
# Bulk Modulus (GPa) = 65.00438 71.37644 68.19041
# Shear Modulus (GPa) = 20.42481 28.68123 24.55302
#
# Velocity S-wave (km/s) = 3.08195 3.65212 3.37908
# Velocity P-wave (km/s) = 6.54938 7.13982 6.85096
#
# Compressibility (1/GPa) = 0.01538358
#
# Stress axis : x y z
#
# Youngs Moduli (GPa) = 36.80352 44.60136 37.20913
#
# Poissons Ratio (x) = 0.38483 0.49839
# Poissons Ratio (y) = 0.31755 0.31700
# Poissons Ratio (z) = 0.49296 0.37997
#
# Static dielectric constant tensor:
#      x y z
#    x 3.935060 0.417430 -0.151690 
#    y 0.417430 4.099410 0.027440 
#    z -0.151690 0.027440 3.722730 
# 
# 
# High freq. dielectric constant tensor:
#      x y z
#    x 1.829390 0.026000 -0.008080 
#    y 0.026000 1.844740 0.015010 
#    z -0.008080 0.015010 1.832020 
# 
# From -- ./inp_files/273540.got.cif
#   From: 2010.06.25/outbox.cif.g09.slc.cpg/sg2_137_cif.got.tgz:273540.got - 2010.06.27 13:26:56.
