data_PCOD8009533
_publ_section_title
;
Structure prediction by ZEFSAII (Michael W. Deem and Ramdas Pophale) SiO2 
 PCOD8009533
Probable space group: P -1
;
_chemical_formula_sum "Si O2"
_cell_formula_units_Z 14
_cell_length_a 13.852902
_cell_length_b 12.477984
_cell_length_c 5.184550
_cell_angle_alpha 88.463657
_cell_angle_beta 57.536703
_cell_angle_gamma 74.984758
_cell_volume 723.362224
_symmetry_space_group_name_H-M "P -1"
_symmetry_group_IT_number 2
_symmetry_cell_setting 'triclinic'
loop_
_space_group_symop_operation_xyz
x,y,z
-x,-y,-z
loop_
_atom_site_type_symbol
_atom_site_label
_atom_site_fract_x
_atom_site_fract_y
_atom_site_fract_z
Si Si1 0.347429 0.680716 0.283494
Si Si2 0.977528 0.866947 0.284560
Si Si3 0.741961 0.825723 0.648746
Si Si4 0.638131 0.454599 0.245820
Si Si5 0.386966 0.104900 0.681287
Si Si6 0.605613 0.684530 0.090725
Si Si7 0.880446 0.127232 0.417879
O O1 0.302252 0.612096 0.579302
O O2 0.483959 0.680525 0.126018
O O3 0.260099 0.807158 0.402079
O O4 0.334964 0.626455 0.031933
O O5 0.885958 0.792080 0.444494
O O6 0.068496 0.838901 0.392630
O O7 0.895604 0.995715 0.394268
O O8 0.050079 0.835770 0.919012
O O9 0.694921 0.889715 0.449287
O O10 0.689819 0.909955 0.957399
O O11 0.695942 0.715221 0.752538
O O12 0.500000 0.500000 0.500000
O O13 0.678637 0.565503 0.119619
O O14 0.427521 0.218687 0.647532
O O15 0.500000 0.000000 0.500000
#
# Coordination Sequence:
#
# PCOD8009533 Si02
#       7
#     2   2   2   2   2   2   2
#     4  11  22  36  61  86 115 148 192 240 279 337
#     4  10  21  41  58  82 115 149 196 226 286 337
#     4  10  22  36  58  81 113 155 177 235 276 351
#     4  10  21  37  56  84 118 152 187 232 284 342
#     4  10  22  34  52  88 116 149 181 225 284 349
#     4   9  23  35  59  85 118 148 183 228 296 335
#     4  10  22  38  60  84 110 153 189 239 277 331
#
# _framework density 19.354066
#
# number of rings (size 3 to 8) (size 9 to 14) (size 15 to 20)
#    0.857    1.143    0.000    3.857    8.000    0.000 
#    0.000    0.000    0.000    5.143    0.000    0.000 
#    0.000    0.000    0.000    0.000    0.000    0.000 
#
# Total GULP energy -173519.901420 kJ/mol
# GULP energy per Si atom -12394.278673 kJ/mol
# Density = 1.931002 g / cm^3
# Si number density = 19.354066 Si / 1000 Ang^3
#
#
#
# Elastic Constant Matrix: (Units=GPa)
#
#
# Indices 1 2 3 4 5 6 
#
# 1 64.5778 23.9092 29.9913 -11.9511 11.9350 -8.5677
# 2 23.9092 67.3449 25.8006 1.0618 -6.3800 1.1803
# 3 29.9913 25.8006 94.1126 -8.2122 18.3064 3.5200
# 4 -11.9511 1.0618 -8.2122 22.6186 4.1460 -8.6933
# 5 11.9350 -6.3800 18.3064 4.1460 42.1051 -4.2832
# 6 -8.5677 1.1803 3.5200 -8.6933 -4.2832 19.6466
#
#
#
# Elastic Compliance Matrix: (Units=1/GPa)
#
#
# Indices 1 2 3 4 5 6 
#
# 1 0.031533 -0.011537 -0.003657 0.027226 -0.009220 0.025136
# 2 -0.011537 0.022179 -0.005102 -0.014468 0.009274 -0.009829
# 3 -0.003657 -0.005102 0.015008 0.003525 -0.007010 -0.003946
# 4 0.027226 -0.014468 0.003525 0.080352 -0.014835 0.044431
# 5 -0.009220 0.009274 -0.007010 -0.014835 0.031981 -0.002914
# 6 0.025136 -0.009829 -0.003946 0.044431 -0.002914 0.082183
#
#
# Mechanical properties :
#
#
# Convention : Reuss Voigt Hill
#
# Bulk Modulus (GPa) = 35.55270 42.82642 39.18956
# Shear Modulus (GPa) = 15.96400 26.62967 21.29684
#
# Velocity S-wave (km/s) = 2.87512 3.71337 3.32080
# Velocity P-wave (km/s) = 5.42506 6.36878 5.91577
#
# Compressibility (1/GPa) = 0.02812726
#
# Stress axis : x y z
#
# Youngs Moduli (GPa) = 31.71325 45.08828 66.62916
#
# Poissons Ratio (x) = 0.52020 0.24364
# Poissons Ratio (y) = 0.36589 0.33996
# Poissons Ratio (z) = 0.11596 0.23005
#
# Static dielectric constant tensor:
#      x y z
#    x 3.442650 -0.249610 0.067990 
#    y -0.249610 3.935340 -0.066500 
#    z 0.067990 -0.066500 3.518180 
# 
# 
# High freq. dielectric constant tensor:
#      x y z
#    x 1.745820 -0.004660 0.021570 
#    y -0.004660 1.738320 -0.007160 
#    z 0.021570 -0.007160 1.754920 
# 
# From -- ./inp_files/73273.got.cif
#   From: 2010.06.25/outbox.cif.g09.slc.cpg/sg2_37_cif.got.tgz:73273.got - 2010.06.27 13:26:56.
