data_PCOD8009328
_publ_section_title
;
Structure prediction by ZEFSAII (Michael W. Deem and Ramdas Pophale) SiO2 
 PCOD8009328
Probable space group: P -1
;
_chemical_formula_sum "Si O2"
_cell_formula_units_Z 12
_cell_length_a 9.330204
_cell_length_b 7.233556
_cell_length_c 14.778051
_cell_angle_alpha 72.952781
_cell_angle_beta 137.090565
_cell_angle_gamma 123.446309
_cell_volume 555.780432
_symmetry_space_group_name_H-M "P -1"
_symmetry_group_IT_number 2
_symmetry_cell_setting 'triclinic'
loop_
_space_group_symop_operation_xyz
x,y,z
-x,-y,-z
loop_
_atom_site_type_symbol
_atom_site_label
_atom_site_fract_x
_atom_site_fract_y
_atom_site_fract_z
Si Si1 0.322472 0.212615 0.532938
Si Si2 0.186469 0.248308 0.081483
Si Si3 0.212524 0.564013 0.913286
Si Si4 0.801671 0.647750 0.722326
Si Si5 0.978717 0.719635 0.470288
Si Si6 0.664403 0.597658 0.175953
O O1 0.609748 0.376901 0.665933
O O2 0.275911 0.225064 0.403114
O O3 0.166748 0.301178 0.502507
O O4 0.241762 0.955919 0.559496
O O5 0.200254 0.258963 0.193926
O O6 0.463975 0.345239 0.157307
O O7 0.089694 0.401190 0.967803
O O8 0.000000 0.000000 0.000000
O O9 0.169323 0.420292 0.822091
O O10 0.078744 0.705507 0.820634
O O11 0.510647 0.710287 0.048249
O O12 0.835813 0.747078 0.315530
O O13 0.000000 0.500000 0.500000
#
# Coordination Sequence:
#
# PCOD8009328 Si02
#       6
#     2   2   2   2   2   2
#     4  10  24  40  64  94 131 166 211 264 309 383
#     4  10  21  36  61  89 124 160 202 265 310 361
#     4   9  20  38  63  84 125 167 197 259 318 367
#     4  11  21  42  61  96 131 160 210 263 319 375
#     4  11  22  42  65  91 125 175 211 259 317 378
#     4   9  20  39  60  87 128 155 216 256 299 390
#
# _framework density 21.591258
#
# number of rings (size 3 to 8) (size 9 to 14) (size 15 to 20)
#    1.000    1.000    1.667    1.500    2.333    1.333 
#    0.000    7.500    0.000    0.000    0.000    0.000 
#    0.000    0.000    0.000    0.000    0.000    0.000 
#
# Total GULP energy -148666.613223 kJ/mol
# GULP energy per Si atom -12388.884435 kJ/mol
# Density = 2.154212 g / cm^3
# Si number density = 21.591258 Si / 1000 Ang^3
#
#
#
# Elastic Constant Matrix: (Units=GPa)
#
#
# Indices 1 2 3 4 5 6 
#
# 1 94.9366 22.1997 35.2476 2.8166 -21.0638 -5.3789
# 2 22.1997 89.9611 19.7149 11.0309 4.8214 -2.9209
# 3 35.2476 19.7149 102.3890 14.8650 -23.2839 -10.0807
# 4 2.8166 11.0309 14.8650 23.6507 -5.9189 4.2809
# 5 -21.0638 4.8214 -23.2839 -5.9189 42.2119 4.5870
# 6 -5.3789 -2.9209 -10.0807 4.2809 4.5870 20.1393
#
#
#
# Elastic Compliance Matrix: (Units=1/GPa)
#
#
# Indices 1 2 3 4 5 6 
#
# 1 0.013760 -0.003468 -0.003293 0.003671 0.006029 -0.000630
# 2 -0.003468 0.013490 -0.001298 -0.006942 -0.005293 0.003062
# 3 -0.003293 -0.001298 0.013933 -0.007856 0.004374 0.006580
# 4 0.003671 -0.006942 -0.007856 0.055171 0.007928 -0.017492
# 5 0.006029 -0.005293 0.004374 0.007928 0.031460 -0.005819
# 6 -0.000630 0.003062 0.006580 -0.017492 -0.005819 0.058267
#
#
# Mechanical properties :
#
#
# Convention : Reuss Voigt Hill
#
# Bulk Modulus (GPa) = 39.89509 49.06790 44.48150
# Shear Modulus (GPa) = 23.74673 31.20868 27.47771
#
# Velocity S-wave (km/s) = 3.31997 3.80601 3.57127
# Velocity P-wave (km/s) = 5.76314 6.48763 6.13609
#
# Compressibility (1/GPa) = 0.02506574
#
# Stress axis : x y z
#
# Youngs Moduli (GPa) = 72.67472 74.12636 71.76978
#
# Poissons Ratio (x) = 0.25704 0.23635
# Poissons Ratio (y) = 0.25201 0.09318
# Poissons Ratio (z) = 0.23933 0.09624
#
# Static dielectric constant tensor:
#      x y z
#    x 3.862780 0.197690 -0.158810 
#    y 0.197690 3.402550 0.124700 
#    z -0.158810 0.124700 4.152450 
# 
# 
# High freq. dielectric constant tensor:
#      x y z
#    x 1.848450 0.012460 -0.019330 
#    y 0.012460 1.806540 0.014190 
#    z -0.019330 0.014190 1.858650 
# 
# From -- ./inp_files/359437.got.cif
#   From: 2010.06.25/outbox.cif.g09.slc.cpg/sg2_180_cif.got.tgz:359437.got - 2010.06.27 13:26:56.
