data_PCOD8009518
_publ_section_title
;
Structure prediction by ZEFSAII (Michael W. Deem and Ramdas Pophale) SiO2 
 PCOD8009518
Probable space group: P -1
;
_chemical_formula_sum "Si O2"
_cell_formula_units_Z 16
_cell_length_a 14.443402
_cell_length_b 19.831599
_cell_length_c 8.831642
_cell_angle_alpha 79.560046
_cell_angle_beta 89.050518
_cell_angle_gamma 21.262479
_cell_volume 815.784722
_symmetry_space_group_name_H-M "P -1"
_symmetry_group_IT_number 2
_symmetry_cell_setting 'triclinic'
loop_
_space_group_symop_operation_xyz
x,y,z
-x,-y,-z
loop_
_atom_site_type_symbol
_atom_site_label
_atom_site_fract_x
_atom_site_fract_y
_atom_site_fract_z
Si Si1 0.789004 0.516149 0.323497
Si Si2 0.139184 0.541468 0.300957
Si Si3 0.436090 0.710813 0.833893
Si Si4 0.191665 0.932395 0.028113
Si Si5 0.137511 0.395863 0.875505
Si Si6 0.960713 0.290337 0.187336
Si Si7 0.677806 0.943267 0.005066
Si Si8 0.802881 0.262020 0.131172
O O1 0.834912 0.486130 0.511856
O O2 0.910750 0.500952 0.257058
O O3 0.976530 0.322852 0.327726
O O4 0.460069 0.733926 0.210726
O O5 0.451928 0.334906 0.306165
O O6 0.006390 0.566196 0.222951
O O7 0.951864 0.740320 0.187109
O O8 0.290057 0.873315 0.873896
O O9 0.219129 0.798886 0.770746
O O10 0.693654 0.502789 0.011839
O O11 0.000000 0.000000 0.000000
O O12 0.998082 0.127459 0.027129
O O13 0.000000 0.500000 0.000000
O O14 0.478431 0.145848 0.981705
O O15 0.933891 0.227724 0.254332
O O16 0.239545 0.105617 0.153550
O O17 0.500000 0.000000 0.000000
O O18 0.500000 0.500000 0.000000
#
# Coordination Sequence:
#
# PCOD8009518 Si02
#       8
#     2   2   2   2   2   2   2   2
#     4  11  21  35  55  84 116 144 179 234 283 324
#     4  10  21  37  55  83 115 141 179 238 288 323
#     4   8  16  32  53  76 104 140 183 229 274 327
#     4   9  17  32  55  80 105 145 189 222 266 332
#     4  11  21  37  60  82 107 149 192 223 270 342
#     4   9  17  31  52  76 105 144 185 220 267 334
#     4   9  18  35  56  77 104 143 185 223 269 333
#     4   9  16  29  53  78 101 138 190 231 260 315
#
# _framework density 19.613016999999999
#
# number of rings (size 3 to 8) (size 9 to 14) (size 15 to 20)
#    0.000    2.500    0.000    4.875    0.000    0.000 
#    0.000   11.250    0.000    0.000    0.000    0.000 
#    0.000    0.000    0.000    0.000    0.000    0.000 
#
# Total GULP energy -198226.310558 kJ/mol
# GULP energy per Si atom -12389.144410 kJ/mol
# Density = 1.956838 g / cm^3
# Si number density = 19.613017 Si / 1000 Ang^3
#
#
#
# Elastic Constant Matrix: (Units=GPa)
#
#
# Indices 1 2 3 4 5 6 
#
# 1 111.5907 55.0595 41.1495 22.8809 8.2205 6.9046
# 2 55.0595 172.9612 56.8487 30.9965 0.3121 9.0623
# 3 41.1495 56.8487 94.1163 34.1814 2.0494 1.4533
# 4 22.8809 30.9965 34.1814 30.7112 -1.4046 1.6776
# 5 8.2205 0.3121 2.0494 -1.4046 17.1670 3.9106
# 6 6.9046 9.0623 1.4533 1.6776 3.9106 36.9624
#
#
#
# Elastic Compliance Matrix: (Units=1/GPa)
#
#
# Indices 1 2 3 4 5 6 
#
# 1 0.012341 -0.002331 -0.002155 -0.004664 -0.005804 -0.000823
# 2 -0.002331 0.008061 -0.002658 -0.003302 0.001342 -0.001429
# 3 -0.002155 -0.002658 0.019704 -0.017859 -0.003055 0.001413
# 4 -0.004664 -0.003302 -0.017859 0.059759 0.009622 -0.001347
# 5 -0.005804 0.001342 -0.003055 0.009622 0.063591 -0.006289
# 6 -0.000823 -0.001429 0.001413 -0.001347 -0.006289 0.028230
#
#
# Mechanical properties :
#
#
# Convention : Reuss Voigt Hill
#
# Bulk Modulus (GPa) = 38.73249 76.08707 57.40978
# Shear Modulus (GPa) = 23.30145 32.00882 27.65513
#
# Velocity S-wave (km/s) = 3.45056 4.04421 3.75912
# Velocity P-wave (km/s) = 5.97214 7.79011 6.94090
#
# Compressibility (1/GPa) = 0.02581812
#
# Stress axis : x y z
#
# Youngs Moduli (GPa) = 81.03226 124.04658 50.75226
#
# Poissons Ratio (x) = 0.28913 0.10936
# Poissons Ratio (y) = 0.18887 0.13491
# Poissons Ratio (z) = 0.17460 0.32975
#
# Static dielectric constant tensor:
#      x y z
#    x 4.091230 0.168740 0.077110 
#    y 0.168740 4.662920 -0.036530 
#    z 0.077110 -0.036530 3.079880 
# 
# 
# High freq. dielectric constant tensor:
#      x y z
#    x 1.777570 -0.004880 0.011530 
#    y -0.004880 1.792150 0.011890 
#    z 0.011530 0.011890 1.697660 
# 
# From -- ./inp_files/200190.got.cif
#   From: 2010.06.25/outbox.cif.g09.slc.cpg/sg2_101_cif.got.tgz:200190.got - 2010.06.27 13:26:56.
