data_PCOD8009383
_publ_section_title
;
Structure prediction by ZEFSAII (Michael W. Deem and Ramdas Pophale) SiO2 
 PCOD8009383
Probable space group: P -1
;
_chemical_formula_sum "Si O2"
_cell_formula_units_Z 16
_cell_length_a 12.966105
_cell_length_b 15.606124
_cell_length_c 8.508526
_cell_angle_alpha 45.658676
_cell_angle_beta 133.611320
_cell_angle_gamma 141.776609
_cell_volume 722.343009
_symmetry_space_group_name_H-M "P -1"
_symmetry_group_IT_number 2
_symmetry_cell_setting 'triclinic'
loop_
_space_group_symop_operation_xyz
x,y,z
-x,-y,-z
loop_
_atom_site_type_symbol
_atom_site_label
_atom_site_fract_x
_atom_site_fract_y
_atom_site_fract_z
Si Si1 0.007929 0.317876 0.683105
Si Si2 0.249327 0.617712 0.715152
Si Si3 0.211856 0.156824 0.656836
Si Si4 0.802331 0.432059 0.922991
Si Si5 0.721375 0.595965 0.388111
Si Si6 0.522437 0.693404 0.675338
Si Si7 0.492245 0.855250 0.154729
Si Si8 0.902962 0.841665 0.800765
O O1 0.135041 0.492088 0.626721
O O2 0.092524 0.298799 0.641994
O O3 0.813740 0.273866 0.494863
O O4 0.996079 0.223920 0.940458
O O5 0.449601 0.697988 0.763909
O O6 0.218338 0.545082 0.945548
O O7 0.315281 0.293101 0.712868
O O8 0.335877 0.106823 0.805581
O O9 0.158476 0.207567 0.380826
O O10 0.033192 0.018863 0.723477
O O11 0.732301 0.508542 0.653570
O O12 0.682491 0.257233 0.985121
O O13 0.000000 0.500000 0.000000
O O14 0.562986 0.474650 0.262306
O O15 0.479057 0.781850 0.401131
O O16 0.730402 0.777774 0.808729
O O17 0.500000 0.000000 0.000000
#
# Coordination Sequence:
#
# PCOD8009383 Si02
#       8
#     2   2   2   2   2   2   2   2
#     4  10  21  36  62  93 131 166 203 264 310 377
#     4  10  21  38  61  97 127 164 211 257 323 356
#     4  10  23  42  63  92 125 167 210 260 315 371
#     4  11  22  39  66  96 122 166 213 263 307 375
#     4  10  21  40  64  92 126 158 214 263 312 364
#     4   9  22  41  64  94 126 164 209 261 309 378
#     4  10  24  42  63  93 128 166 208 262 318 373
#     4  10  22  40  63  92 120 173 208 250 314 375
#
# _framework density 22.150141999999999
#
# number of rings (size 3 to 8) (size 9 to 14) (size 15 to 20)
#    0.000    2.000    1.250    0.750    3.500   12.000 
#    0.000    0.625    0.000    0.000    0.000    0.000 
#    0.000    0.000    0.000    0.000    0.000    0.000 
#
# Total GULP energy -198395.575255 kJ/mol
# GULP energy per Si atom -12399.723453 kJ/mol
# Density = 2.209973 g / cm^3
# Si number density = 22.150142 Si / 1000 Ang^3
#
#
#
# Elastic Constant Matrix: (Units=GPa)
#
#
# Indices 1 2 3 4 5 6 
#
# 1 152.3120 55.2593 37.4186 -6.3874 -6.2598 11.0871
# 2 55.2593 100.1345 19.5799 -5.6547 8.3361 5.8836
# 3 37.4186 19.5799 81.5367 -1.5715 0.8349 -3.3381
# 4 -6.3874 -5.6547 -1.5715 26.7299 -2.2873 6.1550
# 5 -6.2598 8.3361 0.8349 -2.2873 25.8718 -4.6707
# 6 11.0871 5.8836 -3.3381 6.1550 -4.6707 38.9394
#
#
#
# Elastic Compliance Matrix: (Units=1/GPa)
#
#
# Indices 1 2 3 4 5 6 
#
# 1 0.009447 -0.004640 -0.003310 0.001886 0.003670 -0.002130
# 2 -0.004640 0.013412 -0.001074 0.001583 -0.005579 -0.001717
# 3 -0.003310 -0.001074 0.014129 -0.000781 -0.000551 0.002373
# 4 0.001886 0.001583 -0.000781 0.039929 0.002259 -0.006884
# 5 0.003670 -0.005579 -0.000551 0.002259 0.042363 0.004475
# 6 -0.002130 -0.001717 0.002373 -0.006884 0.004475 0.028375
#
#
# Mechanical properties :
#
#
# Convention : Reuss Voigt Hill
#
# Bulk Modulus (GPa) = 52.79639 62.05540 57.42590
# Shear Modulus (GPa) = 29.06705 33.08991 31.07848
#
# Velocity S-wave (km/s) = 3.62646 3.86928 3.74984
# Velocity P-wave (km/s) = 6.43602 6.93098 6.68808
#
# Compressibility (1/GPa) = 0.01894069
#
# Stress axis : x y z
#
# Youngs Moduli (GPa) = 105.85475 74.56062 70.77702
#
# Poissons Ratio (x) = 0.34596 0.23424
# Poissons Ratio (y) = 0.49116 0.07601
# Poissons Ratio (z) = 0.35033 0.08008
#
# Static dielectric constant tensor:
#      x y z
#    x 4.088920 0.161750 -0.055840 
#    y 0.161750 3.833810 0.052560 
#    z -0.055840 0.052560 3.919750 
# 
# 
# High freq. dielectric constant tensor:
#      x y z
#    x 1.877450 0.012590 -0.005180 
#    y 0.012590 1.845860 -0.000340 
#    z -0.005180 -0.000340 1.872980 
# 
# From -- ./inp_files/271946.got.cif
#   From: 2010.06.25/outbox.cif.g09.slc.cpg/sg2_136_cif.got.tgz:271946.got - 2010.06.27 13:26:56.
