data_PCOD8009392
_publ_section_title
;
Structure prediction by ZEFSAII (Michael W. Deem and Ramdas Pophale) SiO2 
 PCOD8009392
Probable space group: P -1
;
_chemical_formula_sum "Si O2"
_cell_formula_units_Z 14
_cell_length_a 10.949436
_cell_length_b 24.911539
_cell_length_c 11.176054
_cell_angle_alpha 22.658889
_cell_angle_beta 143.326117
_cell_angle_gamma 144.184273
_cell_volume 667.428938
_symmetry_space_group_name_H-M "P -1"
_symmetry_group_IT_number 2
_symmetry_cell_setting 'triclinic'
loop_
_space_group_symop_operation_xyz
x,y,z
-x,-y,-z
loop_
_atom_site_type_symbol
_atom_site_label
_atom_site_fract_x
_atom_site_fract_y
_atom_site_fract_z
Si Si1 0.968138 0.334090 0.139223
Si Si2 0.268581 0.446603 0.544464
Si Si3 0.677259 0.649689 0.797392
Si Si4 0.555151 0.096378 0.225452
Si Si5 0.314315 0.317852 0.610125
Si Si6 0.988399 0.655395 0.219670
Si Si7 0.447351 0.887193 0.079451
O O1 0.171114 0.396249 0.084273
O O2 0.071792 0.299294 0.414799
O O3 0.801081 0.194604 0.232253
O O4 0.839989 0.448771 0.829520
O O5 0.317299 0.332837 0.725050
O O6 0.496464 0.543113 0.583166
O O7 0.096546 0.359018 0.683420
O O8 0.596345 0.780506 0.414623
O O9 0.500000 0.500000 0.000000
O O10 0.818596 0.711690 0.897213
O O11 0.500000 0.000000 0.500000
O O12 0.373510 0.175059 0.917327
O O13 0.537275 0.031238 0.207727
O O14 0.000000 0.500000 0.500000
O O15 0.211224 0.780066 0.134583
O O16 0.500000 0.000000 0.000000
#
# Coordination Sequence:
#
# PCOD8009392 Si02
#       7
#     2   2   2   2   2   2   2
#     4  11  20  39  65  91 126 168 220 268 333 394
#     4  10  21  36  63 100 131 161 214 282 331 394
#     4  12  22  39  74  98 126 177 218 270 346 404
#     4  11  25  45  65  87 131 185 227 265 328 408
#     4  10  21  39  62  94 130 165 220 277 329 391
#     4  12  21  41  68  99 134 172 223 275 342 404
#     4  12  27  46  66 102 142 173 227 290 336 402
#
# _framework density 20.976013999999999
#
# number of rings (size 3 to 8) (size 9 to 14) (size 15 to 20)
#    0.000    0.857    5.714    2.143    0.000    3.429 
#    2.571    1.429    0.000    0.000    0.000    0.000 
#    0.000    0.000    0.000    0.000    0.000    0.000 
#
# Total GULP energy -173455.058871 kJ/mol
# GULP energy per Si atom -12389.647062 kJ/mol
# Density = 2.092827 g / cm^3
# Si number density = 20.976014 Si / 1000 Ang^3
#
#
#
# Elastic Constant Matrix: (Units=GPa)
#
#
# Indices 1 2 3 4 5 6 
#
# 1 130.0615 39.5763 29.4681 -8.9488 -15.4320 -3.3671
# 2 39.5763 116.6508 43.1697 15.1221 -1.2035 -3.8925
# 3 29.4681 43.1697 62.1680 18.7808 -15.0388 -6.3489
# 4 -8.9488 15.1221 18.7808 36.1092 2.0052 3.2710
# 5 -15.4320 -1.2035 -15.0388 2.0052 35.2472 4.9480
# 6 -3.3671 -3.8925 -6.3489 3.2710 4.9480 35.7638
#
#
#
# Elastic Compliance Matrix: (Units=1/GPa)
#
#
# Indices 1 2 3 4 5 6 
#
# 1 0.010091 -0.002605 -0.004247 0.005757 0.002321 -0.000935
# 2 -0.002605 0.012582 -0.007969 -0.001582 -0.004080 0.000419
# 3 -0.004247 -0.007969 0.031389 -0.015052 0.011544 0.004085
# 4 0.005757 -0.001582 -0.015052 0.038372 -0.005428 -0.005061
# 5 0.002321 -0.004080 0.011544 -0.005428 0.034833 -0.002499
# 6 -0.000935 0.000419 0.004085 -0.005061 -0.002499 0.029453
#
#
# Mechanical properties :
#
#
# Convention : Reuss Voigt Hill
#
# Bulk Modulus (GPa) = 40.94994 59.25649 50.10321
# Shear Modulus (GPa) = 25.70666 34.53511 30.12088
#
# Velocity S-wave (km/s) = 3.50455 4.06200 3.79353
# Velocity P-wave (km/s) = 5.99504 7.09301 6.56701
#
# Compressibility (1/GPa) = 0.02442006
#
# Stress axis : x y z
#
# Youngs Moduli (GPa) = 99.09844 79.47570 31.85815
#
# Poissons Ratio (x) = 0.20706 0.13531
# Poissons Ratio (y) = 0.25818 0.25387
# Poissons Ratio (z) = 0.42090 0.63332
#
# Static dielectric constant tensor:
#      x y z
#    x 3.920610 0.009110 -0.105880 
#    y 0.009110 3.909220 0.482400 
#    z -0.105880 0.482400 3.809940 
# 
# 
# High freq. dielectric constant tensor:
#      x y z
#    x 1.837630 0.004880 -0.000940 
#    y 0.004880 1.822240 0.032480 
#    z -0.000940 0.032480 1.801960 
# 
# From -- ./inp_files/70954.got.cif
#   From: 2010.06.25/outbox.cif.g09.slc.cpg/sg2_36_cif.got.tgz:70954.got - 2010.06.27 13:26:56.
