data_PCOD8009946
_publ_section_title
;
Structure prediction by ZEFSAII (Michael W. Deem and Ramdas Pophale) SiO2 
 PCOD8009946
Probable space group: P -1
;
_chemical_formula_sum "Si O2"
_cell_formula_units_Z 14
_cell_length_a 26.799853
_cell_length_b 14.272662
_cell_length_c 14.223535
_cell_angle_alpha 158.989794
_cell_angle_beta 158.849218
_cell_angle_gamma 21.396328
_cell_volume 622.269671
_symmetry_space_group_name_H-M "P -1"
_symmetry_group_IT_number 2
_symmetry_cell_setting 'triclinic'
loop_
_space_group_symop_operation_xyz
x,y,z
-x,-y,-z
loop_
_atom_site_type_symbol
_atom_site_label
_atom_site_fract_x
_atom_site_fract_y
_atom_site_fract_z
Si Si1 0.239573 0.804454 0.096803
Si Si2 0.507492 0.682543 0.315906
Si Si3 0.902359 0.158692 0.749321
Si Si4 0.034503 0.191017 0.813857
Si Si5 0.353415 0.150017 0.754896
Si Si6 0.626410 0.097854 0.904197
Si Si7 0.711340 0.806746 0.100035
O O1 0.338631 0.804409 0.180149
O O2 0.282314 0.954515 0.398864
O O3 0.281069 0.469844 0.879618
O O4 0.056577 0.987845 0.923885
O O5 0.507718 0.740909 0.258665
O O6 0.602719 0.841990 0.677054
O O7 0.610138 0.327894 0.174273
O O8 0.943417 0.231801 0.787942
O O9 0.819092 0.953878 0.396731
O O10 0.786255 0.466309 0.881824
O O11 0.000000 0.000000 0.500000
O O12 0.000000 0.500000 0.000000
O O13 0.218363 0.018776 0.993478
O O14 0.300669 0.185472 0.802251
O O15 0.540985 0.984981 0.920602
#
# Coordination Sequence:
#
# PCOD8009946 Si02
#       7
#     2   2   2   2   2   2   2
#     4  12  24  42  70 105 135 170 231 278 334 390
#     4  10  21  37  63  86 123 163 207 265 312 371
#     4  12  26  45  70 100 138 177 220 283 337 400
#     4  12  26  42  63  94 133 174 218 265 326 395
#     4  11  26  45  71 100 133 176 223 281 327 412
#     4  10  21  39  58  87 121 167 213 254 312 369
#     4  11  26  48  69  98 138 177 221 270 348 406
#
# _framework density 22.498284999999999
#
# number of rings (size 3 to 8) (size 9 to 14) (size 15 to 20)
#    0.000    0.857    1.429    5.143    0.000   12.571 
#    0.000    0.000    0.000    0.000    0.000    0.000 
#    0.000    0.000    0.000    0.000    0.000    0.000 
#
# Total GULP energy -173592.535887 kJ/mol
# GULP energy per Si atom -12399.466849 kJ/mol
# Density = 2.244708 g / cm^3
# Si number density = 22.498285 Si / 1000 Ang^3
#
#
#
# Elastic Constant Matrix: (Units=GPa)
#
#
# Indices 1 2 3 4 5 6 
#
# 1 67.4009 36.5242 8.8208 -0.8701 4.6106 -1.4566
# 2 36.5242 132.8100 47.7940 7.3516 -3.5923 -8.3445
# 3 8.8208 47.7940 117.3834 18.4675 9.5447 2.6963
# 4 -0.8701 7.3516 18.4675 50.2475 -5.4823 -1.9090
# 5 4.6106 -3.5923 9.5447 -5.4823 37.7700 0.7365
# 6 -1.4566 -8.3445 2.6963 -1.9090 0.7365 32.8981
#
#
#
# Elastic Compliance Matrix: (Units=1/GPa)
#
#
# Indices 1 2 3 4 5 6 
#
# 1 0.017824 -0.005418 0.001056 0.000375 -0.002892 -0.000585
# 2 -0.005418 0.010815 -0.004339 0.000329 0.002779 0.002816
# 3 0.001056 -0.004339 0.011197 -0.003969 -0.003906 -0.002114
# 4 0.000375 0.000329 -0.003969 0.021829 0.004126 0.001600
# 5 -0.002892 0.002779 -0.003906 0.004126 0.028670 0.000495
# 6 -0.000585 0.002816 -0.002114 0.001600 0.000495 0.031340
#
#
# Mechanical properties :
#
#
# Convention : Reuss Voigt Hill
#
# Bulk Modulus (GPa) = 44.57282 55.98582 50.27932
# Shear Modulus (GPa) = 34.11719 39.14680 36.63200
#
# Velocity S-wave (km/s) = 3.89837 4.17584 4.03949
# Velocity P-wave (km/s) = 6.33385 6.94181 6.64479
#
# Compressibility (1/GPa) = 0.02243520
#
# Stress axis : x y z
#
# Youngs Moduli (GPa) = 56.10345 92.46718 89.31163
#
# Poissons Ratio (x) = 0.50095 -0.09431
# Poissons Ratio (y) = 0.30395 0.38748
# Poissons Ratio (z) = -0.05924 0.40117
#
# Static dielectric constant tensor:
#      x y z
#    x 3.952420 -0.115250 0.089070 
#    y -0.115250 4.357290 0.356560 
#    z 0.089070 0.356560 4.734130 
# 
# 
# High freq. dielectric constant tensor:
#      x y z
#    x 1.889390 -0.006540 0.003290 
#    y -0.006540 1.897180 0.011280 
#    z 0.003290 0.011280 1.906670 
# 
# From -- ./inp_files/535723.got.cif
#   From: 2010.06.25/outbox.cif.g09.slc.cpg/sg2_268_cif.got.tgz:535723.got - 2010.06.27 13:26:56.
