data_PCOD8009741
_publ_section_title
;
Structure prediction by ZEFSAII (Michael W. Deem and Ramdas Pophale) SiO2 
 PCOD8009741
Probable space group: P -1
;
_chemical_formula_sum "Si O2"
_cell_formula_units_Z 16
_cell_length_a 16.265814
_cell_length_b 7.492194
_cell_length_c 16.065697
_cell_angle_alpha 115.398256
_cell_angle_beta 153.666942
_cell_angle_gamma 79.092262
_cell_volume 685.199996
_symmetry_space_group_name_H-M "P -1"
_symmetry_group_IT_number 2
_symmetry_cell_setting 'triclinic'
loop_
_space_group_symop_operation_xyz
x,y,z
-x,-y,-z
loop_
_atom_site_type_symbol
_atom_site_label
_atom_site_fract_x
_atom_site_fract_y
_atom_site_fract_z
Si Si1 0.030420 0.754293 0.427698
Si Si2 0.225962 0.493045 0.109131
Si Si3 0.380277 0.814533 0.169795
Si Si4 0.232974 0.754081 0.320717
Si Si5 0.489077 0.003841 0.839908
Si Si6 0.612443 0.434992 0.443738
Si Si7 0.027712 0.294220 0.288730
Si Si8 0.089869 0.916305 0.688676
O O1 0.277020 0.951523 0.685152
O O2 0.001182 0.517251 0.323428
O O3 0.970382 0.747309 0.469276
O O4 0.894460 0.839142 0.265488
O O5 0.280911 0.576261 0.080108
O O6 0.226851 0.692860 0.205836
O O7 0.409521 0.443352 0.296485
O O8 0.994039 0.268078 0.861672
O O9 0.571631 0.999285 0.436019
O O10 0.459411 0.800457 0.144555
O O11 0.186649 0.873080 0.990499
O O12 0.252644 0.562922 0.353730
O O13 0.463344 0.792271 0.721264
O O14 0.679771 0.066711 0.089829
O O15 0.763237 0.648057 0.563798
O O16 0.045554 0.188724 0.371011
#
# Coordination Sequence:
#
# PCOD8009741 Si02
#       8
#     2   2   2   2   2   2   2   2
#     4  10  21  38  61  86 124 165 200 256 309 366
#     4  11  22  38  65  85 118 162 202 253 313 366
#     4  10  21  39  60  87 121 159 200 254 305 365
#     4  10  22  42  58  87 123 157 203 255 309 363
#     4   9  21  36  58  83 122 154 202 255 300 359
#     4  10  21  38  59  87 118 160 200 252 306 365
#     4  10  21  40  61  90 129 158 209 260 304 371
#     4  10  21  37  60  89 120 165 207 246 315 366
#
# _framework density 23.350845
#
# number of rings (size 3 to 8) (size 9 to 14) (size 15 to 20)
#    0.000    2.000    1.250    1.500    3.500    0.000 
#    4.500    0.625    0.000    7.500    0.000    0.000 
#    0.000    0.000    0.000    0.000    0.000    0.000 
#
# Total GULP energy -198297.810717 kJ/mol
# GULP energy per Si atom -12393.613170 kJ/mol
# Density = 2.329770 g / cm^3
# Si number density = 23.350845 Si / 1000 Ang^3
#
#
#
# Elastic Constant Matrix: (Units=GPa)
#
#
# Indices 1 2 3 4 5 6 
#
# 1 64.5648 15.7249 29.5736 -0.2913 8.4262 15.1448
# 2 15.7249 32.9201 12.4496 -3.7570 -5.2420 7.8107
# 3 29.5736 12.4496 115.4966 -2.6729 15.5955 1.9616
# 4 -0.2913 -3.7570 -2.6729 30.5532 3.2517 0.9155
# 5 8.4262 -5.2420 15.5955 3.2517 39.8033 -3.4344
# 6 15.1448 7.8107 1.9616 0.9155 -3.4344 33.4495
#
#
#
# Elastic Compliance Matrix: (Units=1/GPa)
#
#
# Indices 1 2 3 4 5 6 
#
# 1 0.021746 -0.007718 -0.003961 -0.000334 -0.004756 -0.008291
# 2 -0.007718 0.037775 -0.002884 0.003705 0.007045 -0.004535
# 3 -0.003961 -0.002884 0.010463 0.000861 -0.003585 0.001462
# 4 -0.000334 0.003705 0.000861 0.033603 -0.002693 -0.001961
# 5 -0.004756 0.007045 -0.003585 -0.002693 0.029008 0.003771
# 6 -0.008291 -0.004535 0.001462 -0.001961 0.003771 0.035064
#
#
# Mechanical properties :
#
#
# Convention : Reuss Voigt Hill
#
# Bulk Modulus (GPa) = 24.47538 36.49753 30.48646
# Shear Modulus (GPa) = 23.76389 31.11009 27.43699
#
# Velocity S-wave (km/s) = 3.19358 3.65401 3.43153
# Velocity P-wave (km/s) = 4.90948 5.78502 5.36514
#
# Compressibility (1/GPa) = 0.04085738
#
# Stress axis : x y z
#
# Youngs Moduli (GPa) = 45.98479 26.47283 95.57901
#
# Poissons Ratio (x) = 0.20432 0.37859
# Poissons Ratio (y) = 0.35491 0.27565
# Poissons Ratio (z) = 0.18215 0.07635
#
# Static dielectric constant tensor:
#      x y z
#    x 4.257080 0.472470 0.177730 
#    y 0.472470 3.895620 -0.018300 
#    z 0.177730 -0.018300 4.382390 
# 
# 
# High freq. dielectric constant tensor:
#      x y z
#    x 1.923090 0.028570 0.002860 
#    y 0.028570 1.889770 -0.007160 
#    z 0.002860 -0.007160 1.936530 
# 
# From -- ./inp_files/575438.got.cif
#   From: 2010.06.25/outbox.cif.g09.slc.cpg/sg2_288_cif.got.tgz:575438.got - 2010.06.27 13:26:56.
