data_PCOD8009743
_publ_section_title
;
Structure prediction by ZEFSAII (Michael W. Deem and Ramdas Pophale) SiO2 
 PCOD8009743
Probable space group: P -1
;
_chemical_formula_sum "Si O2"
_cell_formula_units_Z 16
_cell_length_a 27.762219
_cell_length_b 7.234273
_cell_length_c 5.175581
_cell_angle_alpha 92.179834
_cell_angle_beta 85.926512
_cell_angle_gamma 45.698957
_cell_volume 736.427706
_symmetry_space_group_name_H-M "P -1"
_symmetry_group_IT_number 2
_symmetry_cell_setting 'triclinic'
loop_
_space_group_symop_operation_xyz
x,y,z
-x,-y,-z
loop_
_atom_site_type_symbol
_atom_site_label
_atom_site_fract_x
_atom_site_fract_y
_atom_site_fract_z
Si Si1 0.056154 0.339836 0.757292
Si Si2 0.708873 0.315387 0.397988
Si Si3 0.712549 0.063173 0.879967
Si Si4 0.560418 0.470763 0.901423
Si Si5 0.558636 0.699871 0.414952
Si Si6 0.036246 0.706330 0.446485
Si Si7 0.829295 0.244963 0.308307
Si Si8 0.161836 0.536973 0.183754
O O1 0.071433 0.510455 0.669492
O O2 0.023601 0.279435 0.570882
O O3 0.127385 0.055675 0.794235
O O4 0.000000 0.500000 0.000000
O O5 0.726476 0.176301 0.658690
O O6 0.631483 0.595667 0.438415
O O7 0.751895 0.385749 0.351710
O O8 0.722121 0.131228 0.158042
O O9 0.636570 0.180539 0.886114
O O10 0.766314 0.754398 0.814359
O O11 0.548999 0.557643 0.612657
O O12 0.500000 0.500000 0.000000
O O13 0.555627 0.652535 0.113694
O O14 0.500000 0.000000 0.500000
O O15 0.098196 0.563683 0.211756
O O16 0.000000 0.000000 0.500000
O O17 0.849808 0.283152 0.573593
O O18 0.840255 0.363509 0.087394
#
# Coordination Sequence:
#
# PCOD8009743 Si02
#       8
#     2   2   2   2   2   2   2   2
#     4  11  26  41  69  93 125 172 206 260 323 372
#     4  10  22  41  62  86 126 162 209 255 306 385
#     4  10  22  41  62  88 121 168 206 250 320 367
#     4  10  21  37  60  89 123 159 206 258 305 375
#     4  10  21  37  60  89 121 164 203 254 315 364
#     4  11  24  45  65  94 129 163 212 262 313 380
#     4  12  26  42  63  96 125 161 212 257 314 373
#     4  12  26  41  66  92 127 163 206 265 309 374
#
# _framework density 21.726503999999998
#
# number of rings (size 3 to 8) (size 9 to 14) (size 15 to 20)
#    0.000    1.250    1.250    3.750    5.250    3.000 
#    0.000    0.000    0.000    0.000    0.000    0.000 
#    0.000    0.000    0.000    0.000    0.000    0.000 
#
# Total GULP energy -198291.512978 kJ/mol
# GULP energy per Si atom -12393.219561 kJ/mol
# Density = 2.167705 g / cm^3
# Si number density = 21.726504 Si / 1000 Ang^3
#
#
#
# Elastic Constant Matrix: (Units=GPa)
#
#
# Indices 1 2 3 4 5 6 
#
# 1 108.7120 29.5335 17.3185 -11.0867 -36.2497 -4.1576
# 2 29.5335 146.1793 18.5163 9.4039 -16.8449 -12.7164
# 3 17.3185 18.5163 92.2777 -1.5890 -16.6368 -2.9845
# 4 -11.0867 9.4039 -1.5890 33.0513 2.1531 -7.9520
# 5 -36.2497 -16.8449 -16.6368 2.1531 40.5132 0.4389
# 6 -4.1576 -12.7164 -2.9845 -7.9520 0.4389 29.4669
#
#
#
# Elastic Compliance Matrix: (Units=1/GPa)
#
#
# Indices 1 2 3 4 5 6 
#
# 1 0.014145 -0.001614 -0.000061 0.005038 0.011666 0.002479
# 2 -0.001614 0.007821 -0.000956 -0.002334 0.001513 0.002398
# 3 -0.000061 -0.000956 0.011871 0.000759 0.004373 0.000921
# 4 0.005038 -0.002334 0.000759 0.034717 0.001905 0.009121
# 5 0.011666 0.001513 0.004373 0.001905 0.037416 0.002699
# 6 0.002479 0.002398 0.000921 0.009121 0.002699 0.037835
#
#
# Mechanical properties :
#
#
# Convention : Reuss Voigt Hill
#
# Bulk Modulus (GPa) = 34.99494 53.10061 44.04778
# Shear Modulus (GPa) = 31.52701 39.39299 35.46000
#
# Velocity S-wave (km/s) = 3.81344 4.26271 4.04432
# Velocity P-wave (km/s) = 5.96086 6.98005 6.49049
#
# Compressibility (1/GPa) = 0.02857556
#
# Stress axis : x y z
#
# Youngs Moduli (GPa) = 70.69427 127.85540 84.23645
#
# Poissons Ratio (x) = 0.20640 0.00511
# Poissons Ratio (y) = 0.11412 0.08056
# Poissons Ratio (z) = 0.00429 0.12227
#
# Static dielectric constant tensor:
#      x y z
#    x 4.002040 -0.444910 -0.096830 
#    y -0.444910 4.059580 -0.140670 
#    z -0.096830 -0.140670 4.194070 
# 
# 
# High freq. dielectric constant tensor:
#      x y z
#    x 1.858560 -0.018330 -0.013350 
#    y -0.018330 1.852230 -0.001270 
#    z -0.013350 -0.001270 1.866170 
# 
# From -- ./inp_files/11387.got.cif
#   From: 2010.06.25/outbox.cif.g09.slc.cpg/sg2_6_cif.got.tgz:11387.got - 2010.06.27 13:26:56.
