data_PCOD8009409
_publ_section_title
;
Structure prediction by ZEFSAII (Michael W. Deem and Ramdas Pophale) SiO2 
 PCOD8009409
Probable space group: P -1
;
_chemical_formula_sum "Si O2"
_cell_formula_units_Z 12
_cell_length_a 17.613125
_cell_length_b 9.875364
_cell_length_c 14.268547
_cell_angle_alpha 129.301854
_cell_angle_beta 22.063477
_cell_angle_gamma 140.640023
_cell_volume 554.042139
_symmetry_space_group_name_H-M "P -1"
_symmetry_group_IT_number 2
_symmetry_cell_setting 'triclinic'
loop_
_space_group_symop_operation_xyz
x,y,z
-x,-y,-z
loop_
_atom_site_type_symbol
_atom_site_label
_atom_site_fract_x
_atom_site_fract_y
_atom_site_fract_z
Si Si1 0.456501 0.297982 0.842021
Si Si2 0.698356 0.142639 0.250214
Si Si3 0.269818 0.475656 0.702032
Si Si4 0.842660 0.578912 0.679816
Si Si5 0.754937 0.033483 0.748564
Si Si6 0.833469 0.697144 0.460539
O O1 0.587698 0.364956 0.823836
O O2 0.670624 0.443336 0.578135
O O3 0.312957 0.034446 0.879110
O O4 0.245922 0.341715 0.099475
O O5 0.615519 0.268409 0.340877
O O6 0.500000 0.000000 0.500000
O O7 0.009713 0.342713 0.008692
O O8 0.500000 0.500000 0.500000
O O9 0.175508 0.322767 0.649408
O O10 0.000000 0.500000 0.500000
O O11 0.011280 0.791849 0.512062
O O12 0.864125 0.135909 0.773563
O O13 0.689716 0.793191 0.704493
O O14 0.500000 0.000000 0.000000
#
# Coordination Sequence:
#
# PCOD8009409 Si02
#       6
#     2   2   2   2   2   2
#     4  10  21  40  64  88 129 171 213 271 329 393
#     4  11  24  46  69  95 133 181 224 282 336 395
#     4  11  26  45  68 100 133 181 232 277 336 404
#     4  10  21  37  60  96 124 164 215 266 332 393
#     4  10  21  36  63  92 125 168 209 271 335 391
#     4  10  21  41  61  90 131 168 215 274 329 389
#
# _framework density 21.659002000000001
#
# number of rings (size 3 to 8) (size 9 to 14) (size 15 to 20)
#    0.000    1.667    1.667    2.000    0.000   10.000 
#    3.000    0.000    0.000    0.000    0.000    0.000 
#    0.000    0.000    0.000    0.000    0.000    0.000 
#
# Total GULP energy -148762.692031 kJ/mol
# GULP energy per Si atom -12396.891003 kJ/mol
# Density = 2.160971 g / cm^3
# Si number density = 21.659002 Si / 1000 Ang^3
#
#
#
# Elastic Constant Matrix: (Units=GPa)
#
#
# Indices 1 2 3 4 5 6 
#
# 1 110.7082 46.5412 60.2588 9.7699 -18.9966 -3.5672
# 2 46.5412 149.7924 49.3039 3.4801 -10.7173 -10.7820
# 3 60.2588 49.3039 129.5539 5.0834 -19.5554 -11.1139
# 4 9.7699 3.4801 5.0834 37.8915 -15.7301 -0.0003
# 5 -18.9966 -10.7173 -19.5554 -15.7301 43.4470 7.1696
# 6 -3.5672 -10.7820 -11.1139 -0.0003 7.1696 30.2201
#
#
#
# Elastic Compliance Matrix: (Units=1/GPa)
#
#
# Indices 1 2 3 4 5 6 
#
# 1 0.013269 -0.002393 -0.004939 -0.001386 0.002778 -0.001763
# 2 -0.002393 0.008158 -0.001849 0.000041 -0.000180 0.001991
# 3 -0.004939 -0.001849 0.011245 0.000931 0.002399 0.002323
# 4 -0.001386 0.000041 0.000931 0.031449 0.011633 -0.002566
# 5 0.002778 -0.000180 0.002399 0.011633 0.030482 -0.006086
# 6 -0.001763 0.001991 0.002323 -0.002566 -0.006086 0.035891
#
#
# Mechanical properties :
#
#
# Convention : Reuss Voigt Hill
#
# Bulk Modulus (GPa) = 69.88641 78.02914 73.95778
# Shear Modulus (GPa) = 32.54667 37.90845 35.22756
#
# Velocity S-wave (km/s) = 3.88065 4.18813 4.03732
# Velocity P-wave (km/s) = 7.23989 7.71308 7.48023
#
# Compressibility (1/GPa) = 0.01430893
#
# Stress axis : x y z
#
# Youngs Moduli (GPa) = 75.36346 122.58423 88.93137
#
# Poissons Ratio (x) = 0.29337 0.43919
# Poissons Ratio (y) = 0.18036 0.16447
# Poissons Ratio (z) = 0.37219 0.22671
#
# Static dielectric constant tensor:
#      x y z
#    x 2.026670 0.122510 0.267090 
#    y 0.122510 4.175360 -0.132780 
#    z 0.267090 -0.132780 4.024100 
# 
# 
# High freq. dielectric constant tensor:
#      x y z
#    x 1.825290 -0.008720 0.007600 
#    y -0.008720 1.872510 -0.003810 
#    z 0.007600 -0.003810 1.856350 
# 
# From -- ./inp_files/119389.got.cif
#   From: 2010.06.25/outbox.cif.g09.slc.cpg/sg2_60_cif.got.tgz:119389.got - 2010.06.27 13:26:56.
