data_PCOD8009427
_publ_section_title
;
Structure prediction by ZEFSAII (Michael W. Deem and Ramdas Pophale) SiO2 
 PCOD8009427
Probable space group: P -1
;
_chemical_formula_sum "Si O2"
_cell_formula_units_Z 16
_cell_length_a 15.581725
_cell_length_b 9.050612
_cell_length_c 8.959501
_cell_angle_alpha 81.316825
_cell_angle_beta 110.520644
_cell_angle_gamma 139.593828
_cell_volume 752.914660
_symmetry_space_group_name_H-M "P -1"
_symmetry_group_IT_number 2
_symmetry_cell_setting 'triclinic'
loop_
_space_group_symop_operation_xyz
x,y,z
-x,-y,-z
loop_
_atom_site_type_symbol
_atom_site_label
_atom_site_fract_x
_atom_site_fract_y
_atom_site_fract_z
Si Si1 0.418428 0.522213 0.536529
Si Si2 0.620837 0.981903 0.968481
Si Si3 0.193914 0.214241 0.216577
Si Si4 0.297588 0.014493 0.285415
Si Si5 0.841178 0.247368 0.467495
Si Si6 0.871612 0.797505 0.148261
Si Si7 0.726170 0.853838 0.250723
Si Si8 0.311106 0.697515 0.806462
O O1 0.500000 0.500000 0.500000
O O2 0.289652 0.421339 0.367462
O O3 0.535013 0.797443 0.595210
O O4 0.364572 0.383912 0.680594
O O5 0.723552 0.087647 0.872782
O O6 0.458626 0.799535 0.844397
O O7 0.624838 0.843345 0.102149
O O8 0.678998 0.205406 0.044325
O O9 0.266089 0.149010 0.229481
O O10 0.183036 0.287819 0.042546
O O11 0.040763 0.000544 0.229896
O O12 0.186913 0.806108 0.365835
O O13 0.726413 0.227287 0.351843
O O14 0.000000 0.500000 0.500000
O O15 0.819591 0.063884 0.395157
O O16 0.825026 0.893024 0.185073
O O17 0.812836 0.579691 0.230421
#
# Coordination Sequence:
#
# PCOD8009427 Si02
#       8
#     2   2   2   2   2   2   2   2
#     4  10  21  36  63  98 122 163 207 275 314 362
#     4  10  23  42  65  96 126 172 217 259 320 386
#     4  10  22  40  61  97 129 161 210 276 314 372
#     4  11  21  43  68  93 128 170 219 259 320 379
#     4  11  24  45  64  91 135 175 210 257 321 391
#     4  11  23  41  65  94 131 166 214 265 321 377
#     4  11  22  41  69  93 126 173 218 259 322 382
#     4  10  24  41  63  94 131 169 209 268 318 379
#
# _framework density 21.250748000000002
#
# number of rings (size 3 to 8) (size 9 to 14) (size 15 to 20)
#    0.000    1.500    3.750    1.500    3.500    3.000 
#    6.750    1.875    0.000    0.000    0.000    0.000 
#    0.000    0.000    0.000    0.000    0.000    0.000 
#
# Total GULP energy -198370.666905 kJ/mol
# GULP energy per Si atom -12398.166682 kJ/mol
# Density = 2.120238 g / cm^3
# Si number density = 21.250748 Si / 1000 Ang^3
#
#
#
# Elastic Constant Matrix: (Units=GPa)
#
#
# Indices 1 2 3 4 5 6 
#
# 1 81.1748 17.8984 22.4933 6.1247 -13.3312 7.7591
# 2 17.8984 85.0404 17.7520 -4.5449 -8.2940 13.4395
# 3 22.4933 17.7520 81.6543 -5.8708 -6.7939 14.9503
# 4 6.1247 -4.5449 -5.8708 22.8976 12.1557 4.2144
# 5 -13.3312 -8.2940 -6.7939 12.1557 31.3535 -2.6696
# 6 7.7591 13.4395 14.9503 4.2144 -2.6696 27.9970
#
#
#
# Elastic Compliance Matrix: (Units=1/GPa)
#
#
# Indices 1 2 3 4 5 6 
#
# 1 0.016418 -0.002459 -0.004284 -0.011607 0.010040 0.001622
# 2 -0.002459 0.013653 -0.000875 0.004100 0.000277 -0.005996
# 3 -0.004284 -0.000875 0.015439 0.007658 -0.002359 -0.008015
# 4 -0.011607 0.004100 0.007658 0.068486 -0.030107 -0.016021
# 5 0.010040 0.000277 -0.002359 -0.030107 0.048033 0.007457
# 6 0.001622 -0.005996 -0.008015 -0.016021 0.007457 0.045549
#
#
# Mechanical properties :
#
#
# Convention : Reuss Voigt Hill
#
# Bulk Modulus (GPa) = 33.03248 40.46187 36.74717
# Shear Modulus (GPa) = 21.46793 29.09800 25.28297
#
# Velocity S-wave (km/s) = 3.18184 3.70438 3.45301
# Velocity P-wave (km/s) = 5.39228 6.11376 5.76432
#
# Compressibility (1/GPa) = 0.03027323
#
# Stress axis : x y z
#
# Youngs Moduli (GPa) = 60.90929 73.24417 64.77112
#
# Poissons Ratio (x) = 0.18008 0.27750
# Poissons Ratio (y) = 0.14975 0.05670
# Poissons Ratio (z) = 0.26095 0.06411
#
# Static dielectric constant tensor:
#      x y z
#    x 3.718300 -0.174420 -0.136790 
#    y -0.174420 3.240510 -0.021640 
#    z -0.136790 -0.021640 4.083270 
# 
# 
# High freq. dielectric constant tensor:
#      x y z
#    x 1.833110 0.008980 -0.004860 
#    y 0.008980 1.818920 0.001550 
#    z -0.004860 0.001550 1.841640 
# 
# From -- ./inp_files/205331.got.cif
#   From: 2010.06.25/outbox.cif.g09.slc.cpg/sg2_103_cif.got.tgz:205331.got - 2010.06.27 13:26:56.
