data_PCOD8009173
_publ_section_title
;
Structure prediction by ZEFSAII (Michael W. Deem and Ramdas Pophale) SiO2 
 PCOD8009173
Probable space group: P -1
;
_chemical_formula_sum "Si O2"
_cell_formula_units_Z 12
_cell_length_a 11.554374
_cell_length_b 8.530948
_cell_length_c 10.081146
_cell_angle_alpha 53.199436
_cell_angle_beta 112.124590
_cell_angle_gamma 125.734242
_cell_volume 645.331166
_symmetry_space_group_name_H-M "P -1"
_symmetry_group_IT_number 2
_symmetry_cell_setting 'triclinic'
loop_
_space_group_symop_operation_xyz
x,y,z
-x,-y,-z
loop_
_atom_site_type_symbol
_atom_site_label
_atom_site_fract_x
_atom_site_fract_y
_atom_site_fract_z
Si Si1 0.735945 0.041700 0.074178
Si Si2 0.576483 0.763663 0.392637
Si Si3 0.708035 0.827428 0.688536
Si Si4 0.560279 0.939531 0.792304
Si Si5 0.039716 0.138743 0.080170
Si Si6 0.298676 0.578828 0.997736
O O1 0.717050 0.255277 0.990784
O O2 0.901480 0.112235 0.109138
O O3 0.658106 0.848279 0.246635
O O4 0.665974 0.945909 0.950347
O O5 0.500000 0.500000 0.500000
O O6 0.693316 0.869447 0.506944
O O7 0.456796 0.839767 0.321685
O O8 0.875731 0.947192 0.741688
O O9 0.625384 0.929516 0.684968
O O10 0.638594 0.560359 0.823775
O O11 0.406111 0.719544 0.855297
O O12 0.144785 0.402297 0.958300
O O13 0.000000 0.000000 0.000000
#
# Coordination Sequence:
#
# PCOD8009173 Si02
#       6
#     2   2   2   2   2   2
#     4  11  20  38  61  85 114 152 192 233 281 343
#     4  11  23  37  57  88 117 148 191 239 287 328
#     4  10  21  36  58  84 120 145 188 232 290 326
#     4  11  20  37  63  84 114 150 195 234 280 338
#     4  10  21  37  59  85 117 150 191 232 282 341
#     4   9  20  34  60  88 109 147 196 230 281 331
#
# _framework density 18.595103999999999
#
# number of rings (size 3 to 8) (size 9 to 14) (size 15 to 20)
#    1.000    0.667    1.667    5.500    0.000    2.000 
#    0.000    0.000    0.000    5.000    0.000    0.000 
#    0.000    0.000    0.000    0.000    0.000    0.000 
#
# Total GULP energy -148767.413597 kJ/mol
# GULP energy per Si atom -12397.284466 kJ/mol
# Density = 1.855278 g / cm^3
# Si number density = 18.595104 Si / 1000 Ang^3
#
#
#
# Elastic Constant Matrix: (Units=GPa)
#
#
# Indices 1 2 3 4 5 6 
#
# 1 109.1246 25.9440 20.1893 -6.6656 8.4772 8.7063
# 2 25.9440 92.4857 32.0632 -2.6370 -4.0212 9.7325
# 3 20.1893 32.0632 84.6528 10.9300 11.8141 0.0702
# 4 -6.6656 -2.6370 10.9300 37.8257 -2.0549 6.0013
# 5 8.4772 -4.0212 11.8141 -2.0549 18.5172 5.2858
# 6 8.7063 9.7325 0.0702 6.0013 5.2858 26.4124
#
#
#
# Elastic Compliance Matrix: (Units=1/GPa)
#
#
# Indices 1 2 3 4 5 6 
#
# 1 0.010588 -0.002273 -0.001489 0.002348 -0.003417 -0.002498
# 2 -0.002273 0.015752 -0.007804 0.005005 0.012469 -0.008667
# 3 -0.001489 -0.007804 0.018444 -0.008350 -0.016116 0.008440
# 4 0.002348 0.005005 -0.008350 0.032260 0.012465 -0.012421
# 5 -0.003417 0.012469 -0.016116 0.012465 0.076074 -0.021482
# 6 -0.002498 -0.008667 0.008440 -0.012421 -0.021482 0.048977
#
#
# Mechanical properties :
#
#
# Convention : Reuss Voigt Hill
#
# Bulk Modulus (GPa) = 46.18001 49.18400 47.68201
# Shear Modulus (GPa) = 21.51062 30.42219 25.96640
#
# Velocity S-wave (km/s) = 3.40485 4.04918 3.74091
# Velocity P-wave (km/s) = 6.35183 6.95475 6.66012
#
# Compressibility (1/GPa) = 0.02165439
#
# Stress axis : x y z
#
# Youngs Moduli (GPa) = 94.44849 63.48263 54.21820
#
# Poissons Ratio (x) = 0.14428 0.08070
# Poissons Ratio (y) = 0.21466 0.42310
# Poissons Ratio (z) = 0.14059 0.49539
#
# Static dielectric constant tensor:
#      x y z
#    x 3.542690 0.029550 0.124230 
#    y 0.029550 3.376420 0.051810 
#    z 0.124230 0.051810 3.259300 
# 
# 
# High freq. dielectric constant tensor:
#      x y z
#    x 1.727290 -0.008380 0.006790 
#    y -0.008380 1.722930 0.009460 
#    z 0.006790 0.009460 1.705070 
# 
# From -- ./inp_files/156957.got.cif
#   From: 2010.06.25/outbox.cif.g09.slc.cpg/sg2_79_cif.got.tgz:156957.got - 2010.06.27 13:26:56.
