data_PCOD8009403
_publ_section_title
;
Structure prediction by ZEFSAII (Michael W. Deem and Ramdas Pophale) SiO2 
 PCOD8009403
Probable space group: P -1
;
_chemical_formula_sum "Si O2"
_cell_formula_units_Z 16
_cell_length_a 11.683969
_cell_length_b 9.785902
_cell_length_c 14.761684
_cell_angle_alpha 77.862425
_cell_angle_beta 151.051461
_cell_angle_gamma 93.618465
_cell_volume 772.187625
_symmetry_space_group_name_H-M "P -1"
_symmetry_group_IT_number 2
_symmetry_cell_setting 'triclinic'
loop_
_space_group_symop_operation_xyz
x,y,z
-x,-y,-z
loop_
_atom_site_type_symbol
_atom_site_label
_atom_site_fract_x
_atom_site_fract_y
_atom_site_fract_z
Si Si1 0.505599 0.342028 0.990716
Si Si2 0.512735 0.189502 0.474973
Si Si3 0.770100 0.717301 0.566035
Si Si4 0.218933 0.685321 0.996220
Si Si5 0.904092 0.945014 0.847398
Si Si6 0.570852 0.464425 0.382448
Si Si7 0.973797 0.159579 0.428504
Si Si8 0.009022 0.356966 0.581431
O O1 0.575155 0.312993 0.936694
O O2 0.691310 0.228431 0.197742
O O3 0.500000 0.500000 0.000000
O O4 0.230146 0.325147 0.812115
O O5 0.443618 0.185596 0.534276
O O6 0.315007 0.138436 0.280815
O O7 0.515051 0.353750 0.432488
O O8 0.784665 0.079423 0.677743
O O9 0.703941 0.580610 0.495932
O O10 0.848191 0.822863 0.532821
O O11 0.993226 0.646693 0.796290
O O12 0.135727 0.838076 0.971960
O O13 0.317231 0.553374 0.151381
O O14 0.000000 0.000000 0.000000
O O15 0.750968 0.366145 0.448735
O O16 0.062100 0.227089 0.567470
O O17 0.000000 0.000000 0.500000
O O18 0.000000 0.500000 0.500000
#
# Coordination Sequence:
#
# PCOD8009403 Si02
#       8
#     2   2   2   2   2   2   2   2
#     4  11  20  40  65  91 124 165 211 264 323 380
#     4  10  24  40  62  92 125 164 209 257 311 378
#     4  10  21  40  62  89 126 161 206 263 320 369
#     4  10  21  36  63  91 118 163 208 257 314 375
#     4  10  22  42  61  85 127 169 203 257 316 372
#     4  12  22  38  65  93 123 163 212 257 312 379
#     4  11  24  40  65  96 126 165 215 269 322 379
#     4  12  21  39  64  91 125 169 210 258 321 376
#
# _framework density 20.720351999999998
#
# number of rings (size 3 to 8) (size 9 to 14) (size 15 to 20)
#    0.000    1.250    3.750    1.875    0.000    7.500 
#    0.000    2.500    0.000    0.000    0.000    0.000 
#    0.000    0.000    0.000    0.000    0.000    0.000 
#
# Total GULP energy -198319.342702 kJ/mol
# GULP energy per Si atom -12394.958919 kJ/mol
# Density = 2.067319 g / cm^3
# Si number density = 20.720352 Si / 1000 Ang^3
#
#
#
# Elastic Constant Matrix: (Units=GPa)
#
#
# Indices 1 2 3 4 5 6 
#
# 1 99.5377 58.5182 38.9050 -8.6005 0.4360 -9.6108
# 2 58.5182 140.6720 62.2915 -13.6054 -16.0968 9.6374
# 3 38.9050 62.2915 127.7220 -11.6496 -10.0010 3.1215
# 4 -8.6005 -13.6054 -11.6496 41.4310 -6.4345 -4.2367
# 5 0.4360 -16.0968 -10.0010 -6.4345 27.7133 -3.6485
# 6 -9.6108 9.6374 3.1215 -4.2367 -3.6485 36.7060
#
#
#
# Elastic Compliance Matrix: (Units=1/GPa)
#
#
# Indices 1 2 3 4 5 6 
#
# 1 0.014980 -0.006100 -0.001956 0.000541 -0.003650 0.005390
# 2 -0.006100 0.012318 -0.003362 0.002409 0.006115 -0.003660
# 3 -0.001956 -0.003362 0.010401 0.001751 0.002226 -0.000091
# 4 0.000541 0.002409 0.001751 0.027243 0.008793 0.003379
# 5 -0.003650 0.006115 0.002226 0.008793 0.042871 0.002526
# 6 0.005390 -0.003660 -0.000091 0.003379 0.002526 0.030264
#
#
# Mechanical properties :
#
#
# Convention : Reuss Voigt Hill
#
# Bulk Modulus (GPa) = 67.27629 76.37345 71.82487
# Shear Modulus (GPa) = 30.14427 35.05119 32.59773
#
# Velocity S-wave (km/s) = 3.81834 4.11741 3.97069
# Velocity P-wave (km/s) = 7.20963 7.71642 7.46733
#
# Compressibility (1/GPa) = 0.01486408
#
# Stress axis : x y z
#
# Youngs Moduli (GPa) = 66.75387 81.17958 96.14289
#
# Poissons Ratio (x) = 0.49520 0.18808
# Poissons Ratio (y) = 0.40720 0.32320
# Poissons Ratio (z) = 0.13059 0.27290
#
# Static dielectric constant tensor:
#      x y z
#    x 3.961310 -0.279160 0.142810 
#    y -0.279160 3.654070 0.016470 
#    z 0.142810 0.016470 3.841840 
# 
# 
# High freq. dielectric constant tensor:
#      x y z
#    x 1.795990 -0.024840 0.005030 
#    y -0.024840 1.808870 0.001540 
#    z 0.005030 0.001540 1.827860 
# 
# From -- ./inp_files/515568.got.cif
#   From: 2010.06.25/outbox.cif.g09.slc.cpg/sg2_258_cif.got.tgz:515568.got - 2010.06.27 13:26:56.
