data_PCOD8009860
_publ_section_title
;
Structure prediction by ZEFSAII (Michael W. Deem and Ramdas Pophale) SiO2 
 PCOD8009860
Probable space group: P -1
;
_chemical_formula_sum "Si O2"
_cell_formula_units_Z 16
_cell_length_a 9.023209
_cell_length_b 20.035351
_cell_length_c 14.502033
_cell_angle_alpha 141.621388
_cell_angle_beta 147.986640
_cell_angle_gamma 38.559563
_cell_volume 806.264208
_symmetry_space_group_name_H-M "P -1"
_symmetry_group_IT_number 2
_symmetry_cell_setting 'triclinic'
loop_
_space_group_symop_operation_xyz
x,y,z
-x,-y,-z
loop_
_atom_site_type_symbol
_atom_site_label
_atom_site_fract_x
_atom_site_fract_y
_atom_site_fract_z
Si Si1 0.948434 0.344194 0.557369
Si Si2 0.865791 0.178145 0.555376
Si Si3 0.855777 0.419435 0.786793
Si Si4 0.779560 0.917162 0.614096
Si Si5 0.417968 0.933841 0.966130
Si Si6 0.425405 0.969530 0.659017
Si Si7 0.835848 0.512828 0.524527
Si Si8 0.437111 0.285288 0.282284
O O1 0.005050 0.400616 0.743402
O O2 0.014150 0.405962 0.568339
O O3 0.595497 0.359081 0.387850
O O4 0.163131 0.212068 0.527964
O O5 0.921790 0.296009 0.739742
O O6 0.688400 0.199683 0.389288
O O7 0.172304 0.072674 0.584188
O O8 0.684192 0.137343 0.493677
O O9 0.498640 0.482761 0.664473
O O10 0.000000 0.500000 0.000000
O O11 0.069667 0.951843 0.795273
O O12 0.500000 0.000000 0.500000
O O13 0.708950 0.923123 0.692284
O O14 0.639432 0.799304 0.921751
O O15 0.489585 0.978537 0.148286
O O16 0.500000 0.000000 0.000000
O O17 0.829707 0.628843 0.702566
O O18 0.000000 0.500000 0.500000
#
# Coordination Sequence:
#
# PCOD8009860 Si02
#       8
#     2   2   2   2   2   2   2   2
#     4   9  20  37  62  83 117 160 193 234 302 360
#     4   9  20  36  62  87 119 163 198 238 314 358
#     4  10  21  40  64  85 118 155 205 247 299 361
#     4  11  24  40  62  89 125 158 199 248 302 359
#     4  11  22  37  59  92 122 155 203 247 295 359
#     4  11  21  36  63  89 124 157 205 245 300 361
#     4  10  21  37  62  87 116 157 201 243 299 350
#     4   9  18  38  56  83 121 157 194 238 297 364
#
# _framework density 19.844609999999999
#
# number of rings (size 3 to 8) (size 9 to 14) (size 15 to 20)
#    0.000    2.250    1.250    4.125    5.250    3.000 
#    0.000    4.375    0.000    0.000    0.000    0.000 
#    0.000    0.000    0.000    0.000    0.000    0.000 
#
# Total GULP energy -198257.054896 kJ/mol
# GULP energy per Si atom -12391.065931 kJ/mol
# Density = 1.979944 g / cm^3
# Si number density = 19.844610 Si / 1000 Ang^3
#
#
#
# Elastic Constant Matrix: (Units=GPa)
#
#
# Indices 1 2 3 4 5 6 
#
# 1 162.1845 64.7062 46.9297 16.6167 -6.2188 -7.1898
# 2 64.7062 110.8477 45.2855 13.5706 -0.5591 7.5557
# 3 46.9297 45.2855 87.0198 27.9331 -2.7012 -2.3259
# 4 16.6167 13.5706 27.9331 37.1513 -4.9461 -2.4570
# 5 -6.2188 -0.5591 -2.7012 -4.9461 28.3563 5.3276
# 6 -7.1898 7.5557 -2.3259 -2.4570 5.3276 38.1953
#
#
#
# Elastic Compliance Matrix: (Units=1/GPa)
#
#
# Indices 1 2 3 4 5 6 
#
# 1 0.008692 -0.004243 -0.002281 -0.000328 0.001143 0.002156
# 2 -0.004243 0.013802 -0.005143 0.000425 -0.000367 -0.003763
# 3 -0.002281 -0.005143 0.019094 -0.011516 -0.001008 0.001150
# 4 -0.000328 0.000425 -0.011516 0.036287 0.005021 0.000787
# 5 0.001143 -0.000367 -0.001008 0.005021 0.037159 -0.004634
# 6 0.002156 -0.003763 0.001150 0.000787 -0.004634 0.028099
#
#
# Mechanical properties :
#
#
# Convention : Reuss Voigt Hill
#
# Bulk Modulus (GPa) = 54.78212 74.87719 64.82965
# Shear Modulus (GPa) = 28.97704 34.28263 31.62984
#
# Velocity S-wave (km/s) = 3.82540 4.16089 3.99667
# Velocity P-wave (km/s) = 6.86855 7.80370 7.35101
#
# Compressibility (1/GPa) = 0.01825413
#
# Stress axis : x y z
#
# Youngs Moduli (GPa) = 115.05382 72.45473 52.37215
#
# Poissons Ratio (x) = 0.30741 0.11946
# Poissons Ratio (y) = 0.48815 0.26934
# Poissons Ratio (z) = 0.26244 0.37262
#
# Static dielectric constant tensor:
#      x y z
#    x 25.346200 -13.258580 -24.770290 
#    y -13.258580 11.927120 15.517640 
#    z -24.770290 15.517640 31.907020 
# 
# 
# High freq. dielectric constant tensor:
#      x y z
#    x 1.784800 0.004080 -0.011090 
#    y 0.004080 1.780150 0.019330 
#    z -0.011090 0.019330 1.744610 
# 
# From -- ./inp_files/341771.got.cif
#   From: 2010.06.25/outbox.cif.g09.slc.cpg/sg2_171_cif.got.tgz:341771.got - 2010.06.27 13:26:56.
