data_PCOD8009563
_publ_section_title
;
Structure prediction by ZEFSAII (Michael W. Deem and Ramdas Pophale) SiO2 
 PCOD8009563
Probable space group: P -1
;
_chemical_formula_sum "Si O2"
_cell_formula_units_Z 16
_cell_length_a 15.038856
_cell_length_b 12.118159
_cell_length_c 9.774427
_cell_angle_alpha 65.972350
_cell_angle_beta 77.599573
_cell_angle_gamma 30.280152
_cell_volume 783.289877
_symmetry_space_group_name_H-M "P -1"
_symmetry_group_IT_number 2
_symmetry_cell_setting 'triclinic'
loop_
_space_group_symop_operation_xyz
x,y,z
-x,-y,-z
loop_
_atom_site_type_symbol
_atom_site_label
_atom_site_fract_x
_atom_site_fract_y
_atom_site_fract_z
Si Si1 0.473096 0.427462 0.349624
Si Si2 0.171603 0.141086 0.882956
Si Si3 0.003439 0.159236 0.287619
Si Si4 0.704126 0.360161 0.420212
Si Si5 0.876281 0.057941 0.925344
Si Si6 0.589972 0.058556 0.342472
Si Si7 0.846136 0.766125 0.863754
Si Si8 0.750681 0.711979 0.693950
O O1 0.589332 0.418097 0.315658
O O2 0.429415 0.438126 0.516075
O O3 0.287621 0.668815 0.209129
O O4 0.580691 0.195941 0.356327
O O5 0.962060 0.425129 0.779030
O O6 0.307321 0.048657 0.780713
O O7 0.249252 0.076757 0.044360
O O8 0.189403 0.976505 0.939786
O O9 0.060679 0.232362 0.255660
O O10 0.803136 0.361355 0.317496
O O11 0.151716 0.901300 0.436321
O O12 0.998154 0.141913 0.136426
O O13 0.000000 0.000000 0.000000
O O14 0.385878 0.244915 0.280166
O O15 0.712366 0.824869 0.508017
O O16 0.708825 0.851512 0.764903
O O17 0.000000 0.500000 0.000000
#
# Coordination Sequence:
#
# PCOD8009563 Si02
#       8
#     2   2   2   2   2   2   2   2
#     4  10  21  38  57  90 126 150 192 254 298 360
#     4  10  22  41  62  87 120 163 201 244 302 360
#     4   9  18  36  61  86 112 158 203 240 298 359
#     4   9  19  37  60  88 117 153 200 246 301 358
#     4  10  21  37  57  85 125 156 193 240 301 369
#     4  11  23  39  63  92 121 157 201 252 307 352
#     4   9  19  39  60  85 118 155 202 249 289 357
#     4  10  22  43  62  86 123 156 208 255 292 353
#
# _framework density 20.426666000000001
#
# number of rings (size 3 to 8) (size 9 to 14) (size 15 to 20)
#    0.000    2.250    0.000    1.875    1.750    2.000 
#   22.500    0.000    0.000    0.000    0.000    0.000 
#    0.000    0.000    0.000    0.000    0.000    0.000 
#
# Total GULP energy -198350.540224 kJ/mol
# GULP energy per Si atom -12396.908764 kJ/mol
# Density = 2.038017 g / cm^3
# Si number density = 20.426666 Si / 1000 Ang^3
#
#
#
# Elastic Constant Matrix: (Units=GPa)
#
#
# Indices 1 2 3 4 5 6 
#
# 1 108.2275 27.4249 47.3193 15.1362 9.7145 2.7032
# 2 27.4249 60.8962 14.4576 17.0473 -6.4264 -6.1044
# 3 47.3193 14.4576 74.5713 18.1021 -3.9703 -7.7632
# 4 15.1362 17.0473 18.1021 22.1781 -2.2498 -6.5042
# 5 9.7145 -6.4264 -3.9703 -2.2498 39.2788 0.9657
# 6 2.7032 -6.1044 -7.7632 -6.5042 0.9657 28.1743
#
#
#
# Elastic Compliance Matrix: (Units=1/GPa)
#
#
# Indices 1 2 3 4 5 6 
#
# 1 0.015546 -0.005705 -0.009457 -0.000628 -0.005640 -0.005285
# 2 -0.005705 0.023288 0.003404 -0.015497 0.004609 0.002795
# 3 -0.009457 0.003404 0.022573 -0.012747 0.004330 0.004773
# 4 -0.000628 -0.015497 -0.012747 0.070633 0.000144 0.009491
# 5 -0.005640 0.004609 0.004330 0.000144 0.028010 0.001806
# 6 -0.005285 0.002795 0.004773 0.009491 0.001806 0.040051
#
#
# Mechanical properties :
#
#
# Convention : Reuss Voigt Hill
#
# Bulk Modulus (GPa) = 26.39240 46.89985 36.64612
# Shear Modulus (GPa) = 21.16431 28.22578 24.69505
#
# Velocity S-wave (km/s) = 3.22236 3.72130 3.48078
# Velocity P-wave (km/s) = 5.17624 6.44004 5.84241
#
# Compressibility (1/GPa) = 0.03788970
#
# Stress axis : x y z
#
# Youngs Moduli (GPa) = 64.32330 42.94133 44.30095
#
# Poissons Ratio (x) = 0.24500 0.41895
# Poissons Ratio (y) = 0.36699 -0.15079
# Poissons Ratio (z) = 0.60830 -0.14616
#
# Static dielectric constant tensor:
#      x y z
#    x 3.663420 -0.099500 0.072830 
#    y -0.099500 3.495880 0.086490 
#    z 0.072830 0.086490 3.920770 
# 
# 
# High freq. dielectric constant tensor:
#      x y z
#    x 1.807470 0.005620 0.002250 
#    y 0.005620 1.776990 -0.002990 
#    z 0.002250 -0.002990 1.806320 
# 
# From -- ./inp_files/307028.got.cif
#   From: 2010.06.25/outbox.cif.g09.slc.cpg/sg2_154_cif.got.tgz:307028.got - 2010.06.27 13:26:56.
