data_PCOD8009007
_publ_section_title
;
Structure prediction by ZEFSAII (Michael W. Deem and Ramdas Pophale) SiO2 
 PCOD8009007
Probable space group: P -1
;
_chemical_formula_sum "Si O2"
_cell_formula_units_Z 10
_cell_length_a 15.296097
_cell_length_b 5.224943
_cell_length_c 7.987709
_cell_angle_alpha 81.564829
_cell_angle_beta 63.739774
_cell_angle_gamma 58.953253
_cell_volume 487.722194
_symmetry_space_group_name_H-M "P -1"
_symmetry_group_IT_number 2
_symmetry_cell_setting 'triclinic'
loop_
_space_group_symop_operation_xyz
x,y,z
-x,-y,-z
loop_
_atom_site_type_symbol
_atom_site_label
_atom_site_fract_x
_atom_site_fract_y
_atom_site_fract_z
Si Si1 0.481685 0.299196 0.903131
Si Si2 0.027706 0.187268 0.085645
Si Si3 0.188923 0.616505 0.596302
Si Si4 0.308796 0.954195 0.480887
Si Si5 0.735652 0.277472 0.146936
O O1 0.567067 0.219933 0.684581
O O2 0.354656 0.479447 0.924860
O O3 0.500000 0.500000 0.000000
O O4 0.500000 0.000000 0.000000
O O5 0.947349 0.249316 0.311387
O O6 0.000000 0.500000 0.000000
O O7 0.161908 0.978277 0.029195
O O8 0.000000 0.000000 0.000000
O O9 0.227631 0.845987 0.471848
O O10 0.221644 0.559802 0.773341
O O11 0.253212 0.309764 0.466186
O O12 0.318691 0.880640 0.678630
#
# Coordination Sequence:
#
# PCOD8009007 Si02
#       5
#     2   2   2   2   2
#     4  12  27  40  55  80 119 157 188 228 280 333
#     4  10  16  31  55  95 111 131 176 245 283 319
#     4   9  18  32  62  91 107 135 185 244 279 320
#     4  10  20  37  60  82 113 142 194 233 275 324
#     4   9  22  35  64  83 114 144 192 228 278 330
#
# _framework density 20.503474000000001
#
# number of rings (size 3 to 8) (size 9 to 14) (size 15 to 20)
#    1.200    0.800    2.000    1.800    2.800    0.800 
#    0.000    0.000    0.000    7.200    0.000    0.000 
#    0.000    0.000    0.000    0.000    0.000    0.000 
#
# Total GULP energy -123880.472988 kJ/mol
# GULP energy per Si atom -12388.047299 kJ/mol
# Density = 2.045681 g / cm^3
# Si number density = 20.503474 Si / 1000 Ang^3
#
#
#
# Elastic Constant Matrix: (Units=GPa)
#
#
# Indices 1 2 3 4 5 6 
#
# 1 69.5385 63.3175 41.5335 8.1026 -20.4911 3.5027
# 2 63.3175 156.4030 53.2622 26.2336 -20.2089 7.4594
# 3 41.5335 53.2622 56.7718 14.8454 -20.7221 -22.6306
# 4 8.1026 26.2336 14.8454 37.1809 -0.4926 -13.5532
# 5 -20.4911 -20.2089 -20.7221 -0.4926 29.5710 7.6644
# 6 3.5027 7.4594 -22.6306 -13.5532 7.6644 48.5885
#
#
#
# Elastic Compliance Matrix: (Units=1/GPa)
#
#
# Indices 1 2 3 4 5 6 
#
# 1 0.037414 -0.004200 -0.026563 -0.000245 0.008543 -0.015840
# 2 -0.004200 0.013771 -0.011206 -0.007715 0.000937 -0.009331
# 3 -0.026563 -0.011206 0.064178 -0.000200 0.010665 0.031789
# 4 -0.000245 -0.007715 -0.000200 0.037005 -0.008267 0.012735
# 5 0.008543 0.000937 0.010665 -0.008267 0.049233 -0.005864
# 6 -0.015840 -0.009331 0.031789 0.012735 -0.005864 0.042438
#
#
# Mechanical properties :
#
#
# Convention : Reuss Voigt Hill
#
# Bulk Modulus (GPa) = 31.82341 66.54887 49.18614
# Shear Modulus (GPa) = 14.77306 31.37476 23.07391
#
# Velocity S-wave (km/s) = 2.68715 3.91604 3.35829
# Velocity P-wave (km/s) = 5.01821 7.27839 6.25130
#
# Compressibility (1/GPa) = 0.03142341
#
# Stress axis : x y z
#
# Youngs Moduli (GPa) = 26.72767 72.61866 15.58164
#
# Poissons Ratio (x) = 0.30502 0.41390
# Poissons Ratio (y) = 0.11227 0.17461
# Poissons Ratio (z) = 0.70998 0.81378
#
# Static dielectric constant tensor:
#      x y z
#    x 3.565210 0.011330 -0.473570 
#    y 0.011330 3.790920 0.421990 
#    z -0.473570 0.421990 3.707720 
# 
# 
# High freq. dielectric constant tensor:
#      x y z
#    x 1.775750 0.018380 -0.040470 
#    y 0.018380 1.807360 0.029860 
#    z -0.040470 0.029860 1.786640 
# 
# From -- ./inp_files/20274.got.cif
#   From: 2010.06.25/outbox.cif.g09.slc.cpg/sg2_11_cif.got.tgz:20274.got - 2010.06.27 13:26:56.
