data_PCOD8009641
_publ_section_title
;
Structure prediction by ZEFSAII (Michael W. Deem and Ramdas Pophale) SiO2 
 PCOD8009641
Probable space group: P -1
;
_chemical_formula_sum "Si O2"
_cell_formula_units_Z 16
_cell_length_a 11.012955
_cell_length_b 15.872779
_cell_length_c 14.982437
_cell_angle_alpha 18.550324
_cell_angle_beta 106.375801
_cell_angle_gamma 105.503666
_cell_volume 799.408615
_symmetry_space_group_name_H-M "P -1"
_symmetry_group_IT_number 2
_symmetry_cell_setting 'triclinic'
loop_
_space_group_symop_operation_xyz
x,y,z
-x,-y,-z
loop_
_atom_site_type_symbol
_atom_site_label
_atom_site_fract_x
_atom_site_fract_y
_atom_site_fract_z
Si Si1 0.626950 0.766884 0.477606
Si Si2 0.326894 0.482106 0.557210
Si Si3 0.648648 0.292989 0.475625
Si Si4 0.883555 0.732216 0.661520
Si Si5 0.041059 0.243084 0.150277
Si Si6 0.920996 0.749432 0.205480
Si Si7 0.399757 0.725347 0.152041
Si Si8 0.205710 0.213602 0.040815
O O1 0.497985 0.786364 0.488967
O O2 0.743234 0.811804 0.522726
O O3 0.638167 0.475081 0.732573
O O4 0.628223 0.978089 0.184755
O O5 0.321875 0.689383 0.430167
O O6 0.213309 0.270125 0.751764
O O7 0.316557 0.660747 0.286957
O O8 0.452675 0.303132 0.764372
O O9 0.679173 0.578020 0.152855
O O10 0.736687 0.078519 0.661767
O O11 0.881525 0.702947 0.797187
O O12 0.980809 0.954414 0.426706
O O13 0.929908 0.460012 0.898842
O O14 0.140833 0.260025 0.074926
O O15 0.899605 0.747539 0.096561
O O16 0.000000 0.500000 0.500000
O O17 0.000000 0.000000 0.000000
#
# Coordination Sequence:
#
# PCOD8009641 Si02
#       8
#     2   2   2   2   2   2   2   2
#     4  11  21  37  58  90 114 144 189 241 292 325
#     4   9  21  39  54  81 116 154 195 228 279 336
#     4  10  21  37  59  81 115 151 184 232 280 332
#     4  10  22  40  62  86 116 142 183 243 285 335
#     4  10  22  41  62  84 112 154 187 223 288 344
#     4  11  23  35  52  78 112 149 184 230 270 316
#     4  10  22  35  60  82 112 153 191 236 281 334
#     4  11  22  40  59  80 112 154 192 222 275 350
#
# _framework density 20.014794999999999
#
# number of rings (size 3 to 8) (size 9 to 14) (size 15 to 20)
#    0.000    1.750    0.000    5.250    0.000   11.500 
#    0.000    1.250    0.000    0.000    0.000    0.000 
#    0.000    0.000    0.000    0.000    0.000    0.000 
#
# Total GULP energy -198454.896941 kJ/mol
# GULP energy per Si atom -12403.431059 kJ/mol
# Density = 1.996924 g / cm^3
# Si number density = 20.014795 Si / 1000 Ang^3
#
#
#
# Elastic Constant Matrix: (Units=GPa)
#
#
# Indices 1 2 3 4 5 6 
#
# 1 114.8018 64.1340 30.5943 10.0168 -13.8824 -2.8054
# 2 64.1340 68.6450 23.5588 10.2383 -5.9450 -5.7383
# 3 30.5943 23.5588 95.6450 -0.2235 -6.1249 -0.5164
# 4 10.0168 10.2383 -0.2235 25.0260 -0.6891 1.7032
# 5 -13.8824 -5.9450 -6.1249 -0.6891 32.7803 2.2392
# 6 -2.8054 -5.7383 -0.5164 1.7032 2.2392 38.2309
#
#
#
# Elastic Compliance Matrix: (Units=1/GPa)
#
#
# Indices 1 2 3 4 5 6 
#
# 1 0.019287 -0.017071 -0.001663 -0.000520 0.004848 -0.001430
# 2 -0.017071 0.032616 -0.002711 -0.006872 -0.002242 0.004044
# 3 -0.001663 -0.002711 0.011725 0.001944 0.001071 -0.000520
# 4 -0.000520 -0.006872 0.001944 0.043197 0.000008 -0.002968
# 5 0.004848 -0.002242 0.001071 0.000008 0.032481 -0.001869
# 6 -0.001430 0.004044 -0.000520 -0.002968 -0.001869 0.026894
#
#
# Mechanical properties :
#
#
# Convention : Reuss Voigt Hill
#
# Bulk Modulus (GPa) = 48.21972 57.29622 52.75797
# Shear Modulus (GPa) = 23.14761 29.92774 26.53767
#
# Velocity S-wave (km/s) = 3.40446 3.87108 3.64525
# Velocity P-wave (km/s) = 6.29271 6.97635 6.64333
#
# Compressibility (1/GPa) = 0.02073840
#
# Stress axis : x y z
#
# Youngs Moduli (GPa) = 51.84709 30.65933 85.28485
#
# Poissons Ratio (x) = 0.52340 0.14184
# Poissons Ratio (y) = 0.88510 0.23121
# Poissons Ratio (z) = 0.08623 0.08312
#
# Static dielectric constant tensor:
#      x y z
#    x 10.079160 2.461370 -1.237970 
#    y 2.461370 4.449730 -0.433160 
#    z -1.237970 -0.433160 3.910290 
# 
# 
# High freq. dielectric constant tensor:
#      x y z
#    x 1.783070 0.000130 -0.007800 
#    y 0.000130 1.761900 -0.007840 
#    z -0.007800 -0.007840 1.795620 
# 
# From -- ./inp_files/522083.got.cif
#   From: 2010.06.25/outbox.cif.g09.slc.cpg/sg2_262_cif.got.tgz:522083.got - 2010.06.27 13:26:56.
