data_PCOD8009013
_publ_section_title
;
Structure prediction by ZEFSAII (Michael W. Deem and Ramdas Pophale) SiO2 
 PCOD8009013
Probable space group: P -1
;
_chemical_formula_sum "Si O2"
_cell_formula_units_Z 14
_cell_length_a 9.398351
_cell_length_b 28.806799
_cell_length_c 31.533101
_cell_angle_alpha 171.824523
_cell_angle_beta 31.465924
_cell_angle_gamma 148.555893
_cell_volume 629.175147
_symmetry_space_group_name_H-M "P -1"
_symmetry_group_IT_number 2
_symmetry_cell_setting 'triclinic'
loop_
_space_group_symop_operation_xyz
x,y,z
-x,-y,-z
loop_
_atom_site_type_symbol
_atom_site_label
_atom_site_fract_x
_atom_site_fract_y
_atom_site_fract_z
Si Si1 0.922077 0.628502 0.575308
Si Si2 0.334105 0.684567 0.963741
Si Si3 0.778169 0.221574 0.529553
Si Si4 0.960771 0.411894 0.130448
Si Si5 0.164209 0.341238 0.778858
Si Si6 0.449612 0.570353 0.437569
Si Si7 0.934639 0.611581 0.763074
O O1 0.651324 0.454335 0.510374
O O2 0.189867 0.478262 0.389387
O O3 0.888539 0.565654 0.476678
O O4 0.950893 0.010113 0.923749
O O5 0.186242 0.609677 0.978444
O O6 0.622407 0.536226 0.757777
O O7 0.133830 0.489307 0.803164
O O8 0.385405 0.071281 0.289802
O O9 0.876360 0.287400 0.612624
O O10 0.460290 0.260889 0.645862
O O11 0.953207 0.477189 0.684443
O O12 0.838392 0.867927 0.177524
O O13 0.669745 0.311691 0.138747
O O14 0.000000 0.000000 0.500000
O O15 0.000000 0.500000 0.000000
#
# Coordination Sequence:
#
# PCOD8009013 Si02
#       7
#     2   2   2   2   2   2   2
#     4  10  21  35  63  93 126 165 234 267 291 346
#     4  10  23  41  71  90 126 170 213 252 316 387
#     4  11  25  42  67  92 134 167 203 259 326 379
#     4  12  22  41  64  97 128 174 205 254 323 381
#     4  11  26  48  73  98 122 159 212 261 311 386
#     4  10  22  37  64  96 127 170 216 269 303 361
#     4  10  21  40  60  91 124 176 220 260 304 365
#
# _framework density 22.251356000000001
#
# number of rings (size 3 to 8) (size 9 to 14) (size 15 to 20)
#    0.000    1.429    2.857    1.714    4.000    4.000 
#    0.000    8.571    0.000    0.000    0.000    0.000 
#    0.000    0.000    0.000    0.000    0.000    0.000 
#
# Total GULP energy -173526.997289 kJ/mol
# GULP energy per Si atom -12394.785521 kJ/mol
# Density = 2.220071 g / cm^3
# Si number density = 22.251356 Si / 1000 Ang^3
#
#
#
# Elastic Constant Matrix: (Units=GPa)
#
#
# Indices 1 2 3 4 5 6 
#
# 1 104.7430 49.3996 27.6565 -8.3451 21.9439 -10.3810
# 2 49.3996 143.1806 50.0222 -11.8766 18.6053 -20.4462
# 3 27.6565 50.0222 82.5413 -15.4661 25.2565 -6.2491
# 4 -8.3451 -11.8766 -15.4661 44.5984 -5.5258 -1.3447
# 5 21.9439 18.6053 25.2565 -5.5258 26.4682 -6.4856
# 6 -10.3810 -20.4462 -6.2491 -1.3447 -6.4856 34.9081
#
#
#
# Elastic Compliance Matrix: (Units=1/GPa)
#
#
# Indices 1 2 3 4 5 6 
#
# 1 0.012903 -0.003413 0.000512 0.000633 -0.008566 0.000362
# 2 -0.003413 0.010480 -0.005271 0.000677 0.001745 0.004530
# 3 0.000512 -0.005271 0.020621 0.003783 -0.016119 -0.002093
# 4 0.000633 0.000677 0.003783 0.024233 0.001034 0.002387
# 5 -0.008566 0.001745 -0.016119 0.001034 0.060958 0.006954
# 6 0.000362 0.004530 -0.002093 0.002387 0.006954 0.032417
#
#
# Mechanical properties :
#
#
# Convention : Reuss Voigt Hill
#
# Bulk Modulus (GPa) = 36.15548 64.95793 50.55671
# Shear Modulus (GPa) = 26.71304 34.75406 30.73355
#
# Velocity S-wave (km/s) = 3.46860 3.95636 3.72048
# Velocity P-wave (km/s) = 5.68555 7.08001 6.42075
#
# Compressibility (1/GPa) = 0.02765832
#
# Stress axis : x y z
#
# Youngs Moduli (GPa) = 77.50391 95.42222 48.49498
#
# Poissons Ratio (x) = 0.32571 -0.02485
# Poissons Ratio (y) = 0.26455 0.25564
# Poissons Ratio (z) = -0.03971 0.50301
#
# Static dielectric constant tensor:
#      x y z
#    x 4.175960 -0.046380 -0.081560 
#    y -0.046380 4.101630 -0.191540 
#    z -0.081560 -0.191540 3.838730 
# 
# 
# High freq. dielectric constant tensor:
#      x y z
#    x 1.880250 -0.004870 0.006880 
#    y -0.004870 1.871620 -0.021780 
#    z 0.006880 -0.021780 1.865940 
# 
# From -- ./inp_files/127195.got.cif
#   From: 2010.06.25/outbox.cif.g09.slc.cpg/sg2_64_cif.got.tgz:127195.got - 2010.06.27 13:26:56.
