data_PCOD8009092
_publ_section_title
;
Structure prediction by ZEFSAII (Michael W. Deem and Ramdas Pophale) SiO2 
 PCOD8009092
Probable space group: P -1
;
_chemical_formula_sum "Si O2"
_cell_formula_units_Z 16
_cell_length_a 11.527281
_cell_length_b 20.591710
_cell_length_c 7.736550
_cell_angle_alpha 103.786046
_cell_angle_beta 84.789612
_cell_angle_gamma 30.956920
_cell_volume 740.166860
_symmetry_space_group_name_H-M "P -1"
_symmetry_group_IT_number 2
_symmetry_cell_setting 'triclinic'
loop_
_space_group_symop_operation_xyz
x,y,z
-x,-y,-z
loop_
_atom_site_type_symbol
_atom_site_label
_atom_site_fract_x
_atom_site_fract_y
_atom_site_fract_z
Si Si1 0.022996 0.241545 0.566837
Si Si2 0.376157 0.830276 0.690865
Si Si3 0.734371 0.209858 0.025307
Si Si4 0.585107 0.438256 0.258780
Si Si5 0.674390 0.168880 0.681494
Si Si6 0.140212 0.200359 0.916897
Si Si7 0.444221 0.913616 0.289745
Si Si8 0.563358 0.871026 0.648133
O O1 0.141014 0.188327 0.706352
O O2 0.136466 0.247358 0.447577
O O3 0.689436 0.409698 0.724473
O O4 0.162937 0.100253 0.386818
O O5 0.424757 0.748884 0.777826
O O6 0.466910 0.752514 0.440191
O O7 0.563638 0.797996 0.693408
O O8 0.056276 0.021369 0.851307
O O9 0.710932 0.299412 0.130383
O O10 0.593719 0.270052 0.892440
O O11 0.500000 0.500000 0.500000
O O12 0.825697 0.366074 0.135336
O O13 0.591295 0.145582 0.785889
O O14 0.000000 0.000000 0.500000
O O15 0.293722 0.191789 0.919957
O O16 0.326496 0.043127 0.873027
O O17 0.487378 0.896041 0.476780
#
# Coordination Sequence:
#
# PCOD8009092 Si02
#       8
#     2   2   2   2   2   2   2   2
#     4   9  19  34  60  86 109 150 186 232 296 347
#     4   9  17  35  61  83 113 146 190 247 287 325
#     4  10  21  36  55  85 113 152 193 236 285 343
#     4  12  25  39  50  80 126 154 189 232 288 352
#     4   9  18  33  60  91 112 140 192 245 285 342
#     4   9  17  37  60  82 111 148 191 241 279 338
#     4   8  16  33  63  92 107 135 197 243 286 337
#     4   8  14  33  62  87 110 138 190 245 287 333
#
# _framework density 21.616748999999999
#
# number of rings (size 3 to 8) (size 9 to 14) (size 15 to 20)
#    0.000    2.750    1.250    1.875    1.750    3.000 
#    4.500    1.875    0.000    2.250    0.000    0.000 
#    0.000    0.000    0.000    0.000    0.000    0.000 
#
# Total GULP energy -198226.241546 kJ/mol
# GULP energy per Si atom -12389.140097 kJ/mol
# Density = 2.156755 g / cm^3
# Si number density = 21.616749 Si / 1000 Ang^3
#
#
#
# Elastic Constant Matrix: (Units=GPa)
#
#
# Indices 1 2 3 4 5 6 
#
# 1 115.7743 12.2922 48.8491 0.3027 -22.2990 7.6778
# 2 12.2922 35.2370 15.4230 2.0130 -7.1917 2.2392
# 3 48.8491 15.4230 79.2411 -3.4634 -9.2346 2.6451
# 4 0.3027 2.0130 -3.4634 24.4390 -7.8764 -10.2225
# 5 -22.2990 -7.1917 -9.2346 -7.8764 45.9667 -0.5164
# 6 7.6778 2.2392 2.6451 -10.2225 -0.5164 22.0980
#
#
#
# Elastic Compliance Matrix: (Units=1/GPa)
#
#
# Indices 1 2 3 4 5 6 
#
# 1 0.012879 -0.000015 -0.007342 -0.001513 0.004464 -0.004190
# 2 -0.000015 0.032137 -0.005935 -0.004397 0.003024 -0.004504
# 3 -0.007342 -0.005935 0.018395 0.004444 0.000000 0.003006
# 4 -0.001513 -0.004397 0.004444 0.056078 0.009379 0.026600
# 5 0.004464 0.003024 0.000000 0.009379 0.026035 0.003090
# 6 -0.004190 -0.004504 0.003006 0.026600 0.003090 0.059182
#
#
# Mechanical properties :
#
#
# Convention : Reuss Voigt Hill
#
# Bulk Modulus (GPa) = 27.15500 42.59790 34.87645
# Shear Modulus (GPa) = 20.52827 28.74662 24.63744
#
# Velocity S-wave (km/s) = 3.08498 3.65064 3.37966
# Velocity P-wave (km/s) = 5.02780 6.12522 5.60344
#
# Compressibility (1/GPa) = 0.03682562
#
# Stress axis : x y z
#
# Youngs Moduli (GPa) = 77.64798 31.11691 54.36257
#
# Poissons Ratio (x) = 0.00048 0.39914
# Poissons Ratio (y) = 0.00119 0.32264
# Poissons Ratio (z) = 0.57011 0.18468
#
# Static dielectric constant tensor:
#      x y z
#    x 6.917670 -0.901600 -1.009090 
#    y -0.901600 3.595170 -0.299220 
#    z -1.009090 -0.299220 3.646670 
# 
# 
# High freq. dielectric constant tensor:
#      x y z
#    x 1.865870 0.003950 -0.011770 
#    y 0.003950 1.799310 -0.021440 
#    z -0.011770 -0.021440 1.831000 
# 
# From -- ./inp_files/282073.got.cif
#   From: 2010.06.25/outbox.cif.g09.slc.cpg/sg2_142_cif.got.tgz:282073.got - 2010.06.27 13:26:56.
