data_PCOD8009214
_publ_section_title
;
Structure prediction by ZEFSAII (Michael W. Deem and Ramdas Pophale) SiO2 
 PCOD8009214
Probable space group: P -1
;
_chemical_formula_sum "Si O2"
_cell_formula_units_Z 16
_cell_length_a 11.354962
_cell_length_b 14.252398
_cell_length_c 14.247803
_cell_angle_alpha 127.688681
_cell_angle_beta 31.477988
_cell_angle_gamma 138.420846
_cell_volume 796.698485
_symmetry_space_group_name_H-M "P -1"
_symmetry_group_IT_number 2
_symmetry_cell_setting 'triclinic'
loop_
_space_group_symop_operation_xyz
x,y,z
-x,-y,-z
loop_
_atom_site_type_symbol
_atom_site_label
_atom_site_fract_x
_atom_site_fract_y
_atom_site_fract_z
Si Si1 0.210973 0.130379 0.876020
Si Si2 0.861851 0.502454 0.306803
Si Si3 0.441095 0.968487 0.411578
Si Si4 0.134649 0.765442 0.836279
Si Si5 0.391297 0.503783 0.715961
Si Si6 0.045324 0.031550 0.234654
Si Si7 0.893570 0.201899 0.909685
Si Si8 0.389327 0.713828 0.986782
O O1 0.502280 0.157219 0.723183
O O2 0.141284 0.080132 0.785642
O O3 0.158573 0.256633 0.002499
O O4 0.000000 0.000000 0.000000
O O5 0.880059 0.377745 0.263855
O O6 0.687440 0.537952 0.513273
O O7 0.726259 0.455523 0.267024
O O8 0.164289 0.641988 0.177335
O O9 0.133662 0.916190 0.562619
O O10 0.500000 0.000000 0.500000
O O11 0.634740 0.109356 0.306472
O O12 0.206940 0.808840 0.922192
O O13 0.409157 0.593353 0.848045
O O14 0.193588 0.339116 0.774149
O O15 0.321625 0.170383 0.093742
O O16 0.107111 0.937968 0.203970
O O17 0.680445 0.203974 0.989074
#
# Coordination Sequence:
#
# PCOD8009214 Si02
#       8
#     2   2   2   2   2   2   2   2
#     4   8  17  33  55  76  96 135 183 236 270 317
#     4  10  19  33  56  79 107 156 190 215 257 331
#     4   9  18  34  52  79 101 134 185 240 269 321
#     4  10  16  31  58  81  99 140 198 219 265 323
#     4  10  19  34  55  76 114 155 191 214 253 320
#     4  10  20  32  55  81 109 145 178 228 285 321
#     4  10  18  34  54  80 112 153 185 217 255 331
#     4  11  20  36  50  82 127 145 171 228 275 318
#
# _framework density 20.082879999999999
#
# number of rings (size 3 to 8) (size 9 to 14) (size 15 to 20)
#    0.000    2.250    2.500    1.875    0.000    0.000 
#    6.750    0.625    0.000    7.500    0.000    0.000 
#    0.000    0.000    0.000    0.000    0.000    0.000 
#
# Total GULP energy -198213.679961 kJ/mol
# GULP energy per Si atom -12388.354998 kJ/mol
# Density = 2.003717 g / cm^3
# Si number density = 20.082880 Si / 1000 Ang^3
#
#
#
# Elastic Constant Matrix: (Units=GPa)
#
#
# Indices 1 2 3 4 5 6 
#
# 1 41.3822 25.0098 33.4023 -3.9363 -7.5105 -24.8690
# 2 25.0098 77.9637 49.4812 -8.6919 -28.1394 -17.0925
# 3 33.4023 49.4812 143.1725 -12.3568 -28.6073 -15.2499
# 4 -3.9363 -8.6919 -12.3568 31.3352 -11.3578 -2.4883
# 5 -7.5105 -28.1394 -28.6073 -11.3578 38.7739 3.4883
# 6 -24.8690 -17.0925 -15.2499 -2.4883 3.4883 28.3212
#
#
#
# Elastic Compliance Matrix: (Units=1/GPa)
#
#
# Indices 1 2 3 4 5 6 
#
# 1 0.063466 -0.002215 -0.006948 0.010095 0.003924 0.051056
# 2 -0.002215 0.026376 -0.002013 0.014582 0.020451 0.011652
# 3 -0.006948 -0.002013 0.010961 0.005281 0.006990 -0.001811
# 4 0.010095 0.014582 0.005281 0.051763 0.029671 0.021402
# 5 0.003924 0.020451 0.006990 0.029671 0.053844 0.015527
# 6 0.051056 0.011652 -0.001811 0.021402 0.015527 0.086167
#
#
# Mechanical properties :
#
#
# Convention : Reuss Voigt Hill
#
# Bulk Modulus (GPa) = 12.74663 53.14499 32.94581
# Shear Modulus (GPa) = 14.65937 29.99440 22.32688
#
# Velocity S-wave (km/s) = 2.70468 3.86882 3.33789
# Velocity P-wave (km/s) = 4.01429 6.81742 5.59427
#
# Compressibility (1/GPa) = 0.07845213
#
# Stress axis : x y z
#
# Youngs Moduli (GPa) = 15.75640 37.91288 91.23409
#
# Poissons Ratio (x) = 0.08396 0.63388
# Poissons Ratio (y) = 0.03489 0.18366
# Poissons Ratio (z) = 0.10947 0.07632
#
# Static dielectric constant tensor:
#      x y z
#    x 3.784000 -0.514940 -0.422300 
#    y -0.514940 3.441400 0.240770 
#    z -0.422300 0.240770 4.314260 
# 
# 
# High freq. dielectric constant tensor:
#      x y z
#    x 1.761110 -0.042320 -0.013830 
#    y -0.042320 1.752380 0.005620 
#    z -0.013830 0.005620 1.805530 
# 
# From -- ./inp_files/297404.got.cif
#   From: 2010.06.25/outbox.cif.g09.slc.cpg/sg2_149_cif.got.tgz:297404.got - 2010.06.27 13:26:56.
