data_PCOD8009630
_publ_section_title
;
Structure prediction by ZEFSAII (Michael W. Deem and Ramdas Pophale) SiO2 
 PCOD8009630
Probable space group: P -1
;
_chemical_formula_sum "Si O2"
_cell_formula_units_Z 16
_cell_length_a 8.478821
_cell_length_b 15.960095
_cell_length_c 12.354928
_cell_angle_alpha 26.577384
_cell_angle_beta 92.123499
_cell_angle_gamma 100.489704
_cell_volume 704.821823
_symmetry_space_group_name_H-M "P -1"
_symmetry_group_IT_number 2
_symmetry_cell_setting 'triclinic'
loop_
_space_group_symop_operation_xyz
x,y,z
-x,-y,-z
loop_
_atom_site_type_symbol
_atom_site_label
_atom_site_fract_x
_atom_site_fract_y
_atom_site_fract_z
Si Si1 0.496749 0.276193 0.650978
Si Si2 0.619845 0.102201 0.041443
Si Si3 0.804049 0.865156 0.723534
Si Si4 0.999369 0.722434 0.722803
Si Si5 0.987030 0.231463 0.982060
Si Si6 0.511965 0.356698 0.901722
Si Si7 0.134204 0.210117 0.788217
Si Si8 0.885656 0.566842 0.681416
O O1 0.545492 0.497535 0.348806
O O2 0.321775 0.203621 0.796134
O O3 0.483804 0.124549 0.727369
O O4 0.636271 0.254385 0.764095
O O5 0.801418 0.108536 0.078664
O O6 0.516878 0.163812 0.060931
O O7 0.847969 0.764770 0.733582
O O8 0.619113 0.725226 0.910774
O O9 0.829264 0.102332 0.435414
O O10 0.937255 0.892532 0.793022
O O11 0.973500 0.733974 0.578846
O O12 0.000000 0.500000 0.000000
O O13 0.986976 0.414203 0.847568
O O14 0.105385 0.292648 0.809067
O O15 0.693232 0.467011 0.830451
O O16 0.115115 0.358619 0.525675
O O17 0.000000 0.000000 0.000000
#
# Coordination Sequence:
#
# PCOD8009630 Si02
#       8
#     2   2   2   2   2   2   2   2
#     4  10  21  38  58  87 135 180 207 256 312 375
#     4  10  21  37  58  90 135 173 211 253 311 376
#     4  11  25  43  72  95 126 165 214 269 320 381
#     4  11  24  48  70  95 123 164 217 269 323 379
#     4  11  21  39  63  96 130 168 214 260 315 379
#     4  10  23  41  61  95 126 168 208 268 316 378
#     4  11  20  35  60  97 130 171 215 258 309 378
#     4  10  23  41  66  92 133 170 213 263 321 377
#
# _framework density 22.700773000000002
#
# number of rings (size 3 to 8) (size 9 to 14) (size 15 to 20)
#    0.000    1.500    2.500    2.250    1.750    4.500 
#    0.000    0.625    0.000    0.000    0.000    0.000 
#    0.000    0.000    0.000    0.000    0.000    0.000 
#
# Total GULP energy -198323.335590 kJ/mol
# GULP energy per Si atom -12395.208474 kJ/mol
# Density = 2.264911 g / cm^3
# Si number density = 22.700773 Si / 1000 Ang^3
#
#
#
# Elastic Constant Matrix: (Units=GPa)
#
#
# Indices 1 2 3 4 5 6 
#
# 1 39.1725 12.9965 21.6328 -8.5554 -4.8378 -14.4462
# 2 12.9965 123.0149 14.1883 -5.9007 -7.5810 -14.2928
# 3 21.6328 14.1883 76.1782 -12.0099 -13.8277 -18.6864
# 4 -8.5554 -5.9007 -12.0099 33.3304 -2.6024 0.0269
# 5 -4.8378 -7.5810 -13.8277 -2.6024 36.7567 8.4306
# 6 -14.4462 -14.2928 -18.6864 0.0269 8.4306 28.5210
#
#
#
# Elastic Compliance Matrix: (Units=1/GPa)
#
#
# Indices 1 2 3 4 5 6 
#
# 1 0.035526 -0.001197 -0.005414 0.006921 -0.000313 0.013934
# 2 -0.001197 0.008787 -0.000073 0.001291 0.000921 0.003475
# 3 -0.005414 -0.000073 0.018342 0.005573 0.004773 0.007822
# 4 0.006921 0.001291 0.005573 0.034339 0.004208 0.006527
# 5 -0.000313 0.000921 0.004773 0.004208 0.030747 -0.005662
# 6 0.013934 0.003475 0.007822 0.006527 -0.005662 0.050654
#
#
# Mechanical properties :
#
#
# Convention : Reuss Voigt Hill
#
# Bulk Modulus (GPa) = 20.28963 37.33343 28.81153
# Shear Modulus (GPa) = 24.01639 32.35817 28.18728
#
# Velocity S-wave (km/s) = 3.25615 3.77957 3.52758
# Velocity P-wave (km/s) = 4.80562 5.96058 5.41398
#
# Compressibility (1/GPa) = 0.04928627
#
# Stress axis : x y z
#
# Youngs Moduli (GPa) = 28.14823 113.81061 54.52011
#
# Poissons Ratio (x) = 0.13628 0.29515
# Poissons Ratio (y) = 0.03370 0.00399
# Poissons Ratio (z) = 0.15238 0.00834
#
# Static dielectric constant tensor:
#      x y z
#    x 3.188230 -0.283460 2.119760 
#    y -0.283460 4.184870 0.345380 
#    z 2.119760 0.345380 -0.409960 
# 
# 
# High freq. dielectric constant tensor:
#      x y z
#    x 1.881350 -0.007540 0.009490 
#    y -0.007540 1.910100 -0.012300 
#    z 0.009490 -0.012300 1.886820 
# 
# From -- ./inp_files/313844.got.cif
#   From: 2010.06.25/outbox.cif.g09.slc.cpg/sg2_157_cif.got.tgz:313844.got - 2010.06.27 13:26:56.
