data_PCOD8009879
_publ_section_title
;
Structure prediction by ZEFSAII (Michael W. Deem and Ramdas Pophale) SiO2 
 PCOD8009879
Probable space group: P -1
;
_chemical_formula_sum "Si O2"
_cell_formula_units_Z 16
_cell_length_a 9.261792
_cell_length_b 14.136160
_cell_length_c 10.714548
_cell_angle_alpha 29.938443
_cell_angle_beta 91.262408
_cell_angle_gamma 84.863786
_cell_volume 683.146229
_symmetry_space_group_name_H-M "P -1"
_symmetry_group_IT_number 2
_symmetry_cell_setting 'triclinic'
loop_
_space_group_symop_operation_xyz
x,y,z
-x,-y,-z
loop_
_atom_site_type_symbol
_atom_site_label
_atom_site_fract_x
_atom_site_fract_y
_atom_site_fract_z
Si Si1 0.936234 0.327625 0.434115
Si Si2 0.515566 0.178597 0.509913
Si Si3 0.219681 0.968228 0.134215
Si Si4 0.205310 0.822252 0.810202
Si Si5 0.312408 0.541647 0.922037
Si Si6 0.077839 0.258666 0.988468
Si Si7 0.247552 0.066119 0.741153
Si Si8 0.332701 0.123051 0.323328
O O1 0.840242 0.385366 0.240134
O O2 0.977124 0.510542 0.296578
O O3 0.086892 0.183288 0.561066
O O4 0.850008 0.221735 0.653179
O O5 0.638154 0.072554 0.729371
O O6 0.520898 0.023766 0.568763
O O7 0.554009 0.382698 0.231273
O O8 0.360321 0.201346 0.551130
O O9 0.263657 0.023133 0.936176
O O10 0.095223 0.145456 0.986435
O O11 0.286959 0.625140 0.966992
O O12 0.279937 0.859634 0.902357
O O13 0.220974 0.004266 0.517139
O O14 0.034678 0.819372 0.833845
O O15 0.361545 0.303764 0.204408
O O16 0.240233 0.232550 0.081404
#
# Coordination Sequence:
#
# PCOD8009879 Si02
#       8
#     2   2   2   2   2   2   2   2
#     4  10  22  38  62  89 118 149 198 243 288 343
#     4   9  21  43  62  84 114 156 198 239 290 347
#     4  10  21  44  62  81 117 157 196 244 288 341
#     4  11  23  34  60  92 122 151 192 239 291 347
#     4   9  21  40  62  86 117 158 192 236 289 346
#     4  10  21  37  62  90 114 155 195 240 291 341
#     4  12  24  38  59  90 122 152 194 243 292 343
#     4   9  20  39  64  84 116 156 200 232 282 354
#
# _framework density 23.421047999999999
#
# number of rings (size 3 to 8) (size 9 to 14) (size 15 to 20)
#    0.000    2.000    1.250    1.875    3.500    3.500 
#    2.250    1.250    0.000    6.000    0.000    0.000 
#    0.000    0.000    0.000    0.000    0.000    0.000 
#
# Total GULP energy -198397.527329 kJ/mol
# GULP energy per Si atom -12399.845458 kJ/mol
# Density = 2.336774 g / cm^3
# Si number density = 23.421048 Si / 1000 Ang^3
#
#
#
# Elastic Constant Matrix: (Units=GPa)
#
#
# Indices 1 2 3 4 5 6 
#
# 1 109.5075 39.3522 58.9895 -1.3481 -18.9164 -18.9531
# 2 39.3522 155.2275 96.1967 -1.3851 -6.2627 -8.2680
# 3 58.9895 96.1967 144.9397 -12.8755 -17.1363 -8.2752
# 4 -1.3481 -1.3851 -12.8755 39.4191 -2.9037 -12.1254
# 5 -18.9164 -6.2627 -17.1363 -2.9037 31.6120 1.9179
# 6 -18.9531 -8.2680 -8.2752 -12.1254 1.9179 28.5431
#
#
#
# Elastic Compliance Matrix: (Units=1/GPa)
#
#
# Indices 1 2 3 4 5 6 
#
# 1 0.013951 -0.000261 -0.004150 0.002154 0.005728 0.008515
# 2 -0.000261 0.011263 -0.007866 -0.002371 -0.002404 -0.000037
# 3 -0.004150 -0.007866 0.014849 0.005109 0.004408 0.001145
# 4 0.002154 -0.002371 0.005109 0.032219 0.005605 0.015535
# 5 0.005728 -0.002404 0.004408 0.005605 0.037230 0.004264
# 6 0.008515 -0.000037 0.001145 0.015535 0.004264 0.047323
#
#
# Mechanical properties :
#
#
# Convention : Reuss Voigt Hill
#
# Bulk Modulus (GPa) = 64.47823 88.75017 76.61420
# Shear Modulus (GPa) = 26.80127 34.25724 30.52926
#
# Velocity S-wave (km/s) = 3.38646 3.82863 3.61431
# Velocity P-wave (km/s) = 6.54833 7.58421 7.08522
#
# Compressibility (1/GPa) = 0.01550911
#
# Stress axis : x y z
#
# Youngs Moduli (GPa) = 71.68078 88.78763 67.34290
#
# Poissons Ratio (x) = 0.02318 0.27947
# Poissons Ratio (y) = 0.01872 0.52971
# Poissons Ratio (z) = 0.29747 0.69839
#
# Static dielectric constant tensor:
#      x y z
#    x 4.332620 0.088130 -0.080090 
#    y 0.088130 4.367360 -0.240730 
#    z -0.080090 -0.240730 4.212900 
# 
# 
# High freq. dielectric constant tensor:
#      x y z
#    x 1.952040 0.007330 -0.003710 
#    y 0.007330 1.926560 -0.012630 
#    z -0.003710 -0.012630 1.922810 
# 
# From -- ./inp_files/398070.got.cif
#   From: 2010.06.25/outbox.cif.g09.slc.cpg/sg2_200_cif.got.tgz:398070.got - 2010.06.27 13:26:56.
