data_PCOD8009942
_publ_section_title
;
Structure prediction by ZEFSAII (Michael W. Deem and Ramdas Pophale) SiO2 
 PCOD8009942
Probable space group: P -1
;
_chemical_formula_sum "Si O2"
_cell_formula_units_Z 14
_cell_length_a 12.350209
_cell_length_b 8.538608
_cell_length_c 14.035299
_cell_angle_alpha 42.085474
_cell_angle_beta 126.929806
_cell_angle_gamma 133.569259
_cell_volume 706.482419
_symmetry_space_group_name_H-M "P -1"
_symmetry_group_IT_number 2
_symmetry_cell_setting 'triclinic'
loop_
_space_group_symop_operation_xyz
x,y,z
-x,-y,-z
loop_
_atom_site_type_symbol
_atom_site_label
_atom_site_fract_x
_atom_site_fract_y
_atom_site_fract_z
Si Si1 0.640419 0.984834 0.462090
Si Si2 0.150028 0.729802 0.712170
Si Si3 0.633191 0.877997 0.718854
Si Si4 0.392688 0.790280 0.152452
Si Si5 0.796744 0.371920 0.691167
Si Si6 0.642866 0.706225 0.408320
Si Si7 0.635951 0.353463 0.005996
O O1 0.679951 0.900597 0.622234
O O2 0.582706 0.732922 0.472172
O O3 0.789995 0.223887 0.386958
O O4 0.516788 0.089072 0.359345
O O5 0.970657 0.579779 0.687151
O O6 0.209320 0.017312 0.662084
O O7 0.222393 0.572478 0.881295
O O8 0.602248 0.600365 0.870614
O O9 0.772770 0.105535 0.747122
O O10 0.254211 0.673673 0.205501
O O11 0.509766 0.663101 0.282539
O O12 0.322183 0.723042 0.040417
O O13 0.486332 0.103609 0.079686
O O14 0.696113 0.481073 0.529630
#
# Coordination Sequence:
#
# PCOD8009942 Si02
#       7
#     2   2   2   2   2   2   2
#     4   9  21  39  56  87 115 149 192 237 285 320
#     4   9  22  40  57  83 121 153 184 233 286 346
#     4  11  22  35  62  87 111 155 189 241 277 338
#     4  10  21  37  63  85 108 154 194 241 272 340
#     4  12  21  34  64  87 115 151 192 227 298 332
#     4   9  19  39  57  86 112 146 191 245 264 337
#     4  10  22  41  58  83 121 145 193 236 287 330
#
# _framework density 19.816486999999999
#
# number of rings (size 3 to 8) (size 9 to 14) (size 15 to 20)
#    0.857    1.143    1.429    1.714    4.000    4.000 
#    0.000    0.000    0.000    0.000    0.000    0.000 
#    0.000    0.000    0.000    0.000    0.000    0.000 
#
# Total GULP energy -173565.713279 kJ/mol
# GULP energy per Si atom -12397.550948 kJ/mol
# Density = 1.977138 g / cm^3
# Si number density = 19.816487 Si / 1000 Ang^3
#
#
#
# Elastic Constant Matrix: (Units=GPa)
#
#
# Indices 1 2 3 4 5 6 
#
# 1 90.9322 35.1133 34.5566 1.9000 -12.9844 17.5172
# 2 35.1133 54.9991 20.0685 -7.7551 3.0804 10.1074
# 3 34.5566 20.0685 111.8415 -14.8735 0.2087 5.9486
# 4 1.9000 -7.7551 -14.8735 26.4809 -4.3237 2.2970
# 5 -12.9844 3.0804 0.2087 -4.3237 25.1601 -6.0433
# 6 17.5172 10.1074 5.9486 2.2970 -6.0433 30.8485
#
#
#
# Elastic Compliance Matrix: (Units=1/GPa)
#
#
# Indices 1 2 3 4 5 6 
#
# 1 0.019264 -0.011179 -0.004439 -0.005245 0.009442 -0.004180
# 2 -0.011179 0.027958 -0.000233 0.007822 -0.009078 -0.005128
# 3 -0.004439 -0.000233 0.011219 0.006360 -0.001335 -0.000302
# 4 -0.005245 0.007822 0.006360 0.044821 0.003136 -0.003534
# 5 0.009442 -0.009078 -0.001335 0.003136 0.047969 0.007034
# 6 -0.004180 -0.005128 -0.000302 -0.003534 0.007034 0.038169
#
#
# Mechanical properties :
#
#
# Convention : Reuss Voigt Hill
#
# Bulk Modulus (GPa) = 37.39869 48.58329 42.99099
# Shear Modulus (GPa) = 21.73768 27.70019 24.71894
#
# Velocity S-wave (km/s) = 3.31562 3.74282 3.53568
# Velocity P-wave (km/s) = 5.79407 6.57633 6.19755
#
# Compressibility (1/GPa) = 0.02673890
#
# Stress axis : x y z
#
# Youngs Moduli (GPa) = 51.91006 35.76790 89.13579
#
# Poissons Ratio (x) = 0.39986 0.39568
# Poissons Ratio (y) = 0.58032 0.02074
# Poissons Ratio (z) = 0.23043 0.00832
#
# Static dielectric constant tensor:
#      x y z
#    x 3.357680 -0.058710 -0.253880 
#    y -0.058710 3.502260 -0.120090 
#    z -0.253880 -0.120090 3.732120 
# 
# 
# High freq. dielectric constant tensor:
#      x y z
#    x 1.749330 0.000460 -0.018550 
#    y 0.000460 1.765140 -0.014550 
#    z -0.018550 -0.014550 1.781790 
# 
# From -- ./inp_files/457146.got.cif
#   From: 2010.06.25/outbox.cif.g09.slc.cpg/sg2_229_cif.got.tgz:457146.got - 2010.06.27 13:26:56.
