data_PCOD8009554
_publ_section_title
;
Structure prediction by ZEFSAII (Michael W. Deem and Ramdas Pophale) SiO2 
 PCOD8009554
Probable space group: P -1
;
_chemical_formula_sum "Si O2"
_cell_formula_units_Z 14
_cell_length_a 8.489432
_cell_length_b 15.144684
_cell_length_c 18.878082
_cell_angle_alpha 19.599618
_cell_angle_beta 77.590106
_cell_angle_gamma 68.644282
_cell_volume 691.539326
_symmetry_space_group_name_H-M "P -1"
_symmetry_group_IT_number 2
_symmetry_cell_setting 'triclinic'
loop_
_space_group_symop_operation_xyz
x,y,z
-x,-y,-z
loop_
_atom_site_type_symbol
_atom_site_label
_atom_site_fract_x
_atom_site_fract_y
_atom_site_fract_z
Si Si1 0.777509 0.460202 0.653478
Si Si2 0.287138 0.876573 0.597456
Si Si3 0.041738 0.593460 0.850900
Si Si4 0.310052 0.499038 0.520838
Si Si5 0.810777 0.836086 0.115970
Si Si6 0.937446 0.808874 0.974078
Si Si7 0.326306 0.334798 0.341823
O O1 0.714118 0.625953 0.458434
O O2 0.671482 0.687089 0.556628
O O3 0.995871 0.329849 0.735879
O O4 0.723777 0.194654 0.861827
O O5 0.212412 0.656261 0.797484
O O6 0.486016 0.677801 0.692280
O O7 0.307098 0.051809 0.530372
O O8 0.144890 0.109035 0.378726
O O9 0.102577 0.326226 0.990011
O O10 0.000000 0.500000 0.000000
O O11 0.500000 0.500000 0.500000
O O12 0.322134 0.272997 0.752735
O O13 0.138330 0.835199 0.298336
O O14 0.836396 0.749992 0.095195
O O15 0.156637 0.649461 0.091245
#
# Coordination Sequence:
#
# PCOD8009554 Si02
#       7
#     2   2   2   2   2   2   2
#     4   9  19  35  57  80 106 143 182 224 268 319
#     4   9  20  38  58  81 111 144 181 227 272 319
#     4  10  21  37  57  84 114 143 178 222 275 328
#     4  11  23  35  54  85 114 143 180 223 275 329
#     4   9  19  38  56  77 109 143 183 224 267 322
#     4   9  21  38  55  79 111 147 182 223 272 321
#     4   9  18  38  60  79 107 145 187 227 268 315
#
# _framework density 20.244692000000001
#
# number of rings (size 3 to 8) (size 9 to 14) (size 15 to 20)
#    0.000    2.571    0.000    1.286    0.000   10.286 
#    0.000   10.714    0.000    0.000    0.000    0.000 
#    0.000    0.000    0.000    0.000    0.000    0.000 
#
# Total GULP energy -173613.744766 kJ/mol
# GULP energy per Si atom -12400.981769 kJ/mol
# Density = 2.019861 g / cm^3
# Si number density = 20.244692 Si / 1000 Ang^3
#
#
#
# Elastic Constant Matrix: (Units=GPa)
#
#
# Indices 1 2 3 4 5 6 
#
# 1 99.9563 54.4678 18.4379 2.9399 -18.9805 -10.1688
# 2 54.4678 157.0744 38.4088 12.8033 -10.7328 6.1821
# 3 18.4379 38.4088 52.6450 10.2244 -15.6607 -8.3142
# 4 2.9399 12.8033 10.2244 35.2989 -11.0115 2.1186
# 5 -18.9805 -10.7328 -15.6607 -11.0115 27.1167 3.2239
# 6 -10.1688 6.1821 -8.3142 2.1186 3.2239 31.4253
#
#
#
# Elastic Compliance Matrix: (Units=1/GPa)
#
#
# Indices 1 2 3 4 5 6 
#
# 1 0.014943 -0.005418 0.001945 0.002975 0.010029 0.005186
# 2 -0.005418 0.010059 -0.007056 -0.002150 -0.004162 -0.005027
# 3 0.001945 -0.007056 0.029291 -0.002389 0.013499 0.008543
# 4 0.002975 -0.002150 -0.002389 0.034120 0.014062 -0.002989
# 5 0.010029 -0.004162 0.013499 0.014062 0.055641 0.000979
# 6 0.005186 -0.005027 0.008543 -0.002989 0.000979 0.036850
#
#
# Mechanical properties :
#
#
# Convention : Reuss Voigt Hill
#
# Bulk Modulus (GPa) = 30.09017 59.14495 44.61756
# Shear Modulus (GPa) = 23.46975 31.99228 27.73101
#
# Velocity S-wave (km/s) = 3.40855 3.97959 3.70509
# Velocity P-wave (km/s) = 5.51239 7.09892 6.35535
#
# Compressibility (1/GPa) = 0.03323345
#
# Stress axis : x y z
#
# Youngs Moduli (GPa) = 66.92183 99.40941 34.14065
#
# Poissons Ratio (x) = 0.53864 -0.06639
# Poissons Ratio (y) = 0.36261 0.24089
# Poissons Ratio (z) = -0.13013 0.70141
#
# Static dielectric constant tensor:
#      x y z
#    x 3.658270 0.076660 0.078570 
#    y 0.076660 3.822410 -0.052800 
#    z 0.078570 -0.052800 3.541360 
# 
# 
# High freq. dielectric constant tensor:
#      x y z
#    x 1.790060 0.004780 0.004110 
#    y 0.004780 1.800830 0.000560 
#    z 0.004110 0.000560 1.767820 
# 
# From -- ./inp_files/27044.got.cif
#   From: 2010.06.25/outbox.cif.g09.slc.cpg/sg2_14_cif.got.tgz:27044.got - 2010.06.27 13:26:56.
