data_PCOD8009000
_publ_section_title
;
Structure prediction by ZEFSAII (Michael W. Deem and Ramdas Pophale) SiO2 
 PCOD8009000
Probable space group: P -1
;
_chemical_formula_sum "Si O2"
_cell_formula_units_Z 16
_cell_length_a 29.414933
_cell_length_b 15.339633
_cell_length_c 11.522880
_cell_angle_alpha 152.941831
_cell_angle_beta 28.475284
_cell_angle_gamma 161.225367
_cell_volume 738.019365
_symmetry_space_group_name_H-M "P -1"
_symmetry_group_IT_number 2
_symmetry_cell_setting 'triclinic'
loop_
_space_group_symop_operation_xyz
x,y,z
-x,-y,-z
loop_
_atom_site_type_symbol
_atom_site_label
_atom_site_fract_x
_atom_site_fract_y
_atom_site_fract_z
Si Si1 0.177803 0.537077 0.136932
Si Si2 0.770083 0.051101 0.256651
Si Si3 0.614780 0.178487 0.789173
Si Si4 0.697557 0.385845 0.268909
Si Si5 0.670183 0.730608 0.873181
Si Si6 0.278156 0.991853 0.139236
Si Si7 0.951745 0.337924 0.560743
Si Si8 0.560355 0.521300 0.266129
O O1 0.330773 0.753192 0.118411
O O2 0.159630 0.729370 0.359283
O O3 0.040127 0.298055 0.250937
O O4 0.181763 0.406820 0.859567
O O5 0.678276 0.843420 0.328806
O O6 0.711915 0.173671 0.492436
O O7 0.755144 0.881280 0.982321
O O8 0.937791 0.329458 0.246221
O O9 0.449517 0.861789 0.768167
O O10 0.636248 0.428457 0.994646
O O11 0.701183 0.566707 0.561900
O O12 0.727231 0.244175 0.111756
O O13 0.734710 0.984163 0.939638
O O14 0.500000 0.500000 0.000000
O O15 0.144056 0.889034 0.387155
O O16 0.427030 0.312974 0.228910
O O17 0.500000 0.500000 0.500000
#
# Coordination Sequence:
#
# PCOD8009000 Si02
#       8
#     2   2   2   2   2   2   2   2
#     4   9  19  36  61  88 125 165 200 246 312 381
#     4  11  24  43  63  91 127 170 207 260 309 365
#     4  10  21  35  62  92 127 165 201 252 321 368
#     4  10  21  37  62  96 124 163 205 261 312 364
#     4  12  23  41  64  92 124 164 216 261 301 368
#     4  10  23  42  61  93 126 166 206 255 314 370
#     4   9  21  41  64  89 127 172 202 250 324 372
#     4  11  25  36  63 100 128 156 208 267 311 370
#
# _framework density 21.679648
#
# number of rings (size 3 to 8) (size 9 to 14) (size 15 to 20)
#    0.000    1.750    2.500    0.375   15.750    2.000 
#    0.000    8.750    0.000    0.000    0.000    0.000 
#    0.000    0.000    0.000    0.000    0.000    0.000 
#
# Total GULP energy -198268.748275 kJ/mol
# GULP energy per Si atom -12391.796767 kJ/mol
# Density = 2.163030 g / cm^3
# Si number density = 21.679648 Si / 1000 Ang^3
#
#
#
# Elastic Constant Matrix: (Units=GPa)
#
#
# Indices 1 2 3 4 5 6 
#
# 1 80.7781 34.7571 15.4562 -2.1074 5.0799 -16.5053
# 2 34.7571 87.4748 16.1610 -9.8329 -5.1760 -17.5960
# 3 15.4562 16.1610 111.4231 -2.7450 3.5736 -19.3924
# 4 -2.1074 -9.8329 -2.7450 28.6865 -2.7064 9.5247
# 5 5.0799 -5.1760 3.5736 -2.7064 30.7139 -7.7181
# 6 -16.5053 -17.5960 -19.3924 9.5247 -7.7181 25.1989
#
#
#
# Elastic Compliance Matrix: (Units=1/GPa)
#
#
# Indices 1 2 3 4 5 6 
#
# 1 0.016310 -0.005460 -0.000209 -0.003323 -0.002042 0.007340
# 2 -0.005460 0.015950 -0.000271 0.002922 0.005905 0.008057
# 3 -0.000209 -0.000271 0.010487 -0.001923 0.000789 0.008712
# 4 -0.003323 0.002922 -0.001923 0.041126 0.000626 -0.016970
# 5 -0.002042 0.005905 0.000789 0.000626 0.037537 0.014653
# 6 0.007340 0.008057 0.008712 -0.016970 0.014653 0.067725
#
#
# Mechanical properties :
#
#
# Convention : Reuss Voigt Hill
#
# Bulk Modulus (GPa) = 32.39811 45.82496 39.11154
# Shear Modulus (GPa) = 23.66248 31.14000 27.40124
#
# Velocity S-wave (km/s) = 3.30731 3.79406 3.55902
# Velocity P-wave (km/s) = 5.43699 6.35424 5.91343
#
# Compressibility (1/GPa) = 0.03086599
#
# Stress axis : x y z
#
# Youngs Moduli (GPa) = 61.31026 62.69647 95.35780
#
# Poissons Ratio (x) = 0.34232 0.01997
# Poissons Ratio (y) = 0.33475 0.02586
# Poissons Ratio (z) = 0.01284 0.01700
#
# Static dielectric constant tensor:
#      x y z
#    x 3.928340 0.034230 0.017500 
#    y 0.034230 3.814630 -0.270330 
#    z 0.017500 -0.270330 4.059620 
# 
# 
# High freq. dielectric constant tensor:
#      x y z
#    x 1.848440 0.002620 0.003780 
#    y 0.002620 1.834490 -0.016540 
#    z 0.003780 -0.016540 1.850320 
# 
# From -- ./inp_files/477689.got.cif
#   From: 2010.06.25/outbox.cif.g09.slc.cpg/sg2_239_cif.got.tgz:477689.got - 2010.06.27 13:26:56.
