data_PCOD8009111
_publ_section_title
;
Structure prediction by ZEFSAII (Michael W. Deem and Ramdas Pophale) SiO2 
 PCOD8009111
Probable space group: P -1
;
_chemical_formula_sum "Si O2"
_cell_formula_units_Z 14
_cell_length_a 10.821748
_cell_length_b 25.291109
_cell_length_c 12.692806
_cell_angle_alpha 24.338678
_cell_angle_beta 34.387388
_cell_angle_gamma 22.622614
_cell_volume 547.986589
_symmetry_space_group_name_H-M "P -1"
_symmetry_group_IT_number 2
_symmetry_cell_setting 'triclinic'
loop_
_space_group_symop_operation_xyz
x,y,z
-x,-y,-z
loop_
_atom_site_type_symbol
_atom_site_label
_atom_site_fract_x
_atom_site_fract_y
_atom_site_fract_z
Si Si1 0.228179 0.650112 0.837472
Si Si2 0.683338 0.142474 0.720678
Si Si3 0.238439 0.110402 0.098421
Si Si4 0.686620 0.770667 0.536344
Si Si5 0.372468 0.672465 0.014135
Si Si6 0.064369 0.854040 0.145836
Si Si7 0.639463 0.552905 0.422541
O O1 0.218743 0.806353 0.534562
O O2 0.892617 0.768494 0.919239
O O3 0.500000 0.500000 0.000000
O O4 0.314106 0.532879 0.886150
O O5 0.492216 0.302964 0.653047
O O6 0.457913 0.126509 0.860052
O O7 0.007443 0.933065 0.921722
O O8 0.954244 0.190365 0.074937
O O9 0.454443 0.896223 0.371152
O O10 0.496737 0.766236 0.764673
O O11 0.802977 0.854954 0.353509
O O12 0.000306 0.557279 0.660574
O O13 0.321241 0.615929 0.262479
O O14 0.421513 0.650897 0.292926
O O15 0.000000 0.000000 0.000000
#
# Coordination Sequence:
#
# PCOD8009111 Si02
#       7
#     2   2   2   2   2   2   2
#     4   9  19  35  57  83 114 148 190 229 266 328
#     4   9  19  37  61  83 111 153 188 230 280 320
#     4  10  21  36  56  86 118 150 189 226 274 339
#     4  11  22  36  58  83 115 151 182 232 289 332
#     4  10  22  36  56  86 117 150 186 229 280 333
#     4   9  20  40  61  81 108 146 194 236 275 333
#     4  10  21  38  58  84 115 147 190 233 278 334
#
# _framework density 25.548069999999999
#
# number of rings (size 3 to 8) (size 9 to 14) (size 15 to 20)
#    0.000    2.286    0.000    1.714    0.000   10.857 
#    0.000    2.857    0.000   15.429    0.000    0.000 
#    0.000    0.000    0.000    0.000    0.000    0.000 
#
# Total GULP energy -173508.307419 kJ/mol
# GULP energy per Si atom -12393.450530 kJ/mol
# Density = 2.548992 g / cm^3
# Si number density = 25.548070 Si / 1000 Ang^3
#
#
#
# Elastic Constant Matrix: (Units=GPa)
#
#
# Indices 1 2 3 4 5 6 
#
# 1 88.6267 17.8631 30.7514 -8.5600 11.4573 -19.1498
# 2 17.8631 110.4470 43.7486 -13.7058 22.2996 -23.1763
# 3 30.7514 43.7486 157.1998 -3.6954 11.6198 -24.2197
# 4 -8.5600 -13.7058 -3.6954 57.1367 -5.9461 4.8272
# 5 11.4573 22.2996 11.6198 -5.9461 37.3548 -2.4787
# 6 -19.1498 -23.1763 -24.2197 4.8272 -2.4787 23.3282
#
#
#
# Elastic Compliance Matrix: (Units=1/GPa)
#
#
# Indices 1 2 3 4 5 6 
#
# 1 0.014499 0.001475 -0.001147 0.001058 -0.004037 0.011529
# 2 0.001475 0.013592 -0.001685 0.001641 -0.006992 0.011882
# 3 -0.001147 -0.001685 0.007983 -0.000631 -0.000847 0.005712
# 4 0.001058 0.001641 -0.000631 0.018339 0.001694 -0.001771
# 5 -0.004037 -0.006992 -0.000847 0.001694 0.032180 -0.008071
# 6 0.011529 0.011882 0.005712 -0.001771 -0.008071 0.069574
#
#
# Mechanical properties :
#
#
# Convention : Reuss Voigt Hill
#
# Bulk Modulus (GPa) = 29.97704 60.11108 45.04406
# Shear Modulus (GPa) = 29.41149 41.15796 35.28472
#
# Velocity S-wave (km/s) = 3.39665 4.01808 3.72036
# Velocity P-wave (km/s) = 5.20980 6.71613 6.01034
#
# Compressibility (1/GPa) = 0.03335886
#
# Stress axis : x y z
#
# Youngs Moduli (GPa) = 68.96940 73.57395 125.27325
#
# Poissons Ratio (x) = -0.10852 0.14373
# Poissons Ratio (y) = -0.10173 0.21109
# Poissons Ratio (z) = 0.07913 0.12397
#
# Static dielectric constant tensor:
#      x y z
#    x 5.803410 1.059130 -0.009840 
#    y 1.059130 5.977690 -0.490960 
#    z -0.009840 -0.490960 5.273930 
# 
# 
# High freq. dielectric constant tensor:
#      x y z
#    x 2.009500 0.017970 -0.005770 
#    y 0.017970 2.038750 -0.023650 
#    z -0.005770 -0.023650 2.045260 
# 
# From -- ./inp_files/46182.got.cif
#   From: 2010.06.25/outbox.cif.g09.slc.cpg/sg2_24_cif.got.tgz:46182.got - 2010.06.27 13:26:56.
