data_PCOD8009880
_publ_section_title
;
Structure prediction by ZEFSAII (Michael W. Deem and Ramdas Pophale) SiO2 
 PCOD8009880
Probable space group: P -1
;
_chemical_formula_sum "Si O2"
_cell_formula_units_Z 16
_cell_length_a 11.863758
_cell_length_b 8.428422
_cell_length_c 10.076684
_cell_angle_alpha 130.068773
_cell_angle_beta 94.219681
_cell_angle_gamma 83.281636
_cell_volume 765.788062
_symmetry_space_group_name_H-M "P -1"
_symmetry_group_IT_number 2
_symmetry_cell_setting 'triclinic'
loop_
_space_group_symop_operation_xyz
x,y,z
-x,-y,-z
loop_
_atom_site_type_symbol
_atom_site_label
_atom_site_fract_x
_atom_site_fract_y
_atom_site_fract_z
Si Si1 0.450832 0.344594 0.013371
Si Si2 0.556308 0.975030 0.691415
Si Si3 0.804495 0.675451 0.060335
Si Si4 0.842402 0.237523 0.696817
Si Si5 0.065877 0.197603 0.095335
Si Si6 0.937458 0.632201 0.308979
Si Si7 0.593000 0.277756 0.619104
Si Si8 0.813236 0.836781 0.640157
O O1 0.441300 0.472714 0.221928
O O2 0.500000 0.500000 0.000000
O O3 0.525849 0.118352 0.898375
O O4 0.329853 0.286630 0.918888
O O5 0.551744 0.143535 0.664659
O O6 0.466523 0.803014 0.562212
O O7 0.677753 0.847288 0.646808
O O8 0.857963 0.723172 0.231691
O O9 0.841323 0.438826 0.896906
O O10 0.849757 0.829712 0.037470
O O11 0.729593 0.238795 0.597027
O O12 0.951225 0.236374 0.608290
O O13 0.854271 0.049791 0.701171
O O14 0.139645 0.228916 0.248183
O O15 0.972871 0.389333 0.165592
O O16 0.000000 0.000000 0.000000
O O17 0.862796 0.656560 0.448339
#
# Coordination Sequence:
#
# PCOD8009880 Si02
#       8
#     2   2   2   2   2   2   2   2
#     4   9  18  32  58  88 117 152 198 251 300 347
#     4   9  18  32  52  84 120 146 195 241 294 352
#     4  10  21  37  62  90 114 157 204 247 293 360
#     4   9  18  35  56  88 117 149 199 251 297 354
#     4  11  23  42  58  82 126 162 195 241 306 363
#     4  11  22  36  62  88 115 151 205 252 294 355
#     4   8  16  30  52  83 116 151 187 248 295 345
#     4  11  22  36  58  89 121 156 190 248 308 360
#
# _framework density 20.893509000000002
#
# number of rings (size 3 to 8) (size 9 to 14) (size 15 to 20)
#    0.000    2.250    0.000    4.500    7.000    0.000 
#    0.000    0.625    0.000    6.750    0.000    0.000 
#    0.000    0.000    0.000    0.000    0.000    0.000 
#
# Total GULP energy -198312.723342 kJ/mol
# GULP energy per Si atom -12394.545209 kJ/mol
# Density = 2.084595 g / cm^3
# Si number density = 20.893509 Si / 1000 Ang^3
#
#
#
# Elastic Constant Matrix: (Units=GPa)
#
#
# Indices 1 2 3 4 5 6 
#
# 1 148.5440 33.6725 56.3317 3.5846 1.3322 8.0006
# 2 33.6725 54.2681 16.0363 -7.3069 4.6783 11.6160
# 3 56.3317 16.0363 90.1096 -2.8998 8.5511 -2.1954
# 4 3.5846 -7.3069 -2.8998 30.9985 -1.8534 4.6318
# 5 1.3322 4.6783 8.5511 -1.8534 30.7557 8.5091
# 6 8.0006 11.6160 -2.1954 4.6318 8.5091 20.0182
#
#
#
# Elastic Compliance Matrix: (Units=1/GPa)
#
#
# Indices 1 2 3 4 5 6 
#
# 1 0.010180 -0.004518 -0.005933 -0.002255 0.002489 -0.002634
# 2 -0.004518 0.026548 -0.002201 0.009204 0.001975 -0.016810
# 3 -0.005933 -0.002201 0.015968 0.000114 -0.006038 0.007940
# 4 -0.002255 0.009204 0.000114 0.037283 0.005127 -0.015233
# 5 0.002489 0.001975 -0.006038 0.005127 0.039888 -0.020944
# 6 -0.002634 -0.016810 0.007940 -0.015233 -0.020944 0.074060
#
#
# Mechanical properties :
#
#
# Convention : Reuss Voigt Hill
#
# Bulk Modulus (GPa) = 36.50607 56.11143 46.30875
# Shear Modulus (GPa) = 20.97654 28.81322 24.89488
#
# Velocity S-wave (km/s) = 3.17199 3.71759 3.45557
# Velocity P-wave (km/s) = 5.56109 6.73361 6.17524
#
# Compressibility (1/GPa) = 0.02739271
#
# Stress axis : x y z
#
# Youngs Moduli (GPa) = 98.23240 37.66793 62.62421
#
# Poissons Ratio (x) = 0.17017 0.37154
# Poissons Ratio (y) = 0.44378 0.13784
# Poissons Ratio (z) = 0.58280 0.08291
#
# Static dielectric constant tensor:
#      x y z
#    x 4.043370 0.052910 -0.052600 
#    y 0.052910 3.555060 0.220940 
#    z -0.052600 0.220940 3.942890 
# 
# 
# High freq. dielectric constant tensor:
#      x y z
#    x 1.831600 0.004710 -0.003020 
#    y 0.004710 1.784060 0.020070 
#    z -0.003020 0.020070 1.811670 
# 
# From -- ./inp_files/245982.got.cif
#   From: 2010.06.25/outbox.cif.g09.slc.cpg/sg2_123_cif.got.tgz:245982.got - 2010.06.27 13:26:56.
