data_PCOD8009087
_publ_section_title
;
Structure prediction by ZEFSAII (Michael W. Deem and Ramdas Pophale) SiO2 
 PCOD8009087
Probable space group: P -1
;
_chemical_formula_sum "Si O2"
_cell_formula_units_Z 16
_cell_length_a 12.429737
_cell_length_b 23.489147
_cell_length_c 12.205109
_cell_angle_alpha 145.978584
_cell_angle_beta 23.303418
_cell_angle_gamma 144.167789
_cell_volume 768.739272
_symmetry_space_group_name_H-M "P -1"
_symmetry_group_IT_number 2
_symmetry_cell_setting 'triclinic'
loop_
_space_group_symop_operation_xyz
x,y,z
-x,-y,-z
loop_
_atom_site_type_symbol
_atom_site_label
_atom_site_fract_x
_atom_site_fract_y
_atom_site_fract_z
Si Si1 0.143247 0.448144 0.637968
Si Si2 0.732900 0.584615 0.291789
Si Si3 0.755340 0.760447 0.383473
Si Si4 0.478969 0.731088 0.378466
Si Si5 0.987282 0.939371 0.025852
Si Si6 0.345128 0.897214 0.045362
Si Si7 0.451549 0.035541 0.357458
Si Si8 0.916474 0.705216 0.754051
O O1 0.399075 0.547538 0.541857
O O2 0.175014 0.385841 0.621368
O O3 0.131953 0.375263 0.427623
O O4 0.861201 0.489517 0.976573
O O5 0.839787 0.682883 0.269516
O O6 0.589228 0.693365 0.329807
O O7 0.038108 0.837861 0.194903
O O8 0.551495 0.819651 0.731615
O O9 0.524301 0.855587 0.556164
O O10 0.154678 0.683912 0.580472
O O11 0.639800 0.696507 0.070268
O O12 0.999024 0.819176 0.803350
O O13 0.246971 0.987868 0.937855
O O14 0.703666 0.954161 0.368505
O O15 0.000000 0.000000 0.000000
O O16 0.289305 0.937309 0.282687
O O17 0.500000 0.000000 0.000000
#
# Coordination Sequence:
#
# PCOD8009087 Si02
#       8
#     2   2   2   2   2   2   2   2
#     4  10  21  43  66  87 122 153 211 247 322 365
#     4  10  23  42  65  91 118 160 193 272 311 357
#     4  12  24  40  62  91 127 158 211 253 310 364
#     4  10  21  37  57  86 122 156 196 239 300 362
#     4  10  21  37  56  84 122 156 197 249 294 350
#     4  12  24  37  61  91 122 166 205 247 296 368
#     4  10  21  36  55  81 119 159 198 236 298 352
#     4  10  21  37  62  86 113 165 199 238 301 370
#
# _framework density 20.813300000000002
#
# number of rings (size 3 to 8) (size 9 to 14) (size 15 to 20)
#    0.000    1.500    1.250    3.750    3.500    2.000 
#    0.000    3.750    0.000    0.000    0.000    0.000 
#    0.000    0.000    0.000    0.000    0.000    0.000 
#
# Total GULP energy -198393.271048 kJ/mol
# GULP energy per Si atom -12399.579441 kJ/mol
# Density = 2.076593 g / cm^3
# Si number density = 20.813300 Si / 1000 Ang^3
#
#
#
# Elastic Constant Matrix: (Units=GPa)
#
#
# Indices 1 2 3 4 5 6 
#
# 1 103.4381 46.0200 24.1439 16.0285 6.4035 2.1209
# 2 46.0200 53.7001 18.4828 0.3649 0.6104 -0.1936
# 3 24.1439 18.4828 93.8466 1.8163 -4.2070 7.8018
# 4 16.0285 0.3649 1.8163 29.4682 7.6857 7.2979
# 5 6.4035 0.6104 -4.2070 7.6857 28.3244 3.6864
# 6 2.1209 -0.1936 7.8018 7.2979 3.6864 33.4193
#
#
#
# Elastic Compliance Matrix: (Units=1/GPa)
#
#
# Indices 1 2 3 4 5 6 
#
# 1 0.018310 -0.014994 -0.001766 -0.009587 -0.001665 0.001441
# 2 -0.014994 0.032331 -0.002657 0.007872 0.000160 0.000023
# 3 -0.001766 -0.002657 0.011995 0.000349 0.002542 -0.003060
# 4 -0.009587 0.007872 0.000349 0.043249 -0.008655 -0.007917
# 5 -0.001665 0.000160 0.002542 -0.008655 0.038778 -0.002874
# 6 0.001441 0.000023 -0.003060 -0.007917 -0.002874 0.032592
#
#
# Mechanical properties :
#
#
# Convention : Reuss Voigt Hill
#
# Bulk Modulus (GPa) = 42.01533 47.58646 44.80089
# Shear Modulus (GPa) = 22.31908 29.06491 25.69200
#
# Velocity S-wave (km/s) = 3.27822 3.74098 3.51722
# Velocity P-wave (km/s) = 5.87874 6.44771 6.16979
#
# Compressibility (1/GPa) = 0.02380084
#
# Stress axis : x y z
#
# Youngs Moduli (GPa) = 54.61502 30.93020 83.36798
#
# Poissons Ratio (x) = 0.46377 0.14726
# Poissons Ratio (y) = 0.81890 0.22151
# Poissons Ratio (z) = 0.09647 0.08218
#
# Static dielectric constant tensor:
#      x y z
#    x 4.088140 0.127610 -0.333400 
#    y 0.127610 3.491660 -0.144700 
#    z -0.333400 -0.144700 4.365740 
# 
# 
# High freq. dielectric constant tensor:
#      x y z
#    x 1.818860 0.006510 -0.000600 
#    y 0.006510 1.782540 -0.004070 
#    z -0.000600 -0.004070 1.837550 
# 
# From -- ./inp_files/69113.got.cif
#   From: 2010.06.25/outbox.cif.g09.slc.cpg/sg2_35_cif.got.tgz:69113.got - 2010.06.27 13:26:56.
