data_PCOD8009916
_publ_section_title
;
Structure prediction by ZEFSAII (Michael W. Deem and Ramdas Pophale) SiO2 
 PCOD8009916
Probable space group: P -1
;
_chemical_formula_sum "Si O2"
_cell_formula_units_Z 16
_cell_length_a 7.195395
_cell_length_b 11.069210
_cell_length_c 24.893047
_cell_angle_alpha 22.929648
_cell_angle_beta 116.719821
_cell_angle_gamma 114.961787
_cell_volume 689.783869
_symmetry_space_group_name_H-M "P -1"
_symmetry_group_IT_number 2
_symmetry_cell_setting 'triclinic'
loop_
_space_group_symop_operation_xyz
x,y,z
-x,-y,-z
loop_
_atom_site_type_symbol
_atom_site_label
_atom_site_fract_x
_atom_site_fract_y
_atom_site_fract_z
Si Si1 0.754868 0.585002 0.622289
Si Si2 0.630850 0.701804 0.250895
Si Si3 0.052866 0.293063 0.005774
Si Si4 0.912708 0.785085 0.124173
Si Si5 0.091111 0.804458 0.292937
Si Si6 0.730905 0.805131 0.761306
Si Si7 0.565864 0.168418 0.385321
Si Si8 0.414879 0.339589 0.947911
O O1 0.529376 0.460584 0.662659
O O2 0.925033 0.479107 0.731114
O O3 0.797915 0.458362 0.620056
O O4 0.745709 0.961752 0.465397
O O5 0.655343 0.509358 0.276017
O O6 0.849349 0.712850 0.306081
O O7 0.554450 0.039916 0.087967
O O8 0.256625 0.332919 0.979365
O O9 0.944117 0.618100 0.862000
O O10 0.889674 0.021149 0.074588
O O11 0.121672 0.152208 0.129145
O O12 0.700232 0.628316 0.138363
O O13 0.000000 0.000000 0.000000
O O14 0.205025 0.855263 0.344828
O O15 0.637624 0.823901 0.681869
O O16 0.565479 0.639256 0.847994
O O17 0.500000 0.000000 0.500000
#
# Coordination Sequence:
#
# PCOD8009916 Si02
#       8
#     2   2   2   2   2   2   2   2
#     4  10  22  45  64  89 137 167 216 272 320 376
#     4  11  21  42  69  97 126 173 213 264 329 380
#     4  10  21  37  62  94 137 166 200 267 323 383
#     4   9  17  34  62  94 121 164 205 261 324 369
#     4  11  24  41  66  98 133 173 209 265 326 388
#     4  12  26  41  63 102 133 167 223 262 314 397
#     4  10  26  45  69  92 128 174 220 275 316 376
#     4  11  22  36  66  99 134 169 208 261 338 379
#
# _framework density 23.19567
#
# number of rings (size 3 to 8) (size 9 to 14) (size 15 to 20)
#    0.000    1.500    5.000    1.125    8.750    3.500 
#    0.000    2.500    0.000    0.000    0.000    0.000 
#    0.000    0.000    0.000    0.000    0.000    0.000 
#
# Total GULP energy -198359.789438 kJ/mol
# GULP energy per Si atom -12397.486840 kJ/mol
# Density = 2.314288 g / cm^3
# Si number density = 23.195670 Si / 1000 Ang^3
#
#
#
# Elastic Constant Matrix: (Units=GPa)
#
#
# Indices 1 2 3 4 5 6 
#
# 1 106.7095 41.8393 22.3741 -13.5882 18.8137 13.1989
# 2 41.8393 143.6196 22.6252 -23.7132 5.0104 17.3135
# 3 22.3741 22.6252 56.5391 -14.0513 24.5920 -1.8270
# 4 -13.5882 -23.7132 -14.0513 24.3341 -8.5601 -4.2567
# 5 18.8137 5.0104 24.5920 -8.5601 32.5859 -4.9440
# 6 13.1989 17.3135 -1.8270 -4.2567 -4.9440 26.1621
#
#
#
# Elastic Compliance Matrix: (Units=1/GPa)
#
#
# Indices 1 2 3 4 5 6 
#
# 1 0.012572 -0.002436 -0.001083 0.000569 -0.006828 -0.006004
# 2 -0.002436 0.009548 -0.002651 0.006928 0.003222 -0.003539
# 3 -0.001083 -0.002651 0.029267 0.007452 -0.018792 0.002006
# 4 0.000569 0.006928 0.007452 0.056738 0.008882 0.006559
# 5 -0.006828 0.003222 -0.018792 0.008882 0.052372 0.011343
# 6 -0.006004 -0.003539 0.002006 0.006559 0.011343 0.046945
#
#
# Mechanical properties :
#
#
# Convention : Reuss Voigt Hill
#
# Bulk Modulus (GPa) = 25.60973 53.39395 39.50184
# Shear Modulus (GPa) = 21.47783 31.28507 26.38145
#
# Velocity S-wave (km/s) = 3.04623 3.67651 3.37611
# Velocity P-wave (km/s) = 4.84122 6.41024 5.68017
#
# Compressibility (1/GPa) = 0.03904766
#
# Stress axis : x y z
#
# Youngs Moduli (GPa) = 79.53892 104.73183 34.16825
#
# Poissons Ratio (x) = 0.25513 0.03701
# Poissons Ratio (y) = 0.19376 0.09058
# Poissons Ratio (z) = 0.08615 0.27763
#
# Static dielectric constant tensor:
#      x y z
#    x 4.105330 -0.022060 0.166270 
#    y -0.022060 4.575430 -0.203940 
#    z 0.166270 -0.203940 4.573180 
# 
# 
# High freq. dielectric constant tensor:
#      x y z
#    x 1.923860 0.001160 0.001830 
#    y 0.001160 1.916160 -0.005500 
#    z 0.001830 -0.005500 1.907870 
# 
# From -- ./inp_files/622495.got.cif
#   From: 2010.06.25/outbox.cif.g09.slc.cpg/sg2_312_cif.got.tgz:622495.got - 2010.06.27 13:26:56.
