data_PCOD8009393
_publ_section_title
;
Structure prediction by ZEFSAII (Michael W. Deem and Ramdas Pophale) SiO2 
 PCOD8009393
Probable space group: P -1
;
_chemical_formula_sum "Si O2"
_cell_formula_units_Z 16
_cell_length_a 10.873004
_cell_length_b 13.603478
_cell_length_c 14.439012
_cell_angle_alpha 125.413932
_cell_angle_beta 138.787211
_cell_angle_gamma 33.721006
_cell_volume 774.894988
_symmetry_space_group_name_H-M "P -1"
_symmetry_group_IT_number 2
_symmetry_cell_setting 'triclinic'
loop_
_space_group_symop_operation_xyz
x,y,z
-x,-y,-z
loop_
_atom_site_type_symbol
_atom_site_label
_atom_site_fract_x
_atom_site_fract_y
_atom_site_fract_z
Si Si1 0.302665 0.255390 0.235361
Si Si2 0.590835 0.819750 0.949266
Si Si3 0.037637 0.977411 0.671213
Si Si4 0.853549 0.650210 0.195442
Si Si5 0.329928 0.961257 0.350890
Si Si6 0.089252 0.107796 0.609131
Si Si7 0.932281 0.266513 0.150536
Si Si8 0.478543 0.329078 0.838458
O O1 0.242228 0.270492 0.100466
O O2 0.150204 0.452669 0.282631
O O3 0.172608 0.206689 0.190978
O O4 0.626453 0.104725 0.357169
O O5 0.318037 0.865206 0.826049
O O6 0.797717 0.682523 0.072327
O O7 0.500000 0.000000 0.000000
O O8 0.100973 0.843123 0.557212
O O9 0.964345 0.133647 0.654085
O O10 0.782406 0.058878 0.635071
O O11 0.849639 0.782952 0.309668
O O12 0.609894 0.690815 0.126602
O O13 0.509835 0.777419 0.294404
O O14 0.500000 0.000000 0.500000
O O15 0.067322 0.127657 0.234126
O O16 0.741109 0.460677 0.195428
O O17 0.770660 0.252970 0.982938
#
# Coordination Sequence:
#
# PCOD8009393 Si02
#       8
#     2   2   2   2   2   2   2   2
#     4  10  21  36  63  86 115 153 197 236 293 345
#     4  11  21  36  60  87 116 150 187 242 294 330
#     4  10  22  39  61  86 117 154 193 238 291 349
#     4  11  20  38  62  85 116 154 194 239 292 344
#     4  12  24  38  62  89 118 158 197 238 298 346
#     4  10  21  42  60  81 120 150 191 241 289 346
#     4  10  22  40  59  86 120 155 200 245 285 349
#     4  10  23  38  60  87 117 159 199 240 293 344
#
# _framework density 20.647960999999999
#
# number of rings (size 3 to 8) (size 9 to 14) (size 15 to 20)
#    0.000    1.500    2.500    3.750    1.750    0.500 
#    0.000    9.375    0.000    0.000    0.000    0.000 
#    0.000    0.000    0.000    0.000    0.000    0.000 
#
# Total GULP energy -198306.120024 kJ/mol
# GULP energy per Si atom -12394.132502 kJ/mol
# Density = 2.060097 g / cm^3
# Si number density = 20.647961 Si / 1000 Ang^3
#
#
#
# Elastic Constant Matrix: (Units=GPa)
#
#
# Indices 1 2 3 4 5 6 
#
# 1 106.7532 31.8658 15.3998 -5.5618 -1.6520 -3.8013
# 2 31.8658 93.0081 33.8537 10.2634 3.3958 5.5617
# 3 15.3998 33.8537 91.8933 14.7700 12.6348 0.4971
# 4 -5.5618 10.2634 14.7700 19.6357 -3.2917 -0.9174
# 5 -1.6520 3.3958 12.6348 -3.2917 27.6495 2.3938
# 6 -3.8013 5.5617 0.4971 -0.9174 2.3938 25.8318
#
#
#
# Elastic Compliance Matrix: (Units=1/GPa)
#
#
# Indices 1 2 3 4 5 6 
#
# 1 0.011467 -0.004316 -0.001941 0.007553 0.002771 0.002666
# 2 -0.004316 0.014454 -0.003400 -0.006555 -0.000928 -0.003829
# 3 -0.001941 -0.003400 0.015479 -0.011770 -0.008215 0.000492
# 4 0.007553 -0.006555 -0.011770 0.067938 0.014391 0.003828
# 5 0.002771 -0.000928 -0.008215 0.014391 0.042142 -0.002628
# 6 0.002666 -0.003829 0.000492 0.003828 -0.002628 0.040299
#
#
# Mechanical properties :
#
#
# Convention : Reuss Voigt Hill
#
# Bulk Modulus (GPa) = 45.27745 50.43260 47.85502
# Shear Modulus (GPa) = 22.88811 28.65909 25.77360
#
# Velocity S-wave (km/s) = 3.33302 3.72961 3.53688
# Velocity P-wave (km/s) = 6.06530 6.55932 6.31714
#
# Compressibility (1/GPa) = 0.02208605
#
# Stress axis : x y z
#
# Youngs Moduli (GPa) = 87.20586 69.18405 64.60540
#
# Poissons Ratio (x) = 0.29862 0.12539
# Poissons Ratio (y) = 0.37641 0.21964
# Poissons Ratio (z) = 0.16926 0.23520
#
# Static dielectric constant tensor:
#      x y z
#    x 1.911560 1.760410 0.433750 
#    y 1.760410 2.260740 -0.229850 
#    z 0.433750 -0.229850 3.729250 
# 
# 
# High freq. dielectric constant tensor:
#      x y z
#    x 1.824060 0.007270 0.007530 
#    y 0.007270 1.791560 0.006240 
#    z 0.007530 0.006240 1.807440 
# 
# From -- ./inp_files/522445.got.cif
#   From: 2010.06.25/outbox.cif.g09.slc.cpg/sg2_262_cif.got.tgz:522445.got - 2010.06.27 13:26:56.
