data_PCOD8009709
_publ_section_title
;
Structure prediction by ZEFSAII (Michael W. Deem and Ramdas Pophale) SiO2 
 PCOD8009709
Probable space group: P -1
;
_chemical_formula_sum "Si O2"
_cell_formula_units_Z 16
_cell_length_a 15.504450
_cell_length_b 11.641040
_cell_length_c 9.872768
_cell_angle_alpha 52.868562
_cell_angle_beta 61.953163
_cell_angle_gamma 28.481830
_cell_volume 668.871880
_symmetry_space_group_name_H-M "P -1"
_symmetry_group_IT_number 2
_symmetry_cell_setting 'triclinic'
loop_
_space_group_symop_operation_xyz
x,y,z
-x,-y,-z
loop_
_atom_site_type_symbol
_atom_site_label
_atom_site_fract_x
_atom_site_fract_y
_atom_site_fract_z
Si Si1 0.945963 0.920851 0.351152
Si Si2 0.699267 0.609616 0.420715
Si Si3 0.628500 0.270956 0.179864
Si Si4 0.715249 0.913834 0.197266
Si Si5 0.931333 0.514498 0.902931
Si Si6 0.453284 0.694482 0.195243
Si Si7 0.331233 0.931588 0.390182
Si Si8 0.827285 0.362305 0.219570
O O1 0.158098 0.604778 0.408101
O O2 0.837768 0.077657 0.174273
O O3 0.816089 0.956262 0.482468
O O4 0.945888 0.068249 0.332756
O O5 0.628586 0.862729 0.299617
O O6 0.524695 0.722232 0.472092
O O7 0.830002 0.424377 0.324625
O O8 0.525534 0.445023 0.273514
O O9 0.649011 0.075200 0.270138
O O10 0.500000 0.500000 0.000000
O O11 0.934116 0.626514 0.224269
O O12 0.668625 0.074219 0.990444
O O13 0.738628 0.826642 0.783401
O O14 0.908852 0.372774 0.044702
O O15 0.000000 0.500000 0.000000
O O16 0.350170 0.801838 0.337876
O O17 0.618845 0.596871 0.166492
#
# Coordination Sequence:
#
# PCOD8009709 Si02
#       8
#     2   2   2   2   2   2   2   2
#     4  11  23  44  63  93 133 162 209 261 318 375
#     4  11  22  37  63  97 129 166 202 260 326 373
#     4   9  22  42  64  87 122 178 211 249 313 374
#     4  11  20  38  64  91 130 169 212 255 304 378
#     4  12  20  36  64  98 129 163 211 259 316 367
#     4   9  19  37  63  91 126 162 213 258 309 370
#     4  11  22  39  68 100 127 159 206 267 325 366
#     4  10  21  37  59  94 130 161 207 260 313 375
#
# _framework density 23.920874999999999
#
# number of rings (size 3 to 8) (size 9 to 14) (size 15 to 20)
#    0.000    1.500    3.750    1.125    0.000    7.000 
#    6.750    3.125    2.750    0.000    0.000    0.000 
#    0.000    0.000    0.000    0.000    0.000    0.000 
#
# Total GULP energy -198249.493519 kJ/mol
# GULP energy per Si atom -12390.593345 kJ/mol
# Density = 2.386643 g / cm^3
# Si number density = 23.920875 Si / 1000 Ang^3
#
#
#
# Elastic Constant Matrix: (Units=GPa)
#
#
# Indices 1 2 3 4 5 6 
#
# 1 116.6963 44.5828 41.5551 -18.3811 -4.3178 17.7525
# 2 44.5828 90.2633 27.8180 -24.1454 2.1795 4.4254
# 3 41.5551 27.8180 64.9130 -19.7609 -3.8111 -8.1144
# 4 -18.3811 -24.1454 -19.7609 38.4169 -5.8987 1.5583
# 5 -4.3178 2.1795 -3.8111 -5.8987 47.3657 -10.7240
# 6 17.7525 4.4254 -8.1144 1.5583 -10.7240 49.5851
#
#
#
# Elastic Compliance Matrix: (Units=1/GPa)
#
#
# Indices 1 2 3 4 5 6 
#
# 1 0.013833 -0.004058 -0.007834 0.000203 -0.000513 -0.005990
# 2 -0.004058 0.015578 -0.002157 0.006678 -0.000570 -0.000624
# 3 -0.007834 -0.002157 0.025018 0.008090 0.004157 0.007736
# 4 0.000203 0.006678 0.008090 0.035211 0.004884 0.000605
# 5 -0.000513 -0.000570 0.004157 0.004884 0.023350 0.005812
# 6 -0.005990 -0.000624 0.007736 0.000605 0.005812 0.024871
#
#
# Mechanical properties :
#
#
# Convention : Reuss Voigt Hill
#
# Bulk Modulus (GPa) = 37.97513 55.53160 46.75337
# Shear Modulus (GPa) = 28.61448 37.60133 33.10791
#
# Velocity S-wave (km/s) = 3.46238 3.96903 3.72433
# Velocity P-wave (km/s) = 5.64747 6.65352 6.17103
#
# Compressibility (1/GPa) = 0.02633302
#
# Stress axis : x y z
#
# Youngs Moduli (GPa) = 72.28946 64.19160 39.97103
#
# Poissons Ratio (x) = 0.26049 0.31312
# Poissons Ratio (y) = 0.29335 0.08621
# Poissons Ratio (z) = 0.56629 0.13844
#
# Static dielectric constant tensor:
#      x y z
#    x 4.602480 0.175570 0.358530 
#    y 0.175570 4.455650 -0.431590 
#    z 0.358530 -0.431590 4.361390 
# 
# 
# High freq. dielectric constant tensor:
#      x y z
#    x 1.948750 0.001270 0.001220 
#    y 0.001270 1.939620 -0.036240 
#    z 0.001220 -0.036240 1.940180 
# 
# From -- ./inp_files/451085.got.cif
#   From: 2010.06.25/outbox.cif.g09.slc.cpg/sg2_226_cif.got.tgz:451085.got - 2010.06.27 13:26:56.
