data_PCOD8009311
_publ_section_title
;
Structure prediction by ZEFSAII (Michael W. Deem and Ramdas Pophale) SiO2 
 PCOD8009311
Probable space group: P -1
;
_chemical_formula_sum "Si O2"
_cell_formula_units_Z 14
_cell_length_a 9.175339
_cell_length_b 13.525504
_cell_length_c 12.355237
_cell_angle_alpha 88.237418
_cell_angle_beta 77.450650
_cell_angle_gamma 146.531040
_cell_volume 758.679229
_symmetry_space_group_name_H-M "P -1"
_symmetry_group_IT_number 2
_symmetry_cell_setting 'triclinic'
loop_
_space_group_symop_operation_xyz
x,y,z
-x,-y,-z
loop_
_atom_site_type_symbol
_atom_site_label
_atom_site_fract_x
_atom_site_fract_y
_atom_site_fract_z
Si Si1 0.692956 0.104747 0.287128
Si Si2 0.661544 0.812404 0.034034
Si Si3 0.665480 0.315287 0.341381
Si Si4 0.691459 0.782920 0.781123
Si Si5 0.341440 0.443739 0.133814
Si Si6 0.338132 0.114752 0.614597
Si Si7 0.663335 0.245454 0.758385
O O1 0.653312 0.190180 0.338837
O O2 0.001524 0.273756 0.167517
O O3 0.708780 0.031752 0.384019
O O4 0.429344 0.920857 0.253170
O O5 0.501715 0.635592 0.137391
O O6 0.510233 0.826861 0.100246
O O7 0.615988 0.776670 0.914329
O O8 0.000000 0.000000 0.000000
O O9 0.518724 0.277370 0.261388
O O10 0.485742 0.243990 0.479356
O O11 0.990204 0.545287 0.290108
O O12 0.628810 0.629388 0.783027
O O13 0.031904 0.997313 0.688770
O O14 0.500000 0.500000 0.000000
O O15 0.550937 0.254083 0.679416
#
# Coordination Sequence:
#
# PCOD8009311 Si02
#       7
#     2   2   2   2   2   2   2
#     4   9  20  37  58  86 110 156 198 223 282 346
#     4  11  18  38  63  82 113 152 198 232 279 356
#     4  12  21  38  59  88 123 146 186 251 287 321
#     4  10  22  36  60  88 114 153 187 240 299 326
#     4   9  17  36  59  78 113 153 193 228 274 356
#     4   9  20  40  60  81 117 158 197 224 277 355
#     4  10  21  36  61  85 110 154 201 224 282 343
#
# _framework density 18.453122
#
# number of rings (size 3 to 8) (size 9 to 14) (size 15 to 20)
#    0.857    1.143    2.857    2.143    0.000    0.571 
#    2.571    0.714    0.000    2.571    0.000    0.000 
#    0.000    0.000    0.000    0.000    0.000    0.000 
#
# Total GULP energy -173442.446344 kJ/mol
# GULP energy per Si atom -12388.746167 kJ/mol
# Density = 1.841112 g / cm^3
# Si number density = 18.453122 Si / 1000 Ang^3
#
#
#
# Elastic Constant Matrix: (Units=GPa)
#
#
# Indices 1 2 3 4 5 6 
#
# 1 29.0335 27.1955 19.9792 -4.1593 7.2452 3.9285
# 2 27.1955 123.1042 39.5270 -10.1784 3.9128 12.1214
# 3 19.9792 39.5270 106.3384 -8.6509 -2.6456 13.6142
# 4 -4.1593 -10.1784 -8.6509 27.0224 5.5906 -4.8195
# 5 7.2452 3.9128 -2.6456 5.5906 22.9614 7.1579
# 6 3.9285 12.1214 13.6142 -4.8195 7.1579 25.5244
#
#
#
# Elastic Compliance Matrix: (Units=1/GPa)
#
#
# Indices 1 2 3 4 5 6 
#
# 1 0.052976 -0.008701 -0.007493 0.007947 -0.020263 0.007158
# 2 -0.008701 0.011039 -0.001947 0.001422 0.001209 -0.002935
# 3 -0.007493 -0.001947 0.012481 -0.000310 0.006197 -0.006376
# 4 0.007947 0.001422 -0.000310 0.044244 -0.017119 0.011422
# 5 -0.020263 0.001209 0.006197 -0.017119 0.061218 -0.021161
# 6 0.007158 -0.002935 -0.006376 0.011422 -0.021161 0.050962
#
#
# Mechanical properties :
#
#
# Convention : Reuss Voigt Hill
#
# Bulk Modulus (GPa) = 24.86741 47.98660 36.42700
# Shear Modulus (GPa) = 17.69253 26.55327 22.12290
#
# Velocity S-wave (km/s) = 3.09978 3.79748 3.46623
# Velocity P-wave (km/s) = 5.12999 6.72970 5.98354
#
# Compressibility (1/GPa) = 0.04021328
#
# Stress axis : x y z
#
# Youngs Moduli (GPa) = 18.87652 90.59115 80.12424
#
# Poissons Ratio (x) = 0.78823 0.60038
# Poissons Ratio (y) = 0.16424 0.15599
# Poissons Ratio (z) = 0.14144 0.17637
#
# Static dielectric constant tensor:
#      x y z
#    x 2.852110 0.379170 -0.240960 
#    y 0.379170 2.637020 0.053090 
#    z -0.240960 0.053090 3.329790 
# 
# 
# High freq. dielectric constant tensor:
#      x y z
#    x 1.689110 -0.003660 -0.017260 
#    y -0.003660 1.717600 -0.017150 
#    z -0.017260 -0.017150 1.715950 
# 
# From -- ./inp_files/176115.got.cif
#   From: 2010.06.25/outbox.cif.g09.slc.cpg/sg2_89_cif.got.tgz:176115.got - 2010.06.27 13:26:56.
