data_PCOD8009917
_publ_section_title
;
Structure prediction by ZEFSAII (Michael W. Deem and Ramdas Pophale) SiO2 
 PCOD8009917
Probable space group: P -1
;
_chemical_formula_sum "Si O2"
_cell_formula_units_Z 12
_cell_length_a 12.772219
_cell_length_b 13.663629
_cell_length_c 5.236748
_cell_angle_alpha 119.719680
_cell_angle_beta 131.780522
_cell_angle_gamma 41.644727
_cell_volume 452.852782
_symmetry_space_group_name_H-M "P -1"
_symmetry_group_IT_number 2
_symmetry_cell_setting 'triclinic'
loop_
_space_group_symop_operation_xyz
x,y,z
-x,-y,-z
loop_
_atom_site_type_symbol
_atom_site_label
_atom_site_fract_x
_atom_site_fract_y
_atom_site_fract_z
Si Si1 0.812229 0.022920 0.016285
Si Si2 0.949240 0.668361 0.891664
Si Si3 0.250495 0.638501 0.074528
Si Si4 0.483818 0.690600 0.812319
Si Si5 0.954260 0.886526 0.572041
Si Si6 0.194622 0.328288 0.834769
O O1 0.625860 0.184289 0.988761
O O2 0.985799 0.015668 0.254655
O O3 0.859732 0.904750 0.164817
O O4 0.800513 0.964382 0.648960
O O5 0.809054 0.744193 0.523247
O O6 0.027215 0.501516 0.798004
O O7 0.841578 0.742006 0.082869
O O8 0.115616 0.671332 0.128161
O O9 0.347537 0.703479 0.404158
O O10 0.398723 0.463326 0.038906
O O11 0.132863 0.719132 0.727715
O O12 0.611058 0.708527 0.877973
#
# Coordination Sequence:
#
# PCOD8009917 Si02
#       6
#     2   2   2   2   2   2
#     4  10  21  38  58  83 120 162 195 231 295 368
#     4   9  19  36  56  80 116 159 193 228 291 364
#     4  10  21  37  62  95 122 148 198 261 298 330
#     4  10  21  37  62  95 122 148 198 261 298 330
#     4  10  21  38  58  83 120 162 195 231 295 368
#     4   9  19  36  56  80 116 159 193 228 291 364
#
# _framework density 26.498678999999999
#
# number of rings (size 3 to 8) (size 9 to 14) (size 15 to 20)
#    0.000    2.333    0.000    3.000    0.000    6.000 
#    0.000   11.667    0.000    7.000    0.000    0.000 
#    0.000    0.000    0.000    0.000    0.000    0.000 
#
# Total GULP energy -148748.755081 kJ/mol
# GULP energy per Si atom -12395.729590 kJ/mol
# Density = 2.643837 g / cm^3
# Si number density = 26.498679 Si / 1000 Ang^3
#
#
#
# Elastic Constant Matrix: (Units=GPa)
#
#
# Indices 1 2 3 4 5 6 
#
# 1 173.2389 39.8281 85.5878 -8.9185 -19.9152 -2.2975
# 2 39.8281 148.4430 32.9641 -19.0848 -26.8619 -14.8711
# 3 85.5878 32.9641 143.2765 1.4424 -35.1354 -17.7532
# 4 -8.9185 -19.0848 1.4424 19.7125 -6.6718 -8.3758
# 5 -19.9152 -26.8619 -35.1354 -6.6718 60.7289 5.7579
# 6 -2.2975 -14.8711 -17.7532 -8.3758 5.7579 39.6096
#
#
#
# Elastic Compliance Matrix: (Units=1/GPa)
#
#
# Indices 1 2 3 4 5 6 
#
# 1 0.008679 -0.001050 -0.005226 0.002512 -0.000208 -0.001672
# 2 -0.001050 0.010324 0.000152 0.013860 0.005259 0.006050
# 3 -0.005226 0.000152 0.011788 0.000427 0.004800 0.004430
# 4 0.002512 0.013860 0.000427 0.078513 0.013919 0.020119
# 5 -0.000208 0.005259 0.004800 0.013919 0.022675 0.003761
# 6 -0.001672 0.006050 0.004430 0.020119 0.003761 0.033114
#
#
# Mechanical properties :
#
#
# Convention : Reuss Voigt Hill
#
# Bulk Modulus (GPa) = 53.93076 86.85760 70.39418
# Shear Modulus (GPa) = 27.24446 44.44874 35.84660
#
# Velocity S-wave (km/s) = 3.20995 4.10004 3.68199
# Velocity P-wave (km/s) = 5.84250 7.43391 6.68572
#
# Compressibility (1/GPa) = 0.01854229
#
# Stress axis : x y z
#
# Youngs Moduli (GPa) = 115.21900 96.85862 84.82914
#
# Poissons Ratio (x) = 0.10173 0.44334
# Poissons Ratio (y) = 0.12101 -0.01288
# Poissons Ratio (z) = 0.60217 -0.01470
#
# Static dielectric constant tensor:
#      x y z
#    x 5.270570 0.225010 -0.360330 
#    y 0.225010 4.927040 0.092300 
#    z -0.360330 0.092300 4.715070 
# 
# 
# High freq. dielectric constant tensor:
#      x y z
#    x 2.077810 0.023710 -0.016690 
#    y 0.023710 2.065070 0.019450 
#    z -0.016690 0.019450 2.041460 
# 
# From -- ./inp_files/73550.got.cif
#   From: 2010.06.25/outbox.cif.g09.slc.cpg/sg2_37_cif.got.tgz:73550.got - 2010.06.27 13:26:56.
