data_PCOD8009983
_publ_section_title
;
Structure prediction by ZEFSAII (Michael W. Deem and Ramdas Pophale) SiO2 
 PCOD8009983
Probable space group: P -1
;
_chemical_formula_sum "Si O2"
_cell_formula_units_Z 16
_cell_length_a 14.133817
_cell_length_b 7.920413
_cell_length_c 9.611462
_cell_angle_alpha 91.744503
_cell_angle_beta 100.588677
_cell_angle_gamma 40.727365
_cell_volume 680.063673
_symmetry_space_group_name_H-M "P -1"
_symmetry_group_IT_number 2
_symmetry_cell_setting 'triclinic'
loop_
_space_group_symop_operation_xyz
x,y,z
-x,-y,-z
loop_
_atom_site_type_symbol
_atom_site_label
_atom_site_fract_x
_atom_site_fract_y
_atom_site_fract_z
Si Si1 0.650588 0.455518 0.396362
Si Si2 0.161596 0.118304 0.122543
Si Si3 0.435947 0.912164 0.532715
Si Si4 0.911525 0.393644 0.852566
Si Si5 0.925316 0.274009 0.538671
Si Si6 0.414514 0.254481 0.153007
Si Si7 0.833576 0.914792 0.566855
Si Si8 0.480926 0.778075 0.105754
O O1 0.493767 0.686214 0.440478
O O2 0.749250 0.490212 0.465055
O O3 0.733316 0.173600 0.451405
O O4 0.611108 0.513654 0.223793
O O5 0.112915 0.373668 0.151811
O O6 0.159340 0.028847 0.270320
O O7 0.322972 0.895366 0.086377
O O8 0.045640 0.177433 0.992019
O O9 0.494866 0.786040 0.697071
O O10 0.253845 0.148727 0.472735
O O11 0.500000 0.000000 0.500000
O O12 0.957105 0.266456 0.709279
O O13 0.763888 0.494110 0.867821
O O14 0.000000 0.000000 0.500000
O O15 0.001928 0.317073 0.464427
O O16 0.466207 0.992476 0.149886
O O17 0.463644 0.305364 0.039400
#
# Coordination Sequence:
#
# PCOD8009983 Si02
#       8
#     2   2   2   2   2   2   2   2
#     4  11  22  43  65  87 134 172 213 273 320 387
#     4  10  22  39  63  97 132 166 213 272 322 397
#     4  12  21  40  67  97 123 166 221 274 322 381
#     4  10  21  42  63  93 133 168 213 272 329 380
#     4  10  24  43  64  91 130 173 222 265 318 394
#     4  10  21  37  63  95 124 168 210 266 325 378
#     4  11  25  41  64  96 129 173 216 268 333 382
#     4  10  21  38  62  93 130 164 213 260 325 392
#
# _framework density 23.527208999999999
#
# number of rings (size 3 to 8) (size 9 to 14) (size 15 to 20)
#    0.000    1.500    3.750    1.125    3.500    0.500 
#    0.000    5.625    0.000    0.000    0.000    0.000 
#    0.000    0.000    0.000    0.000    0.000    0.000 
#
# Total GULP energy -198372.001538 kJ/mol
# GULP energy per Si atom -12398.250096 kJ/mol
# Density = 2.347366 g / cm^3
# Si number density = 23.527209 Si / 1000 Ang^3
#
#
#
# Elastic Constant Matrix: (Units=GPa)
#
#
# Indices 1 2 3 4 5 6 
#
# 1 107.3967 16.3517 61.8879 5.3189 0.1888 -43.4939
# 2 16.3517 39.3367 35.0919 3.8970 -5.5164 -20.0955
# 3 61.8879 35.0919 217.3671 -4.6161 -8.6060 -32.8189
# 4 5.3189 3.8970 -4.6161 40.4666 -7.9679 -1.1161
# 5 0.1888 -5.5164 -8.6060 -7.9679 45.4516 -0.4789
# 6 -43.4939 -20.0955 -32.8189 -1.1161 -0.4789 38.5723
#
#
#
# Elastic Compliance Matrix: (Units=1/GPa)
#
#
# Indices 1 2 3 4 5 6 
#
# 1 0.019455 0.006600 -0.003279 -0.002983 -0.000186 0.022498
# 2 0.006600 0.040120 -0.004623 -0.003890 0.003541 0.024342
# 3 -0.003279 -0.004623 0.006244 0.001752 0.000934 -0.000730
# 4 -0.002983 -0.003890 0.001752 0.026476 0.004481 -0.003077
# 5 -0.000186 0.003541 0.000934 0.004481 0.023424 0.002850
# 6 0.022498 0.024342 -0.000730 -0.003077 0.002850 0.063300
#
#
# Mechanical properties :
#
#
# Convention : Reuss Voigt Hill
#
# Bulk Modulus (GPa) = 15.81895 65.64039 40.72967
# Shear Modulus (GPa) = 24.66770 41.61601 33.14185
#
# Velocity S-wave (km/s) = 3.24153 4.21033 3.75728
# Velocity P-wave (km/s) = 4.55503 7.18305 6.01434
#
# Compressibility (1/GPa) = 0.06321530
#
# Stress axis : x y z
#
# Youngs Moduli (GPa) = 51.40087 24.92552 160.14590
#
# Poissons Ratio (x) = -0.16451 0.52506
# Poissons Ratio (y) = -0.33926 0.74041
# Poissons Ratio (z) = 0.16852 0.11524
#
# Static dielectric constant tensor:
#      x y z
#    x 4.994740 -0.751250 -0.042340 
#    y -0.751250 4.434600 -0.003120 
#    z -0.042340 -0.003120 4.434690 
# 
# 
# High freq. dielectric constant tensor:
#      x y z
#    x 1.939560 -0.019070 0.000310 
#    y -0.019070 1.916180 -0.000300 
#    z 0.000310 -0.000300 1.938640 
# 
# From -- ./inp_files/271220.got.cif
#   From: 2010.06.25/outbox.cif.g09.slc.cpg/sg2_136_cif.got.tgz:271220.got - 2010.06.27 13:26:56.
