data_PCOD8009390
_publ_section_title
;
Structure prediction by ZEFSAII (Michael W. Deem and Ramdas Pophale) SiO2 
 PCOD8009390
Probable space group: P -1
;
_chemical_formula_sum "Si O2"
_cell_formula_units_Z 16
_cell_length_a 12.262631
_cell_length_b 9.008945
_cell_length_c 14.211409
_cell_angle_alpha 76.682853
_cell_angle_beta 89.125571
_cell_angle_gamma 30.163561
_cell_volume 711.298899
_symmetry_space_group_name_H-M "P -1"
_symmetry_group_IT_number 2
_symmetry_cell_setting 'triclinic'
loop_
_space_group_symop_operation_xyz
x,y,z
-x,-y,-z
loop_
_atom_site_type_symbol
_atom_site_label
_atom_site_fract_x
_atom_site_fract_y
_atom_site_fract_z
Si Si1 0.659585 0.325587 0.313995
Si Si2 0.172686 0.578065 0.797057
Si Si3 0.404707 0.157175 0.690115
Si Si4 0.304791 0.937211 0.350548
Si Si5 0.869309 0.318435 0.013847
Si Si6 0.471294 0.754385 0.804416
Si Si7 0.950369 0.731100 0.504821
Si Si8 0.231839 0.883079 0.935017
O O1 0.772972 0.315686 0.249375
O O2 0.530804 0.555219 0.373963
O O3 0.475481 0.457994 0.231747
O O4 0.870063 0.949137 0.394137
O O5 0.347648 0.249585 0.787811
O O6 0.216224 0.488472 0.919984
O O7 0.906828 0.865307 0.735940
O O8 0.642790 0.951019 0.692838
O O9 0.194104 0.487959 0.581868
O O10 0.423405 0.952777 0.704281
O O11 0.253624 0.005718 0.452156
O O12 0.922754 0.079125 0.085961
O O13 0.676284 0.552520 0.900427
O O14 0.105901 0.105255 0.998878
O O15 0.236554 0.000148 0.833184
O O16 0.000000 0.500000 0.500000
O O17 0.500000 0.500000 0.000000
#
# Coordination Sequence:
#
# PCOD8009390 Si02
#       8
#     2   2   2   2   2   2   2   2
#     4  11  23  41  69  96 124 168 218 264 320 378
#     4  10  23  42  65  91 130 171 209 263 316 384
#     4  10  24  45  63  93 130 166 212 263 325 381
#     4  10  25  42  65  93 130 169 212 260 321 386
#     4  10  21  36  62  95 126 168 213 259 316 372
#     4  11  22  39  64  97 127 165 215 268 312 373
#     4  11  23  45  67  96 128 164 210 271 326 378
#     4   9  20  35  58  89 127 158 212 261 306 365
#
# _framework density 22.494059
#
# number of rings (size 3 to 8) (size 9 to 14) (size 15 to 20)
#    0.000    1.750    2.500    0.375    5.250    9.500 
#    2.250    1.250    0.000    0.000    0.000    0.000 
#    0.000    0.000    0.000    0.000    0.000    0.000 
#
# Total GULP energy -198225.627481 kJ/mol
# GULP energy per Si atom -12389.101718 kJ/mol
# Density = 2.244286 g / cm^3
# Si number density = 22.494059 Si / 1000 Ang^3
#
#
#
# Elastic Constant Matrix: (Units=GPa)
#
#
# Indices 1 2 3 4 5 6 
#
# 1 125.4065 40.1211 22.9982 -1.1536 -5.9862 -3.8731
# 2 40.1211 84.2924 34.2112 21.9624 -1.0518 -9.9650
# 3 22.9982 34.2112 85.3212 13.7242 8.2939 -2.8130
# 4 -1.1536 21.9624 13.7242 35.2708 5.5776 0.9025
# 5 -5.9862 -1.0518 8.2939 5.5776 29.6338 1.2760
# 6 -3.8731 -9.9650 -2.8130 0.9025 1.2760 32.6118
#
#
#
# Elastic Compliance Matrix: (Units=1/GPa)
#
#
# Indices 1 2 3 4 5 6 
#
# 1 0.010008 -0.005297 -0.001378 0.003942 0.001508 -0.000717
# 2 -0.005297 0.019962 -0.004867 -0.011303 0.002902 0.005250
# 3 -0.001378 -0.004867 0.014783 -0.002101 -0.004187 -0.000154
# 4 0.003942 -0.011303 -0.002101 0.037368 -0.005879 -0.003971
# 5 0.001508 0.002902 -0.004187 -0.005879 0.036455 -0.000559
# 6 -0.000717 0.005250 -0.000154 -0.003971 -0.000559 0.032301
#
#
# Mechanical properties :
#
#
# Convention : Reuss Voigt Hill
#
# Bulk Modulus (GPa) = 46.15032 54.40901 50.27967
# Shear Modulus (GPa) = 27.59625 32.68258 30.13942
#
# Velocity S-wave (km/s) = 3.50640 3.81588 3.66441
# Velocity P-wave (km/s) = 6.07901 6.60722 6.34861
#
# Compressibility (1/GPa) = 0.02166832
#
# Stress axis : x y z
#
# Youngs Moduli (GPa) = 99.92460 50.09534 67.64425
#
# Poissons Ratio (x) = 0.26536 0.09320
# Poissons Ratio (y) = 0.52931 0.32924
# Poissons Ratio (z) = 0.13768 0.24383
#
# Static dielectric constant tensor:
#      x y z
#    x 4.329530 -0.120800 -0.141570 
#    y -0.120800 4.046610 0.396620 
#    z -0.141570 0.396620 4.033210 
# 
# 
# High freq. dielectric constant tensor:
#      x y z
#    x 1.890070 -0.007760 0.003100 
#    y -0.007760 1.875270 0.021850 
#    z 0.003100 0.021850 1.876190 
# 
# From -- ./inp_files/515529.got.cif
#   From: 2010.06.25/outbox.cif.g09.slc.cpg/sg2_258_cif.got.tgz:515529.got - 2010.06.27 13:26:56.
