data_PCOD8009960
_publ_section_title
;
Structure prediction by ZEFSAII (Michael W. Deem and Ramdas Pophale) SiO2 
 PCOD8009960
Probable space group: P -1
;
_chemical_formula_sum "Si O2"
_cell_formula_units_Z 16
_cell_length_a 15.944844
_cell_length_b 9.098156
_cell_length_c 18.500292
_cell_angle_alpha 122.326140
_cell_angle_beta 159.254568
_cell_angle_gamma 68.292586
_cell_volume 723.335608
_symmetry_space_group_name_H-M "P -1"
_symmetry_group_IT_number 2
_symmetry_cell_setting 'triclinic'
loop_
_space_group_symop_operation_xyz
x,y,z
-x,-y,-z
loop_
_atom_site_type_symbol
_atom_site_label
_atom_site_fract_x
_atom_site_fract_y
_atom_site_fract_z
Si Si1 0.631795 0.657865 0.424329
Si Si2 0.964761 0.235582 0.703836
Si Si3 0.896602 0.997695 0.068382
Si Si4 0.954513 0.498148 0.292508
Si Si5 0.116925 0.865941 0.597061
Si Si6 0.520680 0.155647 0.780785
Si Si7 0.114771 0.386895 0.013795
Si Si8 0.698994 0.954840 0.058862
O O1 0.501628 0.719019 0.269727
O O2 0.408623 0.519529 0.261094
O O3 0.813707 0.560349 0.514949
O O4 0.805344 0.844824 0.662214
O O5 0.949470 0.385737 0.674870
O O6 0.756524 0.012808 0.460575
O O7 0.254128 0.235028 0.933057
O O8 0.922005 0.298860 0.766351
O O9 0.833698 0.026252 0.109073
O O10 0.871409 0.786764 0.974428
O O11 0.700158 0.047330 0.873037
O O12 0.926256 0.640822 0.367395
O O13 0.673879 0.310113 0.008796
O O14 0.153391 0.886849 0.718092
O O15 0.000000 0.000000 0.500000
O O16 0.396238 0.909777 0.796752
O O17 0.000000 0.500000 0.000000
#
# Coordination Sequence:
#
# PCOD8009960 Si02
#       8
#     2   2   2   2   2   2   2   2
#     4  11  22  42  67  93 126 171 217 259 315 385
#     4  11  20  42  66  88 129 173 207 263 320 382
#     4  10  23  43  66  91 130 177 212 261 318 387
#     4  11  23  39  68  94 123 172 222 255 315 388
#     4  11  22  36  62 100 129 168 217 272 319 368
#     4  11  22  39  67  93 120 170 222 254 312 380
#     4  11  23  41  69 101 129 165 210 264 326 384
#     4  10  21  37  63  90 128 173 211 258 326 368
#
# _framework density 22.119745000000002
#
# number of rings (size 3 to 8) (size 9 to 14) (size 15 to 20)
#    0.000    1.250    5.000    3.000    0.000    0.500 
#    0.000    6.250    0.000    0.000    0.000    0.000 
#    0.000    0.000    0.000    0.000    0.000    0.000 
#
# Total GULP energy -198316.939535 kJ/mol
# GULP energy per Si atom -12394.808721 kJ/mol
# Density = 2.206940 g / cm^3
# Si number density = 22.119745 Si / 1000 Ang^3
#
#
#
# Elastic Constant Matrix: (Units=GPa)
#
#
# Indices 1 2 3 4 5 6 
#
# 1 46.2672 30.8437 22.1177 4.0015 -12.7595 -21.8159
# 2 30.8437 178.3369 53.4820 -4.0338 -12.5438 -11.2523
# 3 22.1177 53.4820 120.4154 3.2863 3.1177 -10.9782
# 4 4.0015 -4.0338 3.2863 43.4089 8.0313 -3.5271
# 5 -12.7595 -12.5438 3.1177 8.0313 21.9480 0.8179
# 6 -21.8159 -11.2523 -10.9782 -3.5271 0.8179 34.8591
#
#
#
# Elastic Compliance Matrix: (Units=1/GPa)
#
#
# Indices 1 2 3 4 5 6 
#
# 1 0.046135 -0.003021 -0.005386 -0.007210 0.027572 0.024825
# 2 -0.003021 0.007107 -0.002724 0.000652 0.002471 -0.000447
# 3 -0.005386 -0.002724 0.010589 0.000563 -0.006372 -0.000709
# 4 -0.007210 0.000652 0.000563 0.026105 -0.013408 -0.001169
# 5 0.027572 0.002471 -0.006372 -0.013408 0.068327 0.013087
# 6 0.024825 -0.000447 -0.000709 -0.001169 0.013087 0.043431
#
#
# Mechanical properties :
#
#
# Convention : Reuss Voigt Hill
#
# Bulk Modulus (GPa) = 24.05670 61.98959 43.02314
# Shear Modulus (GPa) = 21.02491 35.94827 28.48659
#
# Velocity S-wave (km/s) = 3.08637 4.03571 3.59254
# Velocity P-wave (km/s) = 4.85800 7.05700 6.05811
#
# Compressibility (1/GPa) = 0.04156846
#
# Stress axis : x y z
#
# Youngs Moduli (GPa) = 21.67530 140.70240 94.43960
#
# Poissons Ratio (x) = 0.42511 0.50865
# Poissons Ratio (y) = 0.06549 0.25727
# Poissons Ratio (z) = 0.11674 0.38329
#
# Static dielectric constant tensor:
#      x y z
#    x 3.591430 0.037930 -0.130600 
#    y 0.037930 4.378540 -0.064960 
#    z -0.130600 -0.064960 4.372440 
# 
# 
# High freq. dielectric constant tensor:
#      x y z
#    x 1.816560 0.008040 -0.007760 
#    y 0.008040 1.894480 -0.003910 
#    z -0.007760 -0.003910 1.886020 
# 
# From -- ./inp_files/599572.got.cif
#   From: 2010.06.25/outbox.cif.g09.slc.cpg/sg2_300_cif.got.tgz:599572.got - 2010.06.27 13:26:56.
