data_PCOD8009461
_publ_section_title
;
Structure prediction by ZEFSAII (Michael W. Deem and Ramdas Pophale) SiO2 
 PCOD8009461
Probable space group: P -1
;
_chemical_formula_sum "Si O2"
_cell_formula_units_Z 16
_cell_length_a 18.606924
_cell_length_b 13.183421
_cell_length_c 9.796418
_cell_angle_alpha 45.075860
_cell_angle_beta 103.736944
_cell_angle_gamma 141.244018
_cell_volume 753.639668
_symmetry_space_group_name_H-M "P -1"
_symmetry_group_IT_number 2
_symmetry_cell_setting 'triclinic'
loop_
_space_group_symop_operation_xyz
x,y,z
-x,-y,-z
loop_
_atom_site_type_symbol
_atom_site_label
_atom_site_fract_x
_atom_site_fract_y
_atom_site_fract_z
Si Si1 0.185010 0.572856 0.006336
Si Si2 0.642749 0.652047 0.854860
Si Si3 0.627411 0.812739 0.443364
Si Si4 0.253051 0.768987 0.339082
Si Si5 0.965124 0.572031 0.186597
Si Si6 0.999930 0.304560 0.441451
Si Si7 0.545920 0.162276 0.229133
Si Si8 0.300860 0.148053 0.865202
O O1 0.068614 0.391848 0.995792
O O2 0.298171 0.631907 0.972753
O O3 0.301995 0.910056 0.759567
O O4 0.072926 0.348449 0.300526
O O5 0.693224 0.812374 0.582899
O O6 0.814258 0.942328 0.738844
O O7 0.500000 0.500000 0.000000
O O8 0.577639 0.380680 0.073175
O O9 0.429595 0.480307 0.673601
O O10 0.676392 0.831821 0.304234
O O11 0.188421 0.696765 0.528870
O O12 0.113377 0.461249 0.473058
O O13 0.396335 0.900545 0.302380
O O14 0.327332 0.041668 0.051814
O O15 0.012101 0.493769 0.233680
O O16 0.118222 0.895361 0.037125
O O17 0.500000 0.000000 0.500000
#
# Coordination Sequence:
#
# PCOD8009461 Si02
#       8
#     2   2   2   2   2   2   2   2
#     4  12  23  42  69  96 138 178 214 275 337 396
#     4  12  25  42  71  98 130 172 229 271 323 405
#     4  11  21  39  63 103 127 168 221 269 324 386
#     4  11  22  42  65  96 133 178 217 278 328 387
#     4  11  20  38  66  97 134 172 216 279 325 388
#     4  11  23  40  67 102 129 169 230 275 327 389
#     4  12  26  47  63  95 138 179 219 269 342 398
#     4  10  21  36  65 100 133 161 224 280 323 377
#
# _framework density 21.230305000000001
#
# number of rings (size 3 to 8) (size 9 to 14) (size 15 to 20)
#    0.000    0.750    6.250    4.125    1.750    1.000 
#    0.000    1.875    0.000    0.000    0.000    0.000 
#    0.000    0.000    0.000    0.000    0.000    0.000 
#
# Total GULP energy -198389.912414 kJ/mol
# GULP energy per Si atom -12399.369526 kJ/mol
# Density = 2.118198 g / cm^3
# Si number density = 21.230305 Si / 1000 Ang^3
#
#
#
# Elastic Constant Matrix: (Units=GPa)
#
#
# Indices 1 2 3 4 5 6 
#
# 1 112.4327 37.0855 24.4169 0.1189 -14.3861 17.8096
# 2 37.0855 119.8163 27.6553 -5.4281 -0.9278 32.4124
# 3 24.4169 27.6553 73.9681 -6.5609 -7.8005 4.3626
# 4 0.1189 -5.4281 -6.5609 44.7066 -2.4777 -7.5911
# 5 -14.3861 -0.9278 -7.8005 -2.4777 34.8132 -5.3788
# 6 17.8096 32.4124 4.3626 -7.5911 -5.3788 35.5300
#
#
#
# Elastic Compliance Matrix: (Units=1/GPa)
#
#
# Indices 1 2 3 4 5 6 
#
# 1 0.011014 -0.002044 -0.002417 -0.000960 0.003416 -0.003048
# 2 -0.002044 0.012720 -0.003863 -0.001022 -0.003112 -0.010795
# 3 -0.002417 -0.003863 0.016126 0.002739 0.003300 0.003840
# 4 -0.000960 -0.001022 0.002739 0.023937 0.002918 0.006634
# 5 0.003416 -0.003112 0.003300 0.002918 0.031956 0.006182
# 6 -0.003048 -0.010795 0.003840 0.006634 0.006182 0.041402
#
#
# Mechanical properties :
#
#
# Convention : Reuss Voigt Hill
#
# Bulk Modulus (GPa) = 43.08059 53.83693 48.45876
# Shear Modulus (GPa) = 30.95207 37.48059 34.21633
#
# Velocity S-wave (km/s) = 3.82241 4.20626 4.01892
# Velocity P-wave (km/s) = 6.31009 7.00027 6.66412
#
# Compressibility (1/GPa) = 0.02321231
#
# Stress axis : x y z
#
# Youngs Moduli (GPa) = 90.79277 78.61514 62.01178
#
# Poissons Ratio (x) = 0.16068 0.14987
# Poissons Ratio (y) = 0.18557 0.23957
# Poissons Ratio (z) = 0.21942 0.30372
#
# Static dielectric constant tensor:
#      x y z
#    x 3.630280 0.320760 -0.308850 
#    y 0.320760 4.408670 -0.255230 
#    z -0.308850 -0.255230 4.094960 
# 
# 
# High freq. dielectric constant tensor:
#      x y z
#    x 1.796640 0.016610 -0.026520 
#    y 0.016610 1.854750 -0.002890 
#    z -0.026520 -0.002890 1.838290 
# 
# From -- ./inp_files/332908.got.cif
#   From: 2010.06.25/outbox.cif.g09.slc.cpg/sg2_167_cif.got.tgz:332908.got - 2010.06.27 13:26:56.
