data_PCOD8009250
_publ_section_title
;
Structure prediction by ZEFSAII (Michael W. Deem and Ramdas Pophale) SiO2 
 PCOD8009250
Probable space group: P -1
;
_chemical_formula_sum "Si O2"
_cell_formula_units_Z 16
_cell_length_a 14.367953
_cell_length_b 11.807226
_cell_length_c 15.216408
_cell_angle_alpha 35.621861
_cell_angle_beta 150.659887
_cell_angle_gamma 135.645945
_cell_volume 736.513418
_symmetry_space_group_name_H-M "P -1"
_symmetry_group_IT_number 2
_symmetry_cell_setting 'triclinic'
loop_
_space_group_symop_operation_xyz
x,y,z
-x,-y,-z
loop_
_atom_site_type_symbol
_atom_site_label
_atom_site_fract_x
_atom_site_fract_y
_atom_site_fract_z
Si Si1 0.811465 0.591885 0.040858
Si Si2 0.354276 0.449922 0.253310
Si Si3 0.217194 0.479692 0.445568
Si Si4 0.228163 0.815542 0.644779
Si Si5 0.602663 0.708280 0.955721
Si Si6 0.617664 0.125141 0.947138
Si Si7 0.266433 0.216863 0.495419
Si Si8 0.162215 0.215291 0.728493
O O1 0.759862 0.368401 0.164574
O O2 0.714878 0.740589 0.936297
O O3 0.041009 0.626768 0.210566
O O4 0.726240 0.643092 0.843901
O O5 0.580795 0.413289 0.473253
O O6 0.300550 0.677907 0.065041
O O7 0.247179 0.343666 0.311917
O O8 0.161701 0.323733 0.421890
O O9 0.245687 0.368944 0.630403
O O10 0.066604 0.775678 0.463491
O O11 0.173361 0.002873 0.539031
O O12 0.431527 0.858145 0.736973
O O13 0.758773 0.724282 0.150318
O O14 0.500000 0.500000 0.000000
O O15 0.486183 0.193433 0.716108
O O16 0.500000 0.000000 0.000000
O O17 0.783448 0.001550 0.118931
#
# Coordination Sequence:
#
# PCOD8009250 Si02
#       8
#     2   2   2   2   2   2   2   2
#     4  10  23  38  63  87 118 156 203 244 298 347
#     4  11  23  39  58  90 125 163 189 246 299 354
#     4  10  21  36  59  92 119 153 195 245 299 355
#     4  10  22  38  61  91 118 157 198 249 292 358
#     4  10  21  39  61  89 122 151 201 251 298 345
#     4  11  19  36  64  88 125 154 195 246 304 354
#     4  11  22  39  58  90 129 156 195 240 304 359
#     4  11  21  35  64  94 115 156 199 249 301 343
#
# _framework density 21.723974999999999
#
# number of rings (size 3 to 8) (size 9 to 14) (size 15 to 20)
#    0.000    1.500    3.750    3.750    1.750    7.000 
#    2.250    0.625    0.000    1.500    0.000    0.000 
#    0.000    0.000    0.000    0.000    0.000    0.000 
#
# Total GULP energy -198366.960034 kJ/mol
# GULP energy per Si atom -12397.935002 kJ/mol
# Density = 2.167453 g / cm^3
# Si number density = 21.723975 Si / 1000 Ang^3
#
#
#
# Elastic Constant Matrix: (Units=GPa)
#
#
# Indices 1 2 3 4 5 6 
#
# 1 73.6576 19.9436 33.6858 5.7603 -18.4179 -21.1619
# 2 19.9436 35.4795 13.0511 17.9109 -11.2813 -12.7899
# 3 33.6858 13.0511 82.7147 20.9222 -7.5661 -8.3284
# 4 5.7603 17.9109 20.9222 33.2162 -2.2278 -9.3017
# 5 -18.4179 -11.2813 -7.5661 -2.2278 39.5389 6.6000
# 6 -21.1619 -12.7899 -8.3284 -9.3017 6.6000 28.4716
#
#
#
# Elastic Compliance Matrix: (Units=1/GPa)
#
#
# Indices 1 2 3 4 5 6 
#
# 1 0.024979 -0.009321 -0.009584 0.010990 0.005440 0.013904
# 2 -0.009321 0.049606 0.003706 -0.025146 0.008042 0.006360
# 3 -0.009584 0.003706 0.018281 -0.013078 0.000089 -0.004405
# 4 0.010990 -0.025146 -0.013078 0.052880 -0.003435 0.011119
# 5 0.005440 0.008042 0.000089 -0.003435 0.030010 -0.000396
# 6 0.013904 0.006360 -0.004405 0.011119 -0.000396 0.050750
#
#
# Mechanical properties :
#
#
# Convention : Reuss Voigt Hill
#
# Bulk Modulus (GPa) = 16.00869 36.13475 26.07172
# Shear Modulus (GPa) = 18.00321 28.59010 23.29665
#
# Velocity S-wave (km/s) = 2.88188 3.63169 3.27829
# Velocity P-wave (km/s) = 4.29637 5.85280 5.13391
#
# Compressibility (1/GPa) = 0.06246606
#
# Stress axis : x y z
#
# Youngs Moduli (GPa) = 40.03378 20.15890 54.70160
#
# Poissons Ratio (x) = 0.18791 0.52427
# Poissons Ratio (y) = 0.37317 -0.20270
# Poissons Ratio (z) = 0.38369 -0.07470
#
# Static dielectric constant tensor:
#      x y z
#    x 4.074920 -0.307160 0.321120 
#    y -0.307160 3.702590 0.032520 
#    z 0.321120 0.032520 4.021010 
# 
# 
# High freq. dielectric constant tensor:
#      x y z
#    x 1.846420 -0.017270 0.009020 
#    y -0.017270 1.828050 0.018050 
#    z 0.009020 0.018050 1.853270 
# 
# From -- ./inp_files/189188.got.cif
#   From: 2010.06.25/outbox.cif.g09.slc.cpg/sg2_95_cif.got.tgz:189188.got - 2010.06.27 13:26:56.
