data_PCOD8009179
_publ_section_title
;
Structure prediction by ZEFSAII (Michael W. Deem and Ramdas Pophale) SiO2 
 PCOD8009179
Probable space group: P -1
;
_chemical_formula_sum "Si O2"
_cell_formula_units_Z 16
_cell_length_a 5.149867
_cell_length_b 12.158607
_cell_length_c 15.191859
_cell_angle_alpha 65.971890
_cell_angle_beta 67.839188
_cell_angle_gamma 99.088034
_cell_volume 748.068783
_symmetry_space_group_name_H-M "P -1"
_symmetry_group_IT_number 2
_symmetry_cell_setting 'triclinic'
loop_
_space_group_symop_operation_xyz
x,y,z
-x,-y,-z
loop_
_atom_site_type_symbol
_atom_site_label
_atom_site_fract_x
_atom_site_fract_y
_atom_site_fract_z
Si Si1 0.669665 0.391112 0.839798
Si Si2 0.915283 0.581178 0.057499
Si Si3 0.175778 0.612997 0.371615
Si Si4 0.363658 0.101348 0.020510
Si Si5 0.741925 0.864737 0.485517
Si Si6 0.577509 0.977778 0.629232
Si Si7 0.229223 0.870177 0.882893
Si Si8 0.371091 0.344083 0.567559
O O1 0.445005 0.464690 0.869666
O O2 0.785412 0.443215 0.709916
O O3 0.938814 0.428351 0.863777
O O4 0.503741 0.235576 0.904923
O O5 0.000000 0.500000 0.000000
O O6 0.010247 0.722467 0.958354
O O7 0.485492 0.701328 0.351672
O O8 0.000000 0.500000 0.500000
O O9 0.985450 0.704878 0.351615
O O10 0.482813 0.117700 0.099302
O O11 0.994160 0.053578 0.083272
O O12 0.500000 0.000000 0.000000
O O13 0.642245 0.866720 0.599359
O O14 0.587617 0.721209 0.508527
O O15 0.623930 0.961345 0.418200
O O16 0.105069 0.913620 0.416899
O O17 0.363170 0.909543 0.757869
O O18 0.500000 0.500000 0.500000
#
# Coordination Sequence:
#
# PCOD8009179 Si02
#       8
#     2   2   2   2   2   2   2   2
#     4  10  21  38  59  83 122 152 193 252 293 362
#     4  10  21  40  62  86 116 156 201 248 308 354
#     4  10  21  38  56  85 121 157 196 238 300 361
#     4  10  21  36  58  85 116 150 192 241 305 355
#     4  10  21  38  60  85 121 163 199 252 299 366
#     4  10  21  38  59  87 119 158 208 245 305 356
#     4  10  21  38  57  88 118 146 202 252 288 365
#     4  10  21  38  59  83 123 155 203 248 295 358
#
# _framework density 21.388407999999998
#
# number of rings (size 3 to 8) (size 9 to 14) (size 15 to 20)
#    0.000    2.000    0.000    3.000    0.000    3.000 
#    9.000    0.000    0.000    0.000    0.000    0.000 
#    0.000    0.000    0.000    0.000    0.000    0.000 
#
# Total GULP energy -198225.269346 kJ/mol
# GULP energy per Si atom -12389.079334 kJ/mol
# Density = 2.133973 g / cm^3
# Si number density = 21.388408 Si / 1000 Ang^3
#
#
#
# Elastic Constant Matrix: (Units=GPa)
#
#
# Indices 1 2 3 4 5 6 
#
# 1 69.9367 -37.7726 41.9198 2.0097 6.6766 -15.8169
# 2 -37.7726 71.1621 39.1348 27.7984 6.9766 -1.5765
# 3 41.9198 39.1348 129.2164 25.7701 1.4375 -7.1288
# 4 2.0097 27.7984 25.7701 21.2164 -4.2117 -3.1115
# 5 6.6766 6.9766 1.4375 -4.2117 20.5713 11.2308
# 6 -15.8169 -1.5765 -7.1288 -3.1115 11.2308 31.3543
#
#
#
# Elastic Compliance Matrix: (Units=1/GPa)
#
#
# Indices 1 2 3 4 5 6 
#
# 1 -0.021200 -0.039074 0.007224 0.049542 0.041148 -0.020839
# 2 -0.039074 -0.033736 0.013286 0.036635 0.048168 -0.032005
# 3 0.007224 0.013286 0.008192 -0.030367 -0.019101 0.010003
# 4 0.049542 0.036635 -0.030367 0.028688 -0.040951 0.037445
# 5 0.041148 0.048168 -0.019101 -0.040951 0.004732 0.013077
# 6 -0.020839 -0.032005 0.010003 0.037445 0.013077 0.021078
#
#
# Mechanical properties :
#
#
# Convention : Reuss Voigt Hill
#
# Bulk Modulus (GPa) = -11.92292 39.65325 13.86516
# Shear Modulus (GPa) = 295.42785 29.76394 162.59589
#
# Velocity S-wave (km/s) = 11.76542 3.73445 8.72844
# Velocity P-wave (km/s) = 13.37835 6.09710 10.39603
#
# Compressibility (1/GPa) = -0.08387208
#
# Stress axis : x y z
#
# Youngs Moduli (GPa) = -47.17052 -29.64152 122.06638
#
# Poissons Ratio (x) = -1.15821 -0.88178
# Poissons Ratio (y) = -1.84313 -1.62177
# Poissons Ratio (z) = 0.34075 0.39382
#
# Static dielectric constant tensor:
#      x y z
#    x 1.033660 2.469030 0.131650 
#    y 2.469030 2.790530 0.284110 
#    z 0.131650 0.284110 3.710650 
# 
# 
# High freq. dielectric constant tensor:
#      x y z
#    x 1.874600 -0.012710 0.004470 
#    y -0.012710 1.819760 0.025360 
#    z 0.004470 0.025360 1.821500 
# 
# From -- ./inp_files/482780.got.cif
#   From: 2010.06.25/outbox.cif.g09.slc.cpg/sg2_242_cif.got.tgz:482780.got - 2010.06.27 13:26:56.
