data_PCOD8009082
_publ_section_title
;
Structure prediction by ZEFSAII (Michael W. Deem and Ramdas Pophale) SiO2 
 PCOD8009082
Probable space group: P -1
;
_chemical_formula_sum "Si O2"
_cell_formula_units_Z 16
_cell_length_a 13.922403
_cell_length_b 13.173728
_cell_length_c 8.992662
_cell_angle_alpha 106.559070
_cell_angle_beta 148.616233
_cell_angle_gamma 80.977633
_cell_volume 810.850530
_symmetry_space_group_name_H-M "P -1"
_symmetry_group_IT_number 2
_symmetry_cell_setting 'triclinic'
loop_
_space_group_symop_operation_xyz
x,y,z
-x,-y,-z
loop_
_atom_site_type_symbol
_atom_site_label
_atom_site_fract_x
_atom_site_fract_y
_atom_site_fract_z
Si Si1 0.465043 0.667824 0.752138
Si Si2 0.325012 0.433729 0.560376
Si Si3 0.621045 0.114316 0.737678
Si Si4 0.963687 0.469997 0.268740
Si Si5 0.226852 0.732964 0.220113
Si Si6 0.311388 0.410358 0.206140
Si Si7 0.582049 0.768639 0.244650
Si Si8 0.997323 0.884113 0.879381
O O1 0.461362 0.547474 0.761487
O O2 0.274855 0.682618 0.419534
O O3 0.631871 0.687056 0.857332
O O4 0.500835 0.755271 0.965311
O O5 0.158551 0.463943 0.448233
O O6 0.252580 0.378523 0.284329
O O7 0.428781 0.349630 0.748474
O O8 0.596972 0.188691 0.591929
O O9 0.550221 0.163920 0.813697
O O10 0.500000 0.000000 0.500000
O O11 0.844874 0.107059 0.040660
O O12 0.000000 0.500000 0.500000
O O13 0.829222 0.356480 0.019648
O O14 0.868582 0.558786 0.098530
O O15 0.057363 0.801241 0.047958
O O16 0.500000 0.500000 0.500000
O O17 0.791196 0.834434 0.531081
O O18 0.000000 0.000000 0.000000
#
# Coordination Sequence:
#
# PCOD8009082 Si02
#       8
#     2   2   2   2   2   2   2   2
#     4  11  24  39  59  95 130 168 206 256 313 381
#     4  11  22  37  61  91 130 171 212 244 313 378
#     4  10  22  40  70  92 117 161 218 262 323 374
#     4  12  23  36  58  92 126 170 211 258 300 376
#     4  10  22  42  60  89 130 165 202 263 324 364
#     4  10  21  36  55  79 134 165 202 247 302 366
#     4  12  22  39  67  95 123 170 212 259 318 375
#     4  10  22  42  66  91 118 155 215 266 313 371
#
# _framework density 19.732365999999999
#
# number of rings (size 3 to 8) (size 9 to 14) (size 15 to 20)
#    0.750    0.500    5.000    2.250    3.500    0.000 
#    0.000    2.500    0.000    1.500    0.000    0.000 
#    0.000    0.000    0.000    0.000    0.000    0.000 
#
# Total GULP energy -198209.706227 kJ/mol
# GULP energy per Si atom -12388.106639 kJ/mol
# Density = 1.968745 g / cm^3
# Si number density = 19.732366 Si / 1000 Ang^3
#
#
#
# Elastic Constant Matrix: (Units=GPa)
#
#
# Indices 1 2 3 4 5 6 
#
# 1 131.2450 35.7970 57.9932 3.6599 -14.0025 -33.5200
# 2 35.7970 90.4168 53.1835 7.4366 -12.8873 -19.4424
# 3 57.9932 53.1835 113.0366 7.8360 -23.4830 -9.8444
# 4 3.6599 7.4366 7.8360 25.7293 0.5162 7.3084
# 5 -14.0025 -12.8873 -23.4830 0.5162 38.6397 3.0915
# 6 -33.5200 -19.4424 -9.8444 7.3084 3.0915 40.6122
#
#
#
# Elastic Compliance Matrix: (Units=1/GPa)
#
#
# Indices 1 2 3 4 5 6 
#
# 1 0.012568 0.000809 -0.005609 -0.003143 0.000664 0.009916
# 2 0.000809 0.017342 -0.007288 -0.005219 0.001073 0.008061
# 3 -0.005609 -0.007288 0.015981 -0.000789 0.005622 -0.004531
# 4 -0.003143 -0.005219 -0.000789 0.044851 -0.002908 -0.013134
# 5 0.000664 0.001073 0.005622 -0.002908 0.029880 0.000673
# 6 0.009916 0.008061 -0.004531 -0.013134 0.000673 0.037881
#
#
# Mechanical properties :
#
#
# Convention : Reuss Voigt Hill
#
# Bulk Modulus (GPa) = 46.04987 69.84954 57.94970
# Shear Modulus (GPa) = 26.32711 33.51120 29.91915
#
# Velocity S-wave (km/s) = 3.65665 4.12550 3.89813
# Velocity P-wave (km/s) = 6.41997 7.62681 7.04926
#
# Compressibility (1/GPa) = 0.02171559
#
# Stress axis : x y z
#
# Youngs Moduli (GPa) = 79.56457 57.66460 62.57251
#
# Poissons Ratio (x) = -0.04665 0.35099
# Poissons Ratio (y) = -0.06436 0.45600
# Poissons Ratio (z) = 0.44630 0.42023
#
# Static dielectric constant tensor:
#      x y z
#    x 4.035380 -0.076770 -0.117980 
#    y -0.076770 3.775190 -0.042760 
#    z -0.117980 -0.042760 3.532500 
# 
# 
# High freq. dielectric constant tensor:
#      x y z
#    x 1.772750 -0.019150 0.003780 
#    y -0.019150 1.761630 -0.002590 
#    z 0.003780 -0.002590 1.751130 
# 
# From -- ./inp_files/315781.got.cif
#   From: 2010.06.25/outbox.cif.g09.slc.cpg/sg2_158_cif.got.tgz:315781.got - 2010.06.27 13:26:56.
