data_PCOD8009193
_publ_section_title
;
Structure prediction by ZEFSAII (Michael W. Deem and Ramdas Pophale) SiO2 
 PCOD8009193
Probable space group: P -1
;
_chemical_formula_sum "Si O2"
_cell_formula_units_Z 16
_cell_length_a 17.098638
_cell_length_b 20.464099
_cell_length_c 8.587276
_cell_angle_alpha 114.608256
_cell_angle_beta 126.064196
_cell_angle_gamma 20.220348
_cell_volume 733.341646
_symmetry_space_group_name_H-M "P -1"
_symmetry_group_IT_number 2
_symmetry_cell_setting 'triclinic'
loop_
_space_group_symop_operation_xyz
x,y,z
-x,-y,-z
loop_
_atom_site_type_symbol
_atom_site_label
_atom_site_fract_x
_atom_site_fract_y
_atom_site_fract_z
Si Si1 0.302394 0.743343 0.117393
Si Si2 0.730257 0.648380 0.252232
Si Si3 0.288069 0.591228 0.005310
Si Si4 0.339637 0.957647 0.375259
Si Si5 0.427757 0.324543 0.440721
Si Si6 0.776621 0.487508 0.939032
Si Si7 0.392010 0.107050 0.206413
Si Si8 0.793388 0.717807 0.161100
O O1 0.439460 0.626206 0.994797
O O2 0.525731 0.633362 0.372677
O O3 0.268910 0.690344 0.114476
O O4 0.000000 0.000000 0.000000
O O5 0.445503 0.851092 0.228587
O O6 0.705058 0.701845 0.105444
O O7 0.000000 0.500000 0.500000
O O8 0.759129 0.544794 0.136777
O O9 0.311401 0.532323 0.138827
O O10 0.983337 0.783870 0.756575
O O11 0.329770 0.903383 0.445961
O O12 0.564118 0.865378 0.580437
O O13 0.427115 0.340887 0.271010
O O14 0.135013 0.491112 0.322062
O O15 0.110949 0.254247 0.044602
O O16 0.674110 0.859159 0.285274
O O17 0.370155 0.165582 0.078102
#
# Coordination Sequence:
#
# PCOD8009193 Si02
#       8
#     2   2   2   2   2   2   2   2
#     4  11  24  48  74  96 121 162 221 276 334 384
#     4  12  22  34  59  94 132 175 213 253 303 377
#     4  11  26  43  71  99 124 164 220 274 322 387
#     4  12  22  37  66  94 128 177 213 264 315 380
#     4  11  22  41  67  90 129 175 212 268 327 381
#     4  11  24  41  60  97 135 169 213 261 322 385
#     4  10  21  36  58  89 134 170 214 254 313 391
#     4  10  21  37  56  91 130 174 211 261 316 380
#
# _framework density 21.817934000000001
#
# number of rings (size 3 to 8) (size 9 to 14) (size 15 to 20)
#    0.000    1.000    3.750    3.000    1.750    3.500 
#    0.000    1.875    0.000    0.000    0.000    0.000 
#    0.000    0.000    0.000    0.000    0.000    0.000 
#
# Total GULP energy -198337.015231 kJ/mol
# GULP energy per Si atom -12396.063452 kJ/mol
# Density = 2.176828 g / cm^3
# Si number density = 21.817934 Si / 1000 Ang^3
#
#
#
# Elastic Constant Matrix: (Units=GPa)
#
#
# Indices 1 2 3 4 5 6 
#
# 1 142.8852 27.8605 16.5463 -4.6284 -10.6367 11.2997
# 2 27.8605 108.4585 12.6652 -1.0170 -11.7110 -0.0286
# 3 16.5463 12.6652 47.8358 7.6040 0.5396 4.4854
# 4 -4.6284 -1.0170 7.6040 28.6843 5.3251 0.4286
# 5 -10.6367 -11.7110 0.5396 5.3251 27.5563 3.7394
# 6 11.2997 -0.0286 4.4854 0.4286 3.7394 25.5256
#
#
#
# Elastic Compliance Matrix: (Units=1/GPa)
#
#
# Indices 1 2 3 4 5 6 
#
# 1 0.008095 -0.001499 -0.002321 0.001412 0.002749 -0.003604
# 2 -0.001499 0.010280 -0.002299 0.000026 0.003758 0.000528
# 3 -0.002321 -0.002299 0.023640 -0.006554 -0.000673 -0.002921
# 4 0.001412 0.000026 -0.006554 0.038076 -0.006793 0.000883
# 5 0.002749 0.003758 -0.000673 -0.006793 0.041226 -0.007020
# 6 -0.003604 0.000528 -0.002921 0.000883 -0.007020 0.042299
#
#
# Mechanical properties :
#
#
# Convention : Reuss Voigt Hill
#
# Bulk Modulus (GPa) = 33.58382 45.92482 39.75432
# Shear Modulus (GPa) = 26.91350 32.49374 29.70362
#
# Velocity S-wave (km/s) = 3.51600 3.86335 3.69376
# Velocity P-wave (km/s) = 5.64882 6.40277 6.03758
#
# Compressibility (1/GPa) = 0.02977624
#
# Stress axis : x y z
#
# Youngs Moduli (GPa) = 123.53174 97.27675 42.30192
#
# Poissons Ratio (x) = 0.14585 0.09817
# Poissons Ratio (y) = 0.18521 0.09726
# Poissons Ratio (z) = 0.28667 0.22367
#
# Static dielectric constant tensor:
#      x y z
#    x 4.437370 0.267850 -0.105300 
#    y 0.267850 3.991420 -0.001870 
#    z -0.105300 -0.001870 3.771680 
# 
# 
# High freq. dielectric constant tensor:
#      x y z
#    x 1.868660 0.012230 -0.003140 
#    y 0.012230 1.857920 0.003640 
#    z -0.003140 0.003640 1.836140 
# 
# From -- ./inp_files/337764.got.cif
#   From: 2010.06.25/outbox.cif.g09.slc.cpg/sg2_169_cif.got.tgz:337764.got - 2010.06.27 13:26:56.
