data_PCOD8009852
_publ_section_title
;
Structure prediction by ZEFSAII (Michael W. Deem and Ramdas Pophale) SiO2 
 PCOD8009852
Probable space group: P -1
;
_chemical_formula_sum "Si O2"
_cell_formula_units_Z 16
_cell_length_a 18.627307
_cell_length_b 8.319436
_cell_length_c 14.587606
_cell_angle_alpha 57.094857
_cell_angle_beta 21.756644
_cell_angle_gamma 68.173949
_cell_volume 636.273572
_symmetry_space_group_name_H-M "P -1"
_symmetry_group_IT_number 2
_symmetry_cell_setting 'triclinic'
loop_
_space_group_symop_operation_xyz
x,y,z
-x,-y,-z
loop_
_atom_site_type_symbol
_atom_site_label
_atom_site_fract_x
_atom_site_fract_y
_atom_site_fract_z
Si Si1 0.244252 0.878656 0.343201
Si Si2 0.250675 0.549462 0.321585
Si Si3 0.324231 0.921417 0.566686
Si Si4 0.912303 0.234131 0.928153
Si Si5 0.672895 0.794391 0.262222
Si Si6 0.701922 0.687810 0.818596
Si Si7 0.957634 0.308489 0.179079
Si Si8 0.565101 0.361737 0.231631
O O1 0.171138 0.736984 0.379507
O O2 0.148663 0.699467 0.592840
O O3 0.156570 0.060151 0.405790
O O4 0.500000 0.000000 0.000000
O O5 0.177801 0.432005 0.344800
O O6 0.158800 0.371039 0.566076
O O7 0.506229 0.664211 0.992000
O O8 0.522241 0.854261 0.354783
O O9 0.221476 0.897440 0.595830
O O10 0.398878 0.162577 0.432988
O O11 0.136571 0.763557 0.906566
O O12 0.781740 0.334557 0.993616
O O13 0.838521 0.993982 0.059891
O O14 0.529516 0.624917 0.560804
O O15 0.814543 0.699555 0.069211
O O16 0.618686 0.579091 0.048466
O O17 0.000000 0.500000 0.000000
#
# Coordination Sequence:
#
# PCOD8009852 Si02
#       8
#     2   2   2   2   2   2   2   2
#     4  10  24  42  60  93 141 159 213 283 311 386
#     4  10  21  37  62  84 125 167 210 267 314 377
#     4   9  21  38  61  94 129 160 215 274 327 381
#     4   9  18  38  60  91 127 160 206 278 326 375
#     4   9  21  39  60  96 132 158 214 285 313 382
#     4  10  22  37  63  90 121 177 214 255 332 389
#     4  12  25  38  67  94 119 182 224 255 332 393
#     4   9  20  36  62  92 124 166 213 262 332 389
#
# _framework density 25.146415999999999
#
# number of rings (size 3 to 8) (size 9 to 14) (size 15 to 20)
#    0.000    2.250    0.000    3.000   12.250    2.000 
#    0.000    0.625    0.000    0.000    0.000    0.000 
#    0.000    0.000    0.000    0.000    0.000    0.000 
#
# Total GULP energy -198214.099506 kJ/mol
# GULP energy per Si atom -12388.381219 kJ/mol
# Density = 2.508918 g / cm^3
# Si number density = 25.146416 Si / 1000 Ang^3
#
#
#
# Elastic Constant Matrix: (Units=GPa)
#
#
# Indices 1 2 3 4 5 6 
#
# 1 37.3778 25.0495 6.5626 5.4166 12.5812 8.8046
# 2 25.0495 127.8852 36.5156 0.8015 16.9984 13.1029
# 3 6.5626 36.5156 109.2762 3.2117 23.7140 -0.8234
# 4 5.4166 0.8015 3.2117 38.2830 -4.8264 5.3493
# 5 12.5812 16.9984 23.7140 -4.8264 26.8048 -1.3609
# 6 8.8046 13.1029 -0.8234 5.3493 -1.3609 34.2485
#
#
#
# Elastic Compliance Matrix: (Units=1/GPa)
#
#
# Indices 1 2 3 4 5 6 
#
# 1 0.039298 -0.005305 0.003973 -0.007272 -0.020293 -0.007648
# 2 -0.005305 0.010128 -0.002810 0.000986 -0.001411 -0.002789
# 3 0.003973 -0.002810 0.012473 -0.003070 -0.011652 0.000370
# 4 -0.007272 0.000986 -0.003070 0.029102 0.010607 -0.002706
# 5 -0.020293 -0.001411 -0.011652 0.010607 0.060260 0.006214
# 6 -0.007648 -0.002789 0.000370 -0.002706 0.006214 0.032910
#
#
# Mechanical properties :
#
#
# Convention : Reuss Voigt Hill
#
# Bulk Modulus (GPa) = 18.65178 45.64386 32.14782
# Shear Modulus (GPa) = 23.77258 33.62802 28.70030
#
# Velocity S-wave (km/s) = 3.07802 3.66086 3.38202
# Velocity P-wave (km/s) = 4.47947 6.00499 5.29743
#
# Compressibility (1/GPa) = 0.05361418
#
# Stress axis : x y z
#
# Youngs Moduli (GPa) = 25.44683 98.73625 80.17358
#
# Poissons Ratio (x) = 0.52382 -0.31850
# Poissons Ratio (y) = 0.13500 0.22525
# Poissons Ratio (z) = -0.10109 0.27740
#
# Static dielectric constant tensor:
#      x y z
#    x 4.122800 0.409520 0.008630 
#    y 0.409520 5.035060 -0.025290 
#    z 0.008630 -0.025290 4.610390 
# 
# 
# High freq. dielectric constant tensor:
#      x y z
#    x 1.964020 0.016380 0.005350 
#    y 0.016380 2.006030 -0.006050 
#    z 0.005350 -0.006050 2.005420 
# 
# From -- ./inp_files/306018.got.cif
#   From: 2010.06.25/outbox.cif.g09.slc.cpg/sg2_154_cif.got.tgz:306018.got - 2010.06.27 13:26:56.
