data_PCOD8009649
_publ_section_title
;
Structure prediction by ZEFSAII (Michael W. Deem and Ramdas Pophale) SiO2 
 PCOD8009649
Probable space group: P -1
;
_chemical_formula_sum "Si O2"
_cell_formula_units_Z 14
_cell_length_a 8.932781
_cell_length_b 12.684422
_cell_length_c 18.686425
_cell_angle_alpha 27.765591
_cell_angle_beta 93.824944
_cell_angle_gamma 111.106638
_cell_volume 749.800968
_symmetry_space_group_name_H-M "P -1"
_symmetry_group_IT_number 2
_symmetry_cell_setting 'triclinic'
loop_
_space_group_symop_operation_xyz
x,y,z
-x,-y,-z
loop_
_atom_site_type_symbol
_atom_site_label
_atom_site_fract_x
_atom_site_fract_y
_atom_site_fract_z
Si Si1 0.707270 0.821159 0.324006
Si Si2 0.658397 0.975674 0.492776
Si Si3 0.903692 0.221331 0.217380
Si Si4 0.095244 0.412446 0.505196
Si Si5 0.958109 0.103428 0.543676
Si Si6 0.602968 0.442154 0.765688
Si Si7 0.481257 0.066754 0.851283
O O1 0.500000 0.500000 0.500000
O O2 0.880500 0.807572 0.321752
O O3 0.705260 0.033300 0.143046
O O4 0.733293 0.925953 0.344038
O O5 0.541250 0.639366 0.662853
O O6 0.500000 0.000000 0.500000
O O7 0.795557 0.213564 0.289990
O O8 0.786099 0.025872 0.534884
O O9 0.065243 0.189241 0.264795
O O10 0.000000 0.500000 0.000000
O O11 0.310986 0.712742 0.313311
O O12 0.000000 0.500000 0.500000
O O13 0.957877 0.248945 0.529273
O O14 0.163833 0.339263 0.368683
O O15 0.479392 0.227108 0.824096
O O16 0.554265 0.231079 0.956922
#
# Coordination Sequence:
#
# PCOD8009649 Si02
#       7
#     2   2   2   2   2   2   2
#     4   9  18  32  54  81 106 144 190 228 277 331
#     4  11  23  38  56  82 119 150 185 235 291 337
#     4  10  21  37  59  84 109 151 198 230 275 347
#     4   9  18  34  52  82 115 143 174 230 292 328
#     4   9  20  37  58  76 111 156 183 221 284 344
#     4   9  18  36  56  78 108 145 193 224 274 335
#     4   9  18  32  57  82 102 143 193 231 262 335
#
# _framework density 18.671621999999999
#
# number of rings (size 3 to 8) (size 9 to 14) (size 15 to 20)
#    0.000    2.571    0.000    4.286    4.000    3.429 
#    5.143    0.714    0.000    5.143    0.000    0.000 
#    0.000    0.000    0.000    0.000    0.000    0.000 
#
# Total GULP energy -173471.965846 kJ/mol
# GULP energy per Si atom -12390.854703 kJ/mol
# Density = 1.862912 g / cm^3
# Si number density = 18.671622 Si / 1000 Ang^3
#
#
#
# Elastic Constant Matrix: (Units=GPa)
#
#
# Indices 1 2 3 4 5 6 
#
# 1 131.9452 80.3543 41.4506 17.3526 15.9676 -10.8087
# 2 80.3543 104.6887 30.3121 12.8092 6.5331 -4.7119
# 3 41.4506 30.3121 91.5101 18.5512 20.5160 -5.9219
# 4 17.3526 12.8092 18.5512 28.8342 4.8611 4.0068
# 5 15.9676 6.5331 20.5160 4.8611 16.4201 0.0198
# 6 -10.8087 -4.7119 -5.9219 4.0068 0.0198 40.3209
#
#
#
# Elastic Compliance Matrix: (Units=1/GPa)
#
#
# Indices 1 2 3 4 5 6 
#
# 1 0.016635 -0.011405 -0.000660 -0.003330 -0.009833 0.003365
# 2 -0.011405 0.018638 -0.002491 -0.000838 0.007037 -0.001165
# 3 -0.000660 -0.002491 0.017870 -0.007268 -0.018547 0.002888
# 4 -0.003330 -0.000838 -0.007268 0.042599 0.000049 -0.006291
# 5 -0.009833 0.007037 -0.018547 0.000049 0.090827 -0.004587
# 6 0.003365 -0.001165 0.002888 -0.006291 -0.004587 0.026619
#
#
# Mechanical properties :
#
#
# Convention : Reuss Voigt Hill
#
# Bulk Modulus (GPa) = 41.61123 70.26422 55.93772
# Shear Modulus (GPa) = 19.97511 28.85017 24.41264
#
# Velocity S-wave (km/s) = 3.27435 3.93508 3.61982
# Velocity P-wave (km/s) = 6.05222 7.63936 6.89163
#
# Compressibility (1/GPa) = 0.02403197
#
# Stress axis : x y z
#
# Youngs Moduli (GPa) = 60.11271 53.65321 55.95918
#
# Poissons Ratio (x) = 0.61191 0.03694
# Poissons Ratio (y) = 0.68558 0.13939
# Poissons Ratio (z) = 0.03968 0.13364
#
# Static dielectric constant tensor:
#      x y z
#    x 3.503110 0.262120 0.450590 
#    y 0.262120 3.840820 0.099860 
#    z 0.450590 0.099860 3.646260 
# 
# 
# High freq. dielectric constant tensor:
#      x y z
#    x 1.699590 0.014240 0.027080 
#    y 0.014240 1.740950 -0.000210 
#    z 0.027080 -0.000210 1.715410 
# 
# From -- ./inp_files/172987.got.cif
#   From: 2010.06.25/outbox.cif.g09.slc.cpg/sg2_87_cif.got.tgz:172987.got - 2010.06.27 13:26:56.
