data_PCOD8009481
_publ_section_title
;
Structure prediction by ZEFSAII (Michael W. Deem and Ramdas Pophale) SiO2 
 PCOD8009481
Probable space group: P -1
;
_chemical_formula_sum "Si O2"
_cell_formula_units_Z 16
_cell_length_a 9.398772
_cell_length_b 8.515951
_cell_length_c 19.844195
_cell_angle_alpha 149.347605
_cell_angle_beta 61.884818
_cell_angle_gamma 118.411321
_cell_volume 705.412318
_symmetry_space_group_name_H-M "P -1"
_symmetry_group_IT_number 2
_symmetry_cell_setting 'triclinic'
loop_
_space_group_symop_operation_xyz
x,y,z
-x,-y,-z
loop_
_atom_site_type_symbol
_atom_site_label
_atom_site_fract_x
_atom_site_fract_y
_atom_site_fract_z
Si Si1 0.949151 0.898947 0.633483
Si Si2 0.862420 0.080958 0.149654
Si Si3 0.635554 0.805718 0.581936
Si Si4 0.878533 0.756139 0.740983
Si Si5 0.551126 0.713425 0.131481
Si Si6 0.336328 0.801233 0.992209
Si Si7 0.048616 0.586636 0.872771
Si Si8 0.156348 0.919074 0.473602
O O1 0.797227 0.751037 0.566254
O O2 0.936549 0.690723 0.627353
O O3 0.122117 0.937908 0.568510
O O4 0.949072 0.250680 0.789564
O O5 0.893233 0.394238 0.212165
O O6 0.960180 0.089932 0.200186
O O7 0.675333 0.008772 0.185947
O O8 0.909603 0.802430 0.990956
O O9 0.500000 0.500000 0.500000
O O10 0.586938 0.120671 0.741067
O O11 0.684430 0.866338 0.514254
O O12 0.813387 0.435525 0.675799
O O13 0.740370 0.978591 0.856175
O O14 0.500000 0.500000 0.000000
O O15 0.628083 0.508799 0.093760
O O16 0.207404 0.697013 0.923416
O O17 0.500000 0.000000 0.000000
O O18 0.000000 0.000000 0.500000
#
# Coordination Sequence:
#
# PCOD8009481 Si02
#       8
#     2   2   2   2   2   2   2   2
#     4  11  23  42  68  94 130 177 232 271 331 402
#     4  10  21  36  66  92 131 169 221 274 336 395
#     4  11  26  45  69  97 139 179 225 280 339 406
#     4  11  22  41  68  97 130 172 226 284 331 406
#     4  12  24  40  67  98 135 177 222 276 344 402
#     4  11  23  40  64  97 140 174 218 285 348 395
#     4  10  21  39  62  99 128 174 225 273 328 404
#     4  10  23  43  67  91 129 177 223 268 330 404
#
# _framework density 22.681771999999999
#
# number of rings (size 3 to 8) (size 9 to 14) (size 15 to 20)
#    0.000    1.250    0.000    6.375    5.250    4.000 
#    2.250    0.625    0.000    0.000    0.000    0.000 
#    0.000    0.000    0.000    0.000    0.000    0.000 
#
# Total GULP energy -198311.585251 kJ/mol
# GULP energy per Si atom -12394.474078 kJ/mol
# Density = 2.263015 g / cm^3
# Si number density = 22.681772 Si / 1000 Ang^3
#
#
#
# Elastic Constant Matrix: (Units=GPa)
#
#
# Indices 1 2 3 4 5 6 
#
# 1 64.2514 38.6958 16.1446 -9.1936 5.4519 2.4836
# 2 38.6958 172.8737 35.0373 -10.5714 5.9366 4.1003
# 3 16.1446 35.0373 76.9164 -11.2479 1.0111 0.1292
# 4 -9.1936 -10.5714 -11.2479 47.0611 0.5062 2.8192
# 5 5.4519 5.9366 1.0111 0.5062 29.4358 6.8201
# 6 2.4836 4.1003 0.1292 2.8192 6.8201 39.6475
#
#
#
# Elastic Compliance Matrix: (Units=1/GPa)
#
#
# Indices 1 2 3 4 5 6 
#
# 1 0.018789 -0.003562 -0.001925 0.002470 -0.002616 -0.000528
# 2 -0.003562 0.007129 -0.002439 0.000355 -0.000601 -0.000428
# 3 -0.001925 -0.002439 0.014897 0.002628 0.000270 0.000091
# 4 0.002470 0.000355 0.002628 0.022548 -0.000614 -0.001698
# 5 -0.002616 -0.000601 0.000270 -0.000614 0.035950 -0.005915
# 6 -0.000528 -0.000428 0.000091 -0.001698 -0.005915 0.026438
#
#
# Mechanical properties :
#
#
# Convention : Reuss Voigt Hill
#
# Bulk Modulus (GPa) = 40.06029 54.86632 47.46330
# Shear Modulus (GPa) = 33.35079 38.17313 35.76196
#
# Velocity S-wave (km/s) = 3.83871 4.10687 3.97505
# Velocity P-wave (km/s) = 6.11129 6.83598 6.48377
#
# Compressibility (1/GPa) = 0.02496237
#
# Stress axis : x y z
#
# Youngs Moduli (GPa) = 53.22392 140.27701 67.12846
#
# Poissons Ratio (x) = 0.49969 0.12919
# Poissons Ratio (y) = 0.18959 0.16374
# Poissons Ratio (z) = 0.10243 0.34216
#
# Static dielectric constant tensor:
#      x y z
#    x 3.813370 -0.054400 -0.121800 
#    y -0.054400 4.554390 -0.144080 
#    z -0.121800 -0.144080 4.325180 
# 
# 
# High freq. dielectric constant tensor:
#      x y z
#    x 1.868550 -0.005940 -0.006890 
#    y -0.005940 1.918910 -0.000830 
#    z -0.006890 -0.000830 1.905140 
# 
# From -- ./inp_files/588271.got.cif
#   From: 2010.06.25/outbox.cif.g09.slc.cpg/sg2_295_cif.got.tgz:588271.got - 2010.06.27 13:26:56.
