data_PCOD8009878
_publ_section_title
;
Structure prediction by ZEFSAII (Michael W. Deem and Ramdas Pophale) SiO2 
 PCOD8009878
Probable space group: P -1
;
_chemical_formula_sum "Si O2"
_cell_formula_units_Z 16
_cell_length_a 8.828720
_cell_length_b 19.328713
_cell_length_c 8.883233
_cell_angle_alpha 121.885942
_cell_angle_beta 78.477921
_cell_angle_gamma 142.095148
_cell_volume 719.068009
_symmetry_space_group_name_H-M "P -1"
_symmetry_group_IT_number 2
_symmetry_cell_setting 'triclinic'
loop_
_space_group_symop_operation_xyz
x,y,z
-x,-y,-z
loop_
_atom_site_type_symbol
_atom_site_label
_atom_site_fract_x
_atom_site_fract_y
_atom_site_fract_z
Si Si1 0.002725 0.166536 0.932989
Si Si2 0.563484 0.103609 0.707148
Si Si3 0.722277 0.725899 0.557969
Si Si4 0.954199 0.066360 0.520024
Si Si5 0.648930 0.530722 0.857464
Si Si6 0.601831 0.781538 0.913047
Si Si7 0.932388 0.400629 0.017363
Si Si8 0.730411 0.017870 0.101909
O O1 0.904727 0.109662 0.715263
O O2 0.140249 0.314039 0.074720
O O3 0.215961 0.189464 0.969874
O O4 0.739688 0.050507 0.963560
O O5 0.500000 0.000000 0.500000
O O6 0.307656 0.053252 0.673481
O O7 0.541213 0.071393 0.854194
O O8 0.832553 0.271901 0.808656
O O9 0.555739 0.574427 0.362117
O O10 0.551443 0.706495 0.686138
O O11 0.780199 0.797392 0.471518
O O12 0.007363 0.825326 0.692838
O O13 0.000000 0.000000 0.500000
O O14 0.799729 0.510249 0.842791
O O15 0.500000 0.500000 0.000000
O O16 0.303670 0.670107 0.908514
O O17 0.754761 0.930210 0.003408
O O18 0.000000 0.500000 0.000000
#
# Coordination Sequence:
#
# PCOD8009878 Si02
#       8
#     2   2   2   2   2   2   2   2
#     4  11  20  38  64  95 124 159 207 258 305 364
#     4  10  22  41  62  90 124 162 205 259 312 368
#     4  10  21  37  62  89 127 157 206 249 307 364
#     4  11  20  34  65  93 113 156 214 252 299 360
#     4  12  25  40  61  91 130 165 208 255 303 375
#     4  10  21  43  64  92 125 162 205 259 311 364
#     4  11  25  44  62  88 132 168 204 257 320 371
#     4   9  20  39  64  94 124 157 206 257 314 360
#
# _framework density 22.251024000000001
#
# number of rings (size 3 to 8) (size 9 to 14) (size 15 to 20)
#    0.000    1.500    1.250    6.000    3.500    2.500 
#    2.250    6.875    0.000    0.000    0.000    0.000 
#    0.000    0.000    0.000    0.000    0.000    0.000 
#
# Total GULP energy -198296.354245 kJ/mol
# GULP energy per Si atom -12393.522140 kJ/mol
# Density = 2.220038 g / cm^3
# Si number density = 22.251024 Si / 1000 Ang^3
#
#
#
# Elastic Constant Matrix: (Units=GPa)
#
#
# Indices 1 2 3 4 5 6 
#
# 1 22.0553 16.0164 -10.4944 -5.4389 10.6570 -15.0812
# 2 16.0164 136.0995 33.7957 -10.9394 -1.7132 -11.5761
# 3 -10.4944 33.7957 118.7653 -1.9223 -3.5919 -3.0965
# 4 -5.4389 -10.9394 -1.9223 43.6914 2.1678 -5.3989
# 5 10.6570 -1.7132 -3.5919 2.1678 29.8692 -2.6648
# 6 -15.0812 -11.5761 -3.0965 -5.3989 -2.6648 37.4666
#
#
#
# Elastic Compliance Matrix: (Units=1/GPa)
#
#
# Indices 1 2 3 4 5 6 
#
# 1 0.111620 -0.011851 0.013541 0.018580 -0.036436 0.042473
# 2 -0.011851 0.009588 -0.003690 0.000338 0.004152 -0.001769
# 3 0.013541 -0.003690 0.010733 0.002053 -0.003433 0.005249
# 4 0.018580 0.000338 0.002053 0.027116 -0.007337 0.011139
# 5 -0.036436 0.004152 -0.003433 -0.007337 0.045814 -0.011466
# 6 0.042473 -0.001769 0.005249 0.011139 -0.011466 0.044464
#
#
# Mechanical properties :
#
#
# Convention : Reuss Voigt Hill
#
# Bulk Modulus (GPa) = 7.81610 39.50616 23.66113
# Shear Modulus (GPa) = 16.89294 38.04558 27.46926
#
# Velocity S-wave (km/s) = 2.75834 4.13950 3.51738
# Velocity P-wave (km/s) = 3.69661 6.37500 5.21083
#
# Compressibility (1/GPa) = 0.12794105
#
# Stress axis : x y z
#
# Youngs Moduli (GPa) = 8.95895 104.30135 93.17113
#
# Poissons Ratio (x) = 1.23606 -1.26167
# Poissons Ratio (y) = 0.10617 0.34385
# Poissons Ratio (z) = -0.12132 0.38492
#
# Static dielectric constant tensor:
#      x y z
#    x 5.991310 3.108840 -8.484170 
#    y 3.108840 9.252210 -14.678070 
#    z -8.484170 -14.678070 49.074530 
# 
# 
# High freq. dielectric constant tensor:
#      x y z
#    x 1.872260 -0.000640 -0.003800 
#    y -0.000640 1.884620 -0.008410 
#    z -0.003800 -0.008410 1.878650 
# 
# From -- ./inp_files/218255.got.cif
#   From: 2010.06.25/outbox.cif.g09.slc.cpg/sg2_110_cif.got.tgz:218255.got - 2010.06.27 13:26:56.
