data_PCOD8009925
_publ_section_title
;
Structure prediction by ZEFSAII (Michael W. Deem and Ramdas Pophale) SiO2 
 PCOD8009925
Probable space group: P -1
;
_chemical_formula_sum "Si O2"
_cell_formula_units_Z 14
_cell_length_a 10.162046
_cell_length_b 13.945929
_cell_length_c 5.176901
_cell_angle_alpha 110.991048
_cell_angle_beta 118.499592
_cell_angle_gamma 90.809054
_cell_volume 586.463174
_symmetry_space_group_name_H-M "P -1"
_symmetry_group_IT_number 2
_symmetry_cell_setting 'triclinic'
loop_
_space_group_symop_operation_xyz
x,y,z
-x,-y,-z
loop_
_atom_site_type_symbol
_atom_site_label
_atom_site_fract_x
_atom_site_fract_y
_atom_site_fract_z
Si Si1 0.298470 0.137184 0.670098
Si Si2 0.044096 0.444672 0.736318
Si Si3 0.186315 0.896259 0.360293
Si Si4 0.348874 0.410740 0.827511
Si Si5 0.555758 0.623682 0.617046
Si Si6 0.987068 0.202829 0.403231
Si Si7 0.495677 0.818366 0.591151
O O1 0.431355 0.161323 0.602835
O O2 0.169042 0.205960 0.569910
O O3 0.204077 0.017674 0.427695
O O4 0.373283 0.143471 0.032387
O O5 0.227638 0.464699 0.904720
O O6 0.000000 0.500000 0.500000
O O7 0.966953 0.321095 0.551026
O O8 0.000000 0.500000 0.000000
O O9 0.093946 0.871956 0.516650
O O10 0.353985 0.872376 0.534450
O O11 0.093263 0.830057 0.977144
O O12 0.305836 0.357785 0.453770
O O13 0.500000 0.500000 0.000000
O O14 0.386068 0.327371 0.998688
O O15 0.500000 0.500000 0.500000
O O16 0.436459 0.690179 0.459875
#
# Coordination Sequence:
#
# PCOD8009925 Si02
#       7
#     2   2   2   2   2   2   2
#     4  12  25  47  72  99 135 181 235 292 348 415
#     4  12  26  44  66  99 140 180 224 281 339 407
#     4  12  26  46  70 104 138 177 231 296 352 408
#     4  10  22  41  65  91 126 177 226 269 322 389
#     4  10  21  37  62  95 132 171 218 269 327 401
#     4  12  26  45  70 101 140 187 227 275 354 428
#     4  12  24  42  71 103 135 179 233 292 348 404
#
# _framework density 23.871918000000001
#
# number of rings (size 3 to 8) (size 9 to 14) (size 15 to 20)
#    0.000    0.571    0.000    8.571    0.000    6.857 
#    0.000    0.000    0.000    0.000    0.000    0.000 
#    0.000    0.000    0.000    0.000    0.000    0.000 
#
# Total GULP energy -173477.472634 kJ/mol
# GULP energy per Si atom -12391.248045 kJ/mol
# Density = 2.381758 g / cm^3
# Si number density = 23.871918 Si / 1000 Ang^3
#
#
#
# Elastic Constant Matrix: (Units=GPa)
#
#
# Indices 1 2 3 4 5 6 
#
# 1 110.1755 0.9672 31.2383 -25.4353 -18.6003 3.8822
# 2 0.9672 113.1360 16.0665 -7.6595 -6.3975 3.6975
# 3 31.2383 16.0665 134.7737 -23.2025 -21.2505 2.0406
# 4 -25.4353 -7.6595 -23.2025 48.9541 8.8418 -5.1341
# 5 -18.6003 -6.3975 -21.2505 8.8418 48.3049 -6.5615
# 6 3.8822 3.6975 2.0406 -5.1341 -6.5615 40.2558
#
#
#
# Elastic Compliance Matrix: (Units=1/GPa)
#
#
# Indices 1 2 3 4 5 6 
#
# 1 0.011016 0.000577 -0.001370 0.004648 0.002867 0.000014
# 2 0.000577 0.009098 -0.000902 0.001099 0.000750 -0.000583
# 3 -0.001370 -0.000902 0.008765 0.002863 0.002764 0.000586
# 4 0.004648 0.001099 0.002863 0.024799 -0.001032 0.002300
# 5 0.002867 0.000750 0.002764 -0.001032 0.023752 0.003254
# 6 0.000014 -0.000583 0.000586 0.002300 0.003254 0.025687
#
#
# Mechanical properties :
#
#
# Convention : Reuss Voigt Hill
#
# Bulk Modulus (GPa) = 39.23325 50.51435 44.87380
# Shear Modulus (GPa) = 43.47641 48.15719 45.81680
#
# Velocity S-wave (km/s) = 4.27222 4.49633 4.38571
# Velocity P-wave (km/s) = 6.38799 6.93992 6.66967
#
# Compressibility (1/GPa) = 0.02548859
#
# Stress axis : x y z
#
# Youngs Moduli (GPa) = 90.77334 109.91489 114.09132
#
# Poissons Ratio (x) = -0.06339 0.15632
# Poissons Ratio (y) = -0.05235 0.10291
# Poissons Ratio (z) = 0.12437 0.09914
#
# Static dielectric constant tensor:
#      x y z
#    x 2.839480 -0.268210 3.036030 
#    y -0.268210 5.185230 -0.872380 
#    z 3.036030 -0.872380 1.879800 
# 
# 
# High freq. dielectric constant tensor:
#      x y z
#    x 1.944380 0.008180 -0.022400 
#    y 0.008180 1.980380 -0.004700 
#    z -0.022400 -0.004700 1.966870 
# 
# From -- ./inp_files/36426.got.cif
#   From: 2010.06.25/outbox.cif.g09.slc.cpg/sg2_19_cif.got.tgz:36426.got - 2010.06.27 13:26:56.
