data_PCOD8009059
_publ_section_title
;
Structure prediction by ZEFSAII (Michael W. Deem and Ramdas Pophale) SiO2 
 PCOD8009059
Probable space group: P -1
;
_chemical_formula_sum "Si O2"
_cell_formula_units_Z 16
_cell_length_a 17.113619
_cell_length_b 12.159260
_cell_length_c 9.400849
_cell_angle_alpha 89.213178
_cell_angle_beta 54.180368
_cell_angle_gamma 44.303457
_cell_volume 774.269316
_symmetry_space_group_name_H-M "P -1"
_symmetry_group_IT_number 2
_symmetry_cell_setting 'triclinic'
loop_
_space_group_symop_operation_xyz
x,y,z
-x,-y,-z
loop_
_atom_site_type_symbol
_atom_site_label
_atom_site_fract_x
_atom_site_fract_y
_atom_site_fract_z
Si Si1 0.802355 0.168511 0.126293
Si Si2 0.490898 0.355694 0.645159
Si Si3 0.119298 0.544902 0.431133
Si Si4 0.494274 0.843446 0.586344
Si Si5 0.212981 0.271281 0.719725
Si Si6 0.805658 0.775008 0.558878
Si Si7 0.475303 0.761886 0.074231
Si Si8 0.770665 0.024478 0.926693
O O1 0.672953 0.235895 0.380636
O O2 0.704797 0.377019 0.169474
O O3 0.841930 0.055164 0.946167
O O4 0.000000 0.000000 0.000000
O O5 0.454640 0.276869 0.606343
O O6 0.535907 0.291723 0.764344
O O7 0.201397 0.348395 0.406251
O O8 0.007496 0.629299 0.401321
O O9 0.297795 0.451659 0.213330
O O10 0.962416 0.757000 0.702345
O O11 0.695143 0.702511 0.425622
O O12 0.337322 0.094979 0.717122
O O13 0.408087 0.859047 0.805922
O O14 0.203573 0.195878 0.600258
O O15 0.000000 0.500000 0.000000
O O16 0.615998 0.023939 0.824393
O O17 0.337623 0.830758 0.107726
#
# Coordination Sequence:
#
# PCOD8009059 Si02
#       8
#     2   2   2   2   2   2   2   2
#     4  10  24  45  70  90 121 157 208 264 322 378
#     4  10  23  43  65  95 119 165 205 259 323 370
#     4  10  22  36  60  88 127 171 209 249 306 363
#     4  10  22  39  57  88 129 160 208 255 306 362
#     4  11  22  33  58  89 125 167 209 252 298 364
#     4  10  21  36  53  90 126 170 211 247 296 370
#     4  11  22  40  64  88 129 162 205 258 308 371
#     4  10  23  42  62  92 122 165 211 255 311 372
#
# _framework density 20.664643000000002
#
# number of rings (size 3 to 8) (size 9 to 14) (size 15 to 20)
#    0.000    1.750    1.250    1.875    1.750   10.500 
#    0.000    1.250    0.000    0.000    0.000    0.000 
#    0.000    0.000    0.000    0.000    0.000    0.000 
#
# Total GULP energy -198383.203978 kJ/mol
# GULP energy per Si atom -12398.950249 kJ/mol
# Density = 2.061761 g / cm^3
# Si number density = 20.664643 Si / 1000 Ang^3
#
#
#
# Elastic Constant Matrix: (Units=GPa)
#
#
# Indices 1 2 3 4 5 6 
#
# 1 139.8791 50.6774 56.5969 10.1187 7.0444 -17.3713
# 2 50.6774 104.2776 39.7417 7.1265 4.5992 -10.6940
# 3 56.5969 39.7417 100.1486 13.2785 6.7328 -9.3271
# 4 10.1187 7.1265 13.2785 27.0709 -6.9819 5.9926
# 5 7.0444 4.5992 6.7328 -6.9819 28.3999 -0.6211
# 6 -17.3713 -10.6940 -9.3271 5.9926 -0.6211 32.6754
#
#
#
# Elastic Compliance Matrix: (Units=1/GPa)
#
#
# Indices 1 2 3 4 5 6 
#
# 1 0.010605 -0.002977 -0.003988 -0.002551 -0.001744 0.003960
# 2 -0.002977 0.012451 -0.002825 -0.001445 -0.000921 0.001933
# 3 -0.003988 -0.002825 0.014649 -0.006360 -0.003541 0.002236
# 4 -0.002551 -0.001445 -0.006360 0.047641 0.013822 -0.012119
# 5 -0.001744 -0.000921 -0.003541 0.013822 0.039943 -0.004015
# 6 0.003960 0.001933 0.002236 -0.012119 -0.004015 0.036127
#
#
# Mechanical properties :
#
#
# Convention : Reuss Voigt Hill
#
# Bulk Modulus (GPa) = 55.16896 70.92637 63.04766
# Shear Modulus (GPa) = 26.73279 30.78185 28.75732
#
# Velocity S-wave (km/s) = 3.60064 3.86371 3.73449
# Velocity P-wave (km/s) = 6.63636 7.36895 7.01223
#
# Compressibility (1/GPa) = 0.01812613
#
# Stress axis : x y z
#
# Youngs Moduli (GPa) = 94.29397 80.31634 68.26275
#
# Poissons Ratio (x) = 0.23909 0.27222
# Poissons Ratio (y) = 0.28070 0.19284
# Poissons Ratio (z) = 0.37602 0.22689
#
# Static dielectric constant tensor:
#      x y z
#    x 3.563480 -0.113870 0.054740 
#    y -0.113870 3.734150 0.090840 
#    z 0.054740 0.090840 3.611860 
# 
# 
# High freq. dielectric constant tensor:
#      x y z
#    x 1.813290 -0.017170 0.009010 
#    y -0.017170 1.806420 0.009440 
#    z 0.009010 0.009440 1.806030 
# 
# From -- ./inp_files/70855.got.cif
#   From: 2010.06.25/outbox.cif.g09.slc.cpg/sg2_36_cif.got.tgz:70855.got - 2010.06.27 13:26:56.
