data_PCOD8009169
_publ_section_title
;
Structure prediction by ZEFSAII (Michael W. Deem and Ramdas Pophale) SiO2 
 PCOD8009169
Probable space group: P -1
;
_chemical_formula_sum "Si O2"
_cell_formula_units_Z 14
_cell_length_a 13.552263
_cell_length_b 11.454625
_cell_length_c 11.084903
_cell_angle_alpha 40.075870
_cell_angle_beta 139.857547
_cell_angle_gamma 144.887153
_cell_volume 590.968811
_symmetry_space_group_name_H-M "P -1"
_symmetry_group_IT_number 2
_symmetry_cell_setting 'triclinic'
loop_
_space_group_symop_operation_xyz
x,y,z
-x,-y,-z
loop_
_atom_site_type_symbol
_atom_site_label
_atom_site_fract_x
_atom_site_fract_y
_atom_site_fract_z
Si Si1 0.841099 0.294493 0.860143
Si Si2 0.926150 0.828760 0.956745
Si Si3 0.866181 0.106971 0.518818
Si Si4 0.779330 0.246128 0.104382
Si Si5 0.717440 0.511143 0.410645
Si Si6 0.384571 0.803277 0.639938
Si Si7 0.571617 0.375446 0.957474
O O1 0.695291 0.327291 0.628432
O O2 0.020980 0.531729 0.869620
O O3 0.750160 0.162574 0.004955
O O4 0.895577 0.162432 0.930833
O O5 0.758544 0.584035 0.028556
O O6 0.835683 0.887380 0.717661
O O7 0.000000 0.000000 0.000000
O O8 0.765691 0.067071 0.326444
O O9 0.791469 0.203800 0.468595
O O10 0.082375 0.270574 0.570844
O O11 0.623400 0.291781 0.954251
O O12 0.684287 0.420174 0.316940
O O13 0.572304 0.570165 0.262583
O O14 0.500000 0.000000 0.500000
O O15 0.506407 0.810533 0.862289
#
# Coordination Sequence:
#
# PCOD8009169 Si02
#       7
#     2   2   2   2   2   2   2
#     4   9  19  35  59  82 113 155 195 237 280 342
#     4  11  21  37  60  88 119 154 194 234 287 347
#     4  10  21  36  58  83 116 153 192 239 286 348
#     4   8  18  39  57  79 112 155 199 234 283 337
#     4  11  21  35  57  88 117 149 189 238 297 342
#     4  11  22  38  58  82 116 154 192 236 290 350
#     4  10  22  38  59  85 118 150 188 243 290 344
#
# _framework density 23.689914000000002
#
# number of rings (size 3 to 8) (size 9 to 14) (size 15 to 20)
#    0.000    2.000    0.000    4.286    0.000    3.429 
#    0.000    0.000    0.000   12.000    0.000    0.000 
#    0.000    0.000    0.000    0.000    0.000    0.000 
#
# Total GULP energy -173568.629391 kJ/mol
# GULP energy per Si atom -12397.759242 kJ/mol
# Density = 2.363599 g / cm^3
# Si number density = 23.689914 Si / 1000 Ang^3
#
#
#
# Elastic Constant Matrix: (Units=GPa)
#
#
# Indices 1 2 3 4 5 6 
#
# 1 164.6797 24.8541 95.1041 9.2951 -3.5250 1.3858
# 2 24.8541 16.1606 4.1038 2.6215 3.3994 6.9970
# 3 95.1041 4.1038 194.0483 -0.5807 11.4727 7.9939
# 4 9.2951 2.6215 -0.5807 30.2663 8.4639 -0.0235
# 5 -3.5250 3.3994 11.4727 8.4639 46.4895 1.9305
# 6 1.3858 6.9970 7.9939 -0.0235 1.9305 24.0406
#
#
#
# Elastic Compliance Matrix: (Units=1/GPa)
#
#
# Indices 1 2 3 4 5 6 
#
# 1 0.013828 -0.023347 -0.006904 -0.003694 0.004804 0.007904
# 2 -0.023347 0.111954 0.011156 0.000864 -0.011454 -0.034028
# 3 -0.006904 0.011156 0.008752 0.002353 -0.003701 -0.005460
# 4 -0.003694 0.000864 0.002353 0.036246 -0.007515 -0.000182
# 5 0.004804 -0.011454 -0.003701 -0.007515 0.024899 0.002281
# 6 0.007904 -0.034028 -0.005460 -0.000182 0.002281 0.052676
#
#
# Mechanical properties :
#
#
# Convention : Reuss Voigt Hill
#
# Bulk Modulus (GPa) = 10.37940 69.22364 39.80152
# Shear Modulus (GPa) = 15.69067 36.88106 26.28587
#
# Velocity S-wave (km/s) = 2.57638 3.94994 3.33465
# Velocity P-wave (km/s) = 3.63884 7.07721 5.62708
#
# Compressibility (1/GPa) = 0.09634467
#
# Stress axis : x y z
#
# Youngs Moduli (GPa) = 72.31660 8.93221 114.26043
#
# Poissons Ratio (x) = 0.20854 0.78887
# Poissons Ratio (y) = 1.68839 -1.27474
# Poissons Ratio (z) = 0.49929 -0.09965
#
# Static dielectric constant tensor:
#      x y z
#    x 4.511630 0.069920 -0.312300 
#    y 0.069920 3.901870 -0.114970 
#    z -0.312300 -0.114970 4.741470 
# 
# 
# High freq. dielectric constant tensor:
#      x y z
#    x 1.940910 0.012750 -0.004250 
#    y 0.012750 1.915040 -0.005100 
#    z -0.004250 -0.005100 1.951900 
# 
# From -- ./inp_files/187201.got.cif
#   From: 2010.06.25/outbox.cif.g09.slc.cpg/sg2_94_cif.got.tgz:187201.got - 2010.06.27 13:26:56.
