data_PCOD8009114
_publ_section_title
;
Structure prediction by ZEFSAII (Michael W. Deem and Ramdas Pophale) SiO2 
 PCOD8009114
Probable space group: P -1
;
_chemical_formula_sum "Si O2"
_cell_formula_units_Z 16
_cell_length_a 12.060341
_cell_length_b 8.247368
_cell_length_c 13.363840
_cell_angle_alpha 80.647345
_cell_angle_beta 34.823659
_cell_angle_gamma 82.925883
_cell_volume 748.856365
_symmetry_space_group_name_H-M "P -1"
_symmetry_group_IT_number 2
_symmetry_cell_setting 'triclinic'
loop_
_space_group_symop_operation_xyz
x,y,z
-x,-y,-z
loop_
_atom_site_type_symbol
_atom_site_label
_atom_site_fract_x
_atom_site_fract_y
_atom_site_fract_z
Si Si1 0.985663 0.140738 0.858798
Si Si2 0.310997 0.896335 0.618382
Si Si3 0.605825 0.125267 0.037985
Si Si4 0.500814 0.445381 0.194784
Si Si5 0.826902 0.373810 0.112660
Si Si6 0.276788 0.734910 0.258140
Si Si7 0.900328 0.713739 0.433743
Si Si8 0.739591 0.048644 0.577608
O O1 0.078472 0.278763 0.702339
O O2 0.800512 0.058029 0.950080
O O3 0.927931 0.225947 0.995335
O O4 0.132432 0.996072 0.784902
O O5 0.288784 0.712366 0.699623
O O6 0.316526 0.879000 0.495950
O O7 0.500000 0.000000 0.500000
O O8 0.574493 0.315318 0.072965
O O9 0.443395 0.007380 0.214746
O O10 0.632070 0.125009 0.898063
O O11 0.663030 0.465052 0.159449
O O12 0.460077 0.619123 0.155918
O O13 0.291065 0.392880 0.397847
O O14 0.000000 0.500000 0.000000
O O15 0.180010 0.805868 0.425127
O O16 0.094996 0.640461 0.347020
O O17 0.885228 0.899505 0.470464
#
# Coordination Sequence:
#
# PCOD8009114 Si02
#       8
#     2   2   2   2   2   2   2   2
#     4   9  19  37  61  81 108 154 200 233 286 359
#     4  11  22  40  63  83 112 160 202 237 287 348
#     4   9  19  37  57  82 115 150 188 233 287 352
#     4  10  21  38  56  82 117 156 193 225 282 363
#     4  11  24  40  59  88 120 150 194 254 292 323
#     4  11  20  33  58  87 115 150 184 235 296 341
#     4   9  19  37  58  82 115 151 189 233 286 353
#     4  10  21  36  56  87 114 143 193 246 283 333
#
# _framework density 21.365912999999999
#
# number of rings (size 3 to 8) (size 9 to 14) (size 15 to 20)
#    0.000    2.000    0.000    4.875    0.000    3.000 
#    0.000    6.875    0.000    0.000    0.000    0.000 
#    0.000    0.000    0.000    0.000    0.000    0.000 
#
# Total GULP energy -198284.508741 kJ/mol
# GULP energy per Si atom -12392.781796 kJ/mol
# Density = 2.131728 g / cm^3
# Si number density = 21.365913 Si / 1000 Ang^3
#
#
#
# Elastic Constant Matrix: (Units=GPa)
#
#
# Indices 1 2 3 4 5 6 
#
# 1 123.1890 37.9623 45.8383 -12.7021 1.0366 -20.5565
# 2 37.9623 49.5070 11.2117 -9.3130 -0.4498 -9.0895
# 3 45.8383 11.2117 102.7577 -12.9337 4.5864 -2.9045
# 4 -12.7021 -9.3130 -12.9337 30.9796 -0.5475 -8.2312
# 5 1.0366 -0.4498 4.5864 -0.5475 45.2107 6.4326
# 6 -20.5565 -9.0895 -2.9045 -8.2312 6.4326 21.4608
#
#
#
# Elastic Compliance Matrix: (Units=1/GPa)
#
#
# Indices 1 2 3 4 5 6 
#
# 1 0.014758 -0.006788 -0.004690 0.005550 -0.001752 0.013280
# 2 -0.006788 0.028477 0.001338 0.008817 -0.000927 0.009400
# 3 -0.004690 0.001338 0.012120 0.003331 -0.000966 -0.000719
# 4 0.005550 0.008817 0.003331 0.046052 -0.003849 0.028318
# 5 -0.001752 -0.000927 -0.000966 -0.003849 0.023737 -0.010793
# 6 0.013280 0.009400 -0.000719 0.028318 -0.010793 0.077297
#
#
# Mechanical properties :
#
#
# Convention : Reuss Voigt Hill
#
# Bulk Modulus (GPa) = 28.51113 51.71981 40.11547
# Shear Modulus (GPa) = 21.32984 31.55964 26.44474
#
# Velocity S-wave (km/s) = 3.16303 3.84748 3.52192
# Velocity P-wave (km/s) = 5.16845 6.63300 5.94599
#
# Compressibility (1/GPa) = 0.03507403
#
# Stress axis : x y z
#
# Youngs Moduli (GPa) = 67.76157 35.11562 82.50788
#
# Poissons Ratio (x) = 0.23836 0.38700
# Poissons Ratio (y) = 0.45995 -0.11037
# Poissons Ratio (z) = 0.31783 -0.04698
#
# Static dielectric constant tensor:
#      x y z
#    x 3.955020 -0.128660 0.047370 
#    y -0.128660 3.626170 0.015790 
#    z 0.047370 0.015790 4.018810 
# 
# 
# High freq. dielectric constant tensor:
#      x y z
#    x 1.845240 -0.014140 0.003440 
#    y -0.014140 1.806790 -0.000200 
#    z 0.003440 -0.000200 1.854070 
# 
# From -- ./inp_files/278110.got.cif
#   From: 2010.06.25/outbox.cif.g09.slc.cpg/sg2_140_cif.got.tgz:278110.got - 2010.06.27 13:26:56.
