data_PCOD8009197
_publ_section_title
;
Structure prediction by ZEFSAII (Michael W. Deem and Ramdas Pophale) SiO2 
 PCOD8009197
Probable space group: P -1
;
_chemical_formula_sum "Si O2"
_cell_formula_units_Z 14
_cell_length_a 15.002320
_cell_length_b 21.177845
_cell_length_c 12.011083
_cell_angle_alpha 154.922091
_cell_angle_beta 155.191808
_cell_angle_gamma 23.983757
_cell_volume 581.913494
_symmetry_space_group_name_H-M "P -1"
_symmetry_group_IT_number 2
_symmetry_cell_setting 'triclinic'
loop_
_space_group_symop_operation_xyz
x,y,z
-x,-y,-z
loop_
_atom_site_type_symbol
_atom_site_label
_atom_site_fract_x
_atom_site_fract_y
_atom_site_fract_z
Si Si1 0.969053 0.239191 0.365979
Si Si2 0.306313 0.658984 0.105562
Si Si3 0.708101 0.101681 0.705351
Si Si4 0.183889 0.183926 0.285976
Si Si5 0.371688 0.369997 0.375783
Si Si6 0.208169 0.914657 0.742381
Si Si7 0.792116 0.868584 0.108200
O O1 0.135680 0.229741 0.435022
O O2 0.812707 0.430330 0.548834
O O3 0.147411 0.107673 0.454011
O O4 0.778961 0.183105 0.017928
O O5 0.241638 0.842900 0.269270
O O6 0.403921 0.648835 0.323490
O O7 0.500000 0.500000 0.000000
O O8 0.043767 0.669162 0.813079
O O9 0.415954 0.193000 0.525206
O O10 0.231502 0.986657 0.004510
O O11 0.522200 0.251057 0.250208
O O12 0.195338 0.314685 0.152485
O O13 0.984532 0.874773 0.423667
O O14 0.134476 0.085606 0.854064
O O15 0.500000 0.000000 0.000000
#
# Coordination Sequence:
#
# PCOD8009197 Si02
#       7
#     2   2   2   2   2   2   2
#     4  10  23  42  61  90 122 160 206 247 296 365
#     4  11  21  38  58  96 121 146 202 255 292 359
#     4  10  22  41  65  84 124 167 194 249 310 351
#     4  11  21  38  63  89 121 158 207 240 302 362
#     4  11  21  39  60  92 124 153 200 253 296 353
#     4  10  21  36  58  90 120 160 198 244 301 363
#     4   9  18  34  56  81 125 160 193 238 308 347
#
# _framework density 24.058558999999999
#
# number of rings (size 3 to 8) (size 9 to 14) (size 15 to 20)
#    0.000    1.714    2.857    3.857    0.000    5.143 
#    2.571    0.714    0.000    8.571    0.000    0.000 
#    0.000    0.000    0.000    0.000    0.000    0.000 
#
# Total GULP energy -173439.252213 kJ/mol
# GULP energy per Si atom -12388.518015 kJ/mol
# Density = 2.400380 g / cm^3
# Si number density = 24.058559 Si / 1000 Ang^3
#
#
#
# Elastic Constant Matrix: (Units=GPa)
#
#
# Indices 1 2 3 4 5 6 
#
# 1 21.6974 16.6436 -8.6001 -1.9453 -0.4399 0.4899
# 2 16.6436 140.3945 19.6130 16.8755 11.1013 -9.5764
# 3 -8.6001 19.6130 59.8075 -14.7751 28.1593 -8.7590
# 4 -1.9453 16.8755 -14.7751 49.2951 -15.6019 1.1602
# 5 -0.4399 11.1013 28.1593 -15.6019 32.1503 7.6974
# 6 0.4899 -9.5764 -8.7590 1.1602 7.6974 30.6441
#
#
#
# Elastic Compliance Matrix: (Units=1/GPa)
#
#
# Indices 1 2 3 4 5 6 
#
# 1 0.061926 -0.010136 0.018993 0.008748 -0.008797 0.003150
# 2 -0.010136 0.010231 -0.003877 -0.006506 -0.004289 0.003575
# 3 0.018993 -0.003877 0.043285 0.001744 -0.040486 0.020961
# 4 0.008748 -0.006506 0.001744 0.028746 0.016439 -0.006892
# 5 -0.008797 -0.004289 -0.040486 0.016439 0.084171 -0.034537
# 6 0.003150 0.003575 0.020961 -0.006892 -0.034537 0.048627
#
#
# Mechanical properties :
#
#
# Convention : Reuss Voigt Hill
#
# Bulk Modulus (GPa) = 7.97425 30.80138 19.38781
# Shear Modulus (GPa) = 16.19030 35.36742 25.77886
#
# Velocity S-wave (km/s) = 2.59695 3.83829 3.27694
# Velocity P-wave (km/s) = 3.50912 5.69857 4.73221
#
# Compressibility (1/GPa) = 0.12540369
#
# Stress axis : x y z
#
# Youngs Moduli (GPa) = 16.14821 97.74280 23.10244
#
# Poissons Ratio (x) = 0.99069 -0.43879
# Poissons Ratio (y) = 0.16367 0.08957
# Poissons Ratio (z) = -0.30671 0.37896
#
# Static dielectric constant tensor:
#      x y z
#    x 4.722820 -0.201270 0.269060 
#    y -0.201270 4.598720 -0.068580 
#    z 0.269060 -0.068580 4.732730 
# 
# 
# High freq. dielectric constant tensor:
#      x y z
#    x 1.925430 -0.027190 0.006760 
#    y -0.027190 1.958260 -0.008730 
#    z 0.006760 -0.008730 1.952250 
# 
# From -- ./inp_files/539419.got.cif
#   From: 2010.06.25/outbox.cif.g09.slc.cpg/sg2_270_cif.got.tgz:539419.got - 2010.06.27 13:26:56.
