data_PCOD8009586
_publ_section_title
;
Structure prediction by ZEFSAII (Michael W. Deem and Ramdas Pophale) SiO2 
 PCOD8009586
Probable space group: P -1
;
_chemical_formula_sum "Si O2"
_cell_formula_units_Z 16
_cell_length_a 23.016175
_cell_length_b 8.989741
_cell_length_c 18.155064
_cell_angle_alpha 126.747275
_cell_angle_beta 15.914057
_cell_angle_gamma 134.906950
_cell_volume 663.680475
_symmetry_space_group_name_H-M "P -1"
_symmetry_group_IT_number 2
_symmetry_cell_setting 'triclinic'
loop_
_space_group_symop_operation_xyz
x,y,z
-x,-y,-z
loop_
_atom_site_type_symbol
_atom_site_label
_atom_site_fract_x
_atom_site_fract_y
_atom_site_fract_z
Si Si1 0.189056 0.723917 0.286939
Si Si2 0.945364 0.232102 0.794372
Si Si3 0.577341 0.713843 0.420587
Si Si4 0.105436 0.950076 0.755218
Si Si5 0.734834 0.625867 0.410737
Si Si6 0.621911 0.728676 0.823117
Si Si7 0.227817 0.206139 0.175529
Si Si8 0.812027 0.470833 0.922028
O O1 0.153315 0.645309 0.222871
O O2 0.000000 0.500000 0.500000
O O3 0.080696 0.881389 0.469715
O O4 0.491743 0.849936 0.982904
O O5 0.076710 0.347839 0.746586
O O6 0.137053 0.240217 0.502876
O O7 0.815779 0.352630 0.957858
O O8 0.737318 0.952459 0.969590
O O9 0.500000 0.500000 0.500000
O O10 0.341395 0.597066 0.612616
O O11 0.633132 0.915606 0.468943
O O12 0.848665 0.816743 0.079339
O O13 0.066857 0.743841 0.692634
O O14 0.113369 0.135689 0.749072
O O15 0.466562 0.569172 0.755338
O O16 0.681794 0.806118 0.857314
O O17 0.396249 0.456531 0.009904
#
# Coordination Sequence:
#
# PCOD8009586 Si02
#       8
#     2   2   2   2   2   2   2   2
#     4  10  21  37  58  80 111 157 206 250 292 347
#     4  12  24  37  57  85 119 156 199 246 296 349
#     4   8  16  37  67  96 117 150 194 233 289 355
#     4   9  19  37  66  89 121 158 188 237 295 350
#     4  10  22  38  61  90 120 155 194 240 294 356
#     4  10  21  39  56  76 110 155 199 254 295 344
#     4  10  23  38  54  79 112 154 203 251 299 343
#     4  11  23  39  55  89 123 153 203 249 290 350
#
# _framework density 24.107987000000001
#
# number of rings (size 3 to 8) (size 9 to 14) (size 15 to 20)
#    0.000    2.000    2.500    0.375    3.500    2.500 
#    0.000    0.625    0.000   25.500    0.000    0.000 
#    0.000    0.000    0.000    0.000    0.000    0.000 
#
# Total GULP energy -198234.152688 kJ/mol
# GULP energy per Si atom -12389.634543 kJ/mol
# Density = 2.405312 g / cm^3
# Si number density = 24.107987 Si / 1000 Ang^3
#
#
#
# Elastic Constant Matrix: (Units=GPa)
#
#
# Indices 1 2 3 4 5 6 
#
# 1 106.1723 16.1359 3.9462 -4.3387 -25.4328 -0.1103
# 2 16.1359 77.9388 11.2285 -14.0014 -18.3209 1.0916
# 3 3.9462 11.2285 30.5981 -14.5389 -6.9784 -5.1835
# 4 -4.3387 -14.0014 -14.5389 26.7898 -0.2460 -5.6896
# 5 -25.4328 -18.3209 -6.9784 -0.2460 44.5654 -3.8843
# 6 -0.1103 1.0916 -5.1835 -5.6896 -3.8843 30.4123
#
#
#
# Elastic Compliance Matrix: (Units=1/GPa)
#
#
# Indices 1 2 3 4 5 6 
#
# 1 0.011141 -0.000508 0.002052 0.003104 0.006648 0.001838
# 2 -0.000508 0.016011 0.000244 0.008896 0.006551 0.001966
# 3 0.002052 0.000244 0.053497 0.033156 0.011292 0.016762
# 4 0.003104 0.008896 0.033156 0.064636 0.012637 0.019049
# 5 0.006648 0.006551 0.011292 0.012637 0.031470 0.008097
# 6 0.001838 0.001966 0.016762 0.019049 0.008097 0.040273
#
#
# Mechanical properties :
#
#
# Convention : Reuss Voigt Hill
#
# Bulk Modulus (GPa) = 11.87290 30.81451 21.34370
# Shear Modulus (GPa) = 20.70179 32.58007 26.64093
#
# Velocity S-wave (km/s) = 2.93356 3.68016 3.32786
# Velocity P-wave (km/s) = 4.05091 5.55587 4.86197
#
# Compressibility (1/GPa) = 0.08422546
#
# Stress axis : x y z
#
# Youngs Moduli (GPa) = 89.76095 62.45672 18.69264
#
# Poissons Ratio (x) = 0.03170 -0.03835
# Poissons Ratio (y) = 0.04556 -0.00456
# Poissons Ratio (z) = -0.18417 -0.01524
#
# Static dielectric constant tensor:
#      x y z
#    x 4.647230 0.448070 -0.196360 
#    y 0.448070 5.174220 -0.691510 
#    z -0.196360 -0.691510 4.530040 
# 
# 
# High freq. dielectric constant tensor:
#      x y z
#    x 1.960330 0.005960 -0.002720 
#    y 0.005960 1.969750 -0.039210 
#    z -0.002720 -0.039210 1.953230 
# 
# From -- ./inp_files/577360.got.cif
#   From: 2010.06.25/outbox.cif.g09.slc.cpg/sg2_289_cif.got.tgz:577360.got - 2010.06.27 13:26:56.
