data_PCOD8009653
_publ_section_title
;
Structure prediction by ZEFSAII (Michael W. Deem and Ramdas Pophale) SiO2 
 PCOD8009653
Probable space group: P -1
;
_chemical_formula_sum "Si O2"
_cell_formula_units_Z 14
_cell_length_a 11.625539
_cell_length_b 16.252772
_cell_length_c 11.322903
_cell_angle_alpha 137.027505
_cell_angle_beta 35.416040
_cell_angle_gamma 148.997320
_cell_volume 634.656635
_symmetry_space_group_name_H-M "P -1"
_symmetry_group_IT_number 2
_symmetry_cell_setting 'triclinic'
loop_
_space_group_symop_operation_xyz
x,y,z
-x,-y,-z
loop_
_atom_site_type_symbol
_atom_site_label
_atom_site_fract_x
_atom_site_fract_y
_atom_site_fract_z
Si Si1 0.958490 0.209005 0.336943
Si Si2 0.291055 0.852722 0.293388
Si Si3 0.799517 0.185537 0.176139
Si Si4 0.271158 0.311566 0.502467
Si Si5 0.184736 0.546484 0.503038
Si Si6 0.713328 0.660305 0.221122
Si Si7 0.539167 0.696500 0.899515
O O1 0.731618 0.089590 0.498027
O O2 0.854020 0.180448 0.263003
O O3 0.069476 0.379310 0.483759
O O4 0.200246 0.210899 0.137926
O O5 0.017732 0.748060 0.341127
O O6 0.514602 0.015996 0.205377
O O7 0.381230 0.750842 0.126762
O O8 0.808107 0.331931 0.293525
O O9 0.017691 0.209965 0.938448
O O10 0.500000 0.500000 0.500000
O O11 0.269655 0.261593 0.585602
O O12 0.351240 0.245680 0.266488
O O13 0.484523 0.632018 0.304506
O O14 0.000000 0.500000 0.500000
O O15 0.655534 0.495396 0.118795
#
# Coordination Sequence:
#
# PCOD8009653 Si02
#       7
#     2   2   2   2   2   2   2
#     4   9  20  38  58  83 113 150 193 228 267 333
#     4  11  22  37  58  84 115 150 185 230 287 336
#     4  11  23  35  55  88 120 148 180 230 291 336
#     4   9  21  40  59  82 109 146 196 236 271 329
#     4   9  20  38  59  81 112 151 190 228 271 329
#     4  10  21  37  59  85 111 145 191 236 277 328
#     4   9  20  38  61  83 108 147 193 233 273 329
#
# _framework density 22.059170999999999
#
# number of rings (size 3 to 8) (size 9 to 14) (size 15 to 20)
#    0.000    2.286    0.000    2.143    0.000   14.286 
#    0.000    1.429    0.000    0.000    0.000    0.000 
#    0.000    0.000    0.000    0.000    0.000    0.000 
#
# Total GULP energy -173461.336077 kJ/mol
# GULP energy per Si atom -12390.095434 kJ/mol
# Density = 2.200896 g / cm^3
# Si number density = 22.059171 Si / 1000 Ang^3
#
#
#
# Elastic Constant Matrix: (Units=GPa)
#
#
# Indices 1 2 3 4 5 6 
#
# 1 82.5077 33.0168 43.4687 -16.3752 -4.5426 15.1043
# 2 33.0168 77.2133 31.7644 -30.1766 -4.8574 16.0662
# 3 43.4687 31.7644 102.2165 -37.3990 -5.9227 11.8212
# 4 -16.3752 -30.1766 -37.3990 39.6982 -2.2305 -2.3365
# 5 -4.5426 -4.8574 -5.9227 -2.2305 36.0044 -7.1248
# 6 15.1043 16.0662 11.8212 -2.3365 -7.1248 20.6210
#
#
#
# Elastic Compliance Matrix: (Units=1/GPa)
#
#
# Indices 1 2 3 4 5 6 
#
# 1 0.018053 -0.004887 -0.006514 -0.002825 -0.000876 -0.006304
# 2 -0.004887 0.024034 0.003079 0.018392 0.001436 -0.014331
# 3 -0.006514 0.003079 0.018601 0.017004 0.002627 -0.005457
# 4 -0.002825 0.018392 0.017004 0.053503 0.005454 -0.014061
# 5 -0.000876 0.001436 0.002627 0.005454 0.030439 0.009152
# 6 -0.006304 -0.014331 -0.005457 -0.014061 0.009152 0.068974
#
#
# Mechanical properties :
#
#
# Convention : Reuss Voigt Hill
#
# Bulk Modulus (GPa) = 22.70415 53.15970 37.93193
# Shear Modulus (GPa) = 20.41407 29.51057 24.96232
#
# Velocity S-wave (km/s) = 3.04538 3.66155 3.36759
# Velocity P-wave (km/s) = 4.76240 6.48282 5.68803
#
# Compressibility (1/GPa) = 0.04404482
#
# Stress axis : x y z
#
# Youngs Moduli (GPa) = 55.39358 41.60691 53.76057
#
# Poissons Ratio (x) = 0.20335 0.35018
# Poissons Ratio (y) = 0.27073 -0.16555
# Poissons Ratio (z) = 0.36082 -0.12812
#
# Static dielectric constant tensor:
#      x y z
#    x 4.031620 0.015990 -0.021970 
#    y 0.015990 4.089010 -0.071090 
#    z -0.021970 -0.071090 4.061990 
# 
# 
# High freq. dielectric constant tensor:
#      x y z
#    x 1.854630 0.011260 -0.007430 
#    y 0.011260 1.856970 -0.021750 
#    z -0.007430 -0.021750 1.868900 
# 
# From -- ./inp_files/36950.got.cif
#   From: 2010.06.25/outbox.cif.g09.slc.cpg/sg2_19_cif.got.tgz:36950.got - 2010.06.27 13:26:56.
