data_PCOD8009989
_publ_section_title
;
Structure prediction by ZEFSAII (Michael W. Deem and Ramdas Pophale) SiO2 
 PCOD8009989
Probable space group: P -1
;
_chemical_formula_sum "Si O2"
_cell_formula_units_Z 14
_cell_length_a 6.114387
_cell_length_b 12.349530
_cell_length_c 15.773130
_cell_angle_alpha 43.650642
_cell_angle_beta 122.109195
_cell_angle_gamma 132.848109
_cell_volume 600.906321
_symmetry_space_group_name_H-M "P -1"
_symmetry_group_IT_number 2
_symmetry_cell_setting 'triclinic'
loop_
_space_group_symop_operation_xyz
x,y,z
-x,-y,-z
loop_
_atom_site_type_symbol
_atom_site_label
_atom_site_fract_x
_atom_site_fract_y
_atom_site_fract_z
Si Si1 0.684708 0.460369 0.927748
Si Si2 0.671886 0.028913 0.710674
Si Si3 0.743388 0.918448 0.155779
Si Si4 0.258201 0.504601 0.276258
Si Si5 0.672308 0.821677 0.539121
Si Si6 0.350882 0.058856 0.061553
Si Si7 0.416069 0.691628 0.743088
O O1 0.719068 0.510452 0.809416
O O2 0.568745 0.584630 0.877010
O O3 0.442312 0.251799 0.011987
O O4 0.000000 0.500000 0.000000
O O5 0.586909 0.166067 0.572550
O O6 0.998257 0.056178 0.739705
O O7 0.714399 0.071281 0.796845
O O8 0.425732 0.828323 0.740317
O O9 0.483855 0.710490 0.233809
O O10 0.635072 0.060183 0.074987
O O11 0.865363 0.971430 0.049952
O O12 0.332985 0.350671 0.410182
O O13 0.928212 0.452960 0.268053
O O14 0.583630 0.799873 0.631869
O O15 0.000000 0.000000 0.500000
#
# Coordination Sequence:
#
# PCOD8009989 Si02
#       7
#     2   2   2   2   2   2   2
#     4  10  21  37  63  96 129 161 217 263 314 377
#     4  12  24  39  70  95 124 177 215 255 323 377
#     4  10  24  43  65  94 134 168 213 259 317 380
#     4  10  23  43  62  93 129 167 207 271 313 374
#     4  11  25  43  68  94 130 161 219 272 313 376
#     4  10  23  41  63  94 135 167 209 262 314 380
#     4  11  24  41  68  94 127 169 211 264 326 370
#
# _framework density 23.298141999999999
#
# number of rings (size 3 to 8) (size 9 to 14) (size 15 to 20)
#    0.000    1.429    1.429    2.571    4.000    9.714 
#    0.000    1.429    0.000    0.000    0.000    0.000 
#    0.000    0.000    0.000    0.000    0.000    0.000 
#
# Total GULP energy -173474.086814 kJ/mol
# GULP energy per Si atom -12391.006201 kJ/mol
# Density = 2.324511 g / cm^3
# Si number density = 23.298142 Si / 1000 Ang^3
#
#
#
# Elastic Constant Matrix: (Units=GPa)
#
#
# Indices 1 2 3 4 5 6 
#
# 1 37.1166 8.4771 27.4902 0.4725 12.2493 -1.1064
# 2 8.4771 75.2259 32.0487 -6.6732 6.7276 9.5497
# 3 27.4902 32.0487 122.8654 4.8490 36.0876 3.9620
# 4 0.4725 -6.6732 4.8490 38.9281 5.0684 8.0346
# 5 12.2493 6.7276 36.0876 5.0684 52.7087 -3.8656
# 6 -1.1064 9.5497 3.9620 8.0346 -3.8656 37.5027
#
#
#
# Elastic Compliance Matrix: (Units=1/GPa)
#
#
# Indices 1 2 3 4 5 6 
#
# 1 0.032861 -0.000916 -0.006242 0.000332 -0.003170 0.001464
# 2 -0.000916 0.016059 -0.004063 0.004185 0.000208 -0.004562
# 3 -0.006242 -0.004063 0.012617 -0.001139 -0.006627 -0.000921
# 4 0.000332 0.004185 -0.001139 0.028466 -0.003108 -0.007354
# 5 -0.003170 0.000208 -0.006627 -0.003108 0.024795 0.003775
# 6 0.001464 -0.004562 -0.000921 -0.007354 0.003775 0.029932
#
#
# Mechanical properties :
#
#
# Convention : Reuss Voigt Hill
#
# Bulk Modulus (GPa) = 25.58030 41.24887 33.41458
# Shear Modulus (GPa) = 27.74628 36.97403 32.36016
#
# Velocity S-wave (km/s) = 3.45472 3.98803 3.73092
# Velocity P-wave (km/s) = 5.18814 6.24092 5.73872
#
# Compressibility (1/GPa) = 0.03909259
#
# Stress axis : x y z
#
# Youngs Moduli (GPa) = 30.43167 62.26899 79.26066
#
# Poissons Ratio (x) = 0.05707 0.49478
# Poissons Ratio (y) = 0.02789 0.32204
# Poissons Ratio (z) = 0.18997 0.25300
#
# Static dielectric constant tensor:
#      x y z
#    x 4.402780 -0.020410 0.287450 
#    y -0.020410 3.956970 -0.052460 
#    z 0.287450 -0.052460 4.538800 
# 
# 
# High freq. dielectric constant tensor:
#      x y z
#    x 1.939370 0.002650 0.016500 
#    y 0.002650 1.904580 -0.002050 
#    z 0.016500 -0.002050 1.930560 
# 
# From -- ./inp_files/69533.got.cif
#   From: 2010.06.25/outbox.cif.g09.slc.cpg/sg2_35_cif.got.tgz:69533.got - 2010.06.27 13:26:56.
