data_PCOD8009044
_publ_section_title
;
Structure prediction by ZEFSAII (Michael W. Deem and Ramdas Pophale) SiO2 
 PCOD8009044
Probable space group: P -1
;
_chemical_formula_sum "Si O2"
_cell_formula_units_Z 16
_cell_length_a 14.148337
_cell_length_b 15.676334
_cell_length_c 8.574848
_cell_angle_alpha 63.594219
_cell_angle_beta 93.833375
_cell_angle_gamma 41.770625
_cell_volume 844.464552
_symmetry_space_group_name_H-M "P -1"
_symmetry_group_IT_number 2
_symmetry_cell_setting 'triclinic'
loop_
_space_group_symop_operation_xyz
x,y,z
-x,-y,-z
loop_
_atom_site_type_symbol
_atom_site_label
_atom_site_fract_x
_atom_site_fract_y
_atom_site_fract_z
Si Si1 0.375083 0.698152 0.989172
Si Si2 0.596213 0.687689 0.710472
Si Si3 0.789869 0.636029 0.201803
Si Si4 0.964680 0.088869 0.580457
Si Si5 0.588235 0.334975 0.349498
Si Si6 0.207023 0.331467 0.474653
Si Si7 0.754831 0.466752 0.202551
Si Si8 0.539022 0.035665 0.335763
O O1 0.376493 0.686345 0.813315
O O2 0.422958 0.555410 0.194394
O O3 0.542462 0.625869 0.113315
O O4 0.162631 0.916749 0.841712
O O5 0.479241 0.712741 0.573652
O O6 0.709019 0.661596 0.635260
O O7 0.444719 0.873606 0.658658
O O8 0.746561 0.501806 0.989441
O O9 0.719253 0.710019 0.310571
O O10 0.828738 0.490705 0.292930
O O11 0.979675 0.532052 0.277697
O O12 0.635306 0.815084 0.924676
O O13 0.790434 0.187226 0.573144
O O14 0.903395 0.250935 0.408716
O O15 0.000000 0.000000 0.500000
O O16 0.274078 0.166060 0.568108
O O17 0.500000 0.000000 0.500000
#
# Coordination Sequence:
#
# PCOD8009044 Si02
#       8
#     2   2   2   2   2   2   2   2
#     4   8  14  26  42  67  98 125 151 192 245 289
#     4   9  17  31  49  74 101 126 161 208 249 285
#     4  10  21  36  52  72  99 137 172 201 247 304
#     4   9  15  25  45  71  97 126 154 194 250 293
#     4   8  14  25  41  67  99 122 152 195 240 290
#     4  10  21  36  52  70 101 137 169 205 249 299
#     4   9  18  29  46  73  98 120 163 208 240 288
#     4   9  19  34  53  75  98 125 164 213 252 287
#
# _framework density 18.946916000000002
#
# number of rings (size 3 to 8) (size 9 to 14) (size 15 to 20)
#    0.000    3.000    0.000    2.625    0.000    8.500 
#    0.000    6.250    0.000    3.000    0.000    4.375 
#    0.000    0.000    0.000    0.000    0.000    0.000 
#
# Total GULP energy -198214.280925 kJ/mol
# GULP energy per Si atom -12388.392558 kJ/mol
# Density = 1.890379 g / cm^3
# Si number density = 18.946916 Si / 1000 Ang^3
#
#
#
# Elastic Constant Matrix: (Units=GPa)
#
#
# Indices 1 2 3 4 5 6 
#
# 1 113.5706 37.0620 42.8055 -9.5788 -4.9510 1.8005
# 2 37.0620 68.3227 35.6378 -9.2363 -8.1214 1.9111
# 3 42.8055 35.6378 85.6506 -21.5357 1.2929 -1.9237
# 4 -9.5788 -9.2363 -21.5357 30.2774 1.7003 2.3285
# 5 -4.9510 -8.1214 1.2929 1.7003 20.3789 -8.6576
# 6 1.8005 1.9111 -1.9237 2.3285 -8.6576 16.3034
#
#
#
# Elastic Compliance Matrix: (Units=1/GPa)
#
#
# Indices 1 2 3 4 5 6 
#
# 1 0.011792 -0.003996 -0.004434 -0.000680 0.001388 -0.000523
# 2 -0.003996 0.021470 -0.007137 -0.000431 0.008859 0.001849
# 3 -0.004434 -0.007137 0.019670 0.010900 -0.006703 -0.001469
# 4 -0.000680 -0.000431 0.010900 0.041587 -0.008293 -0.008931
# 5 0.001388 0.008859 -0.006703 -0.008293 0.069365 0.036037
# 6 -0.000523 0.001849 -0.001469 -0.008931 0.036037 0.081417
#
#
# Mechanical properties :
#
#
# Convention : Reuss Voigt Hill
#
# Bulk Modulus (GPa) = 45.87637 55.39494 50.63566
# Shear Modulus (GPa) = 17.62428 23.52786 20.57607
#
# Velocity S-wave (km/s) = 3.05321 3.52771 3.29900
# Velocity P-wave (km/s) = 6.05765 6.77446 6.42606
#
# Compressibility (1/GPa) = 0.02179772
#
# Stress axis : x y z
#
# Youngs Moduli (GPa) = 84.80437 46.57714 50.83933
#
# Poissons Ratio (x) = 0.18612 0.22544
# Poissons Ratio (y) = 0.33887 0.36282
# Poissons Ratio (z) = 0.37605 0.33241
#
# Static dielectric constant tensor:
#      x y z
#    x 3.691500 0.237700 0.117570 
#    y 0.237700 3.485540 -0.453180 
#    z 0.117570 -0.453180 3.674960 
# 
# 
# High freq. dielectric constant tensor:
#      x y z
#    x 1.738230 0.017200 0.003140 
#    y 0.017200 1.705240 -0.026590 
#    z 0.003140 -0.026590 1.723940 
# 
# From -- ./inp_files/314969.got.cif
#   From: 2010.06.25/outbox.cif.g09.slc.cpg/sg2_158_cif.got.tgz:314969.got - 2010.06.27 13:26:56.
