data_PCOD8009898
_publ_section_title
;
Structure prediction by ZEFSAII (Michael W. Deem and Ramdas Pophale) SiO2 
 PCOD8009898
Probable space group: P -1
;
_chemical_formula_sum "Si O2"
_cell_formula_units_Z 16
_cell_length_a 22.168704
_cell_length_b 18.430191
_cell_length_c 12.841219
_cell_angle_alpha 140.828170
_cell_angle_beta 29.753370
_cell_angle_gamma 162.396419
_cell_volume 738.160926
_symmetry_space_group_name_H-M "P -1"
_symmetry_group_IT_number 2
_symmetry_cell_setting 'triclinic'
loop_
_space_group_symop_operation_xyz
x,y,z
-x,-y,-z
loop_
_atom_site_type_symbol
_atom_site_label
_atom_site_fract_x
_atom_site_fract_y
_atom_site_fract_z
Si Si1 0.550359 0.317468 0.029483
Si Si2 0.254835 0.707762 0.153138
Si Si3 0.305758 0.118312 0.614738
Si Si4 0.609497 0.493596 0.754192
Si Si5 0.538630 0.562000 0.391843
Si Si6 0.723431 0.280737 0.106260
Si Si7 0.155653 0.445841 0.351161
Si Si8 0.038795 0.158681 0.574847
O O1 0.595707 0.491840 0.168766
O O2 0.753308 0.418561 0.911852
O O3 0.605348 0.333547 0.844797
O O4 0.247394 0.019265 0.182023
O O5 0.005993 0.573143 0.416272
O O6 0.540619 0.011760 0.085300
O O7 0.207919 0.636894 0.024893
O O8 0.364863 0.241962 0.767972
O O9 0.244507 0.156217 0.651340
O O10 0.560871 0.250514 0.362076
O O11 0.034871 0.816673 0.698754
O O12 0.718077 0.479196 0.643463
O O13 0.860010 0.753055 0.598112
O O14 0.500000 0.500000 0.000000
O O15 0.500000 0.500000 0.500000
O O16 0.272737 0.406115 0.573764
O O17 0.000000 0.500000 0.000000
O O18 0.000000 0.000000 0.500000
#
# Coordination Sequence:
#
# PCOD8009898 Si02
#       8
#     2   2   2   2   2   2   2   2
#     4  11  23  42  60  91 129 168 213 257 316 382
#     4  10  23  39  67  91 124 172 212 260 319 374
#     4  10  23  40  61  96 126 161 214 261 315 384
#     4  11  23  40  67  92 127 168 206 263 322 375
#     4  10  21  37  62  92 123 159 208 268 319 370
#     4  10  21  38  66  96 123 160 214 267 317 375
#     4  11  24  43  63  91 132 170 212 261 317 377
#     4   9  21  37  60  89 122 159 212 251 310 379
#
# _framework density 21.675491000000001
#
# number of rings (size 3 to 8) (size 9 to 14) (size 15 to 20)
#    0.000    1.750    0.000    4.125   12.250    2.000 
#    2.250    0.000    0.000    4.500    0.000    0.000 
#    0.000    0.000    0.000    0.000    0.000    0.000 
#
# Total GULP energy -198330.095304 kJ/mol
# GULP energy per Si atom -12395.630956 kJ/mol
# Density = 2.162616 g / cm^3
# Si number density = 21.675491 Si / 1000 Ang^3
#
#
#
# Elastic Constant Matrix: (Units=GPa)
#
#
# Indices 1 2 3 4 5 6 
#
# 1 153.3300 23.4952 49.3856 -8.2809 8.2020 0.3421
# 2 23.4952 48.6052 24.7766 2.0525 4.0545 3.5645
# 3 49.3856 24.7766 107.8688 -12.7862 16.3529 -0.6234
# 4 -8.2809 2.0525 -12.7862 30.3774 -5.0530 5.9771
# 5 8.2020 4.0545 16.3529 -5.0530 45.2752 3.2112
# 6 0.3421 3.5645 -0.6234 5.9771 3.2112 32.0001
#
#
#
# Elastic Compliance Matrix: (Units=1/GPa)
#
#
# Indices 1 2 3 4 5 6 
#
# 1 0.007889 -0.002353 -0.002939 0.001083 -0.000031 -0.000079
# 2 -0.002353 0.024619 -0.005030 -0.004068 -0.000272 -0.002028
# 3 -0.002939 -0.005030 0.012766 0.004315 -0.003171 0.000353
# 4 0.001083 -0.004068 0.004315 0.037170 0.003236 -0.006742
# 5 -0.000031 -0.000272 -0.003171 0.003236 0.023838 -0.003028
# 6 -0.000079 -0.002028 0.000353 -0.006742 -0.003028 0.033047
#
#
# Mechanical properties :
#
#
# Convention : Reuss Voigt Hill
#
# Bulk Modulus (GPa) = 40.60161 56.12430 48.36295
# Shear Modulus (GPa) = 29.72947 35.67364 32.70155
#
# Velocity S-wave (km/s) = 3.70749 4.06125 3.88840
# Velocity P-wave (km/s) = 6.09094 6.92394 6.52075
#
# Compressibility (1/GPa) = 0.02462957
#
# Stress axis : x y z
#
# Youngs Moduli (GPa) = 126.75353 40.61966 78.33430
#
# Poissons Ratio (x) = 0.09557 0.23022
# Poissons Ratio (y) = 0.29823 0.39404
# Poissons Ratio (z) = 0.37253 0.20433
#
# Static dielectric constant tensor:
#      x y z
#    x 4.021250 0.007120 -0.104680 
#    y 0.007120 2.152820 -0.702480 
#    z -0.104680 -0.702480 4.135540 
# 
# 
# High freq. dielectric constant tensor:
#      x y z
#    x 1.867150 -0.007200 -0.005030 
#    y -0.007200 1.835310 -0.000120 
#    z -0.005030 -0.000120 1.855330 
# 
# From -- ./inp_files/472424.got.cif
#   From: 2010.06.25/outbox.cif.g09.slc.cpg/sg2_237_cif.got.tgz:472424.got - 2010.06.27 13:26:56.
