data_PCOD8009949
_publ_section_title
;
Structure prediction by ZEFSAII (Michael W. Deem and Ramdas Pophale) SiO2 
 PCOD8009949
Probable space group: P -1
;
_chemical_formula_sum "Si O2"
_cell_formula_units_Z 16
_cell_length_a 6.569925
_cell_length_b 17.748146
_cell_length_c 12.163912
_cell_angle_alpha 48.354416
_cell_angle_beta 68.347686
_cell_angle_gamma 50.631756
_cell_volume 815.996484
_symmetry_space_group_name_H-M "P -1"
_symmetry_group_IT_number 2
_symmetry_cell_setting 'triclinic'
loop_
_space_group_symop_operation_xyz
x,y,z
-x,-y,-z
loop_
_atom_site_type_symbol
_atom_site_label
_atom_site_fract_x
_atom_site_fract_y
_atom_site_fract_z
Si Si1 0.169032 0.649626 0.815519
Si Si2 0.480483 0.875324 0.298295
Si Si3 0.349205 0.602999 0.068596
Si Si4 0.375247 0.262819 0.178875
Si Si5 0.849280 0.771106 0.135895
Si Si6 0.753256 0.140319 0.422817
Si Si7 0.470241 0.113893 0.114774
Si Si8 0.971925 0.969673 0.912767
O O1 0.189685 0.626569 0.965135
O O2 0.136665 0.775657 0.671486
O O3 0.931464 0.643898 0.812593
O O4 0.442633 0.539828 0.813077
O O5 0.742740 0.769772 0.280779
O O6 0.437557 0.828073 0.465431
O O7 0.500499 0.987862 0.214480
O O8 0.230735 0.913941 0.232955
O O9 0.505824 0.668707 0.968816
O O10 0.136538 0.651819 0.164391
O O11 0.565624 0.174744 0.321766
O O12 0.294466 0.192013 0.177761
O O13 0.626773 0.803663 0.056321
O O14 0.864380 0.886292 0.013593
O O15 0.000000 0.000000 0.500000
O O16 0.737137 0.094845 0.130899
O O17 0.000000 0.000000 0.000000
#
# Coordination Sequence:
#
# PCOD8009949 Si02
#       8
#     2   2   2   2   2   2   2   2
#     4  10  22  41  59  85 116 153 196 247 286 331
#     4  11  23  34  54  84 125 154 189 232 290 349
#     4  10  21  37  63  88 114 143 199 256 288 330
#     4  11  21  37  64  86 113 154 197 234 295 345
#     4  11  20  34  55  89 116 144 187 243 296 336
#     4  11  25  41  56  85 123 159 193 229 283 359
#     4  11  19  32  56  87 117 147 186 241 287 334
#     4  11  18  33  53  84 119 150 188 235 287 341
#
# _framework density 19.607928999999999
#
# number of rings (size 3 to 8) (size 9 to 14) (size 15 to 20)
#    0.000    1.250    5.000    2.625    3.500    3.000 
#    0.000    0.625    0.000    0.750    0.000    0.000 
#    0.000    0.000    0.000    0.000    0.000    0.000 
#
# Total GULP energy -198216.936837 kJ/mol
# GULP energy per Si atom -12388.558552 kJ/mol
# Density = 1.956330 g / cm^3
# Si number density = 19.607929 Si / 1000 Ang^3
#
#
#
# Elastic Constant Matrix: (Units=GPa)
#
#
# Indices 1 2 3 4 5 6 
#
# 1 108.0417 39.1812 28.8268 -3.4037 8.4558 -16.2584
# 2 39.1812 117.5897 46.8271 3.8188 -0.4559 -13.4077
# 3 28.8268 46.8271 73.1672 5.7240 -0.5896 -6.6368
# 4 -3.4037 3.8188 5.7240 34.2038 -2.6377 1.6458
# 5 8.4558 -0.4559 -0.5896 -2.6377 17.6841 8.2712
# 6 -16.2584 -13.4077 -6.6368 1.6458 8.2712 33.1975
#
#
#
# Elastic Compliance Matrix: (Units=1/GPa)
#
#
# Indices 1 2 3 4 5 6 
#
# 1 0.012716 -0.002290 -0.003064 0.000977 -0.009357 0.006973
# 2 -0.002290 0.012221 -0.006642 -0.000610 -0.000090 0.002539
# 3 -0.003064 -0.006642 0.019285 -0.002616 0.001855 -0.000660
# 4 0.000977 -0.000610 -0.002616 0.030411 0.005442 -0.003154
# 5 -0.009357 -0.000090 0.001855 0.005442 0.072450 -0.022569
# 6 0.006973 0.002539 -0.000660 -0.003154 -0.022569 0.040211
#
#
# Mechanical properties :
#
#
# Convention : Reuss Voigt Hill
#
# Bulk Modulus (GPa) = 49.42920 58.71875 54.07397
# Shear Modulus (GPa) = 22.93279 29.28132 26.10705
#
# Velocity S-wave (km/s) = 3.42360 3.86857 3.65287
# Velocity P-wave (km/s) = 6.39465 7.06865 6.74008
#
# Compressibility (1/GPa) = 0.02023096
#
# Stress axis : x y z
#
# Youngs Moduli (GPa) = 78.64099 81.82534 51.85375
#
# Poissons Ratio (x) = 0.18737 0.15886
# Poissons Ratio (y) = 0.18008 0.34442
# Poissons Ratio (z) = 0.24093 0.54349
#
# Static dielectric constant tensor:
#      x y z
#    x 4.172540 -0.816660 -0.107030 
#    y -0.816660 4.622440 0.334600 
#    z -0.107030 0.334600 3.250440 
# 
# 
# High freq. dielectric constant tensor:
#      x y z
#    x 1.781840 -0.013190 0.006980 
#    y -0.013190 1.775460 0.013600 
#    z 0.006980 0.013600 1.715100 
# 
# From -- ./inp_files/66207.got.cif
#   From: 2010.06.25/outbox.cif.g09.slc.cpg/sg2_34_cif.got.tgz:66207.got - 2010.06.27 13:26:56.
