data_PCOD8009805
_publ_section_title
;
Structure prediction by ZEFSAII (Michael W. Deem and Ramdas Pophale) SiO2 
 PCOD8009805
Probable space group: P -1
;
_chemical_formula_sum "Si O2"
_cell_formula_units_Z 16
_cell_length_a 11.292447
_cell_length_b 14.464157
_cell_length_c 11.573314
_cell_angle_alpha 53.451940
_cell_angle_beta 71.282489
_cell_angle_gamma 115.331140
_cell_volume 836.522786
_symmetry_space_group_name_H-M "P -1"
_symmetry_group_IT_number 2
_symmetry_cell_setting 'triclinic'
loop_
_space_group_symop_operation_xyz
x,y,z
-x,-y,-z
loop_
_atom_site_type_symbol
_atom_site_label
_atom_site_fract_x
_atom_site_fract_y
_atom_site_fract_z
Si Si1 0.801927 0.354490 0.021586
Si Si2 0.629525 0.862777 0.714311
Si Si3 0.935879 0.077836 0.909471
Si Si4 0.309037 0.957929 0.802921
Si Si5 0.603661 0.571396 0.542389
Si Si6 0.770240 0.890895 0.420263
Si Si7 0.748189 0.210340 0.395876
Si Si8 0.757839 0.845830 0.922454
O O1 0.626113 0.313061 0.061096
O O2 0.723232 0.250131 0.248791
O O3 0.821455 0.258877 0.003269
O O4 0.024526 0.586304 0.773848
O O5 0.675678 0.802107 0.644837
O O6 0.729460 0.890252 0.779548
O O7 0.740291 0.067160 0.497649
O O8 0.161564 0.311183 0.636690
O O9 0.789136 0.960427 0.929554
O O10 0.783101 0.039840 0.063675
O O11 0.000000 0.000000 0.000000
O O12 0.269514 0.004755 0.667703
O O13 0.563763 0.120090 0.607179
O O14 0.500000 0.500000 0.500000
O O15 0.648669 0.725428 0.481985
O O16 0.451855 0.387178 0.812351
O O17 0.026170 0.067565 0.211113
#
# Coordination Sequence:
#
# PCOD8009805 Si02
#       8
#     2   2   2   2   2   2   2   2
#     4  10  21  37  61  89 114 159 201 244 288 353
#     4  11  22  41  58  86 129 155 194 245 301 358
#     4  11  21  39  60  86 118 155 199 244 290 350
#     4  11  18  37  62  88 118 147 199 251 290 345
#     4  11  21  38  58  85 119 158 202 240 286 349
#     4  11  21  36  60  90 124 155 193 241 300 361
#     4  10  21  38  62  85 117 158 200 246 295 340
#     4  11  24  38  59  88 123 163 189 243 305 353
#
# _framework density 19.126795000000001
#
# number of rings (size 3 to 8) (size 9 to 14) (size 15 to 20)
#    0.000    1.250    6.250    1.125    0.000    6.500 
#    0.000    2.500    0.000    4.500    0.000    0.000 
#    0.000    0.000    0.000    0.000    0.000    0.000 
#
# Total GULP energy -198270.817976 kJ/mol
# GULP energy per Si atom -12391.926123 kJ/mol
# Density = 1.908326 g / cm^3
# Si number density = 19.126795 Si / 1000 Ang^3
#
#
#
# Elastic Constant Matrix: (Units=GPa)
#
#
# Indices 1 2 3 4 5 6 
#
# 1 44.6904 46.9737 47.4398 -5.4902 -7.0844 1.8276
# 2 46.9737 126.3885 62.1078 15.0779 -14.3729 1.6581
# 3 47.4398 62.1078 104.1976 -11.8651 -18.6120 -7.7678
# 4 -5.4902 15.0779 -11.8651 36.9309 2.4010 -8.0318
# 5 -7.0844 -14.3729 -18.6120 2.4010 18.7754 9.4000
# 6 1.8276 1.6581 -7.7678 -8.0318 9.4000 29.1974
#
#
#
# Elastic Compliance Matrix: (Units=1/GPa)
#
#
# Indices 1 2 3 4 5 6 
#
# 1 0.055423 -0.013539 -0.017645 0.007813 -0.006337 -0.003205
# 2 -0.013539 0.018367 -0.005229 -0.013674 0.009769 -0.008493
# 3 -0.017645 -0.005229 0.023671 0.008191 0.008076 0.007352
# 4 0.007813 -0.013674 0.008191 0.041332 -0.013844 0.018294
# 5 -0.006337 0.009769 0.008076 -0.013844 0.082300 -0.028314
# 6 -0.003205 -0.008493 0.007352 0.018294 -0.028314 0.051036
#
#
# Mechanical properties :
#
#
# Convention : Reuss Voigt Hill
#
# Bulk Modulus (GPa) = 40.59139 65.36878 52.98009
# Shear Modulus (GPa) = 14.15761 24.89775 19.52768
#
# Velocity S-wave (km/s) = 2.72361 3.61185 3.19871
# Velocity P-wave (km/s) = 5.58203 7.18642 6.43443
#
# Compressibility (1/GPa) = 0.02463576
#
# Stress axis : x y z
#
# Youngs Moduli (GPa) = 18.04296 54.44506 42.24603
#
# Poissons Ratio (x) = 0.73711 0.74543
# Poissons Ratio (y) = 0.24428 0.22091
# Poissons Ratio (z) = 0.31837 0.28470
#
# Static dielectric constant tensor:
#      x y z
#    x 3.316810 -0.010000 -0.160060 
#    y -0.010000 3.654920 -0.025750 
#    z -0.160060 -0.025750 3.697350 
# 
# 
# High freq. dielectric constant tensor:
#      x y z
#    x 1.721270 -0.002440 -0.019390 
#    y -0.002440 1.751330 -0.000130 
#    z -0.019390 -0.000130 1.750660 
# 
# From -- ./inp_files/432698.got.cif
#   From: 2010.06.25/outbox.cif.g09.slc.cpg/sg2_217_cif.got.tgz:432698.got - 2010.06.27 13:26:56.
