data_PCOD8009324
_publ_section_title
;
Structure prediction by ZEFSAII (Michael W. Deem and Ramdas Pophale) SiO2 
 PCOD8009324
Probable space group: P -1
;
_chemical_formula_sum "Si O2"
_cell_formula_units_Z 16
_cell_length_a 14.350338
_cell_length_b 8.589873
_cell_length_c 15.083746
_cell_angle_alpha 95.509840
_cell_angle_beta 140.376495
_cell_angle_gamma 114.070140
_cell_volume 768.471527
_symmetry_space_group_name_H-M "P -1"
_symmetry_group_IT_number 2
_symmetry_cell_setting 'triclinic'
loop_
_space_group_symop_operation_xyz
x,y,z
-x,-y,-z
loop_
_atom_site_type_symbol
_atom_site_label
_atom_site_fract_x
_atom_site_fract_y
_atom_site_fract_z
Si Si1 0.273878 0.215949 0.142533
Si Si2 0.572275 0.409500 0.604137
Si Si3 0.878117 0.336601 0.556927
Si Si4 0.986202 0.804041 0.483012
Si Si5 0.132212 0.945228 0.201668
Si Si6 0.568224 0.304890 0.223429
Si Si7 0.264193 0.758970 0.355171
Si Si8 0.269299 0.890648 0.853123
O O1 0.316213 0.429222 0.217930
O O2 0.487891 0.331612 0.252904
O O3 0.219604 0.046527 0.170511
O O4 0.056255 0.077637 0.914747
O O5 0.500000 0.500000 0.500000
O O6 0.755119 0.442994 0.692120
O O7 0.334731 0.131044 0.431716
O O8 0.942844 0.218262 0.559595
O O9 0.717114 0.278427 0.360544
O O10 0.747564 0.220762 0.547228
O O11 0.101017 0.621755 0.751629
O O12 0.150638 0.884569 0.686264
O O13 0.726990 0.546825 0.295848
O O14 0.000000 0.000000 0.500000
O O15 0.074099 0.713104 0.163263
O O16 0.341715 0.070528 0.993151
O O17 0.500000 0.000000 0.500000
O O18 0.500000 0.000000 0.000000
#
# Coordination Sequence:
#
# PCOD8009324 Si02
#       8
#     2   2   2   2   2   2   2   2
#     4  10  21  36  61  87 121 164 202 252 302 370
#     4   9  18  35  56  79 118 156 197 244 298 357
#     4  11  22  41  67  91 126 169 214 255 316 385
#     4  11  25  42  65  96 130 158 207 272 325 376
#     4   9  20  38  55  84 127 156 205 248 303 364
#     4  11  22  41  67  93 121 170 215 253 317 381
#     4  10  21  38  62  90 125 166 203 258 310 371
#     4  11  21  44  68  89 122 168 216 257 307 382
#
# _framework density 20.820551999999999
#
# number of rings (size 3 to 8) (size 9 to 14) (size 15 to 20)
#    0.000    1.750    2.500    3.000    0.000    9.000 
#    2.250    2.500    0.000    0.000    0.000    0.000 
#    0.000    0.000    0.000    0.000    0.000    0.000 
#
# Total GULP energy -198212.789282 kJ/mol
# GULP energy per Si atom -12388.299330 kJ/mol
# Density = 2.077316 g / cm^3
# Si number density = 20.820552 Si / 1000 Ang^3
#
#
#
# Elastic Constant Matrix: (Units=GPa)
#
#
# Indices 1 2 3 4 5 6 
#
# 1 139.5300 59.4827 22.4634 11.3936 -1.0663 -11.8251
# 2 59.4827 115.0569 31.3151 -3.9819 -1.2105 -18.3722
# 3 22.4634 31.3151 87.5026 6.9999 -5.3573 -3.0559
# 4 11.3936 -3.9819 6.9999 22.9373 -3.0335 4.8163
# 5 -1.0663 -1.2105 -5.3573 -3.0335 31.5809 2.4589
# 6 -11.8251 -18.3722 -3.0559 4.8163 2.4589 37.2478
#
#
#
# Elastic Compliance Matrix: (Units=1/GPa)
#
#
# Indices 1 2 3 4 5 6 
#
# 1 0.009999 -0.005088 -0.000238 -0.006169 -0.000606 0.001483
# 2 -0.005088 0.013117 -0.003666 0.005089 -0.000106 0.003903
# 3 -0.000238 -0.003666 0.013234 -0.004254 0.001716 -0.000361
# 4 -0.006169 0.005089 -0.004254 0.050864 0.004671 -0.006682
# 5 -0.000606 -0.000106 0.001716 0.004671 0.032603 -0.002860
# 6 0.001483 0.003903 -0.000361 -0.006682 -0.002860 0.030267
#
#
# Mechanical properties :
#
#
# Convention : Reuss Voigt Hill
#
# Bulk Modulus (GPa) = 54.44282 63.17911 58.81096
# Shear Modulus (GPa) = 28.70451 33.60842 31.15647
#
# Velocity S-wave (km/s) = 3.71706 4.02206 3.87257
# Velocity P-wave (km/s) = 6.68038 7.20970 6.95008
#
# Compressibility (1/GPa) = 0.01836789
#
# Stress axis : x y z
#
# Youngs Moduli (GPa) = 100.01120 76.23408 75.56327
#
# Poissons Ratio (x) = 0.38784 0.01798
# Poissons Ratio (y) = 0.50881 0.27699
# Poissons Ratio (z) = 0.02380 0.27945
#
# Static dielectric constant tensor:
#      x y z
#    x 4.085080 -0.638880 -0.279970 
#    y -0.638880 4.349570 0.336900 
#    z -0.279970 0.336900 4.393740 
# 
# 
# High freq. dielectric constant tensor:
#      x y z
#    x 1.814790 -0.019840 0.008540 
#    y -0.019840 1.806840 -0.003490 
#    z 0.008540 -0.003490 1.814850 
# 
# From -- ./inp_files/528661.got.cif
#   From: 2010.06.25/outbox.cif.g09.slc.cpg/sg2_265_cif.got.tgz:528661.got - 2010.06.27 13:26:56.
