data_PCOD8009906
_publ_section_title
;
Structure prediction by ZEFSAII (Michael W. Deem and Ramdas Pophale) SiO2 
 PCOD8009906
Probable space group: P -1
;
_chemical_formula_sum "Si O2"
_cell_formula_units_Z 16
_cell_length_a 22.713155
_cell_length_b 12.283822
_cell_length_c 19.273474
_cell_angle_alpha 29.409569
_cell_angle_beta 162.717196
_cell_angle_gamma 142.368813
_cell_volume 754.655559
_symmetry_space_group_name_H-M "P -1"
_symmetry_group_IT_number 2
_symmetry_cell_setting 'triclinic'
loop_
_space_group_symop_operation_xyz
x,y,z
-x,-y,-z
loop_
_atom_site_type_symbol
_atom_site_label
_atom_site_fract_x
_atom_site_fract_y
_atom_site_fract_z
Si Si1 0.984533 0.073194 0.117272
Si Si2 0.784644 0.033565 0.776086
Si Si3 0.267944 0.567817 0.726740
Si Si4 0.522362 0.501058 0.865568
Si Si5 0.278632 0.388245 0.251212
Si Si6 0.191525 0.296266 0.670014
Si Si7 0.267204 0.825830 0.081953
Si Si8 0.234978 0.459384 0.006233
O O1 0.094053 0.271042 0.113675
O O2 0.157006 0.832546 0.440902
O O3 0.806983 0.085520 0.853588
O O4 0.880389 0.110328 0.053897
O O5 0.626176 0.242184 0.443481
O O6 0.706372 0.807617 0.803303
O O7 0.000000 0.000000 0.000000
O O8 0.153989 0.412049 0.640549
O O9 0.500000 0.500000 0.000000
O O10 0.282886 0.508866 0.858307
O O11 0.398391 0.322793 0.850777
O O12 0.621416 0.425117 0.943603
O O13 0.232060 0.596465 0.137225
O O14 0.495893 0.206165 0.613085
O O15 0.289598 0.486835 0.131890
O O16 0.004421 0.415210 0.343342
O O17 0.207867 0.027850 0.846020
#
# Coordination Sequence:
#
# PCOD8009906 Si02
#       8
#     2   2   2   2   2   2   2   2
#     4  12  22  43  69  93 130 166 209 261 320 376
#     4  12  21  39  61  97 129 164 198 260 321 378
#     4  10  21  37  62  93 130 165 195 255 320 373
#     4  11  23  37  59  92 129 168 201 250 323 376
#     4  11  25  46  64  92 127 166 221 267 305 362
#     4  11  23  42  59  93 132 160 209 256 312 381
#     4  11  27  43  67  92 122 175 220 259 306 373
#     4  12  24  39  64  92 129 164 208 257 318 379
#
# _framework density 21.201725
#
# number of rings (size 3 to 8) (size 9 to 14) (size 15 to 20)
#    0.000    0.750    3.750    4.500    3.500    1.500 
#    0.000    0.625    0.000    0.000    0.000    0.000 
#    0.000    0.000    0.000    0.000    0.000    0.000 
#
# Total GULP energy -198467.232031 kJ/mol
# GULP energy per Si atom -12404.202002 kJ/mol
# Density = 2.115347 g / cm^3
# Si number density = 21.201725 Si / 1000 Ang^3
#
#
#
# Elastic Constant Matrix: (Units=GPa)
#
#
# Indices 1 2 3 4 5 6 
#
# 1 103.1915 28.4330 6.9636 -0.9319 -1.2492 10.7684
# 2 28.4330 57.8460 27.2486 -2.7343 2.2925 2.1609
# 3 6.9636 27.2486 67.2784 -13.6633 -17.4796 -4.2112
# 4 -0.9319 -2.7343 -13.6633 23.6148 0.5172 -5.0313
# 5 -1.2492 2.2925 -17.4796 0.5172 38.7392 3.2889
# 6 10.7684 2.1609 -4.2112 -5.0313 3.2889 30.8088
#
#
#
# Elastic Compliance Matrix: (Units=1/GPa)
#
#
# Indices 1 2 3 4 5 6 
#
# 1 0.011772 -0.006490 0.001615 -0.000172 0.001806 -0.003659
# 2 -0.006490 0.026851 -0.013276 -0.004967 -0.007601 -0.001429
# 3 0.001615 -0.013276 0.026545 0.014704 0.012186 0.005095
# 4 -0.000172 -0.004967 0.014704 0.052371 0.005341 0.010400
# 5 0.001806 -0.007601 0.012186 0.005341 0.031830 -0.000958
# 6 -0.003659 -0.001429 0.005095 0.010400 -0.000958 0.036335
#
#
# Mechanical properties :
#
#
# Convention : Reuss Voigt Hill
#
# Bulk Modulus (GPa) = 34.64323 39.28958 36.96641
# Shear Modulus (GPa) = 21.58640 29.67728 25.63184
#
# Velocity S-wave (km/s) = 3.19430 3.74539 3.48077
# Velocity P-wave (km/s) = 5.47540 6.10537 5.79894
#
# Compressibility (1/GPa) = 0.02886567
#
# Stress axis : x y z
#
# Youngs Moduli (GPa) = 84.94594 37.24248 37.67258
#
# Poissons Ratio (x) = 0.24171 -0.06085
# Poissons Ratio (y) = 0.55132 0.50015
# Poissons Ratio (z) = -0.13722 0.49444
#
# Static dielectric constant tensor:
#      x y z
#    x 4.128810 0.016690 -0.254840 
#    y 0.016690 3.812440 0.154180 
#    z -0.254840 0.154180 4.077500 
# 
# 
# High freq. dielectric constant tensor:
#      x y z
#    x 1.840910 0.012680 -0.008340 
#    y 0.012680 1.810860 0.007030 
#    z -0.008340 0.007030 1.847440 
# 
# From -- ./inp_files/273222.got.cif
#   From: 2010.06.25/outbox.cif.g09.slc.cpg/sg2_137_cif.got.tgz:273222.got - 2010.06.27 13:26:56.
