data_PCOD8009541
_publ_section_title
;
Structure prediction by ZEFSAII (Michael W. Deem and Ramdas Pophale) SiO2 
 PCOD8009541
Probable space group: P -1
;
_chemical_formula_sum "Si O2"
_cell_formula_units_Z 16
_cell_length_a 9.085279
_cell_length_b 15.219208
_cell_length_c 11.790669
_cell_angle_alpha 150.905090
_cell_angle_beta 110.328988
_cell_angle_gamma 69.242717
_cell_volume 738.735830
_symmetry_space_group_name_H-M "P -1"
_symmetry_group_IT_number 2
_symmetry_cell_setting 'triclinic'
loop_
_space_group_symop_operation_xyz
x,y,z
-x,-y,-z
loop_
_atom_site_type_symbol
_atom_site_label
_atom_site_fract_x
_atom_site_fract_y
_atom_site_fract_z
Si Si1 0.928004 0.455405 0.688636
Si Si2 0.051886 0.160130 0.950702
Si Si3 0.854672 0.011206 0.557117
Si Si4 0.768378 0.647333 0.225779
Si Si5 0.940543 0.697410 0.660024
Si Si6 0.366804 0.436036 0.135279
Si Si7 0.396601 0.288517 0.513186
Si Si8 0.343456 0.025896 0.738381
O O1 0.772598 0.431573 0.692061
O O2 0.078534 0.484003 0.840432
O O3 0.971351 0.287224 0.421713
O O4 0.892054 0.641821 0.821453
O O5 0.195855 0.023424 0.783544
O O6 0.022492 0.144437 0.061718
O O7 0.887350 0.144295 0.820667
O O8 0.844439 0.818798 0.392930
O O9 0.700176 0.063403 0.495981
O O10 0.000000 0.000000 0.500000
O O11 0.647452 0.698887 0.352666
O O12 0.674933 0.555852 0.999672
O O13 0.752834 0.718550 0.615164
O O14 0.000000 0.500000 0.500000
O O15 0.524816 0.532087 0.302057
O O16 0.388120 0.230701 0.958665
O O17 0.510448 0.101196 0.313555
#
# Coordination Sequence:
#
# PCOD8009541 Si02
#       8
#     2   2   2   2   2   2   2   2
#     4   9  19  35  60  87 116 157 208 246 284 368
#     4   9  18  37  63  85 120 162 196 252 301 340
#     4   9  19  34  59  89 119 154 190 248 298 350
#     4  10  21  37  56  93 125 152 205 237 300 376
#     4   9  20  42  62  85 120 158 209 251 291 359
#     4  10  21  37  62  89 123 161 191 251 312 345
#     4  11  23  39  62  88 126 161 195 254 301 351
#     4   9  21  38  58  95 124 148 206 243 301 373
#
# _framework density 21.658622999999999
#
# number of rings (size 3 to 8) (size 9 to 14) (size 15 to 20)
#    0.000    2.500    0.000    1.500    5.250    2.500 
#    9.000    8.125    2.750    0.000    0.000    0.000 
#    0.000    0.000    0.000    0.000    0.000    0.000 
#
# Total GULP energy -198232.578834 kJ/mol
# GULP energy per Si atom -12389.536177 kJ/mol
# Density = 2.160933 g / cm^3
# Si number density = 21.658623 Si / 1000 Ang^3
#
#
#
# Elastic Constant Matrix: (Units=GPa)
#
#
# Indices 1 2 3 4 5 6 
#
# 1 77.3676 22.4107 41.5468 2.6633 -10.3299 -12.9471
# 2 22.4107 73.5206 41.5356 -12.9883 -12.2683 -23.9824
# 3 41.5468 41.5356 105.5768 -29.0799 -6.0284 -4.5041
# 4 2.6633 -12.9883 -29.0799 38.6275 3.6474 1.1807
# 5 -10.3299 -12.2683 -6.0284 3.6474 25.7051 2.4268
# 6 -12.9471 -23.9824 -4.5041 1.1807 2.4268 26.1433
#
#
#
# Elastic Compliance Matrix: (Units=1/GPa)
#
#
# Indices 1 2 3 4 5 6 
#
# 1 0.021537 0.003196 -0.011624 -0.010248 0.007839 0.011330
# 2 0.003196 0.028585 -0.011036 -0.000632 0.010068 0.024997
# 3 -0.011624 -0.011036 0.021430 0.014144 -0.005759 -0.012293
# 4 -0.010248 -0.000632 0.014144 0.037734 -0.006045 -0.004361
# 5 0.007839 0.010068 -0.005759 -0.006045 0.045594 0.008167
# 6 0.011330 0.024997 -0.012293 -0.004361 0.008167 0.064114
#
#
# Mechanical properties :
#
#
# Convention : Reuss Voigt Hill
#
# Bulk Modulus (GPa) = 30.65308 51.93901 41.29604
# Shear Modulus (GPa) = 18.60121 28.15999 23.38060
#
# Velocity S-wave (km/s) = 2.93377 3.60970 3.28915
# Velocity P-wave (km/s) = 5.06553 6.43476 5.79075
#
# Compressibility (1/GPa) = 0.03262315
#
# Stress axis : x y z
#
# Youngs Moduli (GPa) = 46.43071 34.98339 46.66265
#
# Poissons Ratio (x) = -0.11179 0.54243
# Poissons Ratio (y) = -0.14837 0.51497
# Poissons Ratio (z) = 0.53973 0.38608
#
# Static dielectric constant tensor:
#      x y z
#    x 3.876160 0.207640 -0.253130 
#    y 0.207640 4.071430 -0.480950 
#    z -0.253130 -0.480950 4.064300 
# 
# 
# High freq. dielectric constant tensor:
#      x y z
#    x 1.842270 0.007080 -0.008640 
#    y 0.007080 1.849830 -0.010740 
#    z -0.008640 -0.010740 1.838000 
# 
# From -- ./inp_files/202521.got.cif
#   From: 2010.06.25/outbox.cif.g09.slc.cpg/sg2_102_cif.got.tgz:202521.got - 2010.06.27 13:26:56.
