data_PCOD8009633
_publ_section_title
;
Structure prediction by ZEFSAII (Michael W. Deem and Ramdas Pophale) SiO2 
 PCOD8009633
Probable space group: P -1
;
_chemical_formula_sum "Si O2"
_cell_formula_units_Z 14
_cell_length_a 19.286695
_cell_length_b 8.866158
_cell_length_c 13.972929
_cell_angle_alpha 108.294573
_cell_angle_beta 161.401099
_cell_angle_gamma 67.573646
_cell_volume 695.160190
_symmetry_space_group_name_H-M "P -1"
_symmetry_group_IT_number 2
_symmetry_cell_setting 'triclinic'
loop_
_space_group_symop_operation_xyz
x,y,z
-x,-y,-z
loop_
_atom_site_type_symbol
_atom_site_label
_atom_site_fract_x
_atom_site_fract_y
_atom_site_fract_z
Si Si1 0.955089 0.679884 0.752031
Si Si2 0.448949 0.201964 0.213928
Si Si3 0.578233 0.615342 0.364270
Si Si4 0.783659 0.368716 0.738338
Si Si5 0.841510 0.510947 0.204987
Si Si6 0.917503 0.050046 0.747596
Si Si7 0.367886 0.973512 0.227215
O O1 0.710148 0.653065 0.450817
O O2 0.024319 0.619530 0.723670
O O3 0.956544 0.869036 0.807712
O O4 0.138655 0.575168 0.047450
O O5 0.533439 0.339038 0.413206
O O6 0.649321 0.116986 0.381677
O O7 0.421915 0.061896 0.221620
O O8 0.219390 0.300814 0.879206
O O9 0.767697 0.510414 0.665462
O O10 0.435985 0.779487 0.262397
O O11 0.394998 0.519389 0.075975
O O12 0.960326 0.189936 0.904567
O O13 0.000000 0.500000 0.500000
O O14 0.095551 0.038405 0.892983
O O15 0.500000 0.000000 0.500000
#
# Coordination Sequence:
#
# PCOD8009633 Si02
#       7
#     2   2   2   2   2   2   2
#     4  12  21  39  65  88 130 165 196 259 318 360
#     4   9  23  40  60  90 132 154 203 254 313 359
#     4  11  23  39  63  96 125 161 207 248 320 378
#     4   9  21  37  58  97 134 154 196 246 315 393
#     4  11  27  46  63  87 119 167 228 261 293 357
#     4  10  21  37  58  94 129 159 194 248 306 385
#     4  12  22  34  64  97 132 163 193 240 315 390
#
# _framework density 20.139243
#
# number of rings (size 3 to 8) (size 9 to 14) (size 15 to 20)
#    0.857    0.571    2.857    2.571    4.000    1.714 
#    0.000    1.429    0.000    0.000    0.000    0.000 
#    0.000    0.000    0.000    0.000    0.000    0.000 
#
# Total GULP energy -173434.457486 kJ/mol
# GULP energy per Si atom -12388.175535 kJ/mol
# Density = 2.009341 g / cm^3
# Si number density = 20.139243 Si / 1000 Ang^3
#
#
#
# Elastic Constant Matrix: (Units=GPa)
#
#
# Indices 1 2 3 4 5 6 
#
# 1 102.7038 42.4168 52.8520 -4.7700 11.3121 -5.9636
# 2 42.4168 100.2562 28.9997 -16.9743 -4.0205 1.1626
# 3 52.8520 28.9997 94.3826 -16.9126 -7.0354 -5.2413
# 4 -4.7700 -16.9743 -16.9126 22.9583 2.1051 6.5270
# 5 11.3121 -4.0205 -7.0354 2.1051 32.6625 -0.7969
# 6 -5.9636 1.1626 -5.2413 6.5270 -0.7969 25.1900
#
#
#
# Elastic Compliance Matrix: (Units=1/GPa)
#
#
# Indices 1 2 3 4 5 6 
#
# 1 0.018837 -0.006951 -0.010516 -0.009513 -0.008915 0.004775
# 2 -0.006951 0.014646 0.001457 0.011511 0.003663 -0.004885
# 3 -0.010516 0.001457 0.018707 0.012509 0.007003 -0.001684
# 4 -0.009513 0.011511 0.012509 0.063764 0.002891 -0.016611
# 5 -0.008915 0.003663 0.007003 0.002891 0.035466 -0.000450
# 6 0.004775 -0.004885 -0.001684 -0.016611 -0.000450 0.044994
#
#
# Mechanical properties :
#
#
# Convention : Reuss Voigt Hill
#
# Bulk Modulus (GPa) = 49.58325 60.65328 55.11826
# Shear Modulus (GPa) = 21.26239 27.70045 24.48142
#
# Velocity S-wave (km/s) = 3.25279 3.71272 3.49034
# Velocity P-wave (km/s) = 6.22745 6.96860 6.60843
#
# Compressibility (1/GPa) = 0.02016810
#
# Stress axis : x y z
#
# Youngs Moduli (GPa) = 53.08796 68.27621 53.45717
#
# Poissons Ratio (x) = 0.47459 0.56217
# Poissons Ratio (y) = 0.36902 -0.07787
# Poissons Ratio (z) = 0.55829 -0.09945
#
# Static dielectric constant tensor:
#      x y z
#    x 3.467410 0.085130 0.357910 
#    y 0.085130 3.787250 -0.130740 
#    z 0.357910 -0.130740 3.373690 
# 
# 
# High freq. dielectric constant tensor:
#      x y z
#    x 1.770530 0.010610 0.037630 
#    y 0.010610 1.801310 -0.014490 
#    z 0.037630 -0.014490 1.750970 
# 
# From -- ./inp_files/462321.got.cif
#   From: 2010.06.25/outbox.cif.g09.slc.cpg/sg2_232_cif.got.tgz:462321.got - 2010.06.27 13:26:56.
