data_PCOD8009920
_publ_section_title
;
Structure prediction by ZEFSAII (Michael W. Deem and Ramdas Pophale) SiO2 
 PCOD8009920
Probable space group: P -1
;
_chemical_formula_sum "Si O2"
_cell_formula_units_Z 10
_cell_length_a 11.046142
_cell_length_b 9.181021
_cell_length_c 14.149087
_cell_angle_alpha 57.443715
_cell_angle_beta 149.402246
_cell_angle_gamma 140.606631
_cell_volume 426.163748
_symmetry_space_group_name_H-M "P -1"
_symmetry_group_IT_number 2
_symmetry_cell_setting 'triclinic'
loop_
_space_group_symop_operation_xyz
x,y,z
-x,-y,-z
loop_
_atom_site_type_symbol
_atom_site_label
_atom_site_fract_x
_atom_site_fract_y
_atom_site_fract_z
Si Si1 0.257471 0.908842 0.780087
Si Si2 0.178388 0.627297 0.329283
Si Si3 0.691302 0.739919 0.762290
Si Si4 0.537701 0.703019 0.356570
Si Si5 0.257683 0.281388 0.988383
O O1 0.138794 0.659656 0.747853
O O2 0.917988 0.846679 0.597063
O O3 0.462365 0.117836 0.763657
O O4 0.500000 0.000000 0.000000
O O5 0.471773 0.776341 0.553414
O O6 0.305186 0.607299 0.324695
O O7 0.062773 0.761206 0.189064
O O8 0.645634 0.536646 0.747860
O O9 0.551824 0.646614 0.808798
O O10 0.090444 0.013582 0.932903
O O11 0.500000 0.500000 0.000000
#
# Coordination Sequence:
#
# PCOD8009920 Si02
#       5
#     2   2   2   2   2
#     4  10  21  37  62  95 127 160 200 251 310 371
#     4  11  24  41  66  95 127 165 205 261 316 367
#     4  10  23  44  64  91 127 164 208 259 314 372
#     4  10  23  41  65  97 128 160 205 260 317 370
#     4  11  26  43  64  91 125 171 215 254 305 373
#
# _framework density 23.465160000000001
#
# number of rings (size 3 to 8) (size 9 to 14) (size 15 to 20)
#    0.000    1.600    0.000    4.200    0.000   18.400 
#    0.000    0.000    0.000    0.000    0.000    0.000 
#    0.000    0.000    0.000    0.000    0.000    0.000 
#
# Total GULP energy -123988.417261 kJ/mol
# GULP energy per Si atom -12398.841726 kJ/mol
# Density = 2.341175 g / cm^3
# Si number density = 23.465160 Si / 1000 Ang^3
#
#
#
# Elastic Constant Matrix: (Units=GPa)
#
#
# Indices 1 2 3 4 5 6 
#
# 1 90.2614 40.9374 52.0658 14.1489 -27.8013 16.2331
# 2 40.9374 121.8068 41.3172 8.0192 -17.5973 21.5430
# 3 52.0658 41.3172 123.8248 0.6749 -37.6125 4.4919
# 4 14.1489 8.0192 0.6749 40.5399 1.5673 -3.1834
# 5 -27.8013 -17.5973 -37.6125 1.5673 33.0091 -7.3015
# 6 16.2331 21.5430 4.4919 -3.1834 -7.3015 39.8250
#
#
#
# Elastic Compliance Matrix: (Units=1/GPa)
#
#
# Indices 1 2 3 4 5 6 
#
# 1 0.019607 -0.002390 -0.004333 -0.007062 0.009526 -0.005029
# 2 -0.002390 0.010771 -0.002400 -0.001627 0.000031 -0.004706
# 3 -0.004333 -0.002400 0.014203 0.001584 0.012019 0.003793
# 4 -0.007062 -0.001627 0.001584 0.028012 -0.005267 0.004854
# 5 0.009526 0.000031 0.012019 -0.005267 0.053181 0.004074
# 6 -0.005029 -0.004706 0.003793 0.004854 0.004074 0.030413
#
#
# Mechanical properties :
#
#
# Convention : Reuss Voigt Hill
#
# Bulk Modulus (GPa) = 37.96997 67.17042 52.57020
# Shear Modulus (GPa) = 27.29097 36.11296 31.70196
#
# Velocity S-wave (km/s) = 3.41404 3.92727 3.67961
# Velocity P-wave (km/s) = 5.63537 7.01800 6.36435
#
# Compressibility (1/GPa) = 0.02633660
#
# Stress axis : x y z
#
# Youngs Moduli (GPa) = 51.00107 92.84259 70.40621
#
# Poissons Ratio (x) = 0.22185 0.30505
# Poissons Ratio (y) = 0.12187 0.16900
# Poissons Ratio (z) = 0.22097 0.22285
#
# Static dielectric constant tensor:
#      x y z
#    x 3.852550 0.126580 -0.092550 
#    y 0.126580 4.650400 -0.165970 
#    z -0.092550 -0.165970 4.397860 
# 
# 
# High freq. dielectric constant tensor:
#      x y z
#    x 1.901820 0.009070 -0.015200 
#    y 0.009070 1.955080 -0.007610 
#    z -0.015200 -0.007610 1.937250 
# 
# From -- ./inp_files/138348.got.cif
#   From: 2010.06.25/outbox.cif.g09.slc.cpg/sg2_70_cif.got.tgz:138348.got - 2010.06.27 13:26:56.
