data_PCOD8009696
_publ_section_title
;
Structure prediction by ZEFSAII (Michael W. Deem and Ramdas Pophale) SiO2 
 PCOD8009696
Probable space group: P -1
;
_chemical_formula_sum "Si O2"
_cell_formula_units_Z 16
_cell_length_a 12.425918
_cell_length_b 9.212674
_cell_length_c 14.761313
_cell_angle_alpha 109.296095
_cell_angle_beta 128.668015
_cell_angle_gamma 111.958914
_cell_volume 767.282472
_symmetry_space_group_name_H-M "P -1"
_symmetry_group_IT_number 2
_symmetry_cell_setting 'triclinic'
loop_
_space_group_symop_operation_xyz
x,y,z
-x,-y,-z
loop_
_atom_site_type_symbol
_atom_site_label
_atom_site_fract_x
_atom_site_fract_y
_atom_site_fract_z
Si Si1 0.606828 0.085651 0.218255
Si Si2 0.743521 0.472488 0.498613
Si Si3 0.520020 0.754119 0.231637
Si Si4 0.319016 0.304412 0.941854
Si Si5 0.247800 0.703806 0.211746
Si Si6 0.482786 0.216725 0.486683
Si Si7 0.197966 0.154620 0.457125
Si Si8 0.760714 0.098848 0.121329
O O1 0.725882 0.300019 0.397571
O O2 0.739472 0.195392 0.215984
O O3 0.606488 0.908524 0.216466
O O4 0.357477 0.930264 0.034494
O O5 0.554150 0.324480 0.445040
O O6 0.735732 0.607308 0.451685
O O7 0.978584 0.686199 0.719961
O O8 0.401772 0.792061 0.226986
O O9 0.729285 0.875582 0.422938
O O10 0.352098 0.464614 0.068403
O O11 0.355554 0.168375 0.976004
O O12 0.500000 0.500000 0.000000
O O13 0.066927 0.100128 0.733263
O O14 0.297042 0.621760 0.300831
O O15 0.320675 0.928535 0.338045
O O16 0.000000 0.500000 0.000000
O O17 0.325073 0.209131 0.444696
#
# Coordination Sequence:
#
# PCOD8009696 Si02
#       8
#     2   2   2   2   2   2   2   2
#     4  11  22  41  60  88 123 155 200 250 299 354
#     4  11  22  40  64  87 121 161 200 242 305 351
#     4  11  22  39  62  90 118 158 199 242 307 350
#     4  11  22  42  62  86 118 161 200 244 299 352
#     4  10  21  37  59  89 124 152 197 247 293 356
#     4  10  21  38  60  90 119 157 199 243 298 353
#     4  10  24  41  60  90 124 155 199 251 292 362
#     4  10  24  41  59  89 122 158 202 249 295 356
#
# _framework density 20.852815
#
# number of rings (size 3 to 8) (size 9 to 14) (size 15 to 20)
#    0.000    1.500    2.500    2.250    1.750    1.500 
#    2.250    0.000    0.000    8.250    0.000    0.000 
#    0.000    0.000    0.000    0.000    0.000    0.000 
#
# Total GULP energy -198373.139989 kJ/mol
# GULP energy per Si atom -12398.321249 kJ/mol
# Density = 2.080535 g / cm^3
# Si number density = 20.852815 Si / 1000 Ang^3
#
#
#
# Elastic Constant Matrix: (Units=GPa)
#
#
# Indices 1 2 3 4 5 6 
#
# 1 52.7114 33.5810 25.5373 6.0467 -0.4509 -10.5180
# 2 33.5810 97.1938 52.0963 -4.3593 4.7880 -6.9841
# 3 25.5373 52.0963 108.0594 -5.7663 9.6004 -6.5848
# 4 6.0467 -4.3593 -5.7663 31.5621 -7.2487 -0.7758
# 5 -0.4509 4.7880 9.6004 -7.2487 37.7167 1.2556
# 6 -10.5180 -6.9841 -6.5848 -0.7758 1.2556 31.2744
#
#
#
# Elastic Compliance Matrix: (Units=1/GPa)
#
#
# Indices 1 2 3 4 5 6 
#
# 1 0.027361 -0.007864 -0.002662 -0.006529 0.000525 0.006702
# 2 -0.007864 0.016244 -0.005828 0.002645 -0.000159 -0.000172
# 3 -0.002662 -0.005828 0.013025 0.001566 -0.002329 0.000678
# 4 -0.006529 0.002645 0.001566 0.034930 0.005922 -0.000647
# 5 0.000525 -0.000159 -0.002329 0.005922 0.028315 -0.001339
# 6 0.006702 -0.000172 0.000678 -0.000647 -0.001339 0.034371
#
#
# Mechanical properties :
#
#
# Convention : Reuss Voigt Hill
#
# Bulk Modulus (GPa) = 41.80132 53.37707 47.58919
# Shear Modulus (GPa) = 25.65052 29.89398 27.77225
#
# Velocity S-wave (km/s) = 3.51105 3.79036 3.65337
# Velocity P-wave (km/s) = 6.04367 6.69391 6.37708
#
# Compressibility (1/GPa) = 0.02392269
#
# Stress axis : x y z
#
# Youngs Moduli (GPa) = 36.54774 61.56248 76.77722
#
# Poissons Ratio (x) = 0.48413 0.20435
# Poissons Ratio (y) = 0.28741 0.44746
# Poissons Ratio (z) = 0.09727 0.35879
#
# Static dielectric constant tensor:
#      x y z
#    x 3.843440 -0.149110 -0.066730 
#    y -0.149110 3.731300 -0.072960 
#    z -0.066730 -0.072960 3.755270 
# 
# 
# High freq. dielectric constant tensor:
#      x y z
#    x 1.823290 -0.012700 -0.004630 
#    y -0.012700 1.813410 -0.005470 
#    z -0.004630 -0.005470 1.814120 
# 
# From -- ./inp_files/77102.got.cif
#   From: 2010.06.25/outbox.cif.g09.slc.cpg/sg2_39_cif.got.tgz:77102.got - 2010.06.27 13:26:56.
