data_PCOD8009142
_publ_section_title
;
Structure prediction by ZEFSAII (Michael W. Deem and Ramdas Pophale) SiO2 
 PCOD8009142
Probable space group: P -1
;
_chemical_formula_sum "Si O2"
_cell_formula_units_Z 14
_cell_length_a 26.078244
_cell_length_b 9.062471
_cell_length_c 10.840833
_cell_angle_alpha 56.892312
_cell_angle_beta 31.394107
_cell_angle_gamma 34.308012
_cell_volume 632.603436
_symmetry_space_group_name_H-M "P -1"
_symmetry_group_IT_number 2
_symmetry_cell_setting 'triclinic'
loop_
_space_group_symop_operation_xyz
x,y,z
-x,-y,-z
loop_
_atom_site_type_symbol
_atom_site_label
_atom_site_fract_x
_atom_site_fract_y
_atom_site_fract_z
Si Si1 0.036559 0.444140 0.656762
Si Si2 0.724746 0.505499 0.685991
Si Si3 0.674577 0.140391 0.490136
Si Si4 0.214235 0.313867 0.111772
Si Si5 0.411021 0.662807 0.978478
Si Si6 0.952243 0.752093 0.916602
Si Si7 0.438441 0.172764 0.881223
O O1 0.912553 0.468590 0.845773
O O2 0.919975 0.749358 0.841030
O O3 0.102027 0.455887 0.400436
O O4 0.196615 0.135304 0.548169
O O5 0.895448 0.328289 0.348973
O O6 0.549625 0.830373 0.829324
O O7 0.728876 0.288118 0.774233
O O8 0.713047 0.591878 0.811517
O O9 0.550505 0.455711 0.674205
O O10 0.564269 0.154288 0.638440
O O11 0.782660 0.079585 0.186672
O O12 0.344880 0.284352 0.888104
O O13 0.317630 0.985034 0.017014
O O14 0.500000 0.500000 0.000000
O O15 0.000000 0.500000 0.000000
#
# Coordination Sequence:
#
# PCOD8009142 Si02
#       7
#     2   2   2   2   2   2   2
#     4  10  19  33  56  86 105 142 175 235 264 315
#     4  10  17  30  55  80 106 134 194 214 255 313
#     4  10  20  36  62  79 105 142 194 213 263 320
#     4  11  20  33  57  83 118 130 178 229 288 293
#     4  11  20  33  55  85 110 142 175 230 267 323
#     4  10  18  34  57  80 104 145 186 222 252 329
#     4  10  16  31  57  83  99 139 187 223 243 325
#
# _framework density 22.130769000000001
#
# number of rings (size 3 to 8) (size 9 to 14) (size 15 to 20)
#    0.000    1.714    7.143    0.857    0.000    0.000 
#    0.000    2.857    3.143    0.000    0.000    0.000 
#    0.000    0.000    0.000    0.000    0.000    0.000 
#
# Total GULP energy -173450.753672 kJ/mol
# GULP energy per Si atom -12389.339548 kJ/mol
# Density = 2.208040 g / cm^3
# Si number density = 22.130769 Si / 1000 Ang^3
#
#
#
# Elastic Constant Matrix: (Units=GPa)
#
#
# Indices 1 2 3 4 5 6 
#
# 1 153.6424 15.7379 67.9791 10.9775 -20.0011 11.6934
# 2 15.7379 23.5740 29.1964 4.4319 3.2788 14.6852
# 3 67.9791 29.1964 167.9338 7.3740 10.3426 18.1629
# 4 10.9775 4.4319 7.3740 12.2334 7.1140 2.3526
# 5 -20.0011 3.2788 10.3426 7.1140 48.7623 8.0262
# 6 11.6934 14.6852 18.1629 2.3526 8.0262 18.7623
#
#
#
# Elastic Compliance Matrix: (Units=1/GPa)
#
#
# Indices 1 2 3 4 5 6 
#
# 1 0.010229 0.003624 -0.003969 -0.011134 0.007608 -0.007229
# 2 0.003624 0.103582 -0.010982 -0.027418 0.013180 -0.074901
# 3 -0.003969 -0.010982 0.009185 0.003633 -0.003928 0.003402
# 4 -0.011134 -0.027418 0.003633 0.108702 -0.022811 0.021010
# 5 0.007608 0.013180 -0.003928 -0.022811 0.030427 -0.021411
# 6 -0.007229 -0.074901 0.003402 0.021010 -0.021411 0.119660
#
#
# Mechanical properties :
#
#
# Convention : Reuss Voigt Hill
#
# Bulk Modulus (GPa) = 9.96583 63.44188 36.70385
# Shear Modulus (GPa) = 11.41846 31.43404 21.42625
#
# Velocity S-wave (km/s) = 2.27393 3.77288 3.11491
# Velocity P-wave (km/s) = 3.37746 6.90714 5.43672
#
# Compressibility (1/GPa) = 0.10034289
#
# Stress axis : x y z
#
# Youngs Moduli (GPa) = 97.75669 9.65416 108.87281
#
# Poissons Ratio (x) = -0.03499 0.43210
# Poissons Ratio (y) = -0.35430 1.19569
# Poissons Ratio (z) = 0.38798 0.10603
#
# Static dielectric constant tensor:
#      x y z
#    x 4.883320 0.190870 0.158090 
#    y 0.190870 3.481460 0.354170 
#    z 0.158090 0.354170 4.465030 
# 
# 
# High freq. dielectric constant tensor:
#      x y z
#    x 1.889080 0.016580 -0.007120 
#    y 0.016580 1.815920 0.022140 
#    z -0.007120 0.022140 1.869300 
# 
# From -- ./inp_files/259900.got.cif
#   From: 2010.06.25/outbox.cif.g09.slc.cpg/sg2_130_cif.got.tgz:259900.got - 2010.06.27 13:26:56.
