data_PCOD8009957
_publ_section_title
;
Structure prediction by ZEFSAII (Michael W. Deem and Ramdas Pophale) SiO2 
 PCOD8009957
Probable space group: P -1
;
_chemical_formula_sum "Si O2"
_cell_formula_units_Z 14
_cell_length_a 13.872538
_cell_length_b 25.412404
_cell_length_c 25.433160
_cell_angle_alpha 168.272930
_cell_angle_beta 159.841674
_cell_angle_gamma 20.296166
_cell_volume 605.059560
_symmetry_space_group_name_H-M "P -1"
_symmetry_group_IT_number 2
_symmetry_cell_setting 'triclinic'
loop_
_space_group_symop_operation_xyz
x,y,z
-x,-y,-z
loop_
_atom_site_type_symbol
_atom_site_label
_atom_site_fract_x
_atom_site_fract_y
_atom_site_fract_z
Si Si1 0.276387 0.275923 0.714162
Si Si2 0.420633 0.011453 0.032188
Si Si3 0.449524 0.554642 0.401149
Si Si4 0.939099 0.747491 0.249991
Si Si5 0.859081 0.166057 0.844824
Si Si6 0.982384 0.537567 0.465832
Si Si7 0.385390 0.860708 0.140730
O O1 0.527770 0.237088 0.761744
O O2 0.399733 0.218132 0.778127
O O3 0.078608 0.077790 0.404020
O O4 0.077141 0.581129 0.905971
O O5 0.067389 0.087086 0.925135
O O6 0.545160 0.731819 0.851802
O O7 0.521442 0.243904 0.340752
O O8 0.500000 0.000000 0.000000
O O9 0.137056 0.670767 0.328023
O O10 0.696766 0.526606 0.456382
O O11 0.595751 0.827372 0.165471
O O12 0.000000 0.000000 0.500000
O O13 0.000000 0.500000 0.000000
O O14 0.000000 0.500000 0.500000
O O15 0.808639 0.838401 0.657286
O O16 0.821018 0.334979 0.159536
#
# Coordination Sequence:
#
# PCOD8009957 Si02
#       7
#     2   2   2   2   2   2   2
#     4  10  21  37  63  90 124 172 210 281 325 392
#     4  12  27  43  70 100 144 191 239 278 343 430
#     4  12  26  47  73 103 146 188 232 297 359 413
#     4  12  27  48  71 104 144 185 231 291 359 426
#     4  10  21  38  60  91 132 162 223 269 328 381
#     4  12  25  45  73 104 136 178 235 298 359 419
#     4  12  25  42  72  99 135 175 237 278 350 418
#
# _framework density 23.138217999999998
#
# number of rings (size 3 to 8) (size 9 to 14) (size 15 to 20)
#    0.000    0.571    0.000    8.571    4.000    2.286 
#    0.000    0.000    0.000    0.000    0.000    0.000 
#    0.000    0.000    0.000    0.000    0.000    0.000 
#
# Total GULP energy -173652.862412 kJ/mol
# GULP energy per Si atom -12403.775887 kJ/mol
# Density = 2.308555 g / cm^3
# Si number density = 23.138218 Si / 1000 Ang^3
#
#
#
# Elastic Constant Matrix: (Units=GPa)
#
#
# Indices 1 2 3 4 5 6 
#
# 1 85.6323 7.3275 12.3851 10.2758 -5.4013 -1.0672
# 2 7.3275 103.2559 33.7931 10.0359 0.4651 14.6459
# 3 12.3851 33.7931 162.8038 27.9162 -19.2933 7.5111
# 4 10.2758 10.0359 27.9162 42.0864 14.3953 4.3622
# 5 -5.4013 0.4651 -19.2933 14.3953 42.6502 -3.7120
# 6 -1.0672 14.6459 7.5111 4.3622 -3.7120 53.7375
#
#
#
# Elastic Compliance Matrix: (Units=1/GPa)
#
#
# Indices 1 2 3 4 5 6 
#
# 1 0.012424 -0.000708 0.000266 -0.004242 0.003217 0.000969
# 2 -0.000708 0.010872 -0.002205 -0.000202 -0.001377 -0.002748
# 3 0.000266 -0.002205 0.008630 -0.007552 0.006551 0.000466
# 4 -0.004242 -0.000202 -0.007552 0.035730 -0.016272 -0.002998
# 5 0.003217 -0.001377 0.006551 -0.016272 0.032594 0.003096
# 6 0.000969 -0.002748 0.000466 -0.002998 0.003096 0.019769
#
#
# Mechanical properties :
#
#
# Convention : Reuss Voigt Hill
#
# Bulk Modulus (GPa) = 37.54976 50.96702 44.25839
# Shear Modulus (GPa) = 37.26048 47.57391 42.41719
#
# Velocity S-wave (km/s) = 4.01726 4.53932 4.28624
# Velocity P-wave (km/s) = 6.14667 7.03910 6.60797
#
# Compressibility (1/GPa) = 0.02663133
#
# Stress axis : x y z
#
# Youngs Moduli (GPa) = 80.48916 91.97944 115.88038
#
# Poissons Ratio (x) = 0.06515 -0.03080
# Poissons Ratio (y) = 0.05701 0.25547
# Poissons Ratio (z) = -0.02139 0.20278
#
# Static dielectric constant tensor:
#      x y z
#    x 4.122230 -0.139540 -0.212320 
#    y -0.139540 4.577090 0.078150 
#    z -0.212320 0.078150 3.661060 
# 
# 
# High freq. dielectric constant tensor:
#      x y z
#    x 1.922390 -0.003980 -0.000360 
#    y -0.003980 1.930400 0.002570 
#    z -0.000360 0.002570 1.935940 
# 
# From -- ./inp_files/410641.got.cif
#   From: 2010.06.25/outbox.cif.g09.slc.cpg/sg2_206_cif.got.tgz:410641.got - 2010.06.27 13:26:56.
