data_PCOD8009097
_publ_section_title
;
Structure prediction by ZEFSAII (Michael W. Deem and Ramdas Pophale) SiO2 
 PCOD8009097
Probable space group: P -1
;
_chemical_formula_sum "Si O2"
_cell_formula_units_Z 14
_cell_length_a 5.153988
_cell_length_b 23.966581
_cell_length_c 5.328986
_cell_angle_alpha 104.315297
_cell_angle_beta 60.903169
_cell_angle_gamma 86.861461
_cell_volume 545.289638
_symmetry_space_group_name_H-M "P -1"
_symmetry_group_IT_number 2
_symmetry_cell_setting 'triclinic'
loop_
_space_group_symop_operation_xyz
x,y,z
-x,-y,-z
loop_
_atom_site_type_symbol
_atom_site_label
_atom_site_fract_x
_atom_site_fract_y
_atom_site_fract_z
Si Si1 0.228017 0.336276 0.606541
Si Si2 0.889884 0.421957 0.481461
Si Si3 0.640396 0.021906 0.206910
Si Si4 0.532191 0.159979 0.450051
Si Si5 0.837815 0.798599 0.822336
Si Si6 0.268668 0.455545 0.969724
Si Si7 0.867659 0.309360 0.156970
O O1 0.340926 0.387938 0.768351
O O2 0.527778 0.296904 0.287784
O O3 0.977670 0.369934 0.577874
O O4 0.078493 0.290746 0.792455
O O5 0.605784 0.471024 0.781447
O O6 0.817871 0.381633 0.240846
O O7 0.157280 0.454893 0.310776
O O8 0.555561 0.091644 0.320415
O O9 0.500000 0.000000 0.500000
O O10 0.500000 0.000000 0.000000
O O11 0.000000 0.000000 0.000000
O O12 0.358267 0.192920 0.327840
O O13 0.870289 0.172289 0.315442
O O14 0.356191 0.176489 0.813397
O O15 0.958317 0.727621 0.729677
O O16 0.000000 0.500000 0.000000
#
# Coordination Sequence:
#
# PCOD8009097 Si02
#       7
#     2   2   2   2   2   2   2
#     4  10  21  39  58  84 116 154 213 255 313 408
#     4  10  21  37  58  81 114 155 203 253 309 402
#     4  12  25  45  76 103 142 192 235 288 348 415
#     4  12  26  48  69 110 143 184 239 290 349 413
#     4  12  27  45  71 101 147 185 231 300 349 413
#     4  10  21  36  55  86 115 148 196 257 320 383
#     4  10  23  38  60  85 117 166 209 260 328 391
#
# _framework density 25.674429
#
# number of rings (size 3 to 8) (size 9 to 14) (size 15 to 20)
#    0.000    1.143    0.000    6.000    4.000    1.143 
#    0.000    0.000    0.000    0.000    0.000    0.000 
#    0.000    0.000    0.000    0.000    0.000    0.000 
#
# Total GULP energy -173439.887312 kJ/mol
# GULP energy per Si atom -12388.563379 kJ/mol
# Density = 2.561599 g / cm^3
# Si number density = 25.674429 Si / 1000 Ang^3
#
#
#
# Elastic Constant Matrix: (Units=GPa)
#
#
# Indices 1 2 3 4 5 6 
#
# 1 107.1601 19.6098 73.5159 -6.8773 -22.4540 -16.4657
# 2 19.6098 113.0905 60.2931 -2.9294 -10.7882 3.4757
# 3 73.5159 60.2931 213.1685 -24.8558 -39.5892 9.9629
# 4 -6.8773 -2.9294 -24.8558 53.5932 3.8350 7.3201
# 5 -22.4540 -10.7882 -39.5892 3.8350 53.8162 1.0636
# 6 -16.4657 3.4757 9.9629 7.3201 1.0636 43.2127
#
#
#
# Elastic Compliance Matrix: (Units=1/GPa)
#
#
# Indices 1 2 3 4 5 6 
#
# 1 0.014139 0.000186 -0.005015 -0.001581 0.002227 0.006742
# 2 0.000186 0.010452 -0.003141 -0.000870 -0.000078 0.000104
# 3 -0.005015 -0.003141 0.008550 0.003495 0.003404 -0.004305
# 4 -0.001581 -0.000870 0.003495 0.020666 0.000360 -0.004848
# 5 0.002227 -0.000078 0.003404 0.000360 0.021984 -0.000532
# 6 0.006742 0.000104 -0.004305 -0.004848 -0.000532 0.027529
#
#
# Mechanical properties :
#
#
# Convention : Reuss Voigt Hill
#
# Bulk Modulus (GPa) = 58.13577 82.25074 70.19325
# Shear Modulus (GPa) = 40.00243 48.79112 44.39677
#
# Velocity S-wave (km/s) = 3.95152 4.36406 4.16290
# Velocity P-wave (km/s) = 6.59636 7.58281 7.10672
#
# Compressibility (1/GPa) = 0.01720112
#
# Stress axis : x y z
#
# Youngs Moduli (GPa) = 70.72564 95.67798 116.96169
#
# Poissons Ratio (x) = -0.01781 0.58653
# Poissons Ratio (y) = -0.01316 0.36740
# Poissons Ratio (z) = 0.35467 0.30054
#
# Static dielectric constant tensor:
#      x y z
#    x 4.514820 0.363040 -0.143580 
#    y 0.363040 5.154500 0.078810 
#    z -0.143580 0.078810 5.349610 
# 
# 
# High freq. dielectric constant tensor:
#      x y z
#    x 2.027200 0.014150 -0.013690 
#    y 0.014150 2.046240 0.002040 
#    z -0.013690 0.002040 2.066000 
# 
# From -- ./inp_files/11961.got.cif
#   From: 2010.06.25/outbox.cif.g09.slc.cpg/sg2_6_cif.got.tgz:11961.got - 2010.06.27 13:26:56.
