data_PCOD8009049
_publ_section_title
;
Structure prediction by ZEFSAII (Michael W. Deem and Ramdas Pophale) SiO2 
 PCOD8009049
Probable space group: P -1
;
_chemical_formula_sum "Si O2"
_cell_formula_units_Z 16
_cell_length_a 13.894248
_cell_length_b 11.968861
_cell_length_c 13.805786
_cell_angle_alpha 89.280272
_cell_angle_beta 149.439504
_cell_angle_gamma 68.800738
_cell_volume 794.570043
_symmetry_space_group_name_H-M "P -1"
_symmetry_group_IT_number 2
_symmetry_cell_setting 'triclinic'
loop_
_space_group_symop_operation_xyz
x,y,z
-x,-y,-z
loop_
_atom_site_type_symbol
_atom_site_label
_atom_site_fract_x
_atom_site_fract_y
_atom_site_fract_z
Si Si1 0.739678 0.823428 0.163697
Si Si2 0.542514 0.508864 0.786697
Si Si3 0.803829 0.293497 0.687677
Si Si4 0.193450 0.523811 0.162193
Si Si5 0.374588 0.368442 0.975368
Si Si6 0.748417 0.246360 0.115141
Si Si7 0.773204 0.001044 0.056881
Si Si8 0.123785 0.271659 0.509938
O O1 0.624630 0.765145 0.007066
O O2 0.884935 0.846064 0.216631
O O3 0.922873 0.701540 0.414318
O O4 0.500000 0.000000 0.000000
O O5 0.277830 0.607354 0.485315
O O6 0.808179 0.429130 0.950541
O O7 0.477004 0.636871 0.804990
O O8 0.598895 0.368919 0.892687
O O9 0.516997 0.357343 0.475479
O O10 0.921690 0.331476 0.866522
O O11 0.046746 0.095017 0.884297
O O12 0.000000 0.500000 0.000000
O O13 0.057699 0.550503 0.694501
O O14 0.529913 0.334286 0.011839
O O15 0.018408 0.197929 0.381901
O O16 0.861165 0.076447 0.185223
O O17 0.441641 0.146537 0.751674
#
# Coordination Sequence:
#
# PCOD8009049 Si02
#       8
#     2   2   2   2   2   2   2   2
#     4  10  21  36  52  87 121 166 205 235 294 337
#     4   9  21  39  63  93 110 159 202 239 305 345
#     4   9  22  40  65  92 111 148 201 251 303 351
#     4   9  20  43  66  92 113 141 202 260 296 354
#     4  11  21  38  61  86 126 165 202 244 282 359
#     4  11  23  39  56  88 131 159 202 238 284 364
#     4  11  24  37  56  88 125 159 195 249 295 353
#     4  10  22  37  54  82 123 168 205 236 287 349
#
# _framework density 20.136678
#
# number of rings (size 3 to 8) (size 9 to 14) (size 15 to 20)
#    0.750    1.250    2.500    1.875    5.250    3.500 
#    2.250    0.625    0.000    3.750    0.000    0.000 
#    0.000    0.000    0.000    0.000    0.000    0.000 
#
# Total GULP energy -198227.752298 kJ/mol
# GULP energy per Si atom -12389.234519 kJ/mol
# Density = 2.009085 g / cm^3
# Si number density = 20.136678 Si / 1000 Ang^3
#
#
#
# Elastic Constant Matrix: (Units=GPa)
#
#
# Indices 1 2 3 4 5 6 
#
# 1 88.5674 60.7323 17.2692 2.5563 0.2246 -10.4154
# 2 60.7323 155.6431 32.0281 18.4933 12.8721 -8.4037
# 3 17.2692 32.0281 47.3470 7.8979 15.4747 -10.3014
# 4 2.5563 18.4933 7.8979 27.8914 -2.9981 6.0993
# 5 0.2246 12.8721 15.4747 -2.9981 30.5663 -2.1412
# 6 -10.4154 -8.4037 -10.3014 6.0993 -2.1412 37.8324
#
#
#
# Elastic Compliance Matrix: (Units=1/GPa)
#
#
# Indices 1 2 3 4 5 6 
#
# 1 0.016513 -0.006498 -0.003487 0.003915 0.004891 0.001799
# 2 -0.006498 0.010537 -0.002311 -0.006302 -0.003787 0.000724
# 3 -0.003487 -0.002311 0.032888 -0.011021 -0.016147 0.008344
# 4 0.003915 -0.006302 -0.011021 0.046298 0.012038 -0.010106
# 5 0.004891 -0.003787 -0.016147 0.012038 0.043394 -0.003376
# 6 0.001799 0.000724 0.008344 -0.010106 -0.003376 0.030799
#
#
# Mechanical properties :
#
#
# Convention : Reuss Voigt Hill
#
# Bulk Modulus (GPa) = 28.29340 56.84628 42.56984
# Shear Modulus (GPa) = 23.06241 31.35988 27.21115
#
# Velocity S-wave (km/s) = 3.38789 3.95061 3.68002
# Velocity P-wave (km/s) = 5.42079 7.00723 6.26443
#
# Compressibility (1/GPa) = 0.03534393
#
# Stress axis : x y z
#
# Youngs Moduli (GPa) = 60.55864 94.90067 30.40662
#
# Poissons Ratio (x) = 0.61670 0.10603
# Poissons Ratio (y) = 0.39353 0.07028
# Poissons Ratio (z) = 0.21118 0.21935
#
# Static dielectric constant tensor:
#      x y z
#    x 4.318480 -0.119280 -0.135380 
#    y -0.119280 3.750450 0.087720 
#    z -0.135380 0.087720 3.492140 
# 
# 
# High freq. dielectric constant tensor:
#      x y z
#    x 1.770490 -0.012340 0.010930 
#    y -0.012340 1.791810 0.006880 
#    z 0.010930 0.006880 1.770540 
# 
# From -- ./inp_files/531179.got.cif
#   From: 2010.06.25/outbox.cif.g09.slc.cpg/sg2_266_cif.got.tgz:531179.got - 2010.06.27 13:26:56.
