data_PCOD8009968
_publ_section_title
;
Structure prediction by ZEFSAII (Michael W. Deem and Ramdas Pophale) SiO2 
 PCOD8009968
Probable space group: P -1
;
_chemical_formula_sum "Si O2"
_cell_formula_units_Z 16
_cell_length_a 14.933868
_cell_length_b 29.336586
_cell_length_c 11.754398
_cell_angle_alpha 160.148597
_cell_angle_beta 152.274617
_cell_angle_gamma 26.602975
_cell_volume 749.305748
_symmetry_space_group_name_H-M "P -1"
_symmetry_group_IT_number 2
_symmetry_cell_setting 'triclinic'
loop_
_space_group_symop_operation_xyz
x,y,z
-x,-y,-z
loop_
_atom_site_type_symbol
_atom_site_label
_atom_site_fract_x
_atom_site_fract_y
_atom_site_fract_z
Si Si1 0.192147 0.108517 0.667858
Si Si2 0.066306 0.863394 0.039366
Si Si3 0.285787 0.746017 0.232957
Si Si4 0.368499 0.899764 0.896507
Si Si5 0.030296 0.350609 0.242438
Si Si6 0.237632 0.733325 0.544678
Si Si7 0.343664 0.395054 0.847141
Si Si8 0.610483 0.332082 0.200860
O O1 0.010051 0.169680 0.511878
O O2 0.198714 0.956661 0.365845
O O3 0.413609 0.083197 0.800173
O O4 0.150819 0.218220 0.984091
O O5 0.103785 0.838887 0.158557
O O6 0.171088 0.712118 0.729580
O O7 0.821266 0.945320 0.928474
O O8 0.343744 0.854379 0.633477
O O9 0.490195 0.640403 0.151036
O O10 0.194664 0.648791 0.977500
O O11 0.359638 0.776151 0.682145
O O12 0.162594 0.339770 0.480787
O O13 0.000000 0.500000 0.500000
O O14 0.334954 0.759877 0.836272
O O15 0.258104 0.568023 0.171924
O O16 0.445049 0.306060 0.867754
O O17 0.500000 0.500000 0.500000
#
# Coordination Sequence:
#
# PCOD8009968 Si02
#       8
#     2   2   2   2   2   2   2   2
#     4  11  23  37  60  94 127 163 195 253 305 365
#     4  10  23  42  60  91 123 162 204 251 304 361
#     4  11  22  37  60  91 130 162 198 248 306 370
#     4  11  22  36  60  92 125 164 197 246 310 366
#     4  12  22  36  59  96 134 159 198 246 306 371
#     4  10  21  41  61  87 123 163 213 250 295 358
#     4  10  21  37  63  91 124 164 201 253 303 356
#     4   9  21  44  67  84 115 166 211 252 300 354
#
# _framework density 21.353099
#
# number of rings (size 3 to 8) (size 9 to 14) (size 15 to 20)
#    0.000    1.500    5.000    0.375    1.750    5.500 
#    0.000    5.000    0.000   12.750    0.000    0.000 
#    0.000    0.000    0.000    0.000    0.000    0.000 
#
# Total GULP energy -198323.250705 kJ/mol
# GULP energy per Si atom -12395.203169 kJ/mol
# Density = 2.130450 g / cm^3
# Si number density = 21.353099 Si / 1000 Ang^3
#
#
#
# Elastic Constant Matrix: (Units=GPa)
#
#
# Indices 1 2 3 4 5 6 
#
# 1 87.1700 48.0411 29.7868 -9.9467 -5.7109 -0.5871
# 2 48.0411 111.0455 39.5060 -9.7628 -1.3913 0.9073
# 3 29.7868 39.5060 56.1183 -9.0988 3.3862 -9.7993
# 4 -9.9467 -9.7628 -9.0988 35.1585 -4.2400 -3.4091
# 5 -5.7109 -1.3913 3.3862 -4.2400 41.1187 -8.4452
# 6 -0.5871 0.9073 -9.7993 -3.4091 -8.4452 43.6283
#
#
#
# Elastic Compliance Matrix: (Units=1/GPa)
#
#
# Indices 1 2 3 4 5 6 
#
# 1 0.016409 -0.005115 -0.004918 0.002272 0.002730 -0.000071
# 2 -0.005115 0.013876 -0.007349 0.000310 -0.000012 -0.001986
# 3 -0.004918 -0.007349 0.027456 0.004105 -0.001478 0.006288
# 4 0.002272 0.000310 0.004105 0.031126 0.004053 0.004163
# 5 0.002730 -0.000012 -0.001478 0.004053 0.026288 0.005110
# 6 -0.000071 -0.001986 0.006288 0.004163 0.005110 0.025688
#
#
# Mechanical properties :
#
#
# Convention : Reuss Voigt Hill
#
# Bulk Modulus (GPa) = 43.52121 54.33353 48.92737
# Shear Modulus (GPa) = 27.28267 33.11441 30.19854
#
# Velocity S-wave (km/s) = 3.57836 3.94229 3.76473
# Velocity P-wave (km/s) = 6.12363 6.79873 6.46999
#
# Compressibility (1/GPa) = 0.02297730
#
# Stress axis : x y z
#
# Youngs Moduli (GPa) = 60.94306 72.06626 36.42134
#
# Poissons Ratio (x) = 0.36860 0.17911
# Poissons Ratio (y) = 0.31171 0.26768
# Poissons Ratio (z) = 0.29970 0.52965
#
# Static dielectric constant tensor:
#      x y z
#    x 4.139650 0.067290 -0.624420 
#    y 0.067290 4.288810 -0.001260 
#    z -0.624420 -0.001260 4.514680 
# 
# 
# High freq. dielectric constant tensor:
#      x y z
#    x 1.830340 0.003300 -0.016970 
#    y 0.003300 1.858010 0.000580 
#    z -0.016970 0.000580 1.817880 
# 
# From -- ./inp_files/458424.got.cif
#   From: 2010.06.25/outbox.cif.g09.slc.cpg/sg2_230_cif.got.tgz:458424.got - 2010.06.27 13:26:56.
