data_PCOD8009207
_publ_section_title
;
Structure prediction by ZEFSAII (Michael W. Deem and Ramdas Pophale) SiO2 
 PCOD8009207
Probable space group: P -1
;
_chemical_formula_sum "Si O2"
_cell_formula_units_Z 16
_cell_length_a 5.245902
_cell_length_b 11.724588
_cell_length_c 13.574708
_cell_angle_alpha 91.325899
_cell_angle_beta 102.784467
_cell_angle_gamma 61.324582
_cell_volume 710.992084
_symmetry_space_group_name_H-M "P -1"
_symmetry_group_IT_number 2
_symmetry_cell_setting 'triclinic'
loop_
_space_group_symop_operation_xyz
x,y,z
-x,-y,-z
loop_
_atom_site_type_symbol
_atom_site_label
_atom_site_fract_x
_atom_site_fract_y
_atom_site_fract_z
Si Si1 0.695907 0.132408 0.325925
Si Si2 0.314332 0.331031 0.129702
Si Si3 0.282672 0.652281 0.988511
Si Si4 0.304835 0.476957 0.612546
Si Si5 0.598882 0.015452 0.619289
Si Si6 0.178659 0.613168 0.185673
Si Si7 0.289499 0.696062 0.513032
Si Si8 0.824210 0.726364 0.333084
O O1 0.513538 0.245912 0.234810
O O2 0.562424 0.034230 0.317198
O O3 0.643272 0.197008 0.430838
O O4 0.048433 0.062147 0.334091
O O5 0.538956 0.286063 0.053136
O O6 0.167398 0.485939 0.142328
O O7 0.038594 0.304130 0.088233
O O8 0.500000 0.500000 0.000000
O O9 0.225900 0.690926 0.100231
O O10 0.559239 0.429834 0.714954
O O11 0.167774 0.632331 0.586417
O O12 0.408348 0.414467 0.511776
O O13 0.085745 0.422937 0.629296
O O14 0.500000 0.000000 0.500000
O O15 0.499552 0.163670 0.652034
O O16 0.872889 0.715887 0.218511
O O17 0.045479 0.766724 0.408523
#
# Coordination Sequence:
#
# PCOD8009207 Si02
#       8
#     2   2   2   2   2   2   2   2
#     4  12  25  43  67  91 128 177 220 263 311 372
#     4  11  23  42  66  98 129 163 210 264 327 387
#     4  10  22  40  65  98 132 159 203 264 333 391
#     4  10  21  36  58  92 131 160 206 252 336 386
#     4  12  26  43  65  90 131 177 227 261 303 364
#     4  10  22  36  63  95 124 160 202 264 331 385
#     4  10  21  38  56  93 127 168 207 260 320 388
#     4  11  24  37  62  90 129 173 212 260 314 384
#
# _framework density 22.503767
#
# number of rings (size 3 to 8) (size 9 to 14) (size 15 to 20)
#    0.000    1.250    2.500    3.750    8.750    1.000 
#    0.000    0.000    0.000    4.500    0.000    0.000 
#    0.000    0.000    0.000    0.000    0.000    0.000 
#
# Total GULP energy -198242.203666 kJ/mol
# GULP energy per Si atom -12390.137729 kJ/mol
# Density = 2.245255 g / cm^3
# Si number density = 22.503767 Si / 1000 Ang^3
#
#
#
# Elastic Constant Matrix: (Units=GPa)
#
#
# Indices 1 2 3 4 5 6 
#
# 1 110.7855 16.1802 27.4913 -0.8647 -5.2740 -11.5622
# 2 16.1802 55.8964 20.5353 8.5729 -7.5486 -9.2188
# 3 27.4913 20.5353 95.2567 15.7196 -15.8004 -15.9880
# 4 -0.8647 8.5729 15.7196 22.5129 -7.3283 -3.3018
# 5 -5.2740 -7.5486 -15.8004 -7.3283 37.4039 -3.7832
# 6 -11.5622 -9.2188 -15.9880 -3.3018 -3.7832 34.5626
#
#
#
# Elastic Compliance Matrix: (Units=1/GPa)
#
#
# Indices 1 2 3 4 5 6 
#
# 1 0.010270 -0.002106 -0.002613 0.003601 0.000838 0.002101
# 2 -0.002106 0.020998 -0.002012 -0.005338 0.002421 0.003721
# 3 -0.002613 -0.002012 0.014469 -0.007251 0.004430 0.005075
# 4 0.003601 -0.005338 -0.007251 0.054372 0.007265 0.002416
# 5 0.000838 0.002421 0.004430 0.007265 0.031355 0.007101
# 6 0.002101 0.003721 0.005075 0.002416 0.007101 0.033984
#
#
# Mechanical properties :
#
#
# Convention : Reuss Voigt Hill
#
# Bulk Modulus (GPa) = 30.98260 43.37246 37.17753
# Shear Modulus (GPa) = 26.36204 32.07801 29.22003
#
# Velocity S-wave (km/s) = 3.42636 3.77961 3.60731
# Velocity P-wave (km/s) = 5.42687 6.19375 5.82295
#
# Compressibility (1/GPa) = 0.03227618
#
# Stress axis : x y z
#
# Youngs Moduli (GPa) = 97.37536 47.62282 69.11415
#
# Poissons Ratio (x) = 0.10027 0.18057
# Poissons Ratio (y) = 0.20503 0.13906
# Poissons Ratio (z) = 0.25441 0.09582
#
# Static dielectric constant tensor:
#      x y z
#    x 4.297510 0.064380 -0.398610 
#    y 0.064380 3.975300 0.048340 
#    z -0.398610 0.048340 4.432540 
# 
# 
# High freq. dielectric constant tensor:
#      x y z
#    x 1.897450 0.000070 -0.008570 
#    y 0.000070 1.852410 -0.002360 
#    z -0.008570 -0.002360 1.884510 
# 
# From -- ./inp_files/113118.got.cif
#   From: 2010.06.25/outbox.cif.g09.slc.cpg/sg2_57_cif.got.tgz:113118.got - 2010.06.27 13:26:56.
