data_PCOD8009750
_publ_section_title
;
Structure prediction by ZEFSAII (Michael W. Deem and Ramdas Pophale) SiO2 
 PCOD8009750
Probable space group: P -1
;
_chemical_formula_sum "Si O2"
_cell_formula_units_Z 14
_cell_length_a 12.038604
_cell_length_b 14.123253
_cell_length_c 13.960904
_cell_angle_alpha 46.737288
_cell_angle_beta 49.941865
_cell_angle_gamma 20.992365
_cell_volume 619.185649
_symmetry_space_group_name_H-M "P -1"
_symmetry_group_IT_number 2
_symmetry_cell_setting 'triclinic'
loop_
_space_group_symop_operation_xyz
x,y,z
-x,-y,-z
loop_
_atom_site_type_symbol
_atom_site_label
_atom_site_fract_x
_atom_site_fract_y
_atom_site_fract_z
Si Si1 0.408040 0.559935 0.705891
Si Si2 0.714960 0.860771 0.564562
Si Si3 0.250305 0.835712 0.055219
Si Si4 0.429795 0.294788 0.549723
Si Si5 0.549480 0.913146 0.144228
Si Si6 0.734049 0.655965 0.866122
Si Si7 0.229173 0.966794 0.168841
O O1 0.619555 0.396056 0.800439
O O2 0.454042 0.648916 0.552528
O O3 0.512797 0.349356 0.733638
O O4 0.049314 0.827922 0.744800
O O5 0.644613 0.805212 0.718400
O O6 0.066911 0.580963 0.527593
O O7 0.500000 0.000000 0.500000
O O8 0.624560 0.071492 0.512535
O O9 0.113318 0.042440 0.069960
O O10 0.543492 0.673075 0.956067
O O11 0.000000 0.000000 0.000000
O O12 0.489801 0.178809 0.698234
O O13 0.394762 0.978068 0.086135
O O14 0.908249 0.665600 0.104976
O O15 0.356915 0.188694 0.097650
#
# Coordination Sequence:
#
# PCOD8009750 Si02
#       7
#     2   2   2   2   2   2   2
#     4  10  23  40  60  94 120 164 202 241 315 356
#     4  10  21  37  60  90 117 164 208 248 302 355
#     4  10  26  44  61  91 126 163 208 248 306 367
#     4  10  21  38  60  90 126 156 199 256 302 362
#     4  10  22  42  64  93 123 156 209 254 307 361
#     4  10  23  40  64  90 123 163 201 258 304 354
#     4  10  23  41  62  95 119 166 204 248 312 355
#
# _framework density 22.610341999999999
#
# number of rings (size 3 to 8) (size 9 to 14) (size 15 to 20)
#    0.857    1.143    0.000    2.143    4.000    2.857 
#    0.000    0.000    0.000    0.000    0.000    0.000 
#    0.000    0.000    0.000    0.000    0.000    0.000 
#
# Total GULP energy -173575.913933 kJ/mol
# GULP energy per Si atom -12398.279567 kJ/mol
# Density = 2.255888 g / cm^3
# Si number density = 22.610342 Si / 1000 Ang^3
#
#
#
# Elastic Constant Matrix: (Units=GPa)
#
#
# Indices 1 2 3 4 5 6 
#
# 1 103.6940 23.7662 29.1649 -1.3420 3.8888 -10.6026
# 2 23.7662 107.4676 22.4025 8.9295 2.8539 15.3487
# 3 29.1649 22.4025 79.2883 6.4226 -12.8657 -4.6128
# 4 -1.3420 8.9295 6.4226 30.7932 -3.4681 -8.9128
# 5 3.8888 2.8539 -12.8657 -3.4681 36.1240 -1.1239
# 6 -10.6026 15.3487 -4.6128 -8.9128 -1.1239 31.9904
#
#
#
# Elastic Compliance Matrix: (Units=1/GPa)
#
#
# Indices 1 2 3 4 5 6 
#
# 1 0.012134 -0.002958 -0.003898 0.003671 -0.001927 0.005834
# 2 -0.002958 0.012438 -0.002882 -0.006070 -0.002558 -0.009145
# 3 -0.003898 -0.002882 0.016128 -0.001328 0.006334 0.002269
# 4 0.003671 -0.006070 -0.001328 0.039469 0.003869 0.015070
# 5 -0.001927 -0.002558 0.006334 0.003869 0.030833 0.003663
# 6 0.005834 -0.009145 0.002269 0.015070 0.003663 0.042235
#
#
# Mechanical properties :
#
#
# Convention : Reuss Voigt Hill
#
# Bulk Modulus (GPa) = 47.11553 49.01300 48.06427
# Shear Modulus (GPa) = 27.81038 34.12260 30.96649
#
# Velocity S-wave (km/s) = 3.51092 3.88900 3.70479
# Velocity P-wave (km/s) = 6.10890 6.47226 6.29320
#
# Compressibility (1/GPa) = 0.02122442
#
# Stress axis : x y z
#
# Youngs Moduli (GPa) = 82.40993 80.39703 62.00480
#
# Poissons Ratio (x) = 0.23781 0.24172
# Poissons Ratio (y) = 0.24376 0.17868
# Poissons Ratio (z) = 0.32127 0.23168
#
# Static dielectric constant tensor:
#      x y z
#    x 4.136990 0.207370 0.018630 
#    y 0.207370 4.189940 0.055450 
#    z 0.018630 0.055450 4.324720 
# 
# 
# High freq. dielectric constant tensor:
#      x y z
#    x 1.872290 0.008310 -0.004750 
#    y 0.008310 1.903890 0.001830 
#    z -0.004750 0.001830 1.912000 
# 
# From -- ./inp_files/119202.got.cif
#   From: 2010.06.25/outbox.cif.g09.slc.cpg/sg2_60_cif.got.tgz:119202.got - 2010.06.27 13:26:56.
