data_PCOD8009720
_publ_section_title
;
Structure prediction by ZEFSAII (Michael W. Deem and Ramdas Pophale) SiO2 
 PCOD8009720
Probable space group: P -1
;
_chemical_formula_sum "Si O2"
_cell_formula_units_Z 14
_cell_length_a 16.219034
_cell_length_b 7.643645
_cell_length_c 15.292277
_cell_angle_alpha 113.136251
_cell_angle_beta 153.282297
_cell_angle_gamma 84.489869
_cell_volume 617.034942
_symmetry_space_group_name_H-M "P -1"
_symmetry_group_IT_number 2
_symmetry_cell_setting 'triclinic'
loop_
_space_group_symop_operation_xyz
x,y,z
-x,-y,-z
loop_
_atom_site_type_symbol
_atom_site_label
_atom_site_fract_x
_atom_site_fract_y
_atom_site_fract_z
Si Si1 0.742988 0.487258 0.222084
Si Si2 0.246195 0.109017 0.629636
Si Si3 0.086151 0.806751 0.254800
Si Si4 0.969699 0.600723 0.796465
Si Si5 0.169912 0.655739 0.556983
Si Si6 0.463946 0.072494 0.387083
Si Si7 0.803360 0.748363 0.809066
O O1 0.867834 0.774638 0.412491
O O2 0.668014 0.327106 0.209394
O O3 0.915497 0.477336 0.323864
O O4 0.511627 0.350438 0.917841
O O5 0.140700 0.012686 0.413823
O O6 0.231686 0.909127 0.635183
O O7 0.329293 0.869692 0.465600
O O8 0.948246 0.556105 0.127013
O O9 0.909443 0.756987 0.003750
O O10 0.826421 0.489986 0.548956
O O11 0.786940 0.562658 0.688921
O O12 0.210507 0.868892 0.065087
O O13 0.445521 0.294284 0.425536
O O14 0.500000 0.000000 0.500000
O O15 0.000000 0.000000 0.000000
#
# Coordination Sequence:
#
# PCOD8009720 Si02
#       7
#     2   2   2   2   2   2   2
#     4  10  21  38  63  87 117 156 195 242 304 349
#     4  10  22  38  61  88 120 153 197 244 297 357
#     4  11  22  41  60  86 124 155 194 251 292 350
#     4  10  22  39  59  88 122 154 199 244 295 353
#     4  10  21  38  62  88 119 154 196 246 292 357
#     4  11  22  37  59  83 118 159 197 241 290 348
#     4  10  21  37  60  86 117 157 198 239 292 356
#
# _framework density 22.689152
#
# number of rings (size 3 to 8) (size 9 to 14) (size 15 to 20)
#    0.000    1.714    2.857    2.143    4.000    0.571 
#    0.000    0.000   12.571    0.000    0.000    0.000 
#    0.000    0.000    0.000    0.000    0.000    0.000 
#
# Total GULP energy -173463.962238 kJ/mol
# GULP energy per Si atom -12390.283017 kJ/mol
# Density = 2.263751 g / cm^3
# Si number density = 22.689152 Si / 1000 Ang^3
#
#
#
# Elastic Constant Matrix: (Units=GPa)
#
#
# Indices 1 2 3 4 5 6 
#
# 1 92.4160 27.3978 45.5711 -0.0755 -32.0010 -13.4143
# 2 27.3978 99.0255 13.3383 -2.7953 -20.0163 -10.8020
# 3 45.5711 13.3383 60.0881 -13.7786 -11.6156 -15.9363
# 4 -0.0755 -2.7953 -13.7786 29.8094 -7.2390 1.0676
# 5 -32.0010 -20.0163 -11.6156 -7.2390 34.2258 0.1582
# 6 -13.4143 -10.8020 -15.9363 1.0676 0.1582 30.5155
#
#
#
# Elastic Compliance Matrix: (Units=1/GPa)
#
#
# Indices 1 2 3 4 5 6 
#
# 1 0.024975 -0.001285 -0.015558 -0.003302 0.016610 0.002428
# 2 -0.001285 0.012290 0.001647 0.003515 0.007267 0.004485
# 3 -0.015558 0.001647 0.035266 0.016440 0.001809 0.011576
# 4 -0.003302 0.003515 0.016440 0.044613 0.013953 0.006745
# 5 0.016610 0.007267 0.001809 0.013953 0.052517 0.010058
# 6 0.002428 0.004485 0.011576 0.006745 0.010058 0.041183
#
#
# Mechanical properties :
#
#
# Convention : Reuss Voigt Hill
#
# Bulk Modulus (GPa) = 23.73202 47.12712 35.42957
# Shear Modulus (GPa) = 19.58628 29.92496 24.75562
#
# Velocity S-wave (km/s) = 2.94129 3.63562 3.30673
# Velocity P-wave (km/s) = 4.69225 6.19996 5.49803
#
# Compressibility (1/GPa) = 0.04213716
#
# Stress axis : x y z
#
# Youngs Moduli (GPa) = 40.04041 81.37016 28.35632
#
# Poissons Ratio (x) = 0.10458 0.44117
# Poissons Ratio (y) = 0.05146 -0.04670
# Poissons Ratio (z) = 0.62295 -0.13400
#
# Static dielectric constant tensor:
#      x y z
#    x 4.294940 -0.266870 0.093240 
#    y -0.266870 4.585270 0.071900 
#    z 0.093240 0.071900 3.715350 
# 
# 
# High freq. dielectric constant tensor:
#      x y z
#    x 1.893460 -0.002990 -0.008430 
#    y -0.002990 1.914460 0.007470 
#    z -0.008430 0.007470 1.879550 
# 
# From -- ./inp_files/195965.got.cif
#   From: 2010.06.25/outbox.cif.g09.slc.cpg/sg2_98_cif.got.tgz:195965.got - 2010.06.27 13:26:56.
