data_PCOD8009703
_publ_section_title
;
Structure prediction by ZEFSAII (Michael W. Deem and Ramdas Pophale) SiO2 
 PCOD8009703
Probable space group: P -1
;
_chemical_formula_sum "Si O2"
_cell_formula_units_Z 12
_cell_length_a 9.595584
_cell_length_b 10.585409
_cell_length_c 13.537074
_cell_angle_alpha 71.032866
_cell_angle_beta 137.765472
_cell_angle_gamma 77.677576
_cell_volume 611.693521
_symmetry_space_group_name_H-M "P -1"
_symmetry_group_IT_number 2
_symmetry_cell_setting 'triclinic'
loop_
_space_group_symop_operation_xyz
x,y,z
-x,-y,-z
loop_
_atom_site_type_symbol
_atom_site_label
_atom_site_fract_x
_atom_site_fract_y
_atom_site_fract_z
Si Si1 0.400082 0.517565 0.552279
Si Si2 0.658243 0.860931 0.525328
Si Si3 0.912504 0.999378 0.565497
Si Si4 0.792065 0.941426 0.142864
Si Si5 0.689423 0.632302 0.752362
Si Si6 0.327552 0.885317 0.173659
O O1 0.500000 0.500000 0.500000
O O2 0.605223 0.516173 0.728537
O O3 0.448651 0.342804 0.652982
O O4 0.056981 0.713298 0.334271
O O5 0.736568 0.678120 0.656486
O O6 0.444993 0.940939 0.298672
O O7 0.500000 0.000000 0.500000
O O8 0.934873 0.827690 0.641997
O O9 0.565559 0.185340 0.359108
O O10 0.127490 0.978811 0.757893
O O11 0.000000 0.000000 0.500000
O O12 0.500000 0.000000 0.000000
O O13 0.700202 0.045811 0.965955
O O14 0.000000 0.500000 0.000000
O O15 0.000000 0.000000 0.000000
#
# Coordination Sequence:
#
# PCOD8009703 Si02
#       6
#     2   2   2   2   2   2
#     4  11  22  40  63  98 124 154 220 252 298 383
#     4  10  21  37  59  92 122 156 209 247 307 374
#     4  10  22  42  61  88 124 159 207 252 307 379
#     4  11  25  43  65  91 125 170 205 257 320 362
#     4  10  22  37  63  91 122 158 199 259 307 356
#     4  12  22  38  68  92 125 167 204 260 313 362
#
# _framework density 19.617667000000001
#
# number of rings (size 3 to 8) (size 9 to 14) (size 15 to 20)
#    0.000    1.333    3.333    3.000    7.000    2.000 
#    0.000    0.833    0.000    0.000    0.000    0.000 
#    0.000    0.000    0.000    0.000    0.000    0.000 
#
# Total GULP energy -148698.004942 kJ/mol
# GULP energy per Si atom -12391.500412 kJ/mol
# Density = 1.957302 g / cm^3
# Si number density = 19.617667 Si / 1000 Ang^3
#
#
#
# Elastic Constant Matrix: (Units=GPa)
#
#
# Indices 1 2 3 4 5 6 
#
# 1 172.8832 53.5333 72.8533 16.6034 0.2748 0.2211
# 2 53.5333 106.2802 63.1415 19.9728 0.0464 6.5225
# 3 72.8533 63.1415 152.2338 23.2897 4.6045 -0.0608
# 4 16.6034 19.9728 23.2897 38.1804 -0.0616 -5.1047
# 5 0.2748 0.0464 4.6045 -0.0616 44.0498 7.8869
# 6 0.2211 6.5225 -0.0608 -5.1047 7.8869 30.9487
#
#
#
# Elastic Compliance Matrix: (Units=1/GPa)
#
#
# Indices 1 2 3 4 5 6 
#
# 1 0.007635 -0.002174 -0.002679 -0.000513 0.000186 0.000266
# 2 -0.002174 0.014036 -0.004144 -0.004397 0.001136 -0.003965
# 3 -0.002679 -0.004144 0.010015 -0.002675 -0.001167 0.000768
# 4 -0.000513 -0.004397 -0.002675 0.031183 -0.000792 0.006270
# 5 0.000186 0.001136 -0.001167 -0.000792 0.023981 -0.006485
# 6 0.000266 -0.003965 0.000768 0.006270 -0.006485 0.035834
#
#
# Mechanical properties :
#
#
# Convention : Reuss Voigt Hill
#
# Bulk Modulus (GPa) = 73.04496 90.05037 81.54766
# Shear Modulus (GPa) = 34.42528 38.76040 36.59284
#
# Velocity S-wave (km/s) = 4.19359 4.44981 4.32360
# Velocity P-wave (km/s) = 7.79509 8.50902 8.15986
#
# Compressibility (1/GPa) = 0.01369020
#
# Stress axis : x y z
#
# Youngs Moduli (GPa) = 130.97411 71.24790 99.85278
#
# Poissons Ratio (x) = 0.15490 0.26752
# Poissons Ratio (y) = 0.28476 0.41381
# Poissons Ratio (z) = 0.35090 0.29527
#
# Static dielectric constant tensor:
#      x y z
#    x 18.836510 2.098540 2.002040 
#    y 2.098540 3.973840 0.390140 
#    z 2.002040 0.390140 3.918680 
# 
# 
# High freq. dielectric constant tensor:
#      x y z
#    x 1.772610 0.013320 -0.006630 
#    y 0.013320 1.771560 0.020780 
#    z -0.006630 0.020780 1.760320 
# 
# From -- ./inp_files/145256.got.cif
#   From: 2010.06.25/outbox.cif.g09.slc.cpg/sg2_73_cif.got.tgz:145256.got - 2010.06.27 13:26:56.
