data_PCOD8009688
_publ_section_title
;
Structure prediction by ZEFSAII (Michael W. Deem and Ramdas Pophale) SiO2 
 PCOD8009688
Probable space group: P -1
;
_chemical_formula_sum "Si O2"
_cell_formula_units_Z 16
_cell_length_a 18.883033
_cell_length_b 6.335985
_cell_length_c 8.791913
_cell_angle_alpha 45.891587
_cell_angle_beta 90.828969
_cell_angle_gamma 100.973599
_cell_volume 731.003018
_symmetry_space_group_name_H-M "P -1"
_symmetry_group_IT_number 2
_symmetry_cell_setting 'triclinic'
loop_
_space_group_symop_operation_xyz
x,y,z
-x,-y,-z
loop_
_atom_site_type_symbol
_atom_site_label
_atom_site_fract_x
_atom_site_fract_y
_atom_site_fract_z
Si Si1 0.154004 0.831009 0.677788
Si Si2 0.288234 0.213703 0.314943
Si Si3 0.898469 0.076795 0.042151
Si Si4 0.975475 0.538523 0.310297
Si Si5 0.772372 0.708007 0.049818
Si Si6 0.641965 0.330750 0.412222
Si Si7 0.397490 0.710786 0.229066
Si Si8 0.531691 0.598241 0.117361
O O1 0.126330 0.936079 0.779831
O O2 0.084715 0.760069 0.596375
O O3 0.184114 0.541605 0.863645
O O4 0.216084 0.100150 0.471420
O O5 0.329479 0.554735 0.195861
O O6 0.344770 0.002493 0.441671
O O7 0.267427 0.208638 0.140950
O O8 0.939103 0.814452 0.156090
O O9 0.827858 0.012335 0.961630
O O10 0.953234 0.395280 0.831968
O O11 0.000000 0.500000 0.500000
O O12 0.714372 0.583929 0.242738
O O13 0.622591 0.409373 0.542030
O O14 0.573881 0.347830 0.294421
O O15 0.468609 0.606512 0.230956
O O16 0.410482 0.073383 0.044918
O O17 0.500000 0.500000 0.000000
#
# Coordination Sequence:
#
# PCOD8009688 Si02
#       8
#     2   2   2   2   2   2   2   2
#     4  10  22  38  60  89 121 161 204 248 301 360
#     4  11  24  41  63  91 123 160 204 252 305 361
#     4  10  21  38  59  86 121 159 202 248 298 357
#     4  10  21  37  59  88 121 158 202 251 300 352
#     4  10  22  39  59  87 123 160 200 250 301 356
#     4  11  23  41  63  89 123 158 201 251 303 360
#     4  11  24  40  64  92 119 160 204 247 305 366
#     4  11  25  44  64  90 124 159 200 251 306 363
#
# _framework density 21.887733999999998
#
# number of rings (size 3 to 8) (size 9 to 14) (size 15 to 20)
#    0.000    1.500    0.000    4.500    0.000    9.500 
#    0.000    0.000    0.000    0.000    0.000    0.000 
#    0.000    0.000    0.000    0.000    0.000    0.000 
#
# Total GULP energy -198447.041316 kJ/mol
# GULP energy per Si atom -12402.940082 kJ/mol
# Density = 2.183792 g / cm^3
# Si number density = 21.887734 Si / 1000 Ang^3
#
#
#
# Elastic Constant Matrix: (Units=GPa)
#
#
# Indices 1 2 3 4 5 6 
#
# 1 102.9440 67.7248 58.9221 8.4196 -15.1221 22.5893
# 2 67.7248 128.4423 53.9501 16.5649 -11.9041 26.9379
# 3 58.9221 53.9501 109.0623 18.9682 -12.8520 12.8600
# 4 8.4196 16.5649 18.9682 39.8384 3.4348 -7.4699
# 5 -15.1221 -11.9041 -12.8520 3.4348 44.6888 12.9578
# 6 22.5893 26.9379 12.8600 -7.4699 12.9578 42.0229
#
#
#
# Elastic Compliance Matrix: (Units=1/GPa)
#
#
# Indices 1 2 3 4 5 6 
#
# 1 0.019115 -0.005630 -0.006099 -0.000447 0.005121 -0.006458
# 2 -0.005630 0.014206 -0.001543 -0.005831 0.004184 -0.007935
# 3 -0.006099 -0.001543 0.014829 -0.005787 0.002868 -0.002183
# 4 -0.000447 -0.005831 -0.005787 0.034078 -0.010336 0.014994
# 5 0.005121 0.004184 0.002868 -0.010336 0.032075 -0.018040
# 6 -0.006458 -0.007935 -0.002183 0.014994 -0.018040 0.041251
#
#
# Mechanical properties :
#
#
# Convention : Reuss Voigt Hill
#
# Bulk Modulus (GPa) = 46.28321 77.96030 62.12175
# Shear Modulus (GPa) = 26.41299 35.96679 31.18989
#
# Velocity S-wave (km/s) = 3.47760 4.05809 3.77900
# Velocity P-wave (km/s) = 6.10873 7.59296 6.89092
#
# Compressibility (1/GPa) = 0.02160611
#
# Stress axis : x y z
#
# Youngs Moduli (GPa) = 52.31454 70.39131 67.43438
#
# Poissons Ratio (x) = 0.39632 0.41129
# Poissons Ratio (y) = 0.29455 0.10404
# Poissons Ratio (z) = 0.31908 0.10860
#
# Static dielectric constant tensor:
#      x y z
#    x 4.322600 0.144310 -0.270490 
#    y 0.144310 3.891170 -0.051830 
#    z -0.270490 -0.051830 3.959780 
# 
# 
# High freq. dielectric constant tensor:
#      x y z
#    x 1.880040 0.005260 -0.016230 
#    y 0.005260 1.856670 0.010680 
#    z -0.016230 0.010680 1.859210 
# 
# From -- ./inp_files/10674.got.cif
#   From: 2010.06.25/outbox.cif.g09.slc.cpg/sg2_6_cif.got.tgz:10674.got - 2010.06.27 13:26:56.
