data_PCOD8009401
_publ_section_title
;
Structure prediction by ZEFSAII (Michael W. Deem and Ramdas Pophale) SiO2 
 PCOD8009401
Probable space group: P -1
;
_chemical_formula_sum "Si O2"
_cell_formula_units_Z 12
_cell_length_a 11.421879
_cell_length_b 10.086163
_cell_length_c 21.903106
_cell_angle_alpha 22.449713
_cell_angle_beta 150.406808
_cell_angle_gamma 141.707237
_cell_volume 473.482241
_symmetry_space_group_name_H-M "P -1"
_symmetry_group_IT_number 2
_symmetry_cell_setting 'triclinic'
loop_
_space_group_symop_operation_xyz
x,y,z
-x,-y,-z
loop_
_atom_site_type_symbol
_atom_site_label
_atom_site_fract_x
_atom_site_fract_y
_atom_site_fract_z
Si Si1 0.331012 0.168905 0.941535
Si Si2 0.334149 0.452726 0.614131
Si Si3 0.026535 0.388556 0.323277
Si Si4 0.326775 0.447093 0.000699
Si Si5 0.493949 0.183360 0.578043
Si Si6 0.824638 0.285174 0.447833
O O1 0.583980 0.320418 0.003834
O O2 0.245573 0.302544 0.778782
O O3 0.118082 0.313222 0.829153
O O4 0.409198 0.756552 0.161532
O O5 0.355294 0.632820 0.481560
O O6 0.269203 0.745010 0.512512
O O7 0.113179 0.214721 0.606741
O O8 0.310900 0.443364 0.427159
O O9 0.000000 0.000000 0.500000
O O10 0.938642 0.434309 0.193422
O O11 0.335966 0.055114 0.197953
O O12 0.500000 0.500000 0.000000
O O13 0.300782 0.959583 0.551424
#
# Coordination Sequence:
#
# PCOD8009401 Si02
#       6
#     2   2   2   2   2   2
#     4  10  21  36  63  89 124 163 201 249 310 359
#     4  11  24  39  63  95 121 161 210 255 297 361
#     4  11  19  36  64  90 121 163 200 246 310 366
#     4   9  18  35  60  87 119 164 201 236 307 366
#     4  11  22  39  65  92 123 162 205 248 306 371
#     4  10  22  44  63  84 130 164 202 254 308 352
#
# _framework density 25.344141
#
# number of rings (size 3 to 8) (size 9 to 14) (size 15 to 20)
#    0.000    1.667    5.000    2.000    0.000    2.000 
#    0.000    5.833    0.000   12.000    0.000    0.000 
#    0.000    0.000    0.000    0.000    0.000    0.000 
#
# Total GULP energy -148686.638347 kJ/mol
# GULP energy per Si atom -12390.553196 kJ/mol
# Density = 2.528646 g / cm^3
# Si number density = 25.344141 Si / 1000 Ang^3
#
#
#
# Elastic Constant Matrix: (Units=GPa)
#
#
# Indices 1 2 3 4 5 6 
#
# 1 150.0495 15.0488 62.2461 -2.4447 -11.8102 20.6734
# 2 15.0488 43.1761 16.9386 9.1726 6.9780 11.1471
# 3 62.2461 16.9386 165.0350 16.1719 1.0789 16.1304
# 4 -2.4447 9.1726 16.1719 36.9433 4.2542 -0.6752
# 5 -11.8102 6.9780 1.0789 4.2542 32.5575 10.0470
# 6 20.6734 11.1471 16.1304 -0.6752 10.0470 32.4513
#
#
#
# Elastic Compliance Matrix: (Units=1/GPa)
#
#
# Indices 1 2 3 4 5 6 
#
# 1 0.009277 -0.001888 -0.002977 0.001676 0.005314 -0.005392
# 2 -0.001888 0.027889 -0.000818 -0.006399 -0.003647 -0.006975
# 3 -0.002977 -0.000818 0.007766 -0.003402 -0.000195 -0.001693
# 4 0.001676 -0.006399 -0.003402 0.030720 -0.003306 0.004485
# 5 0.005314 -0.003647 -0.000195 -0.003306 0.038157 -0.013918
# 6 -0.005392 -0.006975 -0.001693 0.004485 -0.013918 0.041890
#
#
# Mechanical properties :
#
#
# Convention : Reuss Voigt Hill
#
# Bulk Modulus (GPa) = 29.79127 60.74751 45.26939
# Shear Modulus (GPa) = 28.04951 37.99223 33.02087
#
# Velocity S-wave (km/s) = 3.33039 3.87596 3.61349
# Velocity P-wave (km/s) = 5.15450 6.63716 5.94225
#
# Compressibility (1/GPa) = 0.03356688
#
# Stress axis : x y z
#
# Youngs Moduli (GPa) = 107.78955 35.85581 128.76102
#
# Poissons Ratio (x) = 0.06770 0.38335
# Poissons Ratio (y) = 0.20353 0.10529
# Poissons Ratio (z) = 0.32092 0.02932
#
# Static dielectric constant tensor:
#      x y z
#    x 4.485770 -0.154260 -0.060010 
#    y -0.154260 4.784810 0.610280 
#    z -0.060010 0.610280 5.271010 
# 
# 
# High freq. dielectric constant tensor:
#      x y z
#    x 2.002170 -0.008290 -0.002810 
#    y -0.008290 2.001540 0.027290 
#    z -0.002810 0.027290 2.030410 
# 
# From -- ./inp_files/175773.got.cif
#   From: 2010.06.25/outbox.cif.g09.slc.cpg/sg2_88_cif.got.tgz:175773.got - 2010.06.27 13:26:56.
