data_PCOD8009251
_publ_section_title
;
Structure prediction by ZEFSAII (Michael W. Deem and Ramdas Pophale) SiO2 
 PCOD8009251
Probable space group: P -1
;
_chemical_formula_sum "Si O2"
_cell_formula_units_Z 16
_cell_length_a 21.863842
_cell_length_b 11.909550
_cell_length_c 6.722920
_cell_angle_alpha 104.657005
_cell_angle_beta 109.380530
_cell_angle_gamma 136.092278
_cell_volume 754.593775
_symmetry_space_group_name_H-M "P -1"
_symmetry_group_IT_number 2
_symmetry_cell_setting 'triclinic'
loop_
_space_group_symop_operation_xyz
x,y,z
-x,-y,-z
loop_
_atom_site_type_symbol
_atom_site_label
_atom_site_fract_x
_atom_site_fract_y
_atom_site_fract_z
Si Si1 0.975184 0.511310 0.693682
Si Si2 0.910288 0.675853 0.730587
Si Si3 0.073423 0.113594 0.839513
Si Si4 0.366072 0.502431 0.423792
Si Si5 0.481048 0.720652 0.240264
Si Si6 0.222721 0.896719 0.405557
Si Si7 0.609887 0.254569 0.136416
Si Si8 0.364087 0.346287 0.709456
O O1 0.974479 0.649799 0.771337
O O2 0.831426 0.230927 0.494358
O O3 0.000000 0.500000 0.500000
O O4 0.106107 0.670183 0.026682
O O5 0.756144 0.422488 0.366038
O O6 0.917549 0.741604 0.991627
O O7 0.991598 0.895781 0.788102
O O8 0.224965 0.300217 0.063704
O O9 0.000000 0.000000 0.500000
O O10 0.484188 0.702568 0.472933
O O11 0.387400 0.627420 0.674906
O O12 0.370002 0.385773 0.495660
O O13 0.632026 0.932723 0.411973
O O14 0.439539 0.786339 0.158843
O O15 0.357447 0.449085 0.887304
O O16 0.236896 0.059434 0.485530
O O17 0.500000 0.000000 0.000000
O O18 0.500000 0.500000 0.000000
#
# Coordination Sequence:
#
# PCOD8009251 Si02
#       8
#     2   2   2   2   2   2   2   2
#     4  11  25  42  61  85 121 169 208 248 302 365
#     4  10  22  40  61  90 123 157 207 255 303 368
#     4  10  21  38  64  93 123 158 199 256 315 365
#     4  10  21  36  59  92 119 155 205 249 312 381
#     4  10  21  38  62  90 121 154 199 258 316 368
#     4  10  23  40  58  86 119 157 207 252 300 366
#     4  10  21  38  59  86 123 160 197 253 313 367
#     4   9  20  37  58  84 118 155 196 255 308 356
#
# _framework density 21.203461999999998
#
# number of rings (size 3 to 8) (size 9 to 14) (size 15 to 20)
#    0.000    2.000    0.000    2.250    0.000   13.500 
#    0.000    0.000    0.000    0.000    0.000    0.000 
#    0.000    0.000    0.000    0.000    0.000    0.000 
#
# Total GULP energy -198273.231072 kJ/mol
# GULP energy per Si atom -12392.076942 kJ/mol
# Density = 2.115520 g / cm^3
# Si number density = 21.203462 Si / 1000 Ang^3
#
#
#
# Elastic Constant Matrix: (Units=GPa)
#
#
# Indices 1 2 3 4 5 6 
#
# 1 82.1212 35.0029 41.9398 -11.8151 8.3541 1.9309
# 2 35.0029 119.6889 43.2294 -8.7393 3.9696 0.8256
# 3 41.9398 43.2294 83.2693 -10.1816 12.6004 1.6576
# 4 -11.8151 -8.7393 -10.1816 44.5998 4.3083 2.3167
# 5 8.3541 3.9696 12.6004 4.3083 19.2321 -1.6011
# 6 1.9309 0.8256 1.6576 2.3167 -1.6011 37.4403
#
#
#
# Elastic Compliance Matrix: (Units=1/GPa)
#
#
# Indices 1 2 3 4 5 6 
#
# 1 0.017363 -0.002347 -0.006616 0.003011 -0.003472 -0.000886
# 2 -0.002347 0.010658 -0.004596 0.000237 0.001791 0.000151
# 3 -0.006616 -0.004596 0.019558 0.002802 -0.009704 -0.001012
# 4 0.003011 0.000237 0.002802 0.024884 -0.008951 -0.002207
# 5 -0.003472 0.001791 -0.009704 -0.008951 0.061811 0.003766
# 6 -0.000886 0.000151 -0.001012 -0.002207 0.003766 0.027094
#
#
# Mechanical properties :
#
#
# Convention : Reuss Voigt Hill
#
# Bulk Modulus (GPa) = 48.87061 58.38041 53.62551
# Shear Modulus (GPa) = 25.60053 31.24827 28.42440
#
# Velocity S-wave (km/s) = 3.47850 3.84309 3.66533
# Velocity P-wave (km/s) = 6.26352 6.87646 6.57713
#
# Compressibility (1/GPa) = 0.02046220
#
# Stress axis : x y z
#
# Youngs Moduli (GPa) = 57.59215 93.82326 51.12901
#
# Poissons Ratio (x) = 0.22024 0.33825
# Poissons Ratio (y) = 0.13519 0.23499
# Poissons Ratio (z) = 0.38100 0.43121
#
# Static dielectric constant tensor:
#      x y z
#    x 3.980530 -0.159710 -0.023940 
#    y -0.159710 3.907920 -0.023990 
#    z -0.023940 -0.023990 3.840540 
# 
# 
# High freq. dielectric constant tensor:
#      x y z
#    x 1.815420 -0.007060 0.012790 
#    y -0.007060 1.844850 0.001960 
#    z 0.012790 0.001960 1.834250 
# 
# From -- ./inp_files/123723.got.cif
#   From: 2010.06.25/outbox.cif.g09.slc.cpg/sg2_62_cif.got.tgz:123723.got - 2010.06.27 13:26:56.
