data_PCOD8009200
_publ_section_title
;
Structure prediction by ZEFSAII (Michael W. Deem and Ramdas Pophale) SiO2 
 PCOD8009200
Probable space group: P -1
;
_chemical_formula_sum "Si O2"
_cell_formula_units_Z 12
_cell_length_a 8.931055
_cell_length_b 6.150617
_cell_length_c 15.429195
_cell_angle_alpha 84.083871
_cell_angle_beta 126.183996
_cell_angle_gamma 123.141380
_cell_volume 541.685980
_symmetry_space_group_name_H-M "P -1"
_symmetry_group_IT_number 2
_symmetry_cell_setting 'triclinic'
loop_
_space_group_symop_operation_xyz
x,y,z
-x,-y,-z
loop_
_atom_site_type_symbol
_atom_site_label
_atom_site_fract_x
_atom_site_fract_y
_atom_site_fract_z
Si Si1 0.878193 0.376815 0.835171
Si Si2 0.468923 0.746112 0.764061
Si Si3 0.994849 0.514760 0.674740
Si Si4 0.683239 0.939306 0.547325
Si Si5 0.647769 0.542688 0.440109
Si Si6 0.816018 0.678565 0.946743
O O1 0.823330 0.552469 0.864406
O O2 0.914578 0.490900 0.746712
O O3 0.666687 0.052178 0.783965
O O4 0.123478 0.443528 0.948917
O O5 0.272748 0.742571 0.749088
O O6 0.340238 0.527632 0.650863
O O7 0.568795 0.628926 0.867613
O O8 0.860429 0.586608 0.564235
O O9 0.936590 0.221116 0.639798
O O10 0.674929 0.826241 0.451888
O O11 0.609692 0.698070 0.599736
O O12 0.500000 0.000000 0.500000
O O13 0.000000 0.000000 0.000000
#
# Coordination Sequence:
#
# PCOD8009200 Si02
#       6
#     2   2   2   2   2   2
#     4  10  22  43  62  84 122 155 201 253 297 351
#     4  11  23  38  62  91 121 158 201 244 295 357
#     4  11  23  37  61  92 122 159 197 242 300 354
#     4   9  20  36  57  86 120 164 198 235 291 348
#     4  10  21  36  58  90 125 158 199 240 292 358
#     4   9  22  42  64  86 114 160 202 249 302 350
#
# _framework density 22.153054999999998
#
# number of rings (size 3 to 8) (size 9 to 14) (size 15 to 20)
#    0.000    2.000    1.667    0.500    7.000    2.667 
#    0.000    7.500    0.000    0.000    0.000    0.000 
#    0.000    0.000    0.000    0.000    0.000    0.000 
#
# Total GULP energy -148660.907852 kJ/mol
# GULP energy per Si atom -12388.408988 kJ/mol
# Density = 2.210263 g / cm^3
# Si number density = 22.153055 Si / 1000 Ang^3
#
#
#
# Elastic Constant Matrix: (Units=GPa)
#
#
# Indices 1 2 3 4 5 6 
#
# 1 89.0951 39.2886 41.6890 11.3719 14.0376 -4.6326
# 2 39.2886 50.5580 32.8093 9.5773 -4.9565 -20.3917
# 3 41.6890 32.8093 106.3371 4.2228 13.7311 -1.9093
# 4 11.3719 9.5773 4.2228 25.7950 -15.2248 -7.3039
# 5 14.0376 -4.9565 13.7311 -15.2248 39.8636 8.0101
# 6 -4.6326 -20.3917 -1.9093 -7.3039 8.0101 40.7442
#
#
#
# Elastic Compliance Matrix: (Units=1/GPa)
#
#
# Indices 1 2 3 4 5 6 
#
# 1 0.023914 -0.019365 -0.001148 -0.013447 -0.014235 -0.006638
# 2 -0.019365 0.049385 -0.009377 0.005984 0.014392 0.020318
# 3 -0.001148 -0.009377 0.013522 -0.002590 -0.005699 -0.003534
# 4 -0.013447 0.005984 -0.002590 0.061678 0.028564 0.006785
# 5 -0.014235 0.014392 -0.005699 0.028564 0.044417 0.001706
# 6 -0.006638 0.020318 -0.003534 0.006785 0.001706 0.034673
#
#
# Mechanical properties :
#
#
# Convention : Reuss Voigt Hill
#
# Bulk Modulus (GPa) = 36.97750 52.61822 44.79786
# Shear Modulus (GPa) = 16.87007 30.09414 23.48210
#
# Velocity S-wave (km/s) = 2.76257 3.68973 3.25929
# Velocity P-wave (km/s) = 5.18688 6.47734 5.86769
#
# Compressibility (1/GPa) = 0.02704347
#
# Stress axis : x y z
#
# Youngs Moduli (GPa) = 41.81574 20.24910 73.95164
#
# Poissons Ratio (x) = 0.39212 0.08488
# Poissons Ratio (y) = 0.80976 0.69341
# Poissons Ratio (z) = 0.04799 0.18987
#
# Static dielectric constant tensor:
#      x y z
#    x 3.908500 -0.311080 0.184920 
#    y -0.311080 4.426220 0.248830 
#    z 0.184920 0.248830 4.410650 
# 
# 
# High freq. dielectric constant tensor:
#      x y z
#    x 1.859880 -0.029320 0.006150 
#    y -0.029320 1.862930 0.011440 
#    z 0.006150 0.011440 1.872630 
# 
# From -- ./inp_files/42189.got.cif
#   From: 2010.06.25/outbox.cif.g09.slc.cpg/sg2_22_cif.got.tgz:42189.got - 2010.06.27 13:26:56.
