data_PCOD8009537
_publ_section_title
;
Structure prediction by ZEFSAII (Michael W. Deem and Ramdas Pophale) SiO2 
 PCOD8009537
Probable space group: P -1
;
_chemical_formula_sum "Si O2"
_cell_formula_units_Z 16
_cell_length_a 21.519227
_cell_length_b 21.751882
_cell_length_c 9.529892
_cell_angle_alpha 36.750028
_cell_angle_beta 133.770820
_cell_angle_gamma 161.042351
_cell_volume 815.534850
_symmetry_space_group_name_H-M "P -1"
_symmetry_group_IT_number 2
_symmetry_cell_setting 'triclinic'
loop_
_space_group_symop_operation_xyz
x,y,z
-x,-y,-z
loop_
_atom_site_type_symbol
_atom_site_label
_atom_site_fract_x
_atom_site_fract_y
_atom_site_fract_z
Si Si1 0.515073 0.468589 0.932066
Si Si2 0.034094 0.438309 0.342717
Si Si3 0.806101 0.397682 0.009606
Si Si4 0.668847 0.637111 0.414960
Si Si5 0.054294 0.135268 0.216257
Si Si6 0.615717 0.891380 0.692247
Si Si7 0.453944 0.901888 0.258523
Si Si8 0.737174 0.501023 0.925556
O O1 0.425289 0.461323 0.706634
O O2 0.748483 0.694531 0.862029
O O3 0.500000 0.500000 0.000000
O O4 0.385306 0.225061 0.154068
O O5 0.127449 0.493672 0.241397
O O6 0.209510 0.627665 0.391406
O O7 0.847251 0.165375 0.599017
O O8 0.963698 0.479213 0.145376
O O9 0.824590 0.503438 0.964749
O O10 0.569803 0.103326 0.179978
O O11 0.500000 0.500000 0.500000
O O12 0.714387 0.570681 0.654315
O O13 0.864407 0.926115 0.195655
O O14 0.101658 0.296864 0.067723
O O15 0.000000 0.000000 0.500000
O O16 0.549561 0.893037 0.455366
O O17 0.475107 0.755160 0.859858
O O18 0.500000 0.000000 0.000000
#
# Coordination Sequence:
#
# PCOD8009537 Si02
#       8
#     2   2   2   2   2   2   2   2
#     4  11  24  39  60  94 123 153 203 254 293 350
#     4   9  19  37  59  79 113 152 188 241 302 350
#     4   9  19  38  57  84 112 147 195 243 292 350
#     4  11  20  42  64  82 123 169 197 238 305 359
#     4   9  19  38  60  82 118 162 197 243 293 350
#     4  10  21  37  56  85 117 148 191 249 289 341
#     4   9  19  37  58  78 115 152 188 238 298 349
#     4  10  21  38  60  88 119 153 199 247 289 353
#
# _framework density 19.619026999999999
#
# number of rings (size 3 to 8) (size 9 to 14) (size 15 to 20)
#    0.000    2.250    3.750    0.750    0.000    8.500 
#    2.250    1.250    0.000    0.000    0.000    0.000 
#    0.000    0.000    0.000    0.000    0.000    0.000 
#
# Total GULP energy -198227.464424 kJ/mol
# GULP energy per Si atom -12389.216526 kJ/mol
# Density = 1.957437 g / cm^3
# Si number density = 19.619027 Si / 1000 Ang^3
#
#
#
# Elastic Constant Matrix: (Units=GPa)
#
#
# Indices 1 2 3 4 5 6 
#
# 1 140.2808 38.9636 32.9666 -8.7836 -4.1800 -11.2280
# 2 38.9636 142.2965 31.7969 -21.8091 -7.5671 2.0900
# 3 32.9666 31.7969 84.3408 -8.9975 0.2807 -1.1306
# 4 -8.7836 -21.8091 -8.9975 42.3750 1.3949 -4.5817
# 5 -4.1800 -7.5671 0.2807 1.3949 19.2316 5.8498
# 6 -11.2280 2.0900 -1.1306 -4.5817 5.8498 14.5507
#
#
#
# Elastic Compliance Matrix: (Units=1/GPa)
#
#
# Indices 1 2 3 4 5 6 
#
# 1 0.008910 -0.001863 -0.002539 0.001236 -0.001231 0.007830
# 2 -0.001863 0.008796 -0.002311 0.003146 0.003915 -0.003464
# 3 -0.002539 -0.002311 0.013882 0.001369 -0.001968 0.000674
# 4 0.001236 0.003146 0.001369 0.027034 -0.003701 0.010608
# 5 -0.001231 0.003915 -0.001968 -0.003701 0.062012 -0.027761
# 6 0.007830 -0.003464 0.000674 0.010608 -0.027761 0.089818
#
#
# Mechanical properties :
#
#
# Convention : Reuss Voigt Hill
#
# Bulk Modulus (GPa) = 55.06687 63.81917 59.44302
# Shear Modulus (GPa) = 21.74541 32.77753 27.26147
#
# Velocity S-wave (km/s) = 3.33285 4.09186 3.73170
# Velocity P-wave (km/s) = 6.55283 7.41109 6.99513
#
# Compressibility (1/GPa) = 0.01815974
#
# Stress axis : x y z
#
# Youngs Moduli (GPa) = 112.22954 113.69277 72.03410
#
# Poissons Ratio (x) = 0.21186 0.18292
# Poissons Ratio (y) = 0.20913 0.16650
# Poissons Ratio (z) = 0.28499 0.26280
#
# Static dielectric constant tensor:
#      x y z
#    x 3.273470 0.075350 -0.000880 
#    y 0.075350 5.172140 -0.086130 
#    z -0.000880 -0.086130 3.522940 
# 
# 
# High freq. dielectric constant tensor:
#      x y z
#    x 1.734470 -0.000680 0.002720 
#    y -0.000680 1.778400 -0.011510 
#    z 0.002720 -0.011510 1.767040 
# 
# From -- ./inp_files/349441.got.cif
#   From: 2010.06.25/outbox.cif.g09.slc.cpg/sg2_175_cif.got.tgz:349441.got - 2010.06.27 13:26:56.
