data_PCOD8009794
_publ_section_title
;
Structure prediction by ZEFSAII (Michael W. Deem and Ramdas Pophale) SiO2 
 PCOD8009794
Probable space group: P -1
;
_chemical_formula_sum "Si O2"
_cell_formula_units_Z 16
_cell_length_a 6.982745
_cell_length_b 18.144080
_cell_length_c 19.353966
_cell_angle_alpha 150.491287
_cell_angle_beta 44.151330
_cell_angle_gamma 124.850307
_cell_volume 831.187627
_symmetry_space_group_name_H-M "P -1"
_symmetry_group_IT_number 2
_symmetry_cell_setting 'triclinic'
loop_
_space_group_symop_operation_xyz
x,y,z
-x,-y,-z
loop_
_atom_site_type_symbol
_atom_site_label
_atom_site_fract_x
_atom_site_fract_y
_atom_site_fract_z
Si Si1 0.778139 0.858978 0.509582
Si Si2 0.113436 0.627561 0.030884
Si Si3 0.281519 0.013292 0.856723
Si Si4 0.765865 0.933411 0.420205
Si Si5 0.163941 0.486347 0.755912
Si Si6 0.294285 0.081660 0.064142
Si Si7 0.736835 0.575058 0.671654
Si Si8 0.257388 0.358760 0.120228
O O1 0.667739 0.885819 0.481998
O O2 0.874313 0.682248 0.352272
O O3 0.538274 0.925056 0.677545
O O4 0.048018 0.935540 0.514706
O O5 0.930585 0.789430 0.221322
O O6 0.099609 0.595303 0.927109
O O7 0.427400 0.635052 0.979698
O O8 0.000000 0.500000 0.000000
O O9 0.362647 0.003926 0.908739
O O10 0.203405 0.186068 0.993066
O O11 0.020967 0.927725 0.840047
O O12 0.500000 0.000000 0.500000
O O13 0.478221 0.488821 0.650578
O O14 0.947481 0.543846 0.799657
O O15 0.347271 0.252776 0.188981
O O16 0.500000 0.000000 0.000000
O O17 0.807475 0.564446 0.725840
O O18 0.000000 0.500000 0.500000
#
# Coordination Sequence:
#
# PCOD8009794 Si02
#       8
#     2   2   2   2   2   2   2   2
#     4  11  24  42  59  94 123 156 206 251 297 362
#     4  11  23  43  61  89 126 157 204 253 295 367
#     4  10  21  39  59  85 123 153 198 253 291 359
#     4  11  26  42  63  90 123 161 203 251 307 356
#     4  11  24  38  66  91 121 166 202 243 311 356
#     4  10  21  37  61  87 114 159 200 239 304 356
#     4  10  22  40  59  90 127 154 203 254 293 362
#     4  10  23  40  62  90 122 164 202 247 305 360
#
# _framework density 19.249565
#
# number of rings (size 3 to 8) (size 9 to 14) (size 15 to 20)
#    0.000    1.500    2.500    1.500    3.500    3.000 
#    0.000    0.000    0.000    0.000    0.000    0.000 
#    0.000    0.000    0.000    0.000    0.000    0.000 
#
# Total GULP energy -198494.502844 kJ/mol
# GULP energy per Si atom -12405.906428 kJ/mol
# Density = 1.920575 g / cm^3
# Si number density = 19.249565 Si / 1000 Ang^3
#
#
#
# Elastic Constant Matrix: (Units=GPa)
#
#
# Indices 1 2 3 4 5 6 
#
# 1 155.1259 64.8831 63.8520 4.1094 -19.9113 -23.1074
# 2 64.8831 120.8211 35.6750 3.1979 -7.7022 -2.4399
# 3 63.8520 35.6750 94.2003 -10.5992 -4.7855 0.8611
# 4 4.1094 3.1979 -10.5992 42.6077 2.4253 0.2518
# 5 -19.9113 -7.7022 -4.7855 2.4253 18.5029 4.6004
# 6 -23.1074 -2.4399 0.8611 0.2518 4.6004 24.9533
#
#
#
# Elastic Compliance Matrix: (Units=1/GPa)
#
#
# Indices 1 2 3 4 5 6 
#
# 1 0.014947 -0.004582 -0.008451 -0.003812 0.009515 0.011969
# 2 -0.004582 0.011033 -0.001105 -0.000656 0.000249 -0.003166
# 3 -0.008451 -0.001105 0.017253 0.005455 -0.003849 -0.007875
# 4 -0.003812 -0.000656 0.005455 0.025579 -0.005568 -0.003014
# 5 0.009515 0.000249 -0.003849 -0.005568 0.064852 -0.002932
# 6 0.011969 -0.003166 -0.007875 -0.003014 -0.002932 0.051691
#
#
# Mechanical properties :
#
#
# Convention : Reuss Voigt Hill
#
# Bulk Modulus (GPa) = 66.85990 77.66307 72.26149
# Shear Modulus (GPa) = 22.87124 30.92859 26.89991
#
# Velocity S-wave (km/s) = 3.45068 4.01273 3.74228
# Velocity P-wave (km/s) = 7.11933 7.86780 7.50291
#
# Compressibility (1/GPa) = 0.01495665
#
# Stress axis : x y z
#
# Youngs Moduli (GPa) = 66.90490 90.63823 57.96206
#
# Poissons Ratio (x) = 0.41531 0.48984
# Poissons Ratio (y) = 0.30656 0.06403
# Poissons Ratio (z) = 0.56541 0.10013
#
# Static dielectric constant tensor:
#      x y z
#    x 3.612320 0.190490 0.220720 
#    y 0.190490 3.964120 0.015560 
#    z 0.220720 0.015560 3.549200 
# 
# 
# High freq. dielectric constant tensor:
#      x y z
#    x 1.749300 0.003960 0.005630 
#    y 0.003960 1.771760 0.000640 
#    z 0.005630 0.000640 1.753870 
# 
# From -- ./inp_files/37294.got.cif
#   From: 2010.06.25/outbox.cif.g09.slc.cpg/sg2_19_cif.got.tgz:37294.got - 2010.06.27 13:26:56.
