data_PCOD8009454
_publ_section_title
;
Structure prediction by ZEFSAII (Michael W. Deem and Ramdas Pophale) SiO2 
 PCOD8009454
Probable space group: P -1
;
_chemical_formula_sum "Si O2"
_cell_formula_units_Z 16
_cell_length_a 9.105277
_cell_length_b 12.033250
_cell_length_c 9.104386
_cell_angle_alpha 50.497360
_cell_angle_beta 78.026327
_cell_angle_gamma 95.116001
_cell_volume 719.904886
_symmetry_space_group_name_H-M "P -1"
_symmetry_group_IT_number 2
_symmetry_cell_setting 'triclinic'
loop_
_space_group_symop_operation_xyz
x,y,z
-x,-y,-z
loop_
_atom_site_type_symbol
_atom_site_label
_atom_site_fract_x
_atom_site_fract_y
_atom_site_fract_z
Si Si1 0.324616 0.320066 0.836129
Si Si2 0.229826 0.740690 0.077931
Si Si3 0.051200 0.481154 0.166565
Si Si4 0.733933 0.251016 0.480239
Si Si5 0.338193 0.371607 0.122373
Si Si6 0.679441 0.014509 0.918581
Si Si7 0.540365 0.171978 0.304705
Si Si8 0.664815 0.440934 0.565626
O O1 0.502791 0.428391 0.692922
O O2 0.241918 0.396803 0.663829
O O3 0.274026 0.342885 0.992870
O O4 0.289799 0.145903 0.950756
O O5 0.083764 0.652696 0.080175
O O6 0.214926 0.881261 0.061314
O O7 0.225488 0.601399 0.302204
O O8 0.389505 0.797892 0.899638
O O9 0.204145 0.418978 0.199591
O O10 0.910088 0.358291 0.378052
O O11 0.000000 0.500000 0.000000
O O12 0.725297 0.085547 0.685999
O O13 0.674961 0.257099 0.320887
O O14 0.620673 0.313158 0.555054
O O15 0.380802 0.223513 0.300742
O O16 0.500000 0.500000 0.000000
O O17 0.500000 0.000000 0.000000
O O18 0.500000 0.000000 0.500000
#
# Coordination Sequence:
#
# PCOD8009454 Si02
#       8
#     2   2   2   2   2   2   2   2
#     4  11  20  37  62  95 135 167 217 283 338 385
#     4  11  22  42  64  96 130 177 222 274 336 401
#     4  12  24  44  68  98 143 178 229 281 341 403
#     4  11  23  41  69  99 132 182 218 279 352 393
#     4  12  22  41  69 100 134 175 233 284 325 401
#     4  11  21  41  65  98 137 173 219 280 338 408
#     4  12  23  40  67 103 133 173 231 278 342 401
#     4  10  21  36  64  95 126 168 223 275 334 394
#
# _framework density 22.225156999999999
#
# number of rings (size 3 to 8) (size 9 to 14) (size 15 to 20)
#    0.000    0.750    6.250    3.000    0.000    3.000 
#    0.000    2.500    0.000    3.750    0.000    0.000 
#    0.000    0.000    0.000    0.000    0.000    0.000 
#
# Total GULP energy -198240.587572 kJ/mol
# GULP energy per Si atom -12390.036723 kJ/mol
# Density = 2.217457 g / cm^3
# Si number density = 22.225157 Si / 1000 Ang^3
#
#
#
# Elastic Constant Matrix: (Units=GPa)
#
#
# Indices 1 2 3 4 5 6 
#
# 1 53.6040 15.5341 14.5760 -4.9778 -3.4332 7.6382
# 2 15.5341 113.5905 42.9446 -6.2691 12.4050 10.9292
# 3 14.5760 42.9446 130.1726 -19.0952 17.4992 2.7077
# 4 -4.9778 -6.2691 -19.0952 44.0896 -1.6468 4.9400
# 5 -3.4332 12.4050 17.4992 -1.6468 33.3633 -1.0116
# 6 7.6382 10.9292 2.7077 4.9400 -1.0116 29.7039
#
#
#
# Elastic Compliance Matrix: (Units=1/GPa)
#
#
# Indices 1 2 3 4 5 6 
#
# 1 0.020814 -0.002031 -0.001788 0.001948 0.003790 -0.004637
# 2 -0.002031 0.010803 -0.002837 0.000348 -0.002822 -0.003348
# 3 -0.001788 -0.002837 0.009898 0.003541 -0.004150 -0.000129
# 4 0.001948 0.000348 0.003541 0.025034 -0.000706 -0.005139
# 5 0.003790 -0.002822 -0.004150 -0.000706 0.033606 0.001704
# 6 -0.004637 -0.003348 -0.000129 -0.005139 0.001704 0.037014
#
#
# Mechanical properties :
#
#
# Convention : Reuss Voigt Hill
#
# Bulk Modulus (GPa) = 35.45459 49.27518 42.36488
# Shear Modulus (GPa) = 31.27302 36.38553 33.82927
#
# Velocity S-wave (km/s) = 3.75520 4.05054 3.90566
# Velocity P-wave (km/s) = 5.89823 6.64040 6.28029
#
# Compressibility (1/GPa) = 0.02820509
#
# Stress axis : x y z
#
# Youngs Moduli (GPa) = 48.04360 92.56476 101.02899
#
# Poissons Ratio (x) = 0.18798 0.18065
# Poissons Ratio (y) = 0.09756 0.28657
# Poissons Ratio (z) = 0.08591 0.26256
#
# Static dielectric constant tensor:
#      x y z
#    x 4.131610 -0.114180 0.176450 
#    y -0.114180 4.443620 0.014070 
#    z 0.176450 0.014070 4.476410 
# 
# 
# High freq. dielectric constant tensor:
#      x y z
#    x 1.834890 0.006530 0.011220 
#    y 0.006530 1.884510 0.004490 
#    z 0.011220 0.004490 1.889300 
# 
# From -- ./inp_files/184129.got.cif
#   From: 2010.06.25/outbox.cif.g09.slc.cpg/sg2_93_cif.got.tgz:184129.got - 2010.06.27 13:26:56.
