data_PCOD8009892
_publ_section_title
;
Structure prediction by ZEFSAII (Michael W. Deem and Ramdas Pophale) SiO2 
 PCOD8009892
Probable space group: P -1
;
_chemical_formula_sum "Si O2"
_cell_formula_units_Z 16
_cell_length_a 11.732964
_cell_length_b 8.825558
_cell_length_c 8.883282
_cell_angle_alpha 85.268886
_cell_angle_beta 122.571712
_cell_angle_gamma 85.361518
_cell_volume 763.902078
_symmetry_space_group_name_H-M "P -1"
_symmetry_group_IT_number 2
_symmetry_cell_setting 'triclinic'
loop_
_space_group_symop_operation_xyz
x,y,z
-x,-y,-z
loop_
_atom_site_type_symbol
_atom_site_label
_atom_site_fract_x
_atom_site_fract_y
_atom_site_fract_z
Si Si1 0.864439 0.900730 0.589293
Si Si2 0.354564 0.912581 0.009424
Si Si3 0.445404 0.702681 0.831031
Si Si4 0.438965 0.998718 0.618222
Si Si5 0.720176 0.516943 0.125612
Si Si6 0.037765 0.865896 0.160131
Si Si7 0.825385 0.811858 0.248703
Si Si8 0.881149 0.270899 0.057893
O O1 0.905358 0.869958 0.444688
O O2 0.964105 0.776165 0.766476
O O3 0.704129 0.884840 0.488383
O O4 0.874754 0.072161 0.647017
O O5 0.446049 0.932811 0.214127
O O6 0.447034 0.792327 0.981191
O O7 0.210075 0.859606 0.951968
O O8 0.317731 0.073215 0.880191
O O9 0.418937 0.825190 0.666800
O O10 0.324272 0.597248 0.768021
O O11 0.591265 0.596069 0.928989
O O12 0.500000 0.000000 0.500000
O O13 0.794560 0.638478 0.260662
O O14 0.820424 0.432037 0.076253
O O15 0.907455 0.812847 0.150825
O O16 0.114686 0.723720 0.124290
O O17 0.000000 0.000000 0.000000
#
# Coordination Sequence:
#
# PCOD8009892 Si02
#       8
#     2   2   2   2   2   2   2   2
#     4  11  23  38  64 100 125 156 221 283 308 358
#     4  11  20  40  66  95 121 172 226 257 311 377
#     4  10  21  41  64  92 128 175 215 256 318 389
#     4  12  24  36  66 102 124 156 218 282 314 363
#     4  10  23  39  64  93 135 177 212 248 324 403
#     4  10  21  37  62  91 126 166 211 265 315 366
#     4  12  21  37  68  96 124 167 218 265 310 381
#     4  10  23  42  63  92 133 175 206 261 329 381
#
# _framework density 20.945093
#
# number of rings (size 3 to 8) (size 9 to 14) (size 15 to 20)
#    0.000    1.250    5.000    2.250    1.750    1.000 
#    0.000    0.000    0.000   23.250    0.000    0.000 
#    0.000    0.000    0.000    0.000    0.000    0.000 
#
# Total GULP energy -198282.527602 kJ/mol
# GULP energy per Si atom -12392.657975 kJ/mol
# Density = 2.089742 g / cm^3
# Si number density = 20.945093 Si / 1000 Ang^3
#
#
#
# Elastic Constant Matrix: (Units=GPa)
#
#
# Indices 1 2 3 4 5 6 
#
# 1 89.4055 47.7403 54.9695 -1.7838 -11.1127 -6.0444
# 2 47.7403 120.0217 57.1869 11.9655 -2.2230 -6.5119
# 3 54.9695 57.1869 115.8904 22.9059 -4.7958 -3.9226
# 4 -1.7838 11.9655 22.9059 26.4999 -0.6206 1.6369
# 5 -11.1127 -2.2230 -4.7958 -0.6206 33.2826 -3.0205
# 6 -6.0444 -6.5119 -3.9226 1.6369 -3.0205 41.5760
#
#
#
# Elastic Compliance Matrix: (Units=1/GPa)
#
#
# Indices 1 2 3 4 5 6 
#
# 1 0.020489 -0.004629 -0.009477 0.011710 0.005502 0.001298
# 2 -0.004629 0.012004 -0.003128 -0.003114 -0.001167 0.000950
# 3 -0.009477 -0.003128 0.017471 -0.014369 -0.001099 0.000267
# 4 0.011710 -0.003114 -0.014369 0.052533 0.002426 -0.002033
# 5 0.005502 -0.001167 -0.001099 0.002426 0.031940 0.002738
# 6 0.001298 0.000950 0.000267 -0.002033 0.002738 0.024694
#
#
# Mechanical properties :
#
#
# Convention : Reuss Voigt Hill
#
# Bulk Modulus (GPa) = 64.53582 71.67899 68.10741
# Shear Modulus (GPa) = 25.15525 31.29979 28.22752
#
# Velocity S-wave (km/s) = 3.46932 3.86991 3.67507
# Velocity P-wave (km/s) = 6.85033 7.36647 7.11308
#
# Compressibility (1/GPa) = 0.01549527
#
# Stress axis : x y z
#
# Youngs Moduli (GPa) = 48.80692 83.30442 57.23699
#
# Poissons Ratio (x) = 0.38565 0.54242
# Poissons Ratio (y) = 0.22595 0.17906
# Poissons Ratio (z) = 0.46253 0.26061
#
# Static dielectric constant tensor:
#      x y z
#    x 4.084380 -0.165150 -0.068810 
#    y -0.165150 3.928940 0.273550 
#    z -0.068810 0.273550 3.647860 
# 
# 
# High freq. dielectric constant tensor:
#      x y z
#    x 1.834250 -0.013580 0.004490 
#    y -0.013580 1.808120 0.018670 
#    z 0.004490 0.018670 1.802050 
# 
# From -- ./inp_files/239289.got.cif
#   From: 2010.06.25/outbox.cif.g09.slc.cpg/sg2_120_cif.got.tgz:239289.got - 2010.06.27 13:26:56.
