data_PCOD8009491
_publ_section_title
;
Structure prediction by ZEFSAII (Michael W. Deem and Ramdas Pophale) SiO2 
 PCOD8009491
Probable space group: P -1
;
_chemical_formula_sum "Si O2"
_cell_formula_units_Z 16
_cell_length_a 9.089457
_cell_length_b 8.620626
_cell_length_c 24.975338
_cell_angle_alpha 29.348702
_cell_angle_beta 130.335649
_cell_angle_gamma 116.967498
_cell_volume 698.303862
_symmetry_space_group_name_H-M "P -1"
_symmetry_group_IT_number 2
_symmetry_cell_setting 'triclinic'
loop_
_space_group_symop_operation_xyz
x,y,z
-x,-y,-z
loop_
_atom_site_type_symbol
_atom_site_label
_atom_site_fract_x
_atom_site_fract_y
_atom_site_fract_z
Si Si1 0.065710 0.216015 0.027430
Si Si2 0.452274 0.167462 0.603770
Si Si3 0.064378 0.387652 0.390845
Si Si4 0.105138 0.076429 0.200804
Si Si5 0.294783 0.589264 0.629192
Si Si6 0.196898 0.189778 0.642264
Si Si7 0.736301 0.334768 0.834344
Si Si8 0.082167 0.206925 0.332320
O O1 0.097557 0.061028 0.139857
O O2 0.242257 0.990763 0.099414
O O3 0.064897 0.601596 0.913497
O O4 0.847959 0.209208 0.954424
O O5 0.500000 0.500000 0.500000
O O6 0.287060 0.122721 0.534683
O O7 0.355833 0.183274 0.634830
O O8 0.673843 0.893915 0.736974
O O9 0.018357 0.421976 0.306792
O O10 0.895032 0.270183 0.417764
O O11 0.062167 0.740200 0.311137
O O12 0.302392 0.237168 0.708909
O O13 0.501358 0.527460 0.729636
O O14 0.262462 0.870859 0.490571
O O15 0.000000 0.500000 0.500000
O O16 0.117125 0.867203 0.716953
O O17 0.842373 0.583570 0.756549
#
# Coordination Sequence:
#
# PCOD8009491 Si02
#       8
#     2   2   2   2   2   2   2   2
#     4  10  23  44  66  88 124 173 231 266 297 368
#     4  10  21  36  67  98 127 164 209 256 328 390
#     4  11  22  40  63 101 134 163 201 267 330 391
#     4  10  22  41  70  92 125 172 221 264 312 378
#     4  11  24  40  65  99 136 164 203 262 336 391
#     4  10  21  38  57  94 137 164 194 255 320 388
#     4  11  24  43  68  93 127 171 220 265 316 373
#     4  11  23  39  64  97 138 163 203 264 329 382
#
# _framework density 22.912661
#
# number of rings (size 3 to 8) (size 9 to 14) (size 15 to 20)
#    0.000    1.500    3.750    1.500    5.250    1.000 
#    0.000    1.250   11.000    0.000    0.000    0.000 
#    0.000    0.000    0.000    0.000    0.000    0.000 
#
# Total GULP energy -198295.727485 kJ/mol
# GULP energy per Si atom -12393.482968 kJ/mol
# Density = 2.286051 g / cm^3
# Si number density = 22.912661 Si / 1000 Ang^3
#
#
#
# Elastic Constant Matrix: (Units=GPa)
#
#
# Indices 1 2 3 4 5 6 
#
# 1 75.5019 5.5691 19.6651 -2.0267 2.4368 26.1147
# 2 5.5691 76.9898 13.5325 -0.8170 -5.8554 18.1636
# 3 19.6651 13.5325 79.6431 5.2384 9.3457 17.8246
# 4 -2.0267 -0.8170 5.2384 40.4290 -11.9611 6.4637
# 5 2.4368 -5.8554 9.3457 -11.9611 23.0232 2.4882
# 6 26.1147 18.1636 17.8246 6.4637 2.4882 29.8576
#
#
#
# Elastic Compliance Matrix: (Units=1/GPa)
#
#
# Indices 1 2 3 4 5 6 
#
# 1 0.020951 0.004451 -0.002168 0.006505 0.005509 -0.021605
# 2 0.004451 0.017486 -0.002178 0.006201 0.009745 -0.015384
# 3 -0.002168 -0.002178 0.015719 -0.003880 -0.008220 -0.004638
# 4 0.006505 0.006201 -0.003880 0.034976 0.022427 -0.016587
# 5 0.005509 0.009745 -0.008220 0.022427 0.062032 -0.015864
# 6 -0.021605 -0.015384 -0.004638 -0.016587 -0.015864 0.069429
#
#
# Mechanical properties :
#
#
# Convention : Reuss Voigt Hill
#
# Bulk Modulus (GPa) = 18.39448 34.40757 26.40103
# Shear Modulus (GPa) = 20.96378 31.55315 26.25846
#
# Velocity S-wave (km/s) = 3.02808 3.71496 3.38897
# Velocity P-wave (km/s) = 4.50236 5.78366 5.18276
#
# Compressibility (1/GPa) = 0.05436414
#
# Stress axis : x y z
#
# Youngs Moduli (GPa) = 47.73111 57.18813 63.61650
#
# Poissons Ratio (x) = -0.25453 0.13794
# Poissons Ratio (y) = -0.21244 0.13858
# Poissons Ratio (z) = 0.10350 0.12457
#
# Static dielectric constant tensor:
#      x y z
#    x 3.907860 0.005670 0.290130 
#    y 0.005670 5.001220 0.007280 
#    z 0.290130 0.007280 4.414700 
# 
# 
# High freq. dielectric constant tensor:
#      x y z
#    x 1.878770 -0.011620 0.006380 
#    y -0.011620 1.935180 0.001280 
#    z 0.006380 0.001280 1.885170 
# 
# From -- ./inp_files/218577.got.cif
#   From: 2010.06.25/outbox.cif.g09.slc.cpg/sg2_110_cif.got.tgz:218577.got - 2010.06.27 13:26:56.
