data_PCOD8009157
_publ_section_title
;
Structure prediction by ZEFSAII (Michael W. Deem and Ramdas Pophale) SiO2 
 PCOD8009157
Probable space group: P -1
;
_chemical_formula_sum "Si O2"
_cell_formula_units_Z 16
_cell_length_a 5.202338
_cell_length_b 10.563953
_cell_length_c 15.016721
_cell_angle_alpha 78.169732
_cell_angle_beta 56.395722
_cell_angle_gamma 78.054796
_cell_volume 668.316359
_symmetry_space_group_name_H-M "P -1"
_symmetry_group_IT_number 2
_symmetry_cell_setting 'triclinic'
loop_
_space_group_symop_operation_xyz
x,y,z
-x,-y,-z
loop_
_atom_site_type_symbol
_atom_site_label
_atom_site_fract_x
_atom_site_fract_y
_atom_site_fract_z
Si Si1 0.912055 0.859084 0.064996
Si Si2 0.489498 0.274754 0.353785
Si Si3 0.441728 0.145154 0.025466
Si Si4 0.719283 0.879659 0.434877
Si Si5 0.182905 0.229222 0.240791
Si Si6 0.744739 0.483662 0.875730
Si Si7 0.449790 0.436066 0.759118
Si Si8 0.575915 0.172465 0.689518
O O1 0.803376 0.782719 0.008765
O O2 0.644559 0.879111 0.186265
O O3 0.240683 0.782329 0.047959
O O4 0.000000 0.000000 0.000000
O O5 0.274325 0.245611 0.482396
O O6 0.374466 0.202624 0.298825
O O7 0.488573 0.428081 0.316632
O O8 0.827538 0.204893 0.325748
O O9 0.321966 0.134270 0.150047
O O10 0.500000 0.000000 0.000000
O O11 0.581158 0.845351 0.372122
O O12 0.080430 0.908035 0.355693
O O13 0.500000 0.000000 0.500000
O O14 0.194328 0.373465 0.184102
O O15 0.609337 0.413770 0.827538
O O16 0.086859 0.413048 0.846186
O O17 0.500000 0.500000 0.000000
O O18 0.603332 0.325099 0.679093
#
# Coordination Sequence:
#
# PCOD8009157 Si02
#       8
#     2   2   2   2   2   2   2   2
#     4  10  23  39  59  90 129 166 209 257 321 389
#     4  10  23  45  66  95 130 170 228 273 336 395
#     4  10  21  36  57  90 123 170 215 255 315 381
#     4  12  28  47  71  97 129 178 226 284 339 395
#     4  10  21  37  63  93 129 174 215 267 324 394
#     4  10  21  36  61  94 138 178 213 261 323 398
#     4  10  23  41  66 100 133 173 220 274 334 397
#     4  12  26  45  70 100 135 170 224 286 331 395
#
# _framework density 23.940756
#
# number of rings (size 3 to 8) (size 9 to 14) (size 15 to 20)
#    0.000    1.500    0.000    3.750    3.500    7.000 
#    0.000    0.000    0.000    0.000    0.000    0.000 
#    0.000    0.000    0.000    0.000    0.000    0.000 
#
# Total GULP energy -198374.693598 kJ/mol
# GULP energy per Si atom -12398.418350 kJ/mol
# Density = 2.388627 g / cm^3
# Si number density = 23.940756 Si / 1000 Ang^3
#
#
#
# Elastic Constant Matrix: (Units=GPa)
#
#
# Indices 1 2 3 4 5 6 
#
# 1 203.4285 32.3953 64.2654 -0.8564 5.6624 18.7800
# 2 32.3953 44.9952 31.1979 16.2926 7.1663 9.5607
# 3 64.2654 31.1979 146.6922 0.3639 3.6568 11.6399
# 4 -0.8564 16.2926 0.3639 31.9970 5.1285 -1.2731
# 5 5.6624 7.1663 3.6568 5.1285 52.7892 11.3783
# 6 18.7800 9.5607 11.6399 -1.2731 11.3783 31.6996
#
#
#
# Elastic Compliance Matrix: (Units=1/GPa)
#
#
# Indices 1 2 3 4 5 6 
#
# 1 0.006239 -0.003503 -0.001842 0.001867 0.000173 -0.001950
# 2 -0.003503 0.037465 -0.005763 -0.019279 -0.000801 -0.007595
# 3 -0.001842 -0.005763 0.008869 0.002740 0.000182 -0.000382
# 4 0.001867 -0.019279 0.002740 0.041870 -0.003253 0.006552
# 5 0.000173 -0.000801 0.000182 -0.003253 0.020972 -0.007586
# 6 -0.001950 -0.007595 -0.000382 0.006552 -0.007586 0.038118
#
#
# Mechanical properties :
#
#
# Convention : Reuss Voigt Hill
#
# Bulk Modulus (GPa) = 32.94303 72.31477 52.62890
# Shear Modulus (GPa) = 26.90089 41.11432 34.00760
#
# Velocity S-wave (km/s) = 3.35572 4.14857 3.77303
# Velocity P-wave (km/s) = 5.36699 7.29512 6.40404
#
# Compressibility (1/GPa) = 0.03035543
#
# Stress axis : x y z
#
# Youngs Moduli (GPa) = 160.28981 26.69192 112.75669
#
# Poissons Ratio (x) = 0.09351 0.20773
# Poissons Ratio (y) = 0.56156 0.64977
# Poissons Ratio (z) = 0.29530 0.15381
#
# Static dielectric constant tensor:
#      x y z
#    x 5.112790 0.299280 -0.209330 
#    y 0.299280 4.208310 0.085490 
#    z -0.209330 0.085490 3.818160 
# 
# 
# High freq. dielectric constant tensor:
#      x y z
#    x 1.980090 0.009480 -0.000380 
#    y 0.009480 1.953000 -0.010560 
#    z -0.000380 -0.010560 1.947510 
# 
# From -- ./inp_files/482173.got.cif
#   From: 2010.06.25/outbox.cif.g09.slc.cpg/sg2_242_cif.got.tgz:482173.got - 2010.06.27 13:26:56.
