data_PCOD8009477
_publ_section_title
;
Structure prediction by ZEFSAII (Michael W. Deem and Ramdas Pophale) SiO2 
 PCOD8009477
Probable space group: P -1
;
_chemical_formula_sum "Si O2"
_cell_formula_units_Z 16
_cell_length_a 9.062918
_cell_length_b 15.197540
_cell_length_c 8.965630
_cell_angle_alpha 64.288668
_cell_angle_beta 78.044869
_cell_angle_gamma 41.535190
_cell_volume 723.314182
_symmetry_space_group_name_H-M "P -1"
_symmetry_group_IT_number 2
_symmetry_cell_setting 'triclinic'
loop_
_space_group_symop_operation_xyz
x,y,z
-x,-y,-z
loop_
_atom_site_type_symbol
_atom_site_label
_atom_site_fract_x
_atom_site_fract_y
_atom_site_fract_z
Si Si1 0.955033 0.101388 0.300059
Si Si2 0.455761 0.370024 0.103169
Si Si3 0.084533 0.658410 0.829092
Si Si4 0.585201 0.128103 0.752024
Si Si5 0.303439 0.400551 0.427812
Si Si6 0.995657 0.363771 0.460627
Si Si7 0.352826 0.235606 0.042171
Si Si8 0.406911 0.043185 0.653889
O O1 0.722602 0.214802 0.167812
O O2 0.974481 0.200086 0.294536
O O3 0.000000 0.000000 0.500000
O O4 0.141592 0.996817 0.205573
O O5 0.381168 0.415810 0.253841
O O6 0.326310 0.350950 0.046398
O O7 0.340771 0.524667 0.943648
O O8 0.093332 0.597849 0.715728
O O9 0.887704 0.705701 0.941216
O O10 0.519526 0.251640 0.574110
O O11 0.536930 0.051767 0.731701
O O12 0.439059 0.204562 0.877434
O O13 0.205944 0.533570 0.454257
O O14 0.131815 0.398150 0.422431
O O15 0.142709 0.197640 0.593148
O O16 0.555146 0.083023 0.199640
O O17 0.500000 0.000000 0.500000
#
# Coordination Sequence:
#
# PCOD8009477 Si02
#       8
#     2   2   2   2   2   2   2   2
#     4  12  27  48  71  92 140 194 231 279 345 422
#     4  12  26  43  70 102 139 185 223 287 351 414
#     4  12  25  44  70 104 139 176 232 284 353 406
#     4  11  23  42  68 100 137 181 232 284 345 406
#     4  10  21  39  65 103 139 173 228 279 350 407
#     4  10  21  36  66 101 141 169 223 290 337 408
#     4  12  24  40  74 105 139 171 231 299 346 403
#     4  11  20  38  65 104 135 174 223 281 343 405
#
# _framework density 22.120403
#
# number of rings (size 3 to 8) (size 9 to 14) (size 15 to 20)
#    0.000    0.750    5.000    2.625    7.000    0.500 
#    0.000    0.625    2.750    0.000    0.000    0.000 
#    0.000    0.000    0.000    0.000    0.000    0.000 
#
# Total GULP energy -198230.310475 kJ/mol
# GULP energy per Si atom -12389.394405 kJ/mol
# Density = 2.207006 g / cm^3
# Si number density = 22.120403 Si / 1000 Ang^3
#
#
#
# Elastic Constant Matrix: (Units=GPa)
#
#
# Indices 1 2 3 4 5 6 
#
# 1 49.3485 37.9947 22.1937 3.8671 7.5598 -18.4540
# 2 37.9947 142.7079 62.1505 8.2195 7.6426 -8.3429
# 3 22.1937 62.1505 124.9619 -4.2780 8.2144 -5.1495
# 4 3.8671 8.2195 -4.2780 46.9565 -0.5415 4.8254
# 5 7.5598 7.6426 8.2144 -0.5415 24.2624 -6.9645
# 6 -18.4540 -8.3429 -5.1495 4.8254 -6.9645 31.4589
#
#
#
# Elastic Compliance Matrix: (Units=1/GPa)
#
#
# Indices 1 2 3 4 5 6 
#
# 1 0.033542 -0.006763 -0.001813 -0.003576 -0.002757 0.017524
# 2 -0.006763 0.010640 -0.004190 -0.001519 -0.000340 -0.001673
# 3 -0.001813 -0.004190 0.010556 0.001943 -0.001986 -0.001184
# 4 -0.003576 -0.001519 0.001943 0.022617 -0.000195 -0.005695
# 5 -0.002757 -0.000340 -0.001986 -0.000195 0.045144 0.007992
# 6 0.017524 -0.001673 -0.001184 -0.005695 0.007992 0.044072
#
#
# Mechanical properties :
#
#
# Convention : Reuss Voigt Hill
#
# Bulk Modulus (GPa) = 34.23664 62.41070 48.32367
# Shear Modulus (GPa) = 24.77238 33.51418 29.14328
#
# Velocity S-wave (km/s) = 3.35010 3.89663 3.63365
# Velocity P-wave (km/s) = 5.52044 6.96565 6.28472
#
# Compressibility (1/GPa) = 0.02920847
#
# Stress axis : x y z
#
# Youngs Moduli (GPa) = 29.81368 93.98243 94.72954
#
# Poissons Ratio (x) = 0.63556 0.17172
# Poissons Ratio (y) = 0.20162 0.39687
# Poissons Ratio (z) = 0.05405 0.39374
#
# Static dielectric constant tensor:
#      x y z
#    x 3.852220 -0.264750 0.215650 
#    y -0.264750 5.328800 -0.674250 
#    z 0.215650 -0.674250 4.347550 
# 
# 
# High freq. dielectric constant tensor:
#      x y z
#    x 1.839400 0.005190 0.010380 
#    y 0.005190 1.900950 -0.014050 
#    z 0.010380 -0.014050 1.872390 
# 
# From -- ./inp_files/206311.got.cif
#   From: 2010.06.25/outbox.cif.g09.slc.cpg/sg2_104_cif.got.tgz:206311.got - 2010.06.27 13:26:56.
