data_PCOD8009249
_publ_section_title
;
Structure prediction by ZEFSAII (Michael W. Deem and Ramdas Pophale) SiO2 
 PCOD8009249
Probable space group: P -1
;
_chemical_formula_sum "Si O2"
_cell_formula_units_Z 16
_cell_length_a 9.438349
_cell_length_b 10.567168
_cell_length_c 12.653647
_cell_angle_alpha 135.877371
_cell_angle_beta 88.270096
_cell_angle_gamma 111.655814
_cell_volume 760.984296
_symmetry_space_group_name_H-M "P -1"
_symmetry_group_IT_number 2
_symmetry_cell_setting 'triclinic'
loop_
_space_group_symop_operation_xyz
x,y,z
-x,-y,-z
loop_
_atom_site_type_symbol
_atom_site_label
_atom_site_fract_x
_atom_site_fract_y
_atom_site_fract_z
Si Si1 0.644580 0.417576 0.235189
Si Si2 0.574045 0.658577 0.998374
Si Si3 0.533561 0.733214 0.649660
Si Si4 0.912069 0.460390 0.117136
Si Si5 0.451339 0.001736 0.672994
Si Si6 0.247862 0.860875 0.392383
Si Si7 0.095227 0.265720 0.897305
Si Si8 0.177919 0.129887 0.406785
O O1 0.525342 0.439931 0.166536
O O2 0.524881 0.242773 0.217802
O O3 0.765257 0.347035 0.137096
O O4 0.770635 0.634082 0.421569
O O5 0.500000 0.500000 0.000000
O O6 0.569540 0.868107 0.153859
O O7 0.760508 0.703653 0.008702
O O8 0.500000 0.500000 0.500000
O O9 0.725399 0.877961 0.705265
O O10 0.441464 0.795241 0.600928
O O11 0.840699 0.558171 0.091064
O O12 0.083027 0.639383 0.266895
O O13 0.946285 0.281581 0.964851
O O14 0.617896 0.151239 0.693195
O O15 0.301841 0.917436 0.545403
O O16 0.219316 0.042783 0.458164
O O17 0.013520 0.027615 0.709569
#
# Coordination Sequence:
#
# PCOD8009249 Si02
#       8
#     2   2   2   2   2   2   2   2
#     4  11  23  38  64  88 121 165 207 245 303 368
#     4  12  23  37  61  95 128 153 202 257 311 357
#     4   9  21  42  62  85 120 168 210 246 296 370
#     4  10  21  36  59  91 123 159 198 248 314 364
#     4  10  21  37  61  93 122 160 204 255 303 364
#     4   9  19  35  62  90 123 152 199 256 318 355
#     4  10  22  38  60  87 130 155 196 258 313 354
#     4   9  20  39  64  87 117 162 204 250 303 365
#
# _framework density 21.025400999999999
#
# number of rings (size 3 to 8) (size 9 to 14) (size 15 to 20)
#    0.000    2.000    1.250    1.500    7.000    5.500 
#    0.000    1.250    0.000    0.000    0.000    0.000 
#    0.000    0.000    0.000    0.000    0.000    0.000 
#
# Total GULP energy -198255.223741 kJ/mol
# GULP energy per Si atom -12390.951484 kJ/mol
# Density = 2.097755 g / cm^3
# Si number density = 21.025401 Si / 1000 Ang^3
#
#
#
# Elastic Constant Matrix: (Units=GPa)
#
#
# Indices 1 2 3 4 5 6 
#
# 1 92.4357 32.8062 25.0880 -6.5803 9.5951 7.4015
# 2 32.8062 102.8050 24.0812 -14.2540 3.7444 4.8445
# 3 25.0880 24.0812 72.2793 -1.7973 7.5816 -0.4036
# 4 -6.5803 -14.2540 -1.7973 26.4473 -1.9300 -12.7212
# 5 9.5951 3.7444 7.5816 -1.9300 34.2971 -5.0747
# 6 7.4015 4.8445 -0.4036 -12.7212 -5.0747 19.3953
#
#
#
# Elastic Compliance Matrix: (Units=1/GPa)
#
#
# Indices 1 2 3 4 5 6 
#
# 1 0.013743 -0.003461 -0.003304 -0.002317 -0.003901 -0.006989
# 2 -0.003461 0.012298 -0.002817 0.007201 0.001129 0.003209
# 3 -0.003304 -0.002817 0.016138 -0.000842 -0.002210 0.001170
# 4 -0.002317 0.007201 -0.000842 0.062180 0.009824 0.042422
# 5 -0.003901 0.001129 -0.002210 0.009824 0.033592 0.016394
# 6 -0.006989 0.003209 0.001170 0.042422 0.016394 0.085563
#
#
# Mechanical properties :
#
#
# Convention : Reuss Voigt Hill
#
# Bulk Modulus (GPa) = 43.45358 47.94120 45.69739
# Shear Modulus (GPa) = 19.97189 28.39759 24.18474
#
# Velocity S-wave (km/s) = 3.08538 3.67908 3.39523
# Velocity P-wave (km/s) = 5.77969 6.39520 6.09522
#
# Compressibility (1/GPa) = 0.02301307
#
# Stress axis : x y z
#
# Youngs Moduli (GPa) = 72.76256 81.31567 61.96499
#
# Poissons Ratio (x) = 0.28147 0.20476
# Poissons Ratio (y) = 0.25186 0.17456
# Poissons Ratio (z) = 0.24044 0.22908
#
# Static dielectric constant tensor:
#      x y z
#    x 3.941900 0.240850 -0.022930 
#    y 0.240850 3.928990 -0.073110 
#    z -0.022930 -0.073110 3.859670 
# 
# 
# High freq. dielectric constant tensor:
#      x y z
#    x 1.823580 0.012730 0.001040 
#    y 0.012730 1.798300 0.001360 
#    z 0.001040 0.001360 1.821310 
# 
# From -- ./inp_files/500998.got.cif
#   From: 2010.06.25/outbox.cif.g09.slc.cpg/sg2_251_cif.got.tgz:500998.got - 2010.06.27 13:26:56.
