data_PCOD8009135
_publ_section_title
;
Structure prediction by ZEFSAII (Michael W. Deem and Ramdas Pophale) SiO2 
 PCOD8009135
Probable space group: P -1
;
_chemical_formula_sum "Si O2"
_cell_formula_units_Z 16
_cell_length_a 8.009288
_cell_length_b 11.109669
_cell_length_c 17.654796
_cell_angle_alpha 37.879874
_cell_angle_beta 71.707798
_cell_angle_gamma 96.366816
_cell_volume 722.039329
_symmetry_space_group_name_H-M "P -1"
_symmetry_group_IT_number 2
_symmetry_cell_setting 'triclinic'
loop_
_space_group_symop_operation_xyz
x,y,z
-x,-y,-z
loop_
_atom_site_type_symbol
_atom_site_label
_atom_site_fract_x
_atom_site_fract_y
_atom_site_fract_z
Si Si1 0.797859 0.081940 0.937723
Si Si2 0.738040 0.764113 0.242293
Si Si3 0.404302 0.673955 0.104327
Si Si4 0.218617 0.541594 0.037095
Si Si5 0.042364 0.027326 0.353167
Si Si6 0.297426 0.214735 0.589438
Si Si7 0.282292 0.765966 0.762435
Si Si8 0.307080 0.149819 0.391102
O O1 0.743819 0.276277 0.849466
O O2 0.058062 0.238086 0.805977
O O3 0.732262 0.943316 0.097285
O O4 0.661093 0.879367 0.990711
O O5 0.513676 0.487125 0.404479
O O6 0.758272 0.853585 0.280834
O O7 0.368615 0.707127 0.005108
O O8 0.329484 0.401143 0.266431
O O9 0.967031 0.459042 0.118181
O O10 0.339318 0.693690 0.868576
O O11 0.203521 0.295693 0.157284
O O12 0.910798 0.821328 0.407309
O O13 0.855807 0.022231 0.431942
O O14 0.187903 0.996689 0.405352
O O15 0.322914 0.021546 0.643626
O O16 0.457301 0.799313 0.659633
#
# Coordination Sequence:
#
# PCOD8009135 Si02
#       8
#     2   2   2   2   2   2   2   2
#     4  10  22  39  60  82 107 147 192 234 275 321
#     4  10  22  39  60  81 107 148 191 233 277 321
#     4  10  21  36  57  84 115 144 185 232 274 327
#     4   9  20  36  55  82 115 146 182 226 271 327
#     4   9  20  36  54  81 116 147 181 224 272 329
#     4  10  21  38  57  83 115 144 184 232 276 328
#     4  10  21  36  58  86 115 147 181 223 277 333
#     4  10  21  36  57  85 116 149 180 221 278 334
#
# _framework density 22.159458999999998
#
# number of rings (size 3 to 8) (size 9 to 14) (size 15 to 20)
#    0.000    2.250    0.000    1.500    0.000   14.000 
#    0.000    0.000    0.000    9.000    0.000    0.000 
#    0.000    0.000    0.000    0.000    0.000    0.000 
#
# Total GULP energy -198322.981357 kJ/mol
# GULP energy per Si atom -12395.186335 kJ/mol
# Density = 2.210902 g / cm^3
# Si number density = 22.159459 Si / 1000 Ang^3
#
#
#
# Elastic Constant Matrix: (Units=GPa)
#
#
# Indices 1 2 3 4 5 6 
#
# 1 51.3437 35.1449 11.3968 -0.6150 -2.2186 9.6081
# 2 35.1449 95.3571 27.0937 -13.0942 1.7510 28.7663
# 3 11.3968 27.0937 62.9283 1.7020 1.7761 1.3573
# 4 -0.6150 -13.0942 1.7020 24.4200 1.7541 -1.2748
# 5 -2.2186 1.7510 1.7761 1.7541 30.0528 -0.3382
# 6 9.6081 28.7663 1.3573 -1.2748 -0.3382 50.3762
#
#
#
# Elastic Compliance Matrix: (Units=1/GPa)
#
#
# Indices 1 2 3 4 5 6 
#
# 1 0.026887 -0.010982 -0.000102 -0.005363 0.002955 0.001030
# 2 -0.010982 0.020953 -0.007064 0.011130 -0.002370 -0.009414
# 3 -0.000102 -0.007064 0.019021 -0.004909 -0.000395 0.003414
# 4 -0.005363 0.011130 -0.004909 0.047170 -0.003553 -0.004030
# 5 0.002955 -0.002370 -0.000395 -0.003553 0.033872 0.000938
# 6 0.001030 -0.009414 0.003414 -0.004030 0.000938 0.024842
#
#
# Mechanical properties :
#
#
# Convention : Reuss Voigt Hill
#
# Bulk Modulus (GPa) = 32.71524 39.65554 36.18539
# Shear Modulus (GPa) = 22.80715 30.03603 26.42159
#
# Velocity S-wave (km/s) = 3.21164 3.68564 3.45677
# Velocity P-wave (km/s) = 5.34307 6.00386 5.68308
#
# Compressibility (1/GPa) = 0.03056680
#
# Stress axis : x y z
#
# Youngs Moduli (GPa) = 37.19250 47.72539 52.57339
#
# Poissons Ratio (x) = 0.52412 0.00535
# Poissons Ratio (y) = 0.40845 0.37135
# Poissons Ratio (z) = 0.00378 0.33711
#
# Static dielectric constant tensor:
#      x y z
#    x 4.154230 0.506130 -0.000020 
#    y 0.506130 3.988890 0.032000 
#    z -0.000020 0.032000 3.864730 
# 
# 
# High freq. dielectric constant tensor:
#      x y z
#    x 1.874990 0.033300 0.001110 
#    y 0.033300 1.859800 0.003780 
#    z 0.001110 0.003780 1.869710 
# 
# From -- ./inp_files/263452.got.cif
#   From: 2010.06.25/outbox.cif.g09.slc.cpg/sg2_132_cif.got.tgz:263452.got - 2010.06.27 13:26:56.
