data_PCOD8009418
_publ_section_title
;
Structure prediction by ZEFSAII (Michael W. Deem and Ramdas Pophale) SiO2 
 PCOD8009418
Probable space group: P -1
;
_chemical_formula_sum "Si O2"
_cell_formula_units_Z 14
_cell_length_a 9.941733
_cell_length_b 12.247571
_cell_length_c 22.507572
_cell_angle_alpha 154.721192
_cell_angle_beta 33.662243
_cell_angle_gamma 134.817659
_cell_volume 635.340704
_symmetry_space_group_name_H-M "P -1"
_symmetry_group_IT_number 2
_symmetry_cell_setting 'triclinic'
loop_
_space_group_symop_operation_xyz
x,y,z
-x,-y,-z
loop_
_atom_site_type_symbol
_atom_site_label
_atom_site_fract_x
_atom_site_fract_y
_atom_site_fract_z
Si Si1 0.674365 0.015051 0.137249
Si Si2 0.380615 0.390834 0.185134
Si Si3 0.758420 0.091229 0.451994
Si Si4 0.848614 0.979361 0.627116
Si Si5 0.061152 0.767133 0.084588
Si Si6 0.805874 0.418994 0.769769
Si Si7 0.052482 0.996535 0.080216
O O1 0.378631 0.076921 0.277931
O O2 0.810426 0.706946 0.933525
O O3 0.752860 0.143544 0.110776
O O4 0.791553 0.121681 0.205277
O O5 0.307729 0.595153 0.366035
O O6 0.391021 0.546465 0.195380
O O7 0.166609 0.223932 0.180776
O O8 0.651187 0.216242 0.008115
O O9 0.930216 0.975681 0.388455
O O10 0.500000 0.000000 0.500000
O O11 0.903865 0.008612 0.297097
O O12 0.933921 0.739081 0.431818
O O13 0.736104 0.244914 0.763412
O O14 0.997899 0.796227 0.052078
O O15 0.000000 0.500000 0.000000
#
# Coordination Sequence:
#
# PCOD8009418 Si02
#       7
#     2   2   2   2   2   2   2
#     4  10  21  42  64  87 127 167 207 254 316 371
#     4  10  22  44  61  92 133 161 207 263 308 376
#     4  11  23  40  62  94 126 163 210 258 316 370
#     4  10  21  36  63  94 125 163 210 257 313 367
#     4  12  25  40  66  92 125 168 212 258 313 373
#     4   9  20  36  63  93 126 160 208 263 305 366
#     4  10  24  42  64  94 127 167 211 257 315 377
#
# _framework density 22.035420999999999
#
# number of rings (size 3 to 8) (size 9 to 14) (size 15 to 20)
#    0.000    1.714    1.429    2.571    4.000    1.714 
#    0.000   15.714    0.000    0.000    0.000    0.000 
#    0.000    0.000    0.000    0.000    0.000    0.000 
#
# Total GULP energy -173499.799536 kJ/mol
# GULP energy per Si atom -12392.842824 kJ/mol
# Density = 2.198527 g / cm^3
# Si number density = 22.035421 Si / 1000 Ang^3
#
#
#
# Elastic Constant Matrix: (Units=GPa)
#
#
# Indices 1 2 3 4 5 6 
#
# 1 116.6348 52.9945 40.8614 -14.3996 3.5358 1.5559
# 2 52.9945 89.2794 37.0292 -15.8559 9.6991 -4.8871
# 3 40.8614 37.0292 108.5989 -18.2702 5.1308 10.1148
# 4 -14.3996 -15.8559 -18.2702 28.0803 3.2465 4.6045
# 5 3.5358 9.6991 5.1308 3.2465 28.5212 -1.7866
# 6 1.5559 -4.8871 10.1148 4.6045 -1.7866 49.1762
#
#
#
# Elastic Compliance Matrix: (Units=1/GPa)
#
#
# Indices 1 2 3 4 5 6 
#
# 1 0.012375 -0.006295 -0.002265 0.001329 0.000822 -0.000646
# 2 -0.006295 0.017660 -0.002683 0.005305 -0.005233 0.001819
# 3 -0.002265 -0.002683 0.012427 0.006193 -0.001960 -0.003402
# 4 0.001329 0.005305 0.006193 0.045182 -0.008560 -0.005330
# 5 0.000822 -0.005233 -0.001960 -0.008560 0.038194 0.002046
# 6 -0.000646 0.001819 -0.003402 -0.005330 0.002046 0.021809
#
#
# Mechanical properties :
#
#
# Convention : Reuss Voigt Hill
#
# Bulk Modulus (GPa) = 50.05904 64.03147 57.04525
# Shear Modulus (GPa) = 28.28166 33.39741 30.83954
#
# Velocity S-wave (km/s) = 3.58643 3.89732 3.74511
# Velocity P-wave (km/s) = 6.31798 7.02664 6.68171
#
# Compressibility (1/GPa) = 0.01997641
#
# Stress axis : x y z
#
# Youngs Moduli (GPa) = 80.80666 56.62414 80.47206
#
# Poissons Ratio (x) = 0.35645 0.18228
# Poissons Ratio (y) = 0.50868 0.21589
# Poissons Ratio (z) = 0.18303 0.15191
#
# Static dielectric constant tensor:
#      x y z
#    x 4.134690 -0.108310 0.116970 
#    y -0.108310 3.892530 -0.055250 
#    z 0.116970 -0.055250 4.044980 
# 
# 
# High freq. dielectric constant tensor:
#      x y z
#    x 1.874650 0.001350 0.007440 
#    y 0.001350 1.849770 -0.011170 
#    z 0.007440 -0.011170 1.860810 
# 
# From -- ./inp_files/474434.got.cif
#   From: 2010.06.25/outbox.cif.g09.slc.cpg/sg2_238_cif.got.tgz:474434.got - 2010.06.27 13:26:56.
