data_PCOD8009676
_publ_section_title
;
Structure prediction by ZEFSAII (Michael W. Deem and Ramdas Pophale) SiO2 
 PCOD8009676
Probable space group: P -1
;
_chemical_formula_sum "Si O2"
_cell_formula_units_Z 14
_cell_length_a 24.460696
_cell_length_b 15.519579
_cell_length_c 6.563942
_cell_angle_alpha 114.719355
_cell_angle_beta 114.553963
_cell_angle_gamma 19.332892
_cell_volume 747.514041
_symmetry_space_group_name_H-M "P -1"
_symmetry_group_IT_number 2
_symmetry_cell_setting 'triclinic'
loop_
_space_group_symop_operation_xyz
x,y,z
-x,-y,-z
loop_
_atom_site_type_symbol
_atom_site_label
_atom_site_fract_x
_atom_site_fract_y
_atom_site_fract_z
Si Si1 0.539756 0.141203 0.851487
Si Si2 0.883103 0.683853 0.804834
Si Si3 0.667891 0.783162 0.946402
Si Si4 0.249053 0.621957 0.156372
Si Si5 0.737628 0.495323 0.536557
Si Si6 0.057245 0.566709 0.667763
Si Si7 0.016228 0.838281 0.761891
O O1 0.428411 0.268632 0.619253
O O2 0.690354 0.987384 0.861826
O O3 0.427884 0.357804 0.062589
O O4 0.638145 0.907640 0.860173
O O5 0.903783 0.557230 0.584495
O O6 0.928189 0.708857 0.763683
O O7 0.000000 0.500000 0.000000
O O8 0.774635 0.663955 0.180032
O O9 0.750986 0.574304 0.752592
O O10 0.500000 0.000000 0.000000
O O11 0.268517 0.582826 0.390919
O O12 0.137627 0.696373 0.987332
O O13 0.162282 0.848865 0.190556
O O14 0.901538 0.250227 0.410850
O O15 0.986774 0.769547 0.671761
#
# Coordination Sequence:
#
# PCOD8009676 Si02
#       7
#     2   2   2   2   2   2   2
#     4  11  22  36  57  87 120 154 196 238 295 348
#     4  11  24  41  60  85 115 162 200 240 288 343
#     4  12  19  34  58  90 122 145 182 246 305 351
#     4  10  21  37  59  87 124 151 190 243 289 357
#     4  11  20  35  59  89 120 156 186 239 302 352
#     4  11  23  39  60  86 119 154 196 245 286 345
#     4  10  21  38  58  89 118 156 195 234 296 350
#
# _framework density 18.728743999999999
#
# number of rings (size 3 to 8) (size 9 to 14) (size 15 to 20)
#    0.000    1.143    4.286    3.429    0.000    0.000 
#    0.000    0.714    0.000    1.714    0.000    0.000 
#    0.000    0.000    0.000    0.000    0.000    0.000 
#
# Total GULP energy -173615.962920 kJ/mol
# GULP energy per Si atom -12401.140209 kJ/mol
# Density = 1.868612 g / cm^3
# Si number density = 18.728744 Si / 1000 Ang^3
#
#
#
# Elastic Constant Matrix: (Units=GPa)
#
#
# Indices 1 2 3 4 5 6 
#
# 1 117.0868 57.9344 41.2556 7.7762 -9.0897 -5.1783
# 2 57.9344 99.1788 38.8347 6.2627 -5.7793 -4.8397
# 3 41.2556 38.8347 110.6406 -10.9023 -8.2994 -1.1220
# 4 7.7762 6.2627 -10.9023 25.2251 -3.9004 -3.3249
# 5 -9.0897 -5.7793 -8.2994 -3.9004 30.7093 1.1034
# 6 -5.1783 -4.8397 -1.1220 -3.3249 1.1034 30.1560
#
#
#
# Elastic Compliance Matrix: (Units=1/GPa)
#
#
# Indices 1 2 3 4 5 6 
#
# 1 0.012951 -0.006090 -0.002914 -0.003424 0.001440 0.000708
# 2 -0.006090 0.015209 -0.003407 -0.003299 -0.000313 0.000916
# 3 -0.002914 -0.003407 0.012267 0.007490 0.002758 0.000134
# 4 -0.003424 -0.003299 0.007490 0.046232 0.006117 0.004035
# 5 0.001440 -0.000313 0.002758 0.006117 0.034463 -0.000287
# 6 0.000708 0.000916 0.000134 0.004035 -0.000287 0.033890
#
#
# Mechanical properties :
#
#
# Convention : Reuss Voigt Hill
#
# Bulk Modulus (GPa) = 64.07806 66.99509 65.53657
# Shear Modulus (GPa) = 27.02194 29.81017 28.41606
#
# Velocity S-wave (km/s) = 3.80255 3.99392 3.89941
# Velocity P-wave (km/s) = 7.31896 7.55761 7.43924
#
# Compressibility (1/GPa) = 0.01560597
#
# Stress axis : x y z
#
# Youngs Moduli (GPa) = 77.21417 65.75186 81.52002
#
# Poissons Ratio (x) = 0.40040 0.23755
# Poissons Ratio (y) = 0.47020 0.27772
# Poissons Ratio (z) = 0.22500 0.22400
#
# Static dielectric constant tensor:
#      x y z
#    x 3.444210 -0.063690 -0.271390 
#    y -0.063690 3.346110 -0.175380 
#    z -0.271390 -0.175380 2.752200 
# 
# 
# High freq. dielectric constant tensor:
#      x y z
#    x 1.718050 -0.000680 -0.019630 
#    y -0.000680 1.723410 -0.000850 
#    z -0.019630 -0.000850 1.739150 
# 
# From -- ./inp_files/27489.got.cif
#   From: 2010.06.25/outbox.cif.g09.slc.cpg/sg2_14_cif.got.tgz:27489.got - 2010.06.27 13:26:56.
