data_PCOD8009034
_publ_section_title
;
Structure prediction by ZEFSAII (Michael W. Deem and Ramdas Pophale) SiO2 
 PCOD8009034
Probable space group: P -1
;
_chemical_formula_sum "Si O2"
_cell_formula_units_Z 16
_cell_length_a 13.991579
_cell_length_b 11.689178
_cell_length_c 11.251877
_cell_angle_alpha 70.300303
_cell_angle_beta 29.604768
_cell_angle_gamma 58.661523
_cell_volume 747.025919
_symmetry_space_group_name_H-M "P -1"
_symmetry_group_IT_number 2
_symmetry_cell_setting 'triclinic'
loop_
_space_group_symop_operation_xyz
x,y,z
-x,-y,-z
loop_
_atom_site_type_symbol
_atom_site_label
_atom_site_fract_x
_atom_site_fract_y
_atom_site_fract_z
Si Si1 0.946178 0.617944 0.853351
Si Si2 0.016596 0.746255 0.512602
Si Si3 0.738892 0.366622 0.306592
Si Si4 0.705760 0.494259 0.845784
Si Si5 0.037666 0.650365 0.164626
Si Si6 0.316502 0.109020 0.376340
Si Si7 0.551712 0.190571 0.676520
Si Si8 0.573010 0.203189 0.924093
O O1 0.954672 0.733704 0.718217
O O2 0.109895 0.588175 0.796583
O O3 0.024665 0.468824 0.759775
O O4 0.690294 0.688632 0.145671
O O5 0.084344 0.594782 0.434556
O O6 0.211533 0.785382 0.282881
O O7 0.819008 0.864615 0.609708
O O8 0.500000 0.500000 0.500000
O O9 0.721735 0.242736 0.434303
O O10 0.869190 0.304301 0.064424
O O11 0.755652 0.412482 0.945278
O O12 0.500000 0.500000 0.000000
O O13 0.657130 0.649995 0.867230
O O14 0.820330 0.781143 0.410112
O O15 0.384682 0.955512 0.405476
O O16 0.543362 0.108428 0.090125
O O17 0.575587 0.156579 0.802871
#
# Coordination Sequence:
#
# PCOD8009034 Si02
#       8
#     2   2   2   2   2   2   2   2
#     4  12  23  42  71 100 126 172 231 275 325 387
#     4  10  21  35  65  97 135 169 213 269 333 395
#     4  12  26  46  72  96 127 174 234 277 324 383
#     4   9  18  34  62  99 128 164 211 267 331 379
#     4  11  23  44  66  98 136 174 219 274 328 393
#     4  11  25  42  62 100 141 172 209 273 338 398
#     4  12  25  42  67  97 134 176 221 272 327 394
#     4  11  19  38  61  96 133 173 214 267 328 389
#
# _framework density 21.418265000000002
#
# number of rings (size 3 to 8) (size 9 to 14) (size 15 to 20)
#    0.000    1.000    5.000    1.500    1.750    4.000 
#    2.250    0.625    0.000    0.000    0.000    0.000 
#    0.000    0.000    0.000    0.000    0.000    0.000 
#
# Total GULP energy -198343.167002 kJ/mol
# GULP energy per Si atom -12396.447938 kJ/mol
# Density = 2.136952 g / cm^3
# Si number density = 21.418265 Si / 1000 Ang^3
#
#
#
# Elastic Constant Matrix: (Units=GPa)
#
#
# Indices 1 2 3 4 5 6 
#
# 1 102.5124 22.5009 39.0546 4.2199 8.2762 3.9206
# 2 22.5009 105.8017 33.0104 -1.1638 7.4007 22.8536
# 3 39.0546 33.0104 108.7985 -21.8327 8.2998 7.8019
# 4 4.2199 -1.1638 -21.8327 28.1120 -1.7808 1.3836
# 5 8.2762 7.4007 8.2998 -1.7808 28.5585 -3.3228
# 6 3.9206 22.8536 7.8019 1.3836 -3.3228 21.4752
#
#
#
# Elastic Compliance Matrix: (Units=1/GPa)
#
#
# Indices 1 2 3 4 5 6 
#
# 1 0.012385 -0.001117 -0.005252 -0.006159 -0.002051 0.000916
# 2 -0.001117 0.013862 -0.002644 -0.000880 -0.004205 -0.014181
# 3 -0.005252 -0.002644 0.014599 0.012042 -0.001582 -0.002552
# 4 -0.006159 -0.000880 0.012042 0.046117 0.000788 -0.005163
# 5 -0.002051 -0.004205 -0.001582 0.000788 0.038527 0.011334
# 6 0.000916 -0.014181 -0.002552 -0.005163 0.011334 0.064503
#
#
# Mechanical properties :
#
#
# Convention : Reuss Voigt Hill
#
# Bulk Modulus (GPa) = 43.82143 56.24938 50.03541
# Shear Modulus (GPa) = 23.18843 30.46558 26.82700
#
# Velocity S-wave (km/s) = 3.29393 3.77558 3.54295
# Velocity P-wave (km/s) = 5.91362 6.73246 6.33628
#
# Compressibility (1/GPa) = 0.02281988
#
# Stress axis : x y z
#
# Youngs Moduli (GPa) = 80.74195 72.14150 68.49856
#
# Poissons Ratio (x) = 0.08061 0.35975
# Poissons Ratio (y) = 0.09022 0.18108
# Poissons Ratio (z) = 0.42405 0.19071
#
# Static dielectric constant tensor:
#      x y z
#    x 3.853930 0.112110 0.045990 
#    y 0.112110 3.921930 0.108850 
#    z 0.045990 0.108850 4.132190 
# 
# 
# High freq. dielectric constant tensor:
#      x y z
#    x 1.833650 0.008010 -0.005210 
#    y 0.008010 1.831210 -0.002450 
#    z -0.005210 -0.002450 1.846440 
# 
# From -- ./inp_files/451208.got.cif
#   From: 2010.06.25/outbox.cif.g09.slc.cpg/sg2_226_cif.got.tgz:451208.got - 2010.06.27 13:26:56.
