data_PCOD8009722
_publ_section_title
;
Structure prediction by ZEFSAII (Michael W. Deem and Ramdas Pophale) SiO2 
 PCOD8009722
Probable space group: P -1
;
_chemical_formula_sum "Si O2"
_cell_formula_units_Z 16
_cell_length_a 14.272253
_cell_length_b 17.699799
_cell_length_c 8.750352
_cell_angle_alpha 122.865977
_cell_angle_beta 106.971436
_cell_angle_gamma 26.876147
_cell_volume 723.912316
_symmetry_space_group_name_H-M "P -1"
_symmetry_group_IT_number 2
_symmetry_cell_setting 'triclinic'
loop_
_space_group_symop_operation_xyz
x,y,z
-x,-y,-z
loop_
_atom_site_type_symbol
_atom_site_label
_atom_site_fract_x
_atom_site_fract_y
_atom_site_fract_z
Si Si1 0.260835 0.099956 0.951870
Si Si2 0.236493 0.017012 0.147290
Si Si3 0.859560 0.254593 0.446745
Si Si4 0.191213 0.349722 0.293388
Si Si5 0.800436 0.002494 0.392742
Si Si6 0.536677 0.106046 0.590769
Si Si7 0.333353 0.769934 0.709282
Si Si8 0.116285 0.345254 0.752680
O O1 0.537623 0.854264 0.752835
O O2 0.104887 0.162587 0.843096
O O3 0.214263 0.115593 0.123808
O O4 0.190442 0.262384 0.085064
O O5 0.442825 0.878921 0.207531
O O6 0.001868 0.198484 0.336636
O O7 0.287848 0.881666 0.937860
O O8 0.594150 0.515887 0.599334
O O9 0.855046 0.154146 0.281684
O O10 0.978339 0.155319 0.564867
O O11 0.000000 0.500000 0.500000
O O12 0.095438 0.507187 0.304059
O O13 0.702671 0.161436 0.405535
O O14 0.570010 0.165783 0.565548
O O15 0.739905 0.864321 0.360186
O O16 0.281939 0.271116 0.642080
O O17 0.000000 0.500000 0.000000
#
# Coordination Sequence:
#
# PCOD8009722 Si02
#       8
#     2   2   2   2   2   2   2   2
#     4  10  22  37  54  86 117 152 202 239 282 346
#     4  10  21  37  60  86 120 154 194 247 291 346
#     4  10  22  41  64  89 117 152 192 239 301 361
#     4  11  22  36  56  79 117 161 195 239 288 333
#     4  10  21  39  62  86 120 152 190 247 291 342
#     4  10  22  37  54  86 117 152 202 239 282 346
#     4  10  22  41  64  89 117 152 192 239 301 361
#     4  11  22  36  56  79 117 161 195 239 288 333
#
# _framework density 22.102124
#
# number of rings (size 3 to 8) (size 9 to 14) (size 15 to 20)
#    0.000    1.750    0.000    3.750    0.000   14.000 
#    0.000    3.750    0.000   13.500    0.000    0.000 
#    0.000    0.000    0.000    0.000    0.000    0.000 
#
# Total GULP energy -198212.772667 kJ/mol
# GULP energy per Si atom -12388.298292 kJ/mol
# Density = 2.205182 g / cm^3
# Si number density = 22.102124 Si / 1000 Ang^3
#
#
#
# Elastic Constant Matrix: (Units=GPa)
#
#
# Indices 1 2 3 4 5 6 
#
# 1 71.7855 19.3788 6.5075 -1.9857 2.0033 -7.3393
# 2 19.3788 105.6570 34.0738 -2.6389 4.1239 2.0480
# 3 6.5075 34.0738 89.4078 -8.2632 3.8508 -9.6580
# 4 -1.9857 -2.6389 -8.2632 31.8907 -2.2792 -1.9005
# 5 2.0033 4.1239 3.8508 -2.2792 37.2490 -11.3505
# 6 -7.3393 2.0480 -9.6580 -1.9005 -11.3505 23.3985
#
#
#
# Elastic Compliance Matrix: (Units=1/GPa)
#
#
# Indices 1 2 3 4 5 6 
#
# 1 0.015366 -0.003238 0.000859 0.001388 0.001438 0.006268
# 2 -0.003238 0.011774 -0.004804 -0.000945 -0.002279 -0.005211
# 3 0.000859 -0.004804 0.014060 0.003863 0.001576 0.007571
# 4 0.001388 -0.000945 0.003863 0.033018 0.003652 0.006566
# 5 0.001438 -0.002279 0.001576 0.003652 0.032351 0.017291
# 6 0.006268 -0.005211 0.007571 0.006566 0.017291 0.057206
#
#
# Mechanical properties :
#
#
# Convention : Reuss Voigt Hill
#
# Bulk Modulus (GPa) = 37.26589 42.97450 40.12020
# Shear Modulus (GPa) = 26.72576 32.30029 29.51302
#
# Velocity S-wave (km/s) = 3.48112 3.82699 3.65814
# Velocity P-wave (km/s) = 5.74935 6.24609 6.00286
#
# Compressibility (1/GPa) = 0.02683419
#
# Stress axis : x y z
#
# Youngs Moduli (GPa) = 65.07949 84.93288 71.12434
#
# Poissons Ratio (x) = 0.27504 -0.06111
# Poissons Ratio (y) = 0.21075 0.34165
# Poissons Ratio (z) = -0.05591 0.40798
#
# Static dielectric constant tensor:
#      x y z
#    x 4.175570 -0.025890 0.053620 
#    y -0.025890 4.149530 -0.197120 
#    z 0.053620 -0.197120 3.911670 
# 
# 
# High freq. dielectric constant tensor:
#      x y z
#    x 1.871550 0.001350 0.000760 
#    y 0.001350 1.876320 -0.023000 
#    z 0.000760 -0.023000 1.868160 
# 
# From -- ./inp_files/288531.got.cif
#   From: 2010.06.25/outbox.cif.g09.slc.cpg/sg2_145_cif.got.tgz:288531.got - 2010.06.27 13:26:56.
