data_PCOD8009223
_publ_section_title
;
Structure prediction by ZEFSAII (Michael W. Deem and Ramdas Pophale) SiO2 
 PCOD8009223
Probable space group: P -1
;
_chemical_formula_sum "Si O2"
_cell_formula_units_Z 16
_cell_length_a 13.011808
_cell_length_b 28.481262
_cell_length_c 27.624398
_cell_angle_alpha 169.982721
_cell_angle_beta 27.868220
_cell_angle_gamma 152.745117
_cell_volume 810.726739
_symmetry_space_group_name_H-M "P -1"
_symmetry_group_IT_number 2
_symmetry_cell_setting 'triclinic'
loop_
_space_group_symop_operation_xyz
x,y,z
-x,-y,-z
loop_
_atom_site_type_symbol
_atom_site_label
_atom_site_fract_x
_atom_site_fract_y
_atom_site_fract_z
Si Si1 0.064248 0.978867 0.124119
Si Si2 0.503417 0.210763 0.116733
Si Si3 0.757827 0.374946 0.622307
Si Si4 0.234420 0.789204 0.652696
Si Si5 0.559165 0.788839 0.327510
Si Si6 0.714416 0.668251 0.766144
Si Si7 0.224321 0.210068 0.394899
Si Si8 0.222641 0.668360 0.258077
O O1 0.285144 0.032653 0.053639
O O2 0.132396 0.031866 0.205154
O O3 0.906817 0.170599 0.368349
O O4 0.915815 0.673846 0.868450
O O5 0.456736 0.308036 0.181195
O O6 0.602643 0.500367 0.397868
O O7 0.669927 0.000374 0.830544
O O8 0.676811 0.311502 0.536541
O O9 0.528941 0.312031 0.685051
O O10 0.336705 0.636256 0.498209
O O11 0.964074 0.720117 0.692931
O O12 0.313325 0.116759 0.961665
O O13 0.346543 0.719414 0.309718
O O14 0.660900 0.116440 0.613476
O O15 0.759326 0.636110 0.075550
O O16 0.032733 0.307480 0.604571
#
# Coordination Sequence:
#
# PCOD8009223 Si02
#       8
#     2   2   2   2   2   2   2   2
#     4  12  24  37  54  86 124 159 196 217 269 354
#     4  12  24  39  57  82 119 163 198 229 272 336
#     4  12  22  37  60  88 118 155 182 235 297 350
#     4  10  21  36  59  82 114 145 189 240 294 335
#     4  10  21  36  59  82 114 145 189 240 294 335
#     4  10  21  37  57  83 110 151 192 241 279 332
#     4  12  24  39  57  82 119 163 198 229 272 336
#     4  10  21  37  57  83 110 151 192 241 279 332
#
# _framework density 19.735381
#
# number of rings (size 3 to 8) (size 9 to 14) (size 15 to 20)
#    0.000    1.000    2.500    5.250    7.000    0.000 
#    0.000    0.000    0.000    0.000    0.000   17.500 
#    0.000    0.000    0.000    0.000    0.000    0.000 
#
# Total GULP energy -198389.858439 kJ/mol
# GULP energy per Si atom -12399.366152 kJ/mol
# Density = 1.969046 g / cm^3
# Si number density = 19.735381 Si / 1000 Ang^3
#
#
#
# Elastic Constant Matrix: (Units=GPa)
#
#
# Indices 1 2 3 4 5 6 
#
# 1 74.6631 29.3975 24.5685 -12.5350 -8.6042 -11.0320
# 2 29.3975 67.1010 20.1476 -7.7386 0.0727 -14.4191
# 3 24.5685 20.1476 117.5768 -1.0548 -16.7739 -0.4253
# 4 -12.5350 -7.7386 -1.0548 30.9119 9.0594 -4.6509
# 5 -8.6042 0.0727 -16.7739 9.0594 35.9795 -8.2624
# 6 -11.0320 -14.4191 -0.4253 -4.6509 -8.2624 19.9167
#
#
#
# Elastic Compliance Matrix: (Units=1/GPa)
#
#
# Indices 1 2 3 4 5 6 
#
# 1 0.019250 -0.004588 -0.002549 0.006964 0.004109 0.010618
# 2 -0.004588 0.021372 -0.002691 0.005678 -0.000623 0.013942
# 3 -0.002549 -0.002691 0.010090 -0.002950 0.004379 -0.002017
# 4 0.006964 0.005678 -0.002950 0.040631 -0.006585 0.014661
# 5 0.004109 -0.000623 0.004379 -0.006585 0.035994 0.015313
# 6 0.010618 0.013942 -0.002017 0.014661 0.015313 0.075917
#
#
# Mechanical properties :
#
#
# Convention : Reuss Voigt Hill
#
# Bulk Modulus (GPa) = 32.19997 45.28534 38.74266
# Shear Modulus (GPa) = 21.43506 29.71010 25.57258
#
# Velocity S-wave (km/s) = 3.29921 3.88419 3.60359
# Velocity P-wave (km/s) = 5.55557 6.56597 6.08179
#
# Compressibility (1/GPa) = 0.03105593
#
# Stress axis : x y z
#
# Youngs Moduli (GPa) = 51.94717 46.78921 99.10882
#
# Poissons Ratio (x) = 0.21467 0.25265
# Poissons Ratio (y) = 0.23834 0.26672
# Poissons Ratio (z) = 0.13242 0.12592
#
# Static dielectric constant tensor:
#      x y z
#    x 3.344950 0.062000 -0.130100 
#    y 0.062000 3.315470 0.041210 
#    z -0.130100 0.041210 3.852230 
# 
# 
# High freq. dielectric constant tensor:
#      x y z
#    x 1.747520 -0.010540 -0.010690 
#    y -0.010540 1.745470 0.001710 
#    z -0.010690 0.001710 1.798820 
# 
# From -- ./inp_files/618847.got.cif
#   From: 2010.06.25/outbox.cif.g09.slc.cpg/sg2_310_cif.got.tgz:618847.got - 2010.06.27 13:26:56.
