data_PCOD8009894
_publ_section_title
;
Structure prediction by ZEFSAII (Michael W. Deem and Ramdas Pophale) SiO2 
 PCOD8009894
Probable space group: P -1
;
_chemical_formula_sum "Si O2"
_cell_formula_units_Z 16
_cell_length_a 17.680183
_cell_length_b 8.835035
_cell_length_c 20.796738
_cell_angle_alpha 46.019254
_cell_angle_beta 159.739457
_cell_angle_gamma 124.974316
_cell_volume 768.537134
_symmetry_space_group_name_H-M "P -1"
_symmetry_group_IT_number 2
_symmetry_cell_setting 'triclinic'
loop_
_space_group_symop_operation_xyz
x,y,z
-x,-y,-z
loop_
_atom_site_type_symbol
_atom_site_label
_atom_site_fract_x
_atom_site_fract_y
_atom_site_fract_z
Si Si1 0.067014 0.514240 0.271313
Si Si2 0.088026 0.661728 0.924468
Si Si3 0.911213 0.793254 0.506726
Si Si4 0.483336 0.670678 0.579310
Si Si5 0.375178 0.030314 0.490344
Si Si6 0.341653 0.122539 0.113728
Si Si7 0.613855 0.055318 0.932068
Si Si8 0.296057 0.414297 0.880765
O O1 0.027538 0.315181 0.341394
O O2 0.328741 0.513583 0.488115
O O3 0.020790 0.465570 0.175617
O O4 0.911086 0.768306 0.088386
O O5 0.891017 0.825877 0.762095
O O6 0.254827 0.482245 0.157449
O O7 0.232596 0.800279 0.961337
O O8 0.046430 0.600060 0.621929
O O9 0.637807 0.856204 0.262619
O O10 0.000000 0.000000 0.500000
O O11 0.473744 0.836106 0.463631
O O12 0.394016 0.805990 0.533611
O O13 0.464981 0.973046 0.650949
O O14 0.371633 0.931587 0.139276
O O15 0.373287 0.333782 0.039165
O O16 0.716648 0.795161 0.110633
O O17 0.500000 0.500000 0.000000
#
# Coordination Sequence:
#
# PCOD8009894 Si02
#       8
#     2   2   2   2   2   2   2   2
#     4  11  23  42  67  90 129 171 208 271 309 383
#     4  12  24  42  65  94 127 167 220 253 323 377
#     4  11  19  36  68  92 124 167 207 260 318 369
#     4  11  25  45  63  94 128 165 219 264 322 372
#     4  11  24  43  65  92 129 168 210 272 317 383
#     4   9  20  40  63  92 122 171 204 254 326 369
#     4  10  21  37  62  91 127 164 205 259 311 376
#     4   9  19  35  63  95 125 162 210 258 315 376
#
# _framework density 20.818771999999999
#
# number of rings (size 3 to 8) (size 9 to 14) (size 15 to 20)
#    0.750    0.750    3.750    1.875    0.000    1.000 
#    2.250    0.625    2.750    1.500    0.000    0.000 
#    0.000    0.000    0.000    0.000    0.000    0.000 
#
# Total GULP energy -198227.282477 kJ/mol
# GULP energy per Si atom -12389.205155 kJ/mol
# Density = 2.077139 g / cm^3
# Si number density = 20.818772 Si / 1000 Ang^3
#
#
#
# Elastic Constant Matrix: (Units=GPa)
#
#
# Indices 1 2 3 4 5 6 
#
# 1 49.6853 21.6840 35.6732 4.0734 9.7822 6.2641
# 2 21.6840 95.1969 39.7481 0.5911 -0.8225 9.0212
# 3 35.6732 39.7481 123.9200 -12.5865 18.5334 -12.8167
# 4 4.0734 0.5911 -12.5865 37.5679 -6.2507 2.7654
# 5 9.7822 -0.8225 18.5334 -6.2507 38.1360 -6.4165
# 6 6.2641 9.0212 -12.8167 2.7654 -6.4165 27.0010
#
#
#
# Elastic Compliance Matrix: (Units=1/GPa)
#
#
# Indices 1 2 3 4 5 6 
#
# 1 0.030909 -0.002153 -0.009097 -0.006605 -0.006598 -0.011661
# 2 -0.002153 0.013512 -0.004686 -0.000793 0.002036 -0.005674
# 3 -0.009097 -0.004686 0.013961 0.004684 -0.002221 0.009296
# 4 -0.006605 -0.000793 0.004684 0.029527 0.004592 0.002087
# 5 -0.006598 0.002036 -0.002221 0.004592 0.030913 0.006672
# 6 -0.011661 -0.005674 0.009296 0.002087 0.006672 0.047421
#
#
# Mechanical properties :
#
#
# Convention : Reuss Voigt Hill
#
# Bulk Modulus (GPa) = 37.72340 51.44585 44.58462
# Shear Modulus (GPa) = 24.16031 31.98745 28.07388
#
# Velocity S-wave (km/s) = 3.41032 3.92404 3.67616
# Velocity P-wave (km/s) = 5.80226 6.73021 6.28339
#
# Compressibility (1/GPa) = 0.02650875
#
# Stress axis : x y z
#
# Youngs Moduli (GPa) = 32.35323 74.00938 71.62818
#
# Poissons Ratio (x) = 0.15934 0.65163
# Poissons Ratio (y) = 0.06965 0.33566
# Poissons Ratio (z) = 0.29433 0.34682
#
# Static dielectric constant tensor:
#      x y z
#    x 3.705000 -0.030020 0.246130 
#    y -0.030020 3.731240 -0.337620 
#    z 0.246130 -0.337620 3.791830 
# 
# 
# High freq. dielectric constant tensor:
#      x y z
#    x 1.798640 0.007680 0.024390 
#    y 0.007680 1.808820 -0.026440 
#    z 0.024390 -0.026440 1.818850 
# 
# From -- ./inp_files/599453.got.cif
#   From: 2010.06.25/outbox.cif.g09.slc.cpg/sg2_300_cif.got.tgz:599453.got - 2010.06.27 13:26:56.
