data_PCOD8009128
_publ_section_title
;
Structure prediction by ZEFSAII (Michael W. Deem and Ramdas Pophale) SiO2 
 PCOD8009128
Probable space group: P -1
;
_chemical_formula_sum "Si O2"
_cell_formula_units_Z 16
_cell_length_a 15.007713
_cell_length_b 12.221328
_cell_length_c 9.664828
_cell_angle_alpha 104.138186
_cell_angle_beta 33.072411
_cell_angle_gamma 119.929501
_cell_volume 779.647345
_symmetry_space_group_name_H-M "P -1"
_symmetry_group_IT_number 2
_symmetry_cell_setting 'triclinic'
loop_
_space_group_symop_operation_xyz
x,y,z
-x,-y,-z
loop_
_atom_site_type_symbol
_atom_site_label
_atom_site_fract_x
_atom_site_fract_y
_atom_site_fract_z
Si Si1 0.555993 0.738058 0.771959
Si Si2 0.552767 0.316922 0.806839
Si Si3 0.977561 0.545019 0.393147
Si Si4 0.289356 0.506876 0.854409
Si Si5 0.222110 0.071223 0.692660
Si Si6 0.584115 0.673467 0.302721
Si Si7 0.612165 0.083660 0.672136
Si Si8 0.265955 0.832157 0.166444
O O1 0.465421 0.598209 0.763886
O O2 0.744056 0.860662 0.483469
O O3 0.592556 0.726980 0.883848
O O4 0.385705 0.763803 0.002325
O O5 0.433475 0.323730 0.838071
O O6 0.616082 0.213033 0.654153
O O7 0.751206 0.464514 0.619105
O O8 0.056785 0.706379 0.340515
O O9 0.000000 0.500000 0.500000
O O10 0.095793 0.508468 0.122978
O O11 0.372527 0.559291 0.608153
O O12 0.250959 0.358411 0.883512
O O13 0.353340 0.183013 0.671128
O O14 0.287075 0.964595 0.580503
O O15 0.000000 0.000000 0.000000
O O16 0.740588 0.116949 0.656144
O O17 0.380757 0.962602 0.957078
#
# Coordination Sequence:
#
# PCOD8009128 Si02
#       8
#     2   2   2   2   2   2   2   2
#     4   8  16  35  57  81 111 143 189 235 281 334
#     4  11  21  35  61  92 113 139 195 255 287 322
#     4  11  18  33  61  92 111 142 199 240 274 344
#     4   9  19  39  59  76 115 159 185 222 293 360
#     4  10  21  36  57  79 112 163 199 215 271 367
#     4  10  23  38  57  83 117 154 187 234 297 340
#     4   9  17  32  56  79 114 149 187 229 288 325
#     4   8  15  30  55  86 107 145 188 231 277 341
#
# _framework density 20.522099000000001
#
# number of rings (size 3 to 8) (size 9 to 14) (size 15 to 20)
#    0.000    2.500    3.750    1.500    1.750    1.500 
#    0.000    0.625    8.250    0.000    0.000    0.000 
#    0.000    0.000    0.000    0.000    0.000    0.000 
#
# Total GULP energy -198276.541631 kJ/mol
# GULP energy per Si atom -12392.283852 kJ/mol
# Density = 2.047539 g / cm^3
# Si number density = 20.522099 Si / 1000 Ang^3
#
#
#
# Elastic Constant Matrix: (Units=GPa)
#
#
# Indices 1 2 3 4 5 6 
#
# 1 63.4961 10.7229 28.9708 -10.2469 19.9587 9.9124
# 2 10.7229 96.1028 15.9811 -11.2668 -3.2951 15.1798
# 3 28.9708 15.9811 92.8911 -10.4029 13.5257 8.1883
# 4 -10.2469 -11.2668 -10.4029 29.8714 5.2345 0.2679
# 5 19.9587 -3.2951 13.5257 5.2345 26.1482 0.1790
# 6 9.9124 15.1798 8.1883 0.2679 0.1790 17.1609
#
#
#
# Elastic Compliance Matrix: (Units=1/GPa)
#
#
# Indices 1 2 3 4 5 6 
#
# 1 0.028760 0.000503 -0.002852 0.013225 -0.022954 -0.015663
# 2 0.000503 0.012869 -0.000989 0.004625 0.000901 -0.011284
# 3 -0.002852 -0.000989 0.013507 0.004402 -0.005789 -0.003931
# 4 0.013225 0.004625 0.004402 0.045048 -0.020709 -0.014318
# 5 -0.022954 0.000901 -0.005789 -0.020709 0.062916 0.014891
# 6 -0.015663 -0.011284 -0.003931 -0.014318 0.014891 0.079244
#
#
# Mechanical properties :
#
#
# Convention : Reuss Voigt Hill
#
# Bulk Modulus (GPa) = 20.63600 40.42661 30.53130
# Shear Modulus (GPa) = 18.85549 27.75712 23.30630
#
# Velocity S-wave (km/s) = 3.03444 3.68169 3.37362
# Velocity P-wave (km/s) = 4.72805 6.14939 5.48495
#
# Compressibility (1/GPa) = 0.04845901
#
# Stress axis : x y z
#
# Youngs Moduli (GPa) = 34.77082 77.70383 74.03309
#
# Poissons Ratio (x) = -0.03907 0.21115
# Poissons Ratio (y) = -0.01748 0.07325
# Poissons Ratio (z) = 0.09917 0.07689
#
# Static dielectric constant tensor:
#      x y z
#    x 3.229630 0.263900 0.344390 
#    y 0.263900 4.568710 -0.399660 
#    z 0.344390 -0.399660 4.370140 
# 
# 
# High freq. dielectric constant tensor:
#      x y z
#    x 1.734730 0.012240 0.020310 
#    y 0.012240 1.823140 0.002940 
#    z 0.020310 0.002940 1.797870 
# 
# From -- ./inp_files/305306.got.cif
#   From: 2010.06.25/outbox.cif.g09.slc.cpg/sg2_153_cif.got.tgz:305306.got - 2010.06.27 13:26:56.
