data_PCOD8009900
_publ_section_title
;
Structure prediction by ZEFSAII (Michael W. Deem and Ramdas Pophale) SiO2 
 PCOD8009900
Probable space group: P -1
;
_chemical_formula_sum "Si O2"
_cell_formula_units_Z 16
_cell_length_a 19.066887
_cell_length_b 9.189661
_cell_length_c 10.384639
_cell_angle_alpha 75.609350
_cell_angle_beta 47.651826
_cell_angle_gamma 40.288234
_cell_volume 723.265664
_symmetry_space_group_name_H-M "P -1"
_symmetry_group_IT_number 2
_symmetry_cell_setting 'triclinic'
loop_
_space_group_symop_operation_xyz
x,y,z
-x,-y,-z
loop_
_atom_site_type_symbol
_atom_site_label
_atom_site_fract_x
_atom_site_fract_y
_atom_site_fract_z
Si Si1 0.193878 0.602473 0.788247
Si Si2 0.883020 0.119185 0.739793
Si Si3 0.528549 0.292436 0.463004
Si Si4 0.951741 0.916412 0.250210
Si Si5 0.551354 0.608452 0.753124
Si Si6 0.259588 0.088529 0.490437
Si Si7 0.477664 0.680827 0.100429
Si Si8 0.154956 0.542386 0.595975
O O1 0.373752 0.389260 0.683852
O O2 0.192024 0.466697 0.719482
O O3 0.183825 0.769165 0.673561
O O4 0.039388 0.779371 0.034229
O O5 0.909502 0.218738 0.786911
O O6 0.680771 0.376643 0.914510
O O7 0.000000 0.000000 0.500000
O O8 0.959962 0.859999 0.754665
O O9 0.500000 0.500000 0.500000
O O10 0.547744 0.244294 0.294504
O O11 0.689999 0.016749 0.401451
O O12 0.874339 0.860096 0.402135
O O13 0.619473 0.346833 0.736067
O O14 0.705274 0.520624 0.610592
O O15 0.426860 0.797809 0.991363
O O16 0.173949 0.364557 0.531565
O O17 0.418008 0.879369 0.238358
#
# Coordination Sequence:
#
# PCOD8009900 Si02
#       8
#     2   2   2   2   2   2   2   2
#     4   9  19  37  60  88 126 167 208 259 308 373
#     4  11  22  41  67  89 121 172 218 253 309 387
#     4  11  19  36  63  94 122 167 215 259 307 385
#     4  10  21  37  62  92 127 163 216 257 307 379
#     4  10  22  39  65  95 127 164 217 264 308 382
#     4  12  24  39  67  97 133 166 208 267 327 370
#     4  11  22  40  71  96 119 172 221 262 310 381
#     4  10  23  43  62  95 135 162 204 272 325 371
#
# _framework density 22.121884999999999
#
# number of rings (size 3 to 8) (size 9 to 14) (size 15 to 20)
#    0.000    1.500    3.750    2.250    1.750    4.000 
#    0.000    3.125    0.000    0.000    0.000    0.000 
#    0.000    0.000    0.000    0.000    0.000    0.000 
#
# Total GULP energy -198216.744392 kJ/mol
# GULP energy per Si atom -12388.546524 kJ/mol
# Density = 2.207153 g / cm^3
# Si number density = 22.121885 Si / 1000 Ang^3
#
#
#
# Elastic Constant Matrix: (Units=GPa)
#
#
# Indices 1 2 3 4 5 6 
#
# 1 112.0729 45.6339 43.8199 4.8907 18.3125 9.7876
# 2 45.6339 61.0345 38.5752 6.5220 5.1744 13.5740
# 3 43.8199 38.5752 78.1980 -1.2111 14.9014 14.7758
# 4 4.8907 6.5220 -1.2111 23.0388 -3.1417 7.5986
# 5 18.3125 5.1744 14.9014 -3.1417 36.6021 -2.4914
# 6 9.7876 13.5740 14.7758 7.5986 -2.4914 37.0837
#
#
#
# Elastic Compliance Matrix: (Units=1/GPa)
#
#
# Indices 1 2 3 4 5 6 
#
# 1 0.014335 -0.008235 -0.003176 -0.001709 -0.004826 0.000522
# 2 -0.008235 0.030167 -0.010366 -0.005782 0.003353 -0.003328
# 3 -0.003176 -0.010366 0.021948 0.005856 -0.005766 -0.005700
# 4 -0.001709 -0.005782 0.005856 0.049293 0.002861 -0.009674
# 5 -0.004826 0.003353 -0.005766 0.002861 0.032121 0.003916
# 6 0.000522 -0.003328 -0.005700 -0.009674 0.003916 0.032563
#
#
# Mechanical properties :
#
#
# Convention : Reuss Voigt Hill
#
# Bulk Modulus (GPa) = 43.67743 56.37372 50.02558
# Shear Modulus (GPa) = 21.58763 27.56336 24.57550
#
# Velocity S-wave (km/s) = 3.12725 3.53367 3.33665
# Velocity P-wave (km/s) = 5.72944 6.49520 6.12430
#
# Compressibility (1/GPa) = 0.02289512
#
# Stress axis : x y z
#
# Youngs Moduli (GPa) = 69.75756 33.14902 45.56204
#
# Poissons Ratio (x) = 0.27298 0.14472
# Poissons Ratio (y) = 0.57446 0.47231
# Poissons Ratio (z) = 0.22157 0.34363
#
# Static dielectric constant tensor:
#      x y z
#    x 4.282400 -0.123670 0.213910 
#    y -0.123670 3.622200 -0.133450 
#    z 0.213910 -0.133450 4.012550 
# 
# 
# High freq. dielectric constant tensor:
#      x y z
#    x 1.890040 -0.005060 0.013100 
#    y -0.005060 1.815490 -0.012080 
#    z 0.013100 -0.012080 1.873990 
# 
# From -- ./inp_files/469946.got.cif
#   From: 2010.06.25/outbox.cif.g09.slc.cpg/sg2_235_cif.got.tgz:469946.got - 2010.06.27 13:26:56.
