data_PCOD8009680
_publ_section_title
;
Structure prediction by ZEFSAII (Michael W. Deem and Ramdas Pophale) SiO2 
 PCOD8009680
Probable space group: P -1
;
_chemical_formula_sum "Si O2"
_cell_formula_units_Z 16
_cell_length_a 11.985060
_cell_length_b 15.680612
_cell_length_c 19.216898
_cell_angle_alpha 19.012065
_cell_angle_beta 132.275130
_cell_angle_gamma 132.018619
_cell_volume 862.138124
_symmetry_space_group_name_H-M "P -1"
_symmetry_group_IT_number 2
_symmetry_cell_setting 'triclinic'
loop_
_space_group_symop_operation_xyz
x,y,z
-x,-y,-z
loop_
_atom_site_type_symbol
_atom_site_label
_atom_site_fract_x
_atom_site_fract_y
_atom_site_fract_z
Si Si1 0.183297 0.042362 0.702982
Si Si2 0.689825 0.467935 0.875509
Si Si3 0.906142 0.725404 0.650157
Si Si4 0.851797 0.125686 0.664707
Si Si5 0.809390 0.632995 0.409722
Si Si6 0.659142 0.579510 0.244490
Si Si7 0.167914 0.954465 0.124361
Si Si8 0.895680 0.703322 0.901014
O O1 0.176331 0.249284 0.477891
O O2 0.236969 0.194134 0.679151
O O3 0.015667 0.876557 0.767554
O O4 0.304551 0.844068 0.891291
O O5 0.776324 0.638651 0.718796
O O6 0.517489 0.522451 0.761727
O O7 0.762663 0.551994 0.915510
O O8 0.000000 0.000000 0.500000
O O9 0.019533 0.506195 0.859347
O O10 0.751519 0.353937 0.427384
O O11 0.804810 0.008336 0.810774
O O12 0.027488 0.251419 0.642443
O O13 0.819784 0.888721 0.779232
O O14 0.688395 0.638027 0.293284
O O15 0.810623 0.338073 0.665540
O O16 0.705748 0.845025 0.015873
O O17 0.000000 0.000000 0.000000
#
# Coordination Sequence:
#
# PCOD8009680 Si02
#       8
#     2   2   2   2   2   2   2   2
#     4  10  21  37  62  89 110 149 195 235 283 340
#     4  11  23  39  57  86 122 151 185 233 291 344
#     4  11  19  38  64  82 110 150 193 236 280 330
#     4  10  21  37  59  88 113 147 199 236 276 338
#     4  10  21  37  60  88 113 145 199 240 276 336
#     4  11  23  39  57  83 124 155 180 239 290 330
#     4  11  19  36  60  82 110 153 195 228 280 336
#     4  10  21  37  60  89 114 146 193 238 280 341
#
# _framework density 18.558512
#
# number of rings (size 3 to 8) (size 9 to 14) (size 15 to 20)
#    0.000    1.500    5.000    1.500    1.750    4.000 
#    0.000    1.875    0.000    0.000    0.000    0.000 
#    0.000    0.000    0.000    0.000    0.000    0.000 
#
# Total GULP energy -198474.058043 kJ/mol
# GULP energy per Si atom -12404.628628 kJ/mol
# Density = 1.851627 g / cm^3
# Si number density = 18.558512 Si / 1000 Ang^3
#
#
#
# Elastic Constant Matrix: (Units=GPa)
#
#
# Indices 1 2 3 4 5 6 
#
# 1 46.2212 36.4310 28.4334 -7.4475 2.7207 -1.8539
# 2 36.4310 61.9484 33.4359 -7.7743 7.7249 -7.7373
# 3 28.4334 33.4359 109.8633 -5.9382 -10.1502 -9.9214
# 4 -7.4475 -7.7743 -5.9382 27.6439 -6.4032 5.6833
# 5 2.7207 7.7249 -10.1502 -6.4032 30.4098 -3.3909
# 6 -1.8539 -7.7373 -9.9214 5.6833 -3.3909 31.5354
#
#
#
# Elastic Compliance Matrix: (Units=1/GPa)
#
#
# Indices 1 2 3 4 5 6 
#
# 1 0.043116 -0.023236 -0.004154 0.005574 0.001236 -0.005345
# 2 -0.023236 0.033744 -0.004554 -0.000482 -0.007585 0.004752
# 3 -0.004154 -0.004554 0.012476 0.001107 0.006264 0.003038
# 4 0.005574 -0.000482 0.001107 0.040838 0.007929 -0.005950
# 5 0.001236 -0.007585 0.006264 0.007929 0.038787 0.002924
# 6 -0.005345 0.004752 0.003038 -0.005950 0.002924 0.034905
#
#
# Mechanical properties :
#
#
# Convention : Reuss Voigt Hill
#
# Bulk Modulus (GPa) = 39.29550 46.07038 42.68294
# Shear Modulus (GPa) = 18.10053 25.90000 22.00027
#
# Velocity S-wave (km/s) = 3.12640 3.73981 3.44678
# Velocity P-wave (km/s) = 5.85255 6.59746 6.23614
#
# Compressibility (1/GPa) = 0.02544821
#
# Stress axis : x y z
#
# Youngs Moduli (GPa) = 23.19337 29.63518 80.15288
#
# Poissons Ratio (x) = 0.68860 0.33297
# Poissons Ratio (y) = 0.53892 0.36499
# Poissons Ratio (z) = 0.09635 0.13495
#
# Static dielectric constant tensor:
#      x y z
#    x 3.272690 -0.154550 -0.055420 
#    y -0.154550 3.305600 -0.033360 
#    z -0.055420 -0.033360 3.687340 
# 
# 
# High freq. dielectric constant tensor:
#      x y z
#    x 1.705390 -0.014580 -0.001040 
#    y -0.014580 1.714930 -0.000460 
#    z -0.001040 -0.000460 1.735280 
# 
# From -- ./inp_files/66260.got.cif
#   From: 2010.06.25/outbox.cif.g09.slc.cpg/sg2_34_cif.got.tgz:66260.got - 2010.06.27 13:26:56.
