data_PCOD8009161
_publ_section_title
;
Structure prediction by ZEFSAII (Michael W. Deem and Ramdas Pophale) SiO2 
 PCOD8009161
Probable space group: P -1
;
_chemical_formula_sum "Si O2"
_cell_formula_units_Z 16
_cell_length_a 14.239838
_cell_length_b 6.958330
_cell_length_c 21.295820
_cell_angle_alpha 80.794287
_cell_angle_beta 157.787097
_cell_angle_gamma 101.189366
_cell_volume 781.458963
_symmetry_space_group_name_H-M "P -1"
_symmetry_group_IT_number 2
_symmetry_cell_setting 'triclinic'
loop_
_space_group_symop_operation_xyz
x,y,z
-x,-y,-z
loop_
_atom_site_type_symbol
_atom_site_label
_atom_site_fract_x
_atom_site_fract_y
_atom_site_fract_z
Si Si1 0.941380 0.545294 0.595240
Si Si2 0.277399 0.881306 0.738698
Si Si3 0.814803 0.654992 0.738274
Si Si4 0.538985 0.842159 0.331837
Si Si5 0.065889 0.815921 0.475605
Si Si6 0.860430 0.242141 0.807636
Si Si7 0.733810 0.378772 0.595439
Si Si8 0.769905 0.029451 0.975669
O O1 0.694286 0.657116 0.432929
O O2 0.958646 0.403348 0.554209
O O3 0.926674 0.407789 0.655299
O O4 0.191683 0.705206 0.744113
O O5 0.124149 0.806968 0.585609
O O6 0.574519 0.914000 0.909646
O O7 0.192561 0.088055 0.698226
O O8 0.922953 0.473527 0.850656
O O9 0.752980 0.594096 0.630363
O O10 0.547150 0.689029 0.600994
O O11 0.017165 0.843268 0.858834
O O12 0.378766 0.843906 0.295713
O O13 0.363857 0.835555 0.161877
O O14 0.715397 0.047474 0.432042
O O15 0.804622 0.219570 0.698774
O O16 0.098784 0.129032 0.975493
#
# Coordination Sequence:
#
# PCOD8009161 Si02
#       8
#     2   2   2   2   2   2   2   2
#     4  11  19  39  66  83 112 158 190 242 283 323
#     4   9  21  39  54  89 119 143 197 238 275 353
#     4   9  20  40  57  81 122 151 187 242 281 330
#     4  10  21  36  57  95 121 137 198 238 280 358
#     4   9  20  36  62  86 112 154 191 238 288 328
#     4  10  21  39  57  84 122 155 182 240 281 344
#     4   9  20  42  56  85 113 148 209 233 263 351
#     4  11  23  36  59  87 120 155 184 230 306 343
#
# _framework density 20.474525
#
# number of rings (size 3 to 8) (size 9 to 14) (size 15 to 20)
#    0.750    1.500    1.250    1.500    1.750    4.000 
#    4.500    1.250    0.000    0.000    0.000    0.000 
#    0.000    0.000    0.000    0.000    0.000    0.000 
#
# Total GULP energy -198279.898406 kJ/mol
# GULP energy per Si atom -12392.493650 kJ/mol
# Density = 2.042792 g / cm^3
# Si number density = 20.474525 Si / 1000 Ang^3
#
#
#
# Elastic Constant Matrix: (Units=GPa)
#
#
# Indices 1 2 3 4 5 6 
#
# 1 88.0374 21.2841 32.7967 1.2037 20.8176 15.3235
# 2 21.2841 73.5817 40.0215 1.3587 15.2199 -4.0176
# 3 32.7967 40.0215 78.1306 10.9350 22.6017 3.6135
# 4 1.2037 1.3587 10.9350 29.9803 0.5803 7.4810
# 5 20.8176 15.2199 22.6017 0.5803 33.3758 0.1451
# 6 15.3235 -4.0176 3.6135 7.4810 0.1451 22.8357
#
#
#
# Elastic Compliance Matrix: (Units=1/GPa)
#
#
# Indices 1 2 3 4 5 6 
#
# 1 0.017178 -0.002024 -0.004155 0.004185 -0.006996 -0.012552
# 2 -0.002024 0.019865 -0.009315 0.001118 -0.001534 0.005971
# 3 -0.004155 -0.009315 0.022829 -0.007593 -0.008489 0.000078
# 4 0.004185 0.001118 -0.007593 0.039459 0.001398 -0.014346
# 5 -0.006996 -0.001534 -0.008489 0.001398 0.040727 0.005051
# 6 -0.012552 0.005971 0.000078 -0.014346 0.005051 0.057920
#
#
# Mechanical properties :
#
#
# Convention : Reuss Voigt Hill
#
# Bulk Modulus (GPa) = 34.62216 47.55047 41.08631
# Shear Modulus (GPa) = 20.95611 26.94820 23.95216
#
# Velocity S-wave (km/s) = 3.20272 3.63186 3.42402
# Velocity P-wave (km/s) = 5.53382 6.39233 5.97850
#
# Compressibility (1/GPa) = 0.02888324
#
# Stress axis : x y z
#
# Youngs Moduli (GPa) = 58.21400 50.34013 43.80309
#
# Poissons Ratio (x) = 0.10191 0.18202
# Poissons Ratio (y) = 0.11785 0.40802
# Poissons Ratio (z) = 0.24190 0.46891
#
# Static dielectric constant tensor:
#      x y z
#    x 3.633030 0.171050 0.264190 
#    y 0.171050 3.558330 -0.121620 
#    z 0.264190 -0.121620 3.420670 
# 
# 
# High freq. dielectric constant tensor:
#      x y z
#    x 1.792920 0.013180 0.025310 
#    y 0.013180 1.795790 -0.006790 
#    z 0.025310 -0.006790 1.774090 
# 
# From -- ./inp_files/611255.got.cif
#   From: 2010.06.25/outbox.cif.g09.slc.cpg/sg2_306_cif.got.tgz:611255.got - 2010.06.27 13:26:56.
