data_PCOD8009548
_publ_section_title
;
Structure prediction by ZEFSAII (Michael W. Deem and Ramdas Pophale) SiO2 
 PCOD8009548
Probable space group: P -1
;
_chemical_formula_sum "Si O2"
_cell_formula_units_Z 16
_cell_length_a 7.010823
_cell_length_b 28.963848
_cell_length_c 14.156681
_cell_angle_alpha 151.950281
_cell_angle_beta 139.939630
_cell_angle_gamma 51.407454
_cell_volume 857.211403
_symmetry_space_group_name_H-M "P -1"
_symmetry_group_IT_number 2
_symmetry_cell_setting 'triclinic'
loop_
_space_group_symop_operation_xyz
x,y,z
-x,-y,-z
loop_
_atom_site_type_symbol
_atom_site_label
_atom_site_fract_x
_atom_site_fract_y
_atom_site_fract_z
Si Si1 0.663845 0.277201 0.747471
Si Si2 0.312179 0.259824 0.253084
Si Si3 0.132234 0.301189 0.468775
Si Si4 0.323751 0.758404 0.106330
Si Si5 0.649269 0.910283 0.630499
Si Si6 0.760443 0.125825 0.122286
Si Si7 0.380015 0.585389 0.493469
Si Si8 0.313606 0.363009 0.103586
O O1 0.408970 0.329998 0.698083
O O2 0.699389 0.310147 0.931082
O O3 0.550593 0.156602 0.484973
O O4 0.973560 0.305754 0.859955
O O5 0.263594 0.285957 0.389180
O O6 0.503942 0.170784 0.161420
O O7 0.495451 0.359306 0.454769
O O8 0.001664 0.222508 0.013947
O O9 0.908135 0.201253 0.233745
O O10 0.949357 0.392554 0.564169
O O11 0.531316 0.865721 0.402790
O O12 0.464004 0.703860 0.976835
O O13 0.998025 0.898689 0.753904
O O14 0.607911 0.024359 0.829094
O O15 0.351361 0.467853 0.252751
O O16 0.612681 0.621199 0.730032
#
# Coordination Sequence:
#
# PCOD8009548 Si02
#       8
#     2   2   2   2   2   2   2   2
#     4   9  21  38  57  81 118 146 181 236 278 327
#     4  11  21  37  59  85 113 149 186 233 281 329
#     4  10  21  38  58  85 115 147 183 235 283 330
#     4  10  21  37  57  83 113 148 188 228 277 330
#     4   8  18  40  58  83 115 147 182 237 271 333
#     4   9  19  38  60  83 115 146 188 228 279 333
#     4  10  22  37  58  84 114 145 191 235 276 333
#     4  11  21  37  60  83 110 154 188 228 283 334
#
# _framework density 18.665172999999999
#
# number of rings (size 3 to 8) (size 9 to 14) (size 15 to 20)
#    0.750    1.500    2.500    0.000    1.750    2.500 
#    2.250    3.750    0.000    0.000    0.000    0.000 
#    0.000    0.000    0.000    0.000    0.000    0.000 
#
# Total GULP energy -198351.401011 kJ/mol
# GULP energy per Si atom -12396.962563 kJ/mol
# Density = 1.862269 g / cm^3
# Si number density = 18.665173 Si / 1000 Ang^3
#
#
#
# Elastic Constant Matrix: (Units=GPa)
#
#
# Indices 1 2 3 4 5 6 
#
# 1 80.8742 14.2407 25.2406 -2.3932 2.7147 -13.8459
# 2 14.2407 61.9131 21.3294 -13.9267 8.9738 -14.4516
# 3 25.2406 21.3294 73.7431 -8.0453 9.3043 -13.5181
# 4 -2.3932 -13.9267 -8.0453 27.4641 -0.6009 -1.4726
# 5 2.7147 8.9738 9.3043 -0.6009 20.2032 -7.7035
# 6 -13.8459 -14.4516 -13.5181 -1.4726 -7.7035 29.1262
#
#
#
# Elastic Compliance Matrix: (Units=1/GPa)
#
#
# Indices 1 2 3 4 5 6 
#
# 1 0.014624 -0.001155 -0.004050 -0.000172 0.002358 0.005114
# 2 -0.001155 0.022535 -0.002730 0.010878 -0.004997 0.008593
# 3 -0.004050 -0.002730 0.017391 0.003453 -0.004733 0.003714
# 4 -0.000172 0.010878 0.003453 0.043347 -0.001819 0.008629
# 5 0.002358 -0.004997 -0.004733 -0.001819 0.057982 0.011688
# 6 0.005114 0.008593 0.003714 0.008629 0.011688 0.046280
#
#
# Mechanical properties :
#
#
# Convention : Reuss Voigt Hill
#
# Bulk Modulus (GPa) = 25.85371 37.57244 31.71307
# Shear Modulus (GPa) = 21.65233 25.74001 23.69617
#
# Velocity S-wave (km/s) = 3.40963 3.71757 3.56693
# Velocity P-wave (km/s) = 5.42053 6.21293 5.83021
#
# Compressibility (1/GPa) = 0.03867918
#
# Stress axis : x y z
#
# Youngs Moduli (GPa) = 68.38281 44.37562 57.49986
#
# Poissons Ratio (x) = 0.05126 0.23288
# Poissons Ratio (y) = 0.07899 0.15698
# Poissons Ratio (z) = 0.27696 0.12115
#
# Static dielectric constant tensor:
#      x y z
#    x 3.203930 -0.029910 0.101640 
#    y -0.029910 3.467850 -0.102720 
#    z 0.101640 -0.102720 3.358000 
# 
# 
# High freq. dielectric constant tensor:
#      x y z
#    x 1.710720 -0.005220 0.009070 
#    y -0.005220 1.726920 -0.012690 
#    z 0.009070 -0.012690 1.718410 
# 
# From -- ./inp_files/289014.got.cif
#   From: 2010.06.25/outbox.cif.g09.slc.cpg/sg2_145_cif.got.tgz:289014.got - 2010.06.27 13:26:56.
