data_PCOD8009002
_publ_section_title
;
Structure prediction by ZEFSAII (Michael W. Deem and Ramdas Pophale) SiO2 
 PCOD8009002
Probable space group: P -1
;
_chemical_formula_sum "Si O2"
_cell_formula_units_Z 16
_cell_length_a 5.591917
_cell_length_b 7.145576
_cell_length_c 18.837770
_cell_angle_alpha 73.549344
_cell_angle_beta 112.193470
_cell_angle_gamma 122.612303
_cell_volume 583.995404
_symmetry_space_group_name_H-M "P -1"
_symmetry_group_IT_number 2
_symmetry_cell_setting 'triclinic'
loop_
_space_group_symop_operation_xyz
x,y,z
-x,-y,-z
loop_
_atom_site_type_symbol
_atom_site_label
_atom_site_fract_x
_atom_site_fract_y
_atom_site_fract_z
Si Si1 0.902596 0.712651 0.589270
Si Si2 0.526258 0.304683 0.343503
Si Si3 0.713934 0.768528 0.409373
Si Si4 0.413620 0.871744 0.895700
Si Si5 0.225148 0.427928 0.181435
Si Si6 0.533465 0.703764 0.062249
Si Si7 0.854711 0.204441 0.657591
Si Si8 0.878372 0.198681 0.821658
O O1 0.598608 0.601572 0.615876
O O2 0.810022 0.698759 0.499329
O O3 0.114358 0.596767 0.632572
O O4 0.115546 0.965302 0.611397
O O5 0.433159 0.346914 0.251086
O O6 0.365611 0.041206 0.371181
O O7 0.354275 0.676201 0.382230
O O8 0.836326 0.679570 0.366363
O O9 0.109659 0.765442 0.830473
O O10 0.449594 0.079260 0.923076
O O11 0.658155 0.950342 0.852643
O O12 0.449906 0.696571 0.970563
O O13 0.295448 0.482046 0.099982
O O14 0.274359 0.647023 0.206086
O O15 0.840569 0.703478 0.105626
O O16 0.958164 0.187513 0.750406
#
# Coordination Sequence:
#
# PCOD8009002 Si02
#       8
#     2   2   2   2   2   2   2   2
#     4   9  18  34  59  95 130 170 227 276 332 401
#     4  10  21  35  62  94 133 177 220 278 336 400
#     4   9  18  34  60  94 129 173 224 279 331 399
#     4  10  23  44  68  94 133 174 228 278 339 404
#     4  11  25  39  66  98 136 177 224 279 338 403
#     4  10  23  44  66  97 131 177 223 282 337 404
#     4  10  21  35  63  93 132 178 222 276 338 396
#     4  11  25  39  66  97 134 177 225 280 336 403
#
# _framework density 27.397476999999999
#
# number of rings (size 3 to 8) (size 9 to 14) (size 15 to 20)
#    0.000    2.000    0.000    2.250   10.500    4.500 
#    0.000    0.000    0.000    4.500    0.000    0.000 
#    0.000    0.000    0.000    0.000    0.000    0.000 
#
# Total GULP energy -198517.426241 kJ/mol
# GULP energy per Si atom -12407.339140 kJ/mol
# Density = 2.733512 g / cm^3
# Si number density = 27.397477 Si / 1000 Ang^3
#
#
#
# Elastic Constant Matrix: (Units=GPa)
#
#
# Indices 1 2 3 4 5 6 
#
# 1 218.6671 80.7423 95.0043 -5.2960 5.0686 40.2369
# 2 80.7423 71.7433 26.0762 -0.4982 -2.1835 14.4276
# 3 95.0043 26.0762 177.6144 -7.4078 0.3094 4.0896
# 4 -5.2960 -0.4982 -7.4078 25.8264 0.5053 6.9131
# 5 5.0686 -2.1835 0.3094 0.5053 55.4419 -7.0327
# 6 40.2369 14.4276 4.0896 6.9131 -7.0327 51.6861
#
#
#
# Elastic Compliance Matrix: (Units=1/GPa)
#
#
# Indices 1 2 3 4 5 6 
#
# 1 0.011548 -0.010136 -0.004424 0.002682 -0.002277 -0.006479
# 2 -0.010136 0.024488 0.001727 -0.001528 0.002074 0.001405
# 3 -0.004424 0.001727 0.007716 0.000695 0.000722 0.002357
# 4 0.002682 -0.001528 0.000695 0.041476 -0.001637 -0.007487
# 5 -0.002277 0.002074 0.000722 -0.001637 0.018835 0.003918
# 6 -0.006479 0.001405 0.002357 -0.007487 0.003918 0.025347
#
#
# Mechanical properties :
#
#
# Convention : Reuss Voigt Hill
#
# Bulk Modulus (GPa) = 55.28975 96.85229 76.07102
# Shear Modulus (GPa) = 31.03567 44.33768 37.68668
#
# Velocity S-wave (km/s) = 3.36935 4.02719 3.71287
# Velocity P-wave (km/s) = 5.94652 7.55327 6.79754
#
# Compressibility (1/GPa) = 0.01808654
#
# Stress axis : x y z
#
# Youngs Moduli (GPa) = 86.59692 40.83562 129.59624
#
# Poissons Ratio (x) = 0.41391 0.57329
# Poissons Ratio (y) = 0.87776 -0.22379
# Poissons Ratio (z) = 0.38307 -0.07052
#
# Static dielectric constant tensor:
#      x y z
#    x 5.272530 0.035830 -0.005610 
#    y 0.035830 5.362500 -0.240000 
#    z -0.005610 -0.240000 4.629010 
# 
# 
# High freq. dielectric constant tensor:
#      x y z
#    x 2.128720 -0.000990 0.003160 
#    y -0.000990 2.161110 -0.009470 
#    z 0.003160 -0.009470 2.087180 
# 
# From -- ./inp_files/547996.got.cif
#   From: 2010.06.25/outbox.cif.g09.slc.cpg/sg2_274_cif.got.tgz:547996.got - 2010.06.27 13:26:56.
