data_PCOD8009388
_publ_section_title
;
Structure prediction by ZEFSAII (Michael W. Deem and Ramdas Pophale) SiO2 
 PCOD8009388
Probable space group: P -1
;
_chemical_formula_sum "Si O2"
_cell_formula_units_Z 14
_cell_length_a 19.676951
_cell_length_b 11.155542
_cell_length_c 11.840729
_cell_angle_alpha 135.863226
_cell_angle_beta 156.593686
_cell_angle_gamma 33.583248
_cell_volume 557.992927
_symmetry_space_group_name_H-M "P -1"
_symmetry_group_IT_number 2
_symmetry_cell_setting 'triclinic'
loop_
_space_group_symop_operation_xyz
x,y,z
-x,-y,-z
loop_
_atom_site_type_symbol
_atom_site_label
_atom_site_fract_x
_atom_site_fract_y
_atom_site_fract_z
Si Si1 0.522309 0.944653 0.235201
Si Si2 0.258723 0.518926 0.456765
Si Si3 0.795485 0.833998 0.887403
Si Si4 0.720189 0.462815 0.252495
Si Si5 0.965118 0.769020 0.719645
Si Si6 0.166943 0.297381 0.764707
Si Si7 0.710867 0.202111 0.868895
O O1 0.583895 0.704581 0.148441
O O2 0.749712 0.916986 0.574033
O O3 0.376411 0.053392 0.197100
O O4 0.394184 0.096501 0.033200
O O5 0.192224 0.364586 0.279108
O O6 0.361124 0.536239 0.742507
O O7 0.452923 0.406829 0.581964
O O8 0.037937 0.752829 0.236909
O O9 0.717028 0.998587 0.774565
O O10 0.756573 0.277906 0.103963
O O11 0.967329 0.373855 0.595114
O O12 0.856371 0.780462 0.443718
O O13 0.150371 0.514415 0.869299
O O14 0.104681 0.859562 0.983590
#
# Coordination Sequence:
#
# PCOD8009388 Si02
#       7
#     2   2   2   2   2   2   2
#     4  11  20  36  63  91 117 163 197 242 296 360
#     4  11  23  42  59  87 124 160 202 243 293 370
#     4  11  25  39  65  87 117 166 203 238 304 352
#     4  10  21  36  62  95 119 153 199 247 301 347
#     4   9  21  36  58  89 121 159 195 241 304 349
#     4   9  18  37  58  86 126 158 195 240 293 365
#     4  11  23  40  61  94 124 151 194 258 301 347
#
# _framework density 25.089925000000001
#
# number of rings (size 3 to 8) (size 9 to 14) (size 15 to 20)
#    0.000    1.714    2.857    2.143    0.000    4.000 
#    0.000    0.714    0.000    2.571    0.000    0.000 
#    0.000    0.000    0.000    0.000    0.000    0.000 
#
# Total GULP energy -173511.407295 kJ/mol
# GULP energy per Si atom -12393.671950 kJ/mol
# Density = 2.503282 g / cm^3
# Si number density = 25.089925 Si / 1000 Ang^3
#
#
#
# Elastic Constant Matrix: (Units=GPa)
#
#
# Indices 1 2 3 4 5 6 
#
# 1 101.0209 18.7524 32.7360 -19.8570 34.3072 1.5494
# 2 18.7524 47.1128 32.0192 -24.6302 7.5355 3.2481
# 3 32.7360 32.0192 102.2411 -34.9383 26.3318 5.1338
# 4 -19.8570 -24.6302 -34.9383 44.5103 -4.8986 6.6564
# 5 34.3072 7.5355 26.3318 -4.8986 48.2456 -1.4781
# 6 1.5494 3.2481 5.1338 6.6564 -1.4781 27.3310
#
#
#
# Elastic Compliance Matrix: (Units=1/GPa)
#
#
# Indices 1 2 3 4 5 6 
#
# 1 0.014442 -0.001524 0.000201 0.005053 -0.009703 -0.002431
# 2 -0.001524 0.033300 -0.004207 0.015420 -0.000466 -0.006862
# 3 0.000201 -0.004207 0.017237 0.011307 -0.007927 -0.005932
# 4 0.005053 0.015420 0.011307 0.043509 -0.008223 -0.015284
# 5 -0.009703 -0.000466 -0.007927 -0.008223 0.031369 0.005794
# 6 -0.002431 -0.006862 -0.005932 -0.015284 0.005794 0.042692
#
#
# Mechanical properties :
#
#
# Convention : Reuss Voigt Hill
#
# Bulk Modulus (GPa) = 18.54595 46.37666 32.46131
# Shear Modulus (GPa) = 23.63137 35.14186 29.38662
#
# Velocity S-wave (km/s) = 3.07231 3.74657 3.42607
# Velocity P-wave (km/s) = 4.47139 6.10246 5.34945
#
# Compressibility (1/GPa) = 0.05392012
#
# Stress axis : x y z
#
# Youngs Moduli (GPa) = 69.24041 30.02975 58.01398
#
# Poissons Ratio (x) = 0.04576 -0.01165
# Poissons Ratio (y) = 0.10550 0.24406
# Poissons Ratio (z) = -0.01390 0.12633
#
# Static dielectric constant tensor:
#      x y z
#    x 4.621120 -0.009100 0.546050 
#    y -0.009100 4.477210 -0.084950 
#    z 0.546050 -0.084950 4.969820 
# 
# 
# High freq. dielectric constant tensor:
#      x y z
#    x 1.998750 -0.017530 0.023470 
#    y -0.017530 1.989800 -0.004240 
#    z 0.023470 -0.004240 2.013230 
# 
# From -- ./inp_files/308875.got.cif
#   From: 2010.06.25/outbox.cif.g09.slc.cpg/sg2_155_cif.got.tgz:308875.got - 2010.06.27 13:26:56.
