data_PCOD8009723
_publ_section_title
;
Structure prediction by ZEFSAII (Michael W. Deem and Ramdas Pophale) SiO2 
 PCOD8009723
Probable space group: P -1
;
_chemical_formula_sum "Si O2"
_cell_formula_units_Z 10
_cell_length_a 9.450264
_cell_length_b 9.142285
_cell_length_c 9.633059
_cell_angle_alpha 62.214857
_cell_angle_beta 107.793625
_cell_angle_gamma 134.628192
_cell_volume 523.699721
_symmetry_space_group_name_H-M "P -1"
_symmetry_group_IT_number 2
_symmetry_cell_setting 'triclinic'
loop_
_space_group_symop_operation_xyz
x,y,z
-x,-y,-z
loop_
_atom_site_type_symbol
_atom_site_label
_atom_site_fract_x
_atom_site_fract_y
_atom_site_fract_z
Si Si1 0.455067 0.127592 0.661965
Si Si2 0.251430 0.580664 0.158808
Si Si3 0.195288 0.244782 0.483683
Si Si4 0.193217 0.533880 0.564743
Si Si5 0.181259 0.615395 0.822347
O O1 0.561109 0.187810 0.817381
O O2 0.374216 0.253510 0.565993
O O3 0.619778 0.226725 0.547432
O O4 0.279545 0.866397 0.712672
O O5 0.245606 0.389717 0.298487
O O6 0.053342 0.533463 0.162898
O O7 0.276698 0.597293 0.992996
O O8 0.162825 0.336275 0.567848
O O9 0.000000 0.000000 0.500000
O O10 0.224093 0.529949 0.740824
O O11 0.000000 0.500000 0.500000
#
# Coordination Sequence:
#
# PCOD8009723 Si02
#       5
#     2   2   2   2   2
#     4  11  21  39  63  84 116 159 192 232 297 344
#     4  10  21  37  60  86 121 149 194 235 293 343
#     4  11  21  40  61  85 117 159 193 233 292 348
#     4  11  20  37  60  90 115 149 202 239 275 349
#     4  11  21  37  61  89 116 151 194 244 283 339
#
# _framework density 19.094909999999999
#
# number of rings (size 3 to 8) (size 9 to 14) (size 15 to 20)
#    0.000    1.200    6.000    3.600    0.000    0.000 
#    0.000    5.000    0.000    0.000    0.000    0.000 
#    0.000    0.000    0.000    0.000    0.000    0.000 
#
# Total GULP energy -123997.753849 kJ/mol
# GULP energy per Si atom -12399.775385 kJ/mol
# Density = 1.905145 g / cm^3
# Si number density = 19.094910 Si / 1000 Ang^3
#
#
#
# Elastic Constant Matrix: (Units=GPa)
#
#
# Indices 1 2 3 4 5 6 
#
# 1 100.3812 21.9848 49.9934 9.5183 -0.0454 -1.9702
# 2 21.9848 75.3610 32.4193 10.5824 -6.7279 -14.7525
# 3 49.9934 32.4193 156.9405 32.2091 -11.5928 -18.8285
# 4 9.5183 10.5824 32.2091 30.8924 -2.4370 2.7867
# 5 -0.0454 -6.7279 -11.5928 -2.4370 27.6155 3.9319
# 6 -1.9702 -14.7525 -18.8285 2.7867 3.9319 30.6757
#
#
#
# Elastic Compliance Matrix: (Units=1/GPa)
#
#
# Indices 1 2 3 4 5 6 
#
# 1 0.012471 -0.002816 -0.004240 0.001673 -0.001861 -0.003069
# 2 -0.002816 0.016690 -0.000448 -0.004894 0.002343 0.007715
# 3 -0.004240 -0.000448 0.010958 -0.010379 0.002593 0.006849
# 4 0.001673 -0.004894 -0.010379 0.045530 0.000292 -0.012790
# 5 -0.001861 0.002343 0.002593 0.000292 0.038225 -0.002327
# 6 -0.003069 0.007715 0.006849 -0.012790 -0.002327 0.041776
#
#
# Mechanical properties :
#
#
# Convention : Reuss Voigt Hill
#
# Bulk Modulus (GPa) = 39.82071 60.16420 49.99246
# Shear Modulus (GPa) = 26.45116 33.05574 29.75345
#
# Velocity S-wave (km/s) = 3.72593 4.16520 3.95167
# Velocity P-wave (km/s) = 6.27769 7.39650 6.85994
#
# Compressibility (1/GPa) = 0.02511256
#
# Stress axis : x y z
#
# Youngs Moduli (GPa) = 80.18853 59.91513 91.25603
#
# Poissons Ratio (x) = 0.16872 0.38691
# Poissons Ratio (y) = 0.22581 0.04084
# Poissons Ratio (z) = 0.33998 0.02681
#
# Static dielectric constant tensor:
#      x y z
#    x 3.660940 0.073880 -0.260310 
#    y 0.073880 3.617110 0.328810 
#    z -0.260310 0.328810 4.040020 
# 
# 
# High freq. dielectric constant tensor:
#      x y z
#    x 1.732040 0.019550 0.000900 
#    y 0.019550 1.753680 0.012840 
#    z 0.000900 0.012840 1.743020 
# 
# From -- ./inp_files/144028.got.cif
#   From: 2010.06.25/outbox.cif.g09.slc.cpg/sg2_73_cif.got.tgz:144028.got - 2010.06.27 13:26:56.
