data_PCOD8009204
_publ_section_title
;
Structure prediction by ZEFSAII (Michael W. Deem and Ramdas Pophale) SiO2 
 PCOD8009204
Probable space group: P -1
;
_chemical_formula_sum "Si O2"
_cell_formula_units_Z 14
_cell_length_a 28.228637
_cell_length_b 25.551038
_cell_length_c 6.437716
_cell_angle_alpha 66.947469
_cell_angle_beta 113.154108
_cell_angle_gamma 171.187118
_cell_volume 653.944499
_symmetry_space_group_name_H-M "P -1"
_symmetry_group_IT_number 2
_symmetry_cell_setting 'triclinic'
loop_
_space_group_symop_operation_xyz
x,y,z
-x,-y,-z
loop_
_atom_site_type_symbol
_atom_site_label
_atom_site_fract_x
_atom_site_fract_y
_atom_site_fract_z
Si Si1 0.474761 0.143251 0.146569
Si Si2 0.189059 0.762959 0.895491
Si Si3 0.307550 0.182453 0.631363
Si Si4 0.933034 0.200919 0.106678
Si Si5 0.218406 0.580670 0.358369
Si Si6 0.411991 0.449908 0.104396
Si Si7 0.863507 0.783944 0.344021
O O1 0.628714 0.281814 0.393888
O O2 0.743025 0.459957 0.970212
O O3 0.258581 0.862506 0.091084
O O4 0.258435 0.961851 0.109933
O O5 0.996823 0.599357 0.678884
O O6 0.512788 0.102166 0.817393
O O7 0.000000 0.500000 0.000000
O O8 0.311627 0.228276 0.770260
O O9 0.623584 0.534808 0.501986
O O10 0.270036 0.076444 0.792794
O O11 0.007757 0.877425 0.458974
O O12 0.001869 0.299584 0.302833
O O13 0.500000 0.500000 0.000000
O O14 0.302045 0.388088 0.896301
O O15 0.145820 0.136537 0.285443
#
# Coordination Sequence:
#
# PCOD8009204 Si02
#       7
#     2   2   2   2   2   2   2
#     4  10  21  40  60  83 122 157 193 246 289 336
#     4  10  21  36  58  92 121 152 199 240 284 350
#     4  12  25  40  65  87 119 156 199 248 301 357
#     4  10  23  40  58  87 114 153 203 241 286 348
#     4  10  21  38  61  82 121 160 191 241 295 335
#     4  11  25  42  63  89 122 152 195 246 306 366
#     4  11  25  41  62  89 117 155 192 244 306 362
#
# _framework density 21.408543999999999
#
# number of rings (size 3 to 8) (size 9 to 14) (size 15 to 20)
#    0.000    1.429    1.429    3.000    4.000    3.429 
#    0.000    0.000    0.000    0.000    0.000    0.000 
#    0.000    0.000    0.000    0.000    0.000    0.000 
#
# Total GULP energy -173569.416844 kJ/mol
# GULP energy per Si atom -12397.815489 kJ/mol
# Density = 2.135982 g / cm^3
# Si number density = 21.408544 Si / 1000 Ang^3
#
#
#
# Elastic Constant Matrix: (Units=GPa)
#
#
# Indices 1 2 3 4 5 6 
#
# 1 96.9688 48.5426 42.8747 -0.2745 10.2606 -2.0889
# 2 48.5426 91.0187 34.3348 0.2504 1.4727 -0.8132
# 3 42.8747 34.3348 92.5853 17.6140 21.1317 -16.3883
# 4 -0.2745 0.2504 17.6140 36.6465 13.6707 8.7044
# 5 10.2606 1.4727 21.1317 13.6707 25.9417 1.5086
# 6 -2.0889 -0.8132 -16.3883 8.7044 1.5086 40.1563
#
#
#
# Elastic Compliance Matrix: (Units=1/GPa)
#
#
# Indices 1 2 3 4 5 6 
#
# 1 0.016534 -0.006652 -0.005665 0.004995 -0.004033 -0.002518
# 2 -0.006652 0.016180 -0.004647 0.000633 0.005296 -0.002251
# 3 -0.005665 -0.004647 0.021102 -0.008640 -0.010742 0.010499
# 4 0.004995 0.000633 -0.008640 0.039882 -0.015332 -0.011322
# 5 -0.004033 0.005296 -0.010742 -0.015332 0.056865 -0.003299
# 6 -0.002518 -0.002251 0.010499 -0.011322 -0.003299 0.031589
#
#
# Mechanical properties :
#
#
# Convention : Reuss Voigt Hill
#
# Bulk Modulus (GPa) = 50.28488 59.11965 54.70226
# Shear Modulus (GPa) = 22.45070 30.87025 26.66048
#
# Velocity S-wave (km/s) = 3.24185 3.80143 3.53274
# Velocity P-wave (km/s) = 6.12797 6.85148 6.49980
#
# Compressibility (1/GPa) = 0.01988670
#
# Stress axis : x y z
#
# Youngs Moduli (GPa) = 60.48113 61.80476 47.38952
#
# Poissons Ratio (x) = 0.41112 0.26847
# Poissons Ratio (y) = 0.40232 0.22024
# Poissons Ratio (z) = 0.34264 0.28723
#
# Static dielectric constant tensor:
#      x y z
#    x 3.771020 0.278020 0.143760 
#    y 0.278020 3.950170 0.126860 
#    z 0.143760 0.126860 3.844260 
# 
# 
# High freq. dielectric constant tensor:
#      x y z
#    x 1.828750 0.020130 0.013240 
#    y 0.020130 1.847530 0.006360 
#    z 0.013240 0.006360 1.840360 
# 
# From -- ./inp_files/9372.got.cif
#   From: 2010.06.25/outbox.cif.g09.slc.cpg/sg2_5_cif.got.tgz:9372.got - 2010.06.27 13:26:56.
