data_PCOD8009459
_publ_section_title
;
Structure prediction by ZEFSAII (Michael W. Deem and Ramdas Pophale) SiO2 
 PCOD8009459
Probable space group: P -1
;
_chemical_formula_sum "Si O2"
_cell_formula_units_Z 16
_cell_length_a 10.343446
_cell_length_b 17.401576
_cell_length_c 8.759587
_cell_angle_alpha 134.487690
_cell_angle_beta 97.517687
_cell_angle_gamma 49.369456
_cell_volume 682.152082
_symmetry_space_group_name_H-M "P -1"
_symmetry_group_IT_number 2
_symmetry_cell_setting 'triclinic'
loop_
_space_group_symop_operation_xyz
x,y,z
-x,-y,-z
loop_
_atom_site_type_symbol
_atom_site_label
_atom_site_fract_x
_atom_site_fract_y
_atom_site_fract_z
Si Si1 0.666273 0.422455 0.049420
Si Si2 0.784769 0.697905 0.777900
Si Si3 0.227871 0.245234 0.585104
Si Si4 0.860347 0.892821 0.415133
Si Si5 0.674021 0.998522 0.202555
Si Si6 0.457345 0.744563 0.663775
Si Si7 0.221004 0.405751 0.070578
Si Si8 0.646493 0.234204 0.990509
O O1 0.890293 0.299069 0.828823
O O2 0.500000 0.500000 0.000000
O O3 0.586970 0.578694 0.345688
O O4 0.713665 0.301108 0.014803
O O5 0.599239 0.751796 0.747532
O O6 0.753752 0.712550 0.977009
O O7 0.000000 0.500000 0.500000
O O8 0.800069 0.813717 0.895793
O O9 0.252333 0.125733 0.529473
O O10 0.426189 0.121916 0.329601
O O11 0.007528 0.385340 0.649638
O O12 0.235415 0.352882 0.828089
O O13 0.743406 0.980690 0.358935
O O14 0.820952 0.030544 0.689477
O O15 0.718302 0.077547 0.219451
O O16 0.355063 0.752096 0.805422
O O17 0.408666 0.367382 0.077787
#
# Coordination Sequence:
#
# PCOD8009459 Si02
#       8
#     2   2   2   2   2   2   2   2
#     4  12  27  49  72  97 130 182 240 287 333 400
#     4  11  22  39  61  98 141 178 215 274 346 413
#     4  11  21  36  67 102 139 170 220 274 339 399
#     4  12  24  42  72 104 133 178 229 285 340 407
#     4  12  23  41  68 103 140 179 220 275 342 422
#     4  11  26  43  69  97 137 182 226 279 345 404
#     4  10  21  36  64  98 133 178 215 272 338 401
#     4  11  24  47  67 100 139 181 230 287 334 393
#
# _framework density 23.455181
#
# number of rings (size 3 to 8) (size 9 to 14) (size 15 to 20)
#    0.000    0.750    2.500    6.000    3.500    1.000 
#    0.000    3.750    0.000    0.000    0.000    0.000 
#    0.000    0.000    0.000    0.000    0.000    0.000 
#
# Total GULP energy -198400.619208 kJ/mol
# GULP energy per Si atom -12400.038701 kJ/mol
# Density = 2.340180 g / cm^3
# Si number density = 23.455181 Si / 1000 Ang^3
#
#
#
# Elastic Constant Matrix: (Units=GPa)
#
#
# Indices 1 2 3 4 5 6 
#
# 1 43.9212 17.4049 13.2421 -0.1849 -7.9366 15.2932
# 2 17.4049 114.3953 35.6720 -1.0081 3.9072 23.7561
# 3 13.2421 35.6720 149.1684 9.0156 0.1820 2.1533
# 4 -0.1849 -1.0081 9.0156 34.9901 1.3152 -1.7949
# 5 -7.9366 3.9072 0.1820 1.3152 30.3072 7.2935
# 6 15.2932 23.7561 2.1533 -1.7949 7.2935 33.0218
#
#
#
# Elastic Compliance Matrix: (Units=1/GPa)
#
#
# Indices 1 2 3 4 5 6 
#
# 1 0.031978 -0.001119 -0.002310 -0.000595 0.012568 -0.016662
# 2 -0.001119 0.011231 -0.002516 0.000587 0.000022 -0.007370
# 3 -0.002310 -0.002516 0.007590 -0.001882 -0.000838 0.002467
# 4 -0.000595 0.000587 -0.001882 0.029255 -0.001971 0.002002
# 5 0.012568 0.000022 -0.000838 -0.001971 0.039913 -0.014705
# 6 -0.016662 -0.007370 0.002467 0.002002 -0.014705 0.046498
#
#
# Mechanical properties :
#
#
# Convention : Reuss Voigt Hill
#
# Bulk Modulus (GPa) = 25.70068 48.90255 37.30162
# Shear Modulus (GPa) = 26.13352 35.74154 30.93753
#
# Velocity S-wave (km/s) = 3.34157 3.90785 3.63575
# Velocity P-wave (km/s) = 5.08618 6.42311 5.79334
#
# Compressibility (1/GPa) = 0.03890948
#
# Stress axis : x y z
#
# Youngs Moduli (GPa) = 31.27112 89.03613 131.75862
#
# Poissons Ratio (x) = 0.09967 0.30436
# Poissons Ratio (y) = 0.03501 0.33145
# Poissons Ratio (z) = 0.07223 0.22398
#
# Static dielectric constant tensor:
#      x y z
#    x 4.055170 0.169050 -0.149810 
#    y 0.169050 4.674990 -0.003490 
#    z -0.149810 -0.003490 4.281960 
# 
# 
# High freq. dielectric constant tensor:
#      x y z
#    x 1.903600 0.010520 -0.001980 
#    y 0.010520 1.950600 0.003120 
#    z -0.001980 0.003120 1.934900 
# 
# From -- ./inp_files/280130.got.cif
#   From: 2010.06.25/outbox.cif.g09.slc.cpg/sg2_141_cif.got.tgz:280130.got - 2010.06.27 13:26:56.
