data_PCOD8009475
_publ_section_title
;
Structure prediction by ZEFSAII (Michael W. Deem and Ramdas Pophale) SiO2 
 PCOD8009475
Probable space group: P -1
;
_chemical_formula_sum "Si O2"
_cell_formula_units_Z 16
_cell_length_a 12.766039
_cell_length_b 22.211418
_cell_length_c 19.468760
_cell_angle_alpha 19.154754
_cell_angle_beta 151.581065
_cell_angle_gamma 154.701791
_cell_volume 761.190165
_symmetry_space_group_name_H-M "P -1"
_symmetry_group_IT_number 2
_symmetry_cell_setting 'triclinic'
loop_
_space_group_symop_operation_xyz
x,y,z
-x,-y,-z
loop_
_atom_site_type_symbol
_atom_site_label
_atom_site_fract_x
_atom_site_fract_y
_atom_site_fract_z
Si Si1 0.198865 0.069711 0.976578
Si Si2 0.066823 0.302164 0.873640
Si Si3 0.242717 0.684103 0.906596
Si Si4 0.477880 0.684398 0.327264
Si Si5 0.866581 0.953972 0.546090
Si Si6 0.115178 0.862474 0.913390
Si Si7 0.487888 0.513973 0.790296
Si Si8 0.232729 0.467219 0.549849
O O1 0.150362 0.234715 0.725250
O O2 0.497875 0.180384 0.047505
O O3 0.000000 0.000000 0.000000
O O4 0.141131 0.878838 0.098376
O O5 0.340189 0.391634 0.903958
O O6 0.002137 0.491769 0.629957
O O7 0.080714 0.234151 0.032937
O O8 0.155374 0.847983 0.651484
O O9 0.301752 0.561642 0.012744
O O10 0.000000 0.500000 0.000000
O O11 0.500000 0.500000 0.500000
O O12 0.452029 0.635100 0.447347
O O13 0.710896 0.904897 0.211065
O O14 0.242663 0.713786 0.135015
O O15 0.593246 0.760245 0.591082
O O16 0.002126 0.874806 0.762905
O O17 0.000000 0.000000 0.500000
O O18 0.316168 0.453082 0.690150
#
# Coordination Sequence:
#
# PCOD8009475 Si02
#       8
#     2   2   2   2   2   2   2   2
#     4  11  22  38  68  99 130 166 217 271 323 386
#     4  11  22  42  64  94 134 165 214 272 325 389
#     4  11  24  42  63 102 129 166 222 270 326 387
#     4  10  21  41  65  90 130 169 214 272 326 384
#     4  12  25  42  65  90 129 173 216 271 328 390
#     4  10  25  41  60  95 127 172 219 263 333 393
#     4  11  23  39  64  94 129 167 215 268 323 385
#     4  10  21  36  65  97 122 165 213 267 326 377
#
# _framework density 21.019714
#
# number of rings (size 3 to 8) (size 9 to 14) (size 15 to 20)
#    0.000    1.250    3.750    2.625    3.500    5.500 
#    0.000    0.625    0.000    0.000    0.000    0.000 
#    0.000    0.000    0.000    0.000    0.000    0.000 
#
# Total GULP energy -198224.871503 kJ/mol
# GULP energy per Si atom -12389.054469 kJ/mol
# Density = 2.097187 g / cm^3
# Si number density = 21.019714 Si / 1000 Ang^3
#
#
#
# Elastic Constant Matrix: (Units=GPa)
#
#
# Indices 1 2 3 4 5 6 
#
# 1 138.5380 37.6068 65.3431 3.6408 -13.8291 24.0533
# 2 37.6068 76.3451 28.7184 -12.1776 -3.9897 20.4820
# 3 65.3431 28.7184 152.6793 -14.9400 -0.8372 5.6059
# 4 3.6408 -12.1776 -14.9400 33.9420 -6.9476 -3.7378
# 5 -13.8291 -3.9897 -0.8372 -6.9476 39.9248 -3.2194
# 6 24.0533 20.4820 5.6059 -3.7378 -3.2194 34.7967
#
#
#
# Elastic Compliance Matrix: (Units=1/GPa)
#
#
# Indices 1 2 3 4 5 6 
#
# 1 0.011553 -0.003018 -0.004593 -0.004492 0.002360 -0.005734
# 2 -0.003018 0.018067 -0.001269 0.005631 0.001097 -0.007637
# 3 -0.004593 -0.001269 0.009059 0.004225 -0.000561 0.002864
# 4 -0.004492 0.005631 0.004225 0.035330 0.005519 0.003416
# 5 0.002360 0.001097 -0.000561 0.005519 0.026996 0.000904
# 6 -0.005734 -0.007637 0.002864 0.003416 0.000904 0.037186
#
#
# Mechanical properties :
#
#
# Convention : Reuss Voigt Hill
#
# Bulk Modulus (GPa) = 47.80368 70.09991 58.95179
# Shear Modulus (GPa) = 30.68920 37.45898 34.07409
#
# Velocity S-wave (km/s) = 3.82517 4.22606 4.03060
# Velocity P-wave (km/s) = 6.50391 7.56537 7.05463
#
# Compressibility (1/GPa) = 0.02091889
#
# Stress axis : x y z
#
# Youngs Moduli (GPa) = 86.55888 55.34936 110.38509
#
# Poissons Ratio (x) = 0.16705 0.50697
# Poissons Ratio (y) = 0.26125 0.14011
# Poissons Ratio (z) = 0.39754 0.07025
#
# Static dielectric constant tensor:
#      x y z
#    x 3.923870 0.116000 0.132620 
#    y 0.116000 3.877150 -0.439510 
#    z 0.132620 -0.439510 4.244230 
# 
# 
# High freq. dielectric constant tensor:
#      x y z
#    x 1.825370 0.014070 0.005650 
#    y 0.014070 1.804320 -0.029060 
#    z 0.005650 -0.029060 1.840440 
# 
# From -- ./inp_files/570720.got.cif
#   From: 2010.06.25/outbox.cif.g09.slc.cpg/sg2_286_cif.got.tgz:570720.got - 2010.06.27 13:26:56.
