data_PCOD8009876
_publ_section_title
;
Structure prediction by ZEFSAII (Michael W. Deem and Ramdas Pophale) SiO2 
 PCOD8009876
Probable space group: P -1
;
_chemical_formula_sum "Si O2"
_cell_formula_units_Z 12
_cell_length_a 9.641931
_cell_length_b 23.100622
_cell_length_c 8.855812
_cell_angle_alpha 142.321123
_cell_angle_beta 117.288052
_cell_angle_gamma 35.515542
_cell_volume 596.928642
_symmetry_space_group_name_H-M "P -1"
_symmetry_group_IT_number 2
_symmetry_cell_setting 'triclinic'
loop_
_space_group_symop_operation_xyz
x,y,z
-x,-y,-z
loop_
_atom_site_type_symbol
_atom_site_label
_atom_site_fract_x
_atom_site_fract_y
_atom_site_fract_z
Si Si1 0.829660 0.777217 0.551227
Si Si2 0.570174 0.454623 0.615338
Si Si3 0.473964 0.889808 0.851221
Si Si4 0.804646 0.219871 0.735797
Si Si5 0.280075 0.805459 0.689816
Si Si6 0.357649 0.894659 0.486185
O O1 0.768939 0.781034 0.706643
O O2 0.673769 0.776071 0.365941
O O3 0.157559 0.619021 0.357917
O O4 0.683208 0.952097 0.800995
O O5 0.500000 0.500000 0.500000
O O6 0.620482 0.318043 0.388573
O O7 0.319561 0.618257 0.933501
O O8 0.512963 0.771878 0.718970
O O9 0.272892 0.968422 0.767549
O O10 0.755539 0.236153 0.567181
O O11 0.652851 0.214157 0.747638
O O12 0.138355 0.049639 0.579315
O O13 0.000000 0.000000 0.000000
#
# Coordination Sequence:
#
# PCOD8009876 Si02
#       6
#     2   2   2   2   2   2
#     4   9  17  35  62  87 119 156 197 240 301 356
#     4  12  25  37  62  96 119 157 200 254 298 350
#     4   8  16  34  62  82 115 157 197 234 290 359
#     4  10  21  37  62  89 124 151 203 248 296 352
#     4  11  22  40  62  87 122 162 201 241 301 358
#     4   8  17  34  63  83 113 160 197 231 299 358
#
# _framework density 20.102905
#
# number of rings (size 3 to 8) (size 9 to 14) (size 15 to 20)
#    1.000    1.333    1.667    1.500    4.667    0.667 
#    0.000    1.667    0.000    0.000    0.000    0.000 
#    0.000    0.000    0.000    0.000    0.000    0.000 
#
# Total GULP energy -148666.273564 kJ/mol
# GULP energy per Si atom -12388.856130 kJ/mol
# Density = 2.005715 g / cm^3
# Si number density = 20.102905 Si / 1000 Ang^3
#
#
#
# Elastic Constant Matrix: (Units=GPa)
#
#
# Indices 1 2 3 4 5 6 
#
# 1 111.6100 44.2639 14.6184 11.8067 17.1042 9.4977
# 2 44.2639 68.9644 10.2604 7.5740 7.1682 9.4274
# 3 14.6184 10.2604 77.2765 4.2631 6.8535 20.8479
# 4 11.8067 7.5740 4.2631 23.6899 2.3104 2.9089
# 5 17.1042 7.1682 6.8535 2.3104 25.4884 2.4277
# 6 9.4977 9.4274 20.8479 2.9089 2.4277 35.6431
#
#
#
# Elastic Compliance Matrix: (Units=1/GPa)
#
#
# Indices 1 2 3 4 5 6 
#
# 1 0.013350 -0.007357 -0.000655 -0.003502 -0.006347 -0.000510
# 2 -0.007357 0.019931 -0.000331 -0.002278 -0.000094 -0.002925
# 3 -0.000655 -0.000331 0.015755 -0.001066 -0.002780 -0.008676
# 4 -0.003502 -0.002278 -0.001066 0.045124 -0.000672 -0.001478
# 5 -0.006347 -0.000094 -0.002780 -0.000672 0.044292 0.000381
# 6 -0.000510 -0.002925 -0.008676 -0.001478 0.000381 0.034135
#
#
# Mechanical properties :
#
#
# Convention : Reuss Voigt Hill
#
# Bulk Modulus (GPa) = 30.91252 44.01513 37.46383
# Shear Modulus (GPa) = 24.99290 29.54482 27.26886
#
# Velocity S-wave (km/s) = 3.52980 3.83780 3.68702
# Velocity P-wave (km/s) = 5.65890 6.44831 6.06646
#
# Compressibility (1/GPa) = 0.03234935
#
# Stress axis : x y z
#
# Youngs Moduli (GPa) = 74.90719 50.17238 63.47351
#
# Poissons Ratio (x) = 0.36911 0.04156
# Poissons Ratio (y) = 0.55109 0.02104
# Poissons Ratio (z) = 0.04905 0.01663
#
# Static dielectric constant tensor:
#      x y z
#    x 3.920210 -0.089390 0.203610 
#    y -0.089390 3.322790 -0.018710 
#    z 0.203610 -0.018710 3.332840 
# 
# 
# High freq. dielectric constant tensor:
#      x y z
#    x 1.788480 -0.003820 0.019500 
#    y -0.003820 1.748360 -0.001020 
#    z 0.019500 -0.001020 1.762900 
# 
# From -- ./inp_files/230645.got.cif
#   From: 2010.06.25/outbox.cif.g09.slc.cpg/sg2_116_cif.got.tgz:230645.got - 2010.06.27 13:26:56.
