data_PCOD8009979
_publ_section_title
;
Structure prediction by ZEFSAII (Michael W. Deem and Ramdas Pophale) SiO2 
 PCOD8009979
Probable space group: P -1
;
_chemical_formula_sum "Si O2"
_cell_formula_units_Z 14
_cell_length_a 10.746417
_cell_length_b 6.835454
_cell_length_c 11.748514
_cell_angle_alpha 63.537606
_cell_angle_beta 54.385550
_cell_angle_gamma 91.161757
_cell_volume 579.816978
_symmetry_space_group_name_H-M "P -1"
_symmetry_group_IT_number 2
_symmetry_cell_setting 'triclinic'
loop_
_space_group_symop_operation_xyz
x,y,z
-x,-y,-z
loop_
_atom_site_type_symbol
_atom_site_label
_atom_site_fract_x
_atom_site_fract_y
_atom_site_fract_z
Si Si1 0.386635 0.698321 0.062493
Si Si2 0.164249 0.568010 0.822147
Si Si3 0.329793 0.943040 0.324446
Si Si4 0.125319 0.880461 0.247787
Si Si5 0.650058 0.933297 0.474183
Si Si6 0.666199 0.610067 0.042449
Si Si7 0.218147 0.416511 0.594604
O O1 0.485534 0.627174 0.130175
O O2 0.513423 0.939736 0.873458
O O3 0.230196 0.730755 0.189602
O O4 0.310750 0.488320 0.067185
O O5 0.190342 0.830149 0.699581
O O6 0.148286 0.399470 0.764937
O O7 0.316545 0.556839 0.821455
O O8 0.000000 0.500000 0.000000
O O9 0.162391 0.922032 0.352571
O O10 0.353886 0.116272 0.375142
O O11 0.318879 0.687298 0.437233
O O12 0.933271 0.724227 0.372283
O O13 0.185081 0.132871 0.086276
O O14 0.500000 0.000000 0.500000
O O15 0.653797 0.714552 0.454168
#
# Coordination Sequence:
#
# PCOD8009979 Si02
#       7
#     2   2   2   2   2   2   2
#     4  10  22  40  67  98 122 159 214 267 316 372
#     4  11  24  43  66  94 128 167 214 262 313 378
#     4  10  23  42  65  94 128 165 209 261 319 382
#     4  11  23  41  67  96 124 162 214 264 318 376
#     4  11  26  43  62  92 129 172 215 256 312 380
#     4  10  21  37  63  94 125 158 202 261 315 364
#     4  11  26  43  64  94 131 172 208 260 323 375
#
# _framework density 24.14555
#
# number of rings (size 3 to 8) (size 9 to 14) (size 15 to 20)
#    0.000    1.429    0.000    4.714    0.000   16.571 
#    0.000    1.429    0.000    0.000    0.000    0.000 
#    0.000    0.000    0.000    0.000    0.000    0.000 
#
# Total GULP energy -173605.742119 kJ/mol
# GULP energy per Si atom -12400.410151 kJ/mol
# Density = 2.409059 g / cm^3
# Si number density = 24.145550 Si / 1000 Ang^3
#
#
#
# Elastic Constant Matrix: (Units=GPa)
#
#
# Indices 1 2 3 4 5 6 
#
# 1 92.1334 18.7746 23.4944 14.1552 11.6210 -2.7842
# 2 18.7746 113.0153 9.3735 10.8667 -0.7823 -6.5986
# 3 23.4944 9.3735 64.9757 13.8904 12.9258 -10.5835
# 4 14.1552 10.8667 13.8904 36.4278 3.7448 2.8322
# 5 11.6210 -0.7823 12.9258 3.7448 39.3884 -0.2096
# 6 -2.7842 -6.5986 -10.5835 2.8322 -0.2096 37.0700
#
#
#
# Elastic Compliance Matrix: (Units=1/GPa)
#
#
# Indices 1 2 3 4 5 6 
#
# 1 0.012777 -0.001583 -0.003273 -0.002990 -0.002443 -0.000042
# 2 -0.001583 0.009460 -0.000202 -0.002360 0.000955 0.001693
# 3 -0.003273 -0.000202 0.019857 -0.006186 -0.004936 0.005832
# 4 -0.002990 -0.002360 -0.006186 0.032076 -0.000210 -0.004863
# 5 -0.002443 0.000955 -0.004936 -0.000210 0.027761 -0.001250
# 6 -0.000042 0.001693 0.005832 -0.004863 -0.001250 0.029304
#
#
# Mechanical properties :
#
#
# Convention : Reuss Voigt Hill
#
# Bulk Modulus (GPa) = 31.27118 41.48994 36.38056
# Shear Modulus (GPa) = 32.89213 37.14268 35.01740
#
# Velocity S-wave (km/s) = 3.69486 3.92635 3.81236
# Velocity P-wave (km/s) = 5.58408 6.14618 5.87186
#
# Compressibility (1/GPa) = 0.03197832
#
# Stress axis : x y z
#
# Youngs Moduli (GPa) = 78.26304 105.70332 50.35924
#
# Poissons Ratio (x) = 0.16733 0.16485
# Poissons Ratio (y) = 0.12389 0.01018
# Poissons Ratio (z) = 0.25619 0.02136
#
# Static dielectric constant tensor:
#      x y z
#    x 4.473340 0.085680 0.279260 
#    y 0.085680 4.783550 -0.287690 
#    z 0.279260 -0.287690 4.385170 
# 
# 
# High freq. dielectric constant tensor:
#      x y z
#    x 1.956090 0.007310 0.008170 
#    y 0.007310 1.973600 -0.007980 
#    z 0.008170 -0.007980 1.950170 
# 
# From -- ./inp_files/409968.got.cif
#   From: 2010.06.25/outbox.cif.g09.slc.cpg/sg2_205_cif.got.tgz:409968.got - 2010.06.27 13:26:56.
