data_PCOD8009915
_publ_section_title
;
Structure prediction by ZEFSAII (Michael W. Deem and Ramdas Pophale) SiO2 
 PCOD8009915
Probable space group: P -1
;
_chemical_formula_sum "Si O2"
_cell_formula_units_Z 16
_cell_length_a 17.781115
_cell_length_b 12.161144
_cell_length_c 8.948709
_cell_angle_alpha 97.413552
_cell_angle_beta 39.431563
_cell_angle_gamma 128.609762
_cell_volume 675.226288
_symmetry_space_group_name_H-M "P -1"
_symmetry_group_IT_number 2
_symmetry_cell_setting 'triclinic'
loop_
_space_group_symop_operation_xyz
x,y,z
-x,-y,-z
loop_
_atom_site_type_symbol
_atom_site_label
_atom_site_fract_x
_atom_site_fract_y
_atom_site_fract_z
Si Si1 0.890172 0.118450 0.844278
Si Si2 0.134335 0.310504 0.200331
Si Si3 0.602929 0.212492 0.455774
Si Si4 0.181894 0.536247 0.559919
Si Si5 0.899702 0.340914 0.504109
Si Si6 0.970497 0.986950 0.216835
Si Si7 0.456703 0.891997 0.783977
Si Si8 0.512853 0.719587 0.842446
O O1 0.981367 0.165988 0.549021
O O2 0.972671 0.299364 0.815186
O O3 0.977847 0.091222 0.809863
O O4 0.635335 0.923173 0.199208
O O5 0.035202 0.336878 0.267501
O O6 0.377029 0.528620 0.914002
O O7 0.133852 0.204144 0.074200
O O8 0.756717 0.412859 0.350189
O O9 0.684539 0.269027 0.167568
O O10 0.617793 0.102116 0.491543
O O11 0.134266 0.624745 0.595025
O O12 0.375947 0.639213 0.184225
O O13 0.000000 0.500000 0.500000
O O14 0.674239 0.138275 0.898179
O O15 0.725873 0.829190 0.596098
O O16 0.000000 0.000000 0.000000
O O17 0.570795 0.877301 0.689166
#
# Coordination Sequence:
#
# PCOD8009915 Si02
#       8
#     2   2   2   2   2   2   2   2
#     4  11  23  45  64  91 133 166 217 262 311 374
#     4  11  23  42  71  91 124 175 207 266 320 366
#     4  11  22  38  61  98 132 170 202 257 329 372
#     4  10  23  38  70  99 122 171 210 264 313 387
#     4  11  18  42  66  98 132 160 215 257 317 385
#     4  12  28  44  64  95 127 170 220 263 311 378
#     4  10  21  37  62  94 136 164 201 264 319 383
#     4  10  23  42  66  94 121 168 218 257 314 380
#
# _framework density 23.695758999999999
#
# number of rings (size 3 to 8) (size 9 to 14) (size 15 to 20)
#    0.000    1.250    5.000    1.875    1.750    5.500 
#    0.000    3.125    0.000    0.000    0.000    0.000 
#    0.000    0.000    0.000    0.000    0.000    0.000 
#
# Total GULP energy -198372.044716 kJ/mol
# GULP energy per Si atom -12398.252795 kJ/mol
# Density = 2.364183 g / cm^3
# Si number density = 23.695759 Si / 1000 Ang^3
#
#
#
# Elastic Constant Matrix: (Units=GPa)
#
#
# Indices 1 2 3 4 5 6 
#
# 1 118.6662 29.4228 21.8514 3.0473 -5.5451 -5.4005
# 2 29.4228 72.3307 6.2231 8.4242 18.7346 23.3208
# 3 21.8514 6.2231 31.4886 -4.5471 -25.3436 -11.3885
# 4 3.0473 8.4242 -4.5471 17.2822 3.3320 -0.4380
# 5 -5.5451 18.7346 -25.3436 3.3320 12.0771 -11.4944
# 6 -5.4005 23.3208 -11.3885 -0.4380 -11.4944 39.7052
#
#
#
# Elastic Compliance Matrix: (Units=1/GPa)
#
#
# Indices 1 2 3 4 5 6 
#
# 1 0.010756 -0.004082 -0.006623 -0.001508 -0.000496 0.001801
# 2 -0.004082 0.009728 0.014192 -0.003315 0.016017 0.002402
# 3 -0.006623 0.014192 0.005967 0.000720 -0.027449 -0.015463
# 4 -0.001508 -0.003315 0.000720 0.062228 -0.012006 -0.000841
# 5 -0.000496 0.016017 -0.027449 -0.012006 -0.018219 -0.022755
# 6 0.001801 0.002402 -0.015463 -0.000841 -0.022755 0.012988
#
#
# Mechanical properties :
#
#
# Convention : Reuss Voigt Hill
#
# Bulk Modulus (GPa) = 29.91719 37.49778 33.70748
# Shear Modulus (GPa) = 57.06705 24.81211 40.93958
#
# Velocity S-wave (km/s) = 4.91279 3.23942 4.16109
# Velocity P-wave (km/s) = 6.69579 5.46359 6.11083
#
# Compressibility (1/GPa) = 0.03342560
#
# Stress axis : x y z
#
# Youngs Moduli (GPa) = 92.96910 102.79556 167.57691
#
# Poissons Ratio (x) = 0.41966 1.10979
# Poissons Ratio (y) = 0.37954 -2.37825
# Poissons Ratio (z) = 0.61569 -1.45887
#
# Static dielectric constant tensor:
#      x y z
#    x 4.213930 0.271030 0.501900 
#    y 0.271030 4.167840 -0.192320 
#    z 0.501900 -0.192320 4.180830 
# 
# 
# High freq. dielectric constant tensor:
#      x y z
#    x 1.944780 0.010350 0.003560 
#    y 0.010350 1.931530 -0.000830 
#    z 0.003560 -0.000830 1.933590 
# 
# From -- ./inp_files/333339.got.cif
#   From: 2010.06.25/outbox.cif.g09.slc.cpg/sg2_167_cif.got.tgz:333339.got - 2010.06.27 13:26:56.
