data_PCOD8009167
_publ_section_title
;
Structure prediction by ZEFSAII (Michael W. Deem and Ramdas Pophale) SiO2 
 PCOD8009167
Probable space group: P -1
;
_chemical_formula_sum "Si O2"
_cell_formula_units_Z 10
_cell_length_a 13.771498
_cell_length_b 16.050996
_cell_length_c 6.466548
_cell_angle_alpha 58.304438
_cell_angle_beta 57.478554
_cell_angle_gamma 24.331940
_cell_volume 493.988674
_symmetry_space_group_name_H-M "P -1"
_symmetry_group_IT_number 2
_symmetry_cell_setting 'triclinic'
loop_
_space_group_symop_operation_xyz
x,y,z
-x,-y,-z
loop_
_atom_site_type_symbol
_atom_site_label
_atom_site_fract_x
_atom_site_fract_y
_atom_site_fract_z
Si Si1 0.141975 0.120163 0.506349
Si Si2 0.299811 0.567892 0.632285
Si Si3 0.773590 0.766380 0.001979
Si Si4 0.058004 0.654249 0.172389
Si Si5 0.646357 0.658032 0.400452
O O1 0.928321 0.218964 0.511262
O O2 0.106172 0.150553 0.754472
O O3 0.392954 0.890495 0.456177
O O4 0.097020 0.267377 0.283902
O O5 0.500000 0.500000 0.500000
O O6 0.404853 0.394757 0.620688
O O7 0.224904 0.596848 0.912768
O O8 0.791399 0.634512 0.135812
O O9 0.882091 0.716151 0.164188
O O10 0.500000 0.000000 0.000000
O O11 0.225068 0.464683 0.373973
#
# Coordination Sequence:
#
# PCOD8009167 Si02
#       5
#     2   2   2   2   2
#     4   9  21  38  57  85 114 143 182 224 273 332
#     4  10  23  41  56  77 112 148 187 234 275 317
#     4   9  19  35  56  85 119 144 173 221 277 333
#     4  10  21  36  58  82 111 146 184 227 272 326
#     4  10  21  36  58  85 112 147 183 220 275 331
#
# _framework density 20.243378
#
# number of rings (size 3 to 8) (size 9 to 14) (size 15 to 20)
#    0.000    2.400    0.000    0.600    0.000   20.800 
#    0.000    2.000    0.000    0.000    0.000    0.000 
#    0.000    0.000    0.000    0.000    0.000    0.000 
#
# Total GULP energy -123972.143338 kJ/mol
# GULP energy per Si atom -12397.214334 kJ/mol
# Density = 2.019730 g / cm^3
# Si number density = 20.243378 Si / 1000 Ang^3
#
#
#
# Elastic Constant Matrix: (Units=GPa)
#
#
# Indices 1 2 3 4 5 6 
#
# 1 151.2665 49.0431 76.7619 8.0135 -9.0788 -16.2473
# 2 49.0431 76.5220 40.2305 6.5595 0.4373 -1.5964
# 3 76.7619 40.2305 113.5802 15.6759 10.5998 1.0866
# 4 8.0135 6.5595 15.6759 22.5008 -2.3464 1.2001
# 5 -9.0788 0.4373 10.5998 -2.3464 33.8399 6.2626
# 6 -16.2473 -1.5964 1.0866 1.2001 6.2626 32.3573
#
#
#
# Elastic Compliance Matrix: (Units=1/GPa)
#
#
# Indices 1 2 3 4 5 6 
#
# 1 0.012796 -0.004083 -0.008086 0.002520 0.005195 0.005396
# 2 -0.004083 0.017470 -0.003208 -0.001375 -0.000229 -0.000985
# 3 -0.008086 -0.003208 0.017379 -0.008930 -0.007637 -0.002993
# 4 0.002520 -0.001375 -0.008930 0.051033 0.007367 -0.001821
# 5 0.005195 -0.000229 -0.007637 0.007367 0.034613 -0.004119
# 6 0.005396 -0.000985 -0.002993 -0.001821 -0.004119 0.034531
#
#
# Mechanical properties :
#
#
# Convention : Reuss Voigt Hill
#
# Bulk Modulus (GPa) = 59.20158 74.82662 67.01410
# Shear Modulus (GPa) = 24.48512 29.42847 26.95680
#
# Velocity S-wave (km/s) = 3.48161 3.81692 3.65312
# Velocity P-wave (km/s) = 6.74319 7.51458 7.13931
#
# Compressibility (1/GPa) = 0.01689144
#
# Stress axis : x y z
#
# Youngs Moduli (GPa) = 78.15095 57.24086 57.54006
#
# Poissons Ratio (x) = 0.23371 0.46527
# Poissons Ratio (y) = 0.31908 0.18459
# Poissons Ratio (z) = 0.63193 0.18363
#
# Static dielectric constant tensor:
#      x y z
#    x 3.577680 -0.109130 -0.018760 
#    y -0.109130 3.800780 0.075200 
#    z -0.018760 0.075200 3.857580 
# 
# 
# High freq. dielectric constant tensor:
#      x y z
#    x 1.779140 -0.010250 0.009470 
#    y -0.010250 1.812020 0.009010 
#    z 0.009470 0.009010 1.790530 
# 
# From -- ./inp_files/1932.got.cif
#   From: 2010.06.25/outbox.cif.g09.slc.cpg/sg2_1_cif.got.tgz:1932.got - 2010.06.27 13:26:56.
