data_PCOD8009372
_publ_section_title
;
Structure prediction by ZEFSAII (Michael W. Deem and Ramdas Pophale) SiO2 
 PCOD8009372
Probable space group: P -1
;
_chemical_formula_sum "Si O2"
_cell_formula_units_Z 16
_cell_length_a 11.655836
_cell_length_b 11.697070
_cell_length_c 11.772997
_cell_angle_alpha 120.935480
_cell_angle_beta 81.591366
_cell_angle_gamma 51.285987
_cell_volume 768.358133
_symmetry_space_group_name_H-M "P -1"
_symmetry_group_IT_number 2
_symmetry_cell_setting 'triclinic'
loop_
_space_group_symop_operation_xyz
x,y,z
-x,-y,-z
loop_
_atom_site_type_symbol
_atom_site_label
_atom_site_fract_x
_atom_site_fract_y
_atom_site_fract_z
Si Si1 0.502967 0.012410 0.199457
Si Si2 0.099246 0.423575 0.566669
Si Si3 0.089984 0.274097 0.911326
Si Si4 0.769842 0.208534 0.032356
Si Si5 0.000094 0.089520 0.720137
Si Si6 0.281728 0.355727 0.195204
Si Si7 0.960273 0.259059 0.148515
Si Si8 0.294653 0.643099 0.307075
O O1 0.326044 0.141256 0.382736
O O2 0.408307 0.188814 0.201139
O O3 0.668075 0.940623 0.209317
O O4 0.598258 0.789571 0.014172
O O5 0.125206 0.557038 0.652226
O O6 0.000000 0.500000 0.500000
O O7 0.942185 0.502152 0.716687
O O8 0.046956 0.202497 0.785415
O O9 0.000000 0.500000 0.000000
O O10 0.983620 0.326264 0.067988
O O11 0.931183 0.087157 0.846577
O O12 0.798262 0.293764 0.169322
O O13 0.535569 0.434931 0.142398
O O14 0.825629 0.010322 0.975588
O O15 0.815995 0.234617 0.734498
O O16 0.209743 0.825837 0.507058
O O17 0.246601 0.543949 0.312411
#
# Coordination Sequence:
#
# PCOD8009372 Si02
#       8
#     2   2   2   2   2   2   2   2
#     4  10  21  36  62  90 123 166 202 248 316 365
#     4  10  22  36  61  95 128 153 201 261 300 365
#     4  11  22  43  65  88 131 165 202 259 312 367
#     4  10  23  42  67  88 128 167 199 260 310 362
#     4  10  25  41  61  96 121 167 214 250 302 373
#     4  10  21  38  61  94 126 159 204 261 304 363
#     4  10  22  43  62  97 126 156 211 257 306 373
#     4  11  23  41  66  89 125 167 209 254 306 373
#
# _framework density 20.823623000000001
#
# number of rings (size 3 to 8) (size 9 to 14) (size 15 to 20)
#    0.000    1.750    1.250    1.875    8.750    0.000 
#    0.000    8.125    0.000    0.000    0.000    0.000 
#    0.000    0.000    0.000    0.000    0.000    0.000 
#
# Total GULP energy -198347.332299 kJ/mol
# GULP energy per Si atom -12396.708269 kJ/mol
# Density = 2.077623 g / cm^3
# Si number density = 20.823623 Si / 1000 Ang^3
#
#
#
# Elastic Constant Matrix: (Units=GPa)
#
#
# Indices 1 2 3 4 5 6 
#
# 1 109.6903 31.6233 68.4626 6.9745 15.0049 -3.1298
# 2 31.6233 69.2212 35.1693 4.1762 5.4361 7.6198
# 3 68.4626 35.1693 138.6862 11.1406 10.2272 -3.1166
# 4 6.9745 4.1762 11.1406 21.3604 -8.0274 2.2508
# 5 15.0049 5.4361 10.2272 -8.0274 40.8301 7.5251
# 6 -3.1298 7.6198 -3.1166 2.2508 7.5251 39.0882
#
#
#
# Elastic Compliance Matrix: (Units=1/GPa)
#
#
# Indices 1 2 3 4 5 6 
#
# 1 0.014536 -0.003497 -0.005655 -0.003066 -0.004512 0.002440
# 2 -0.003497 0.017968 -0.002920 -0.000303 0.000313 -0.004058
# 3 -0.005655 -0.002920 0.011215 -0.004132 -0.001435 0.001525
# 4 -0.003066 -0.000303 -0.004132 0.056147 0.014444 -0.006530
# 5 -0.004512 0.000313 -0.001435 0.014444 0.030647 -0.007269
# 6 0.002440 -0.004058 0.001525 -0.006530 -0.007269 0.028467
#
#
# Mechanical properties :
#
#
# Convention : Reuss Voigt Hill
#
# Bulk Modulus (GPa) = 51.08648 65.34536 58.21592
# Shear Modulus (GPa) = 26.36442 32.41189 29.38815
#
# Velocity S-wave (km/s) = 3.56206 3.94953 3.76079
# Velocity P-wave (km/s) = 6.44236 7.22820 6.84656
#
# Compressibility (1/GPa) = 0.01957465
#
# Stress axis : x y z
#
# Youngs Moduli (GPa) = 68.79393 55.65431 89.16816
#
# Poissons Ratio (x) = 0.19461 0.50426
# Poissons Ratio (y) = 0.24056 0.26039
# Poissons Ratio (z) = 0.38904 0.16252
#
# Static dielectric constant tensor:
#      x y z
#    x 4.108140 -0.195530 -0.110530 
#    y -0.195530 3.577990 0.064910 
#    z -0.110530 0.064910 4.222570 
# 
# 
# High freq. dielectric constant tensor:
#      x y z
#    x 1.823070 -0.013050 0.010880 
#    y -0.013050 1.802950 0.002020 
#    z 0.010880 0.002020 1.815990 
# 
# From -- ./inp_files/428720.got.cif
#   From: 2010.06.25/outbox.cif.g09.slc.cpg/sg2_215_cif.got.tgz:428720.got - 2010.06.27 13:26:56.
