data_PCOD8009150
_publ_section_title
;
Structure prediction by ZEFSAII (Michael W. Deem and Ramdas Pophale) SiO2 
 PCOD8009150
Probable space group: P -1
;
_chemical_formula_sum "Si O2"
_cell_formula_units_Z 16
_cell_length_a 22.086828
_cell_length_b 10.880925
_cell_length_c 16.213685
_cell_angle_alpha 34.465577
_cell_angle_beta 24.428475
_cell_angle_gamma 32.570810
_cell_volume 838.407327
_symmetry_space_group_name_H-M "P -1"
_symmetry_group_IT_number 2
_symmetry_cell_setting 'triclinic'
loop_
_space_group_symop_operation_xyz
x,y,z
-x,-y,-z
loop_
_atom_site_type_symbol
_atom_site_label
_atom_site_fract_x
_atom_site_fract_y
_atom_site_fract_z
Si Si1 0.946788 0.732569 0.541742
Si Si2 0.851276 0.118561 0.560315
Si Si3 0.023980 0.400009 0.115404
Si Si4 0.716560 0.356205 0.751099
Si Si5 0.154458 0.107682 0.878982
Si Si6 0.960195 0.797950 0.299206
Si Si7 0.664052 0.883347 0.511058
Si Si8 0.674817 0.978674 0.109353
O O1 0.923385 0.825295 0.426399
O O2 0.108629 0.735034 0.375601
O O3 0.941759 0.475484 0.696328
O O4 0.812658 0.924434 0.660813
O O5 0.707975 0.266999 0.717135
O O6 0.893922 0.288139 0.351313
O O7 0.000000 0.000000 0.500000
O O8 0.980200 0.622933 0.108703
O O9 0.207044 0.207811 0.000779
O O10 0.000000 0.500000 0.000000
O O11 0.645179 0.636294 0.680874
O O12 0.623660 0.243673 0.988467
O O13 0.289851 0.074898 0.661616
O O14 0.236153 0.043774 0.901847
O O15 0.067566 0.934157 0.061350
O O16 0.790729 0.908490 0.403230
O O17 0.485438 0.071062 0.650711
#
# Coordination Sequence:
#
# PCOD8009150 Si02
#       8
#     2   2   2   2   2   2   2   2
#     4   9  17  32  57  83 107 143 189 232 267 318
#     4  10  16  31  57  86 104 133 192 243 259 307
#     4  10  19  32  57  81 110 142 187 227 274 323
#     4  10  18  34  57  85 109 142 186 237 275 321
#     4  11  21  38  56  82 112 151 191 222 272 337
#     4  10  20  35  55  79 116 151 186 219 274 341
#     4  11  23  35  55  87 117 143 183 232 284 331
#     4  11  21  36  56  85 116 144 180 239 288 315
#
# _framework density 19.083803
#
# number of rings (size 3 to 8) (size 9 to 14) (size 15 to 20)
#    0.000    1.750    5.000    1.875    0.000    0.000 
#    0.000    0.625    0.000    0.750    0.000    0.000 
#    0.000    0.000    0.000    0.000    0.000    0.000 
#
# Total GULP energy -198261.195794 kJ/mol
# GULP energy per Si atom -12391.324737 kJ/mol
# Density = 1.904037 g / cm^3
# Si number density = 19.083803 Si / 1000 Ang^3
#
#
#
# Elastic Constant Matrix: (Units=GPa)
#
#
# Indices 1 2 3 4 5 6 
#
# 1 76.9637 34.2206 34.4035 -1.1363 9.7673 18.3788
# 2 34.2206 61.4099 52.8935 -7.8572 -4.1164 12.3231
# 3 34.4035 52.8935 117.1121 0.2361 4.0222 5.3761
# 4 -1.1363 -7.8572 0.2361 30.5828 -0.1923 2.7816
# 5 9.7673 -4.1164 4.0222 -0.1923 22.6406 -5.4161
# 6 18.3788 12.3231 5.3761 2.7816 -5.4161 25.6745
#
#
#
# Elastic Compliance Matrix: (Units=1/GPa)
#
#
# Indices 1 2 3 4 5 6 
#
# 1 0.023562 -0.010359 -0.001029 -0.000522 -0.015429 -0.014877
# 2 -0.010359 0.037503 -0.014061 0.009992 0.012410 -0.006106
# 3 -0.001029 -0.014061 0.015153 -0.004151 -0.003897 0.003940
# 4 -0.000522 0.009992 -0.004151 0.035937 0.001372 -0.007157
# 5 -0.015429 0.012410 -0.003897 0.001372 0.058093 0.018011
# 6 -0.014877 -0.006106 0.003940 -0.007157 0.018011 0.056279
#
#
# Mechanical properties :
#
#
# Convention : Reuss Voigt Hill
#
# Bulk Modulus (GPa) = 39.49492 55.39120 47.44306
# Shear Modulus (GPa) = 17.49057 24.71078 21.10067
#
# Velocity S-wave (km/s) = 3.03068 3.60231 3.32879
# Velocity P-wave (km/s) = 5.74344 6.81106 6.29991
#
# Compressibility (1/GPa) = 0.02531971
#
# Stress axis : x y z
#
# Youngs Moduli (GPa) = 42.44079 26.66419 65.99230
#
# Poissons Ratio (x) = 0.27622 0.06792
# Poissons Ratio (y) = 0.43965 0.92794
# Poissons Ratio (z) = 0.04368 0.37493
#
# Static dielectric constant tensor:
#      x y z
#    x 3.642440 0.367990 0.337170 
#    y 0.367990 4.089590 -0.049220 
#    z 0.337170 -0.049220 3.337440 
# 
# 
# High freq. dielectric constant tensor:
#      x y z
#    x 1.732280 0.008510 0.032560 
#    y 0.008510 1.738920 -0.015660 
#    z 0.032560 -0.015660 1.727730 
# 
# From -- ./inp_files/281390.got.cif
#   From: 2010.06.25/outbox.cif.g09.slc.cpg/sg2_141_cif.got.tgz:281390.got - 2010.06.27 13:26:56.
