data_PCOD8009105
_publ_section_title
;
Structure prediction by ZEFSAII (Michael W. Deem and Ramdas Pophale) SiO2 
 PCOD8009105
Probable space group: P -1
;
_chemical_formula_sum "Si O2"
_cell_formula_units_Z 16
_cell_length_a 11.207146
_cell_length_b 20.210026
_cell_length_c 13.806179
_cell_angle_alpha 147.001420
_cell_angle_beta 30.245605
_cell_angle_gamma 148.803798
_cell_volume 753.913311
_symmetry_space_group_name_H-M "P -1"
_symmetry_group_IT_number 2
_symmetry_cell_setting 'triclinic'
loop_
_space_group_symop_operation_xyz
x,y,z
-x,-y,-z
loop_
_atom_site_type_symbol
_atom_site_label
_atom_site_fract_x
_atom_site_fract_y
_atom_site_fract_z
Si Si1 0.423627 0.525717 0.192012
Si Si2 0.515663 0.991712 0.722928
Si Si3 0.041001 0.740882 0.838646
Si Si4 0.711890 0.817644 0.292816
Si Si5 0.332532 0.464882 0.771101
Si Si6 0.578387 0.289447 0.307054
Si Si7 0.289954 0.705104 0.003075
Si Si8 0.743280 0.994682 0.767004
O O1 0.470104 0.684156 0.354314
O O2 0.623275 0.518892 0.124396
O O3 0.115554 0.409127 0.289188
O O4 0.500000 0.500000 0.000000
O O5 0.215224 0.871605 0.808998
O O6 0.615483 0.934610 0.490626
O O7 0.718852 0.002475 0.678989
O O8 0.540680 0.142634 0.879005
O O9 0.204380 0.722615 0.790490
O O10 0.795900 0.771941 0.079404
O O11 0.977188 0.876296 0.244778
O O12 0.540075 0.421021 0.521960
O O13 0.408575 0.613983 0.857014
O O14 0.025164 0.356268 0.827753
O O15 0.670961 0.292586 0.136323
O O16 0.287100 0.153949 0.362552
O O17 0.500000 0.000000 0.000000
#
# Coordination Sequence:
#
# PCOD8009105 Si02
#       8
#     2   2   2   2   2   2   2   2
#     4  10  21  38  60  81 113 147 186 237 281 323
#     4  11  20  32  56  78 112 146 182 225 280 327
#     4  10  21  36  56  84 113 140 185 237 277 323
#     4  11  19  32  53  83 107 144 179 226 285 328
#     4  11  24  37  57  83 110 152 194 220 277 340
#     4  11  20  36  59  84 116 147 178 229 285 333
#     4  11  22  39  55  81 118 149 183 232 272 332
#     4  11  17  30  52  81 112 136 174 224 281 325
#
# _framework density 21.222601000000001
#
# number of rings (size 3 to 8) (size 9 to 14) (size 15 to 20)
#    0.000    1.250    3.750    5.250    0.000    2.000 
#    0.000    0.625    0.000    3.000    0.000    0.000 
#    0.000    0.000    0.000    0.000    0.000    0.000 
#
# Total GULP energy -198238.598020 kJ/mol
# GULP energy per Si atom -12389.912376 kJ/mol
# Density = 2.117430 g / cm^3
# Si number density = 21.222601 Si / 1000 Ang^3
#
#
#
# Elastic Constant Matrix: (Units=GPa)
#
#
# Indices 1 2 3 4 5 6 
#
# 1 34.8545 13.1908 14.9384 13.2338 -1.9185 -1.1745
# 2 13.1908 157.6710 46.2629 30.0078 -6.9401 16.3179
# 3 14.9384 46.2629 131.1070 24.2579 -6.5110 -7.7862
# 4 13.2338 30.0078 24.2579 33.3282 -5.6271 -2.2742
# 5 -1.9185 -6.9401 -6.5110 -5.6271 16.2044 6.5270
# 6 -1.1745 16.3179 -7.7862 -2.2742 6.5270 32.7416
#
#
#
# Elastic Compliance Matrix: (Units=1/GPa)
#
#
# Indices 1 2 3 4 5 6 
#
# 1 0.034086 -0.000084 -0.001586 -0.012468 -0.001061 0.000233
# 2 -0.000084 0.008962 -0.002185 -0.006319 0.003199 -0.006066
# 3 -0.001586 -0.002185 0.009522 -0.004118 0.000065 0.002997
# 4 -0.012468 -0.006319 -0.004118 0.045314 0.008630 0.003150
# 5 -0.001061 0.003199 0.000065 0.008630 0.072185 -0.015407
# 6 0.000233 -0.006066 0.002997 0.003150 -0.015407 0.037577
#
#
# Mechanical properties :
#
#
# Convention : Reuss Voigt Hill
#
# Bulk Modulus (GPa) = 22.29196 52.49073 37.39135
# Shear Modulus (GPa) = 21.71002 33.07087 27.39045
#
# Velocity S-wave (km/s) = 3.20186 3.95179 3.59643
# Velocity P-wave (km/s) = 4.91893 6.75347 5.90784
#
# Compressibility (1/GPa) = 0.04485921
#
# Stress axis : x y z
#
# Youngs Moduli (GPa) = 29.33788 111.58737 105.01731
#
# Poissons Ratio (x) = 0.00940 0.16656
# Poissons Ratio (y) = 0.00247 0.22944
# Poissons Ratio (z) = 0.04653 0.24380
#
# Static dielectric constant tensor:
#      x y z
#    x 3.417900 0.216260 0.215890 
#    y 0.216260 4.570250 0.319410 
#    z 0.215890 0.319410 4.223870 
# 
# 
# High freq. dielectric constant tensor:
#      x y z
#    x 1.769530 0.012920 0.014100 
#    y 0.012920 1.854020 0.012020 
#    z 0.014100 0.012020 1.845590 
# 
# From -- ./inp_files/438633.got.cif
#   From: 2010.06.25/outbox.cif.g09.slc.cpg/sg2_220_cif.got.tgz:438633.got - 2010.06.27 13:26:56.
