data_PCOD8009219
_publ_section_title
;
Structure prediction by ZEFSAII (Michael W. Deem and Ramdas Pophale) SiO2 
 PCOD8009219
Probable space group: P -1
;
_chemical_formula_sum "Si O2"
_cell_formula_units_Z 14
_cell_length_a 7.260010
_cell_length_b 8.153713
_cell_length_c 15.418393
_cell_angle_alpha 135.504440
_cell_angle_beta 106.653656
_cell_angle_gamma 81.360767
_cell_volume 610.842872
_symmetry_space_group_name_H-M "P -1"
_symmetry_group_IT_number 2
_symmetry_cell_setting 'triclinic'
loop_
_space_group_symop_operation_xyz
x,y,z
-x,-y,-z
loop_
_atom_site_type_symbol
_atom_site_label
_atom_site_fract_x
_atom_site_fract_y
_atom_site_fract_z
Si Si1 0.133929 0.982785 0.229021
Si Si2 0.444498 0.539716 0.370343
Si Si3 0.794345 0.132873 0.618120
Si Si4 0.241029 0.872286 0.853903
Si Si5 0.777299 0.507155 0.516037
Si Si6 0.894357 0.646258 0.389059
Si Si7 0.662824 0.960439 0.888340
O O1 0.241674 0.227241 0.362087
O O2 0.252404 0.889511 0.127239
O O3 0.916551 0.024027 0.189423
O O4 0.142765 0.824033 0.256459
O O5 0.410660 0.753215 0.380252
O O6 0.671840 0.475176 0.393236
O O7 0.364501 0.631595 0.486022
O O8 0.315644 0.314802 0.231177
O O9 0.957541 0.276572 0.637431
O O10 0.769086 0.860538 0.480975
O O11 0.230957 0.587051 0.750219
O O12 0.439253 0.993378 0.887485
O O13 0.211780 0.960331 0.981100
O O14 0.990359 0.409302 0.524895
#
# Coordination Sequence:
#
# PCOD8009219 Si02
#       7
#     2   2   2   2   2   2   2
#     4  10  21  37  62  93 121 161 203 259 309 364
#     4   9  18  35  56  88 123 155 196 255 298 363
#     4  10  21  36  58  98 130 159 193 253 337 358
#     4  10  22  42  67  86 117 170 213 253 297 362
#     4   8  17  33  58  85 114 161 206 240 300 353
#     4   9  20  39  60  90 126 163 204 250 305 380
#     4  10  22  41  64  92 117 161 221 253 291 371
#
# _framework density 22.919149999999998
#
# number of rings (size 3 to 8) (size 9 to 14) (size 15 to 20)
#    0.000    2.571    0.000    1.286    4.000    1.714 
#    2.571    2.857    0.000    3.429    0.000    0.000 
#    0.000    0.000    0.000    0.000    0.000    0.000 
#
# Total GULP energy -173461.274155 kJ/mol
# GULP energy per Si atom -12390.091011 kJ/mol
# Density = 2.286699 g / cm^3
# Si number density = 22.919150 Si / 1000 Ang^3
#
#
#
# Elastic Constant Matrix: (Units=GPa)
#
#
# Indices 1 2 3 4 5 6 
#
# 1 80.1809 46.1533 21.7968 -15.8006 -7.1120 -3.6287
# 2 46.1533 136.6903 68.8202 -37.9009 -2.0617 -3.7118
# 3 21.7968 68.8202 123.9784 -20.2317 -6.1292 -6.1660
# 4 -15.8006 -37.9009 -20.2317 36.7449 4.2951 -2.7548
# 5 -7.1120 -2.0617 -6.1292 4.2951 36.2590 -10.3790
# 6 -3.6287 -3.7118 -6.1660 -2.7548 -10.3790 29.0087
#
#
#
# Elastic Compliance Matrix: (Units=1/GPa)
#
#
# Indices 1 2 3 4 5 6 
#
# 1 0.016042 -0.005106 0.000628 0.001778 0.003594 0.002942
# 2 -0.005106 0.014680 -0.005711 0.010081 -0.002278 0.000168
# 3 0.000628 -0.005711 0.011483 0.000621 0.002445 0.002723
# 4 0.001778 0.010081 0.000621 0.039333 -0.002331 0.004545
# 5 0.003594 -0.002278 0.002445 -0.002331 0.032281 0.012006
# 6 0.002942 0.000168 0.002723 0.004545 0.012006 0.040168
#
#
# Mechanical properties :
#
#
# Convention : Reuss Voigt Hill
#
# Bulk Modulus (GPa) = 45.81040 68.26557 57.03799
# Shear Modulus (GPa) = 27.52691 34.00781 30.76736
#
# Velocity S-wave (km/s) = 3.46937 3.85621 3.66789
# Velocity P-wave (km/s) = 6.00665 7.04821 6.54817
#
# Compressibility (1/GPa) = 0.02182910
#
# Stress axis : x y z
#
# Youngs Moduli (GPa) = 62.33515 68.11812 87.08519
#
# Poissons Ratio (x) = 0.34779 -0.05468
# Poissons Ratio (y) = 0.31826 0.49730
# Poissons Ratio (z) = -0.03914 0.38899
#
# Static dielectric constant tensor:
#      x y z
#    x 4.500330 0.178670 -0.176520 
#    y 0.178670 4.269170 -0.411430 
#    z -0.176520 -0.411430 4.309860 
# 
# 
# High freq. dielectric constant tensor:
#      x y z
#    x 1.940730 0.013540 -0.009950 
#    y 0.013540 1.884690 -0.028890 
#    z -0.009950 -0.028890 1.895230 
# 
# From -- ./inp_files/491653.got.cif
#   From: 2010.06.25/outbox.cif.g09.slc.cpg/sg2_246_cif.got.tgz:491653.got - 2010.06.27 13:26:56.
