data_PCOD8009588
_publ_section_title
;
Structure prediction by ZEFSAII (Michael W. Deem and Ramdas Pophale) SiO2 
 PCOD8009588
Probable space group: P -1
;
_chemical_formula_sum "Si O2"
_cell_formula_units_Z 14
_cell_length_a 10.285707
_cell_length_b 11.141078
_cell_length_c 18.865658
_cell_angle_alpha 147.799765
_cell_angle_beta 120.277591
_cell_angle_gamma 83.716255
_cell_volume 720.811536
_symmetry_space_group_name_H-M "P -1"
_symmetry_group_IT_number 2
_symmetry_cell_setting 'triclinic'
loop_
_space_group_symop_operation_xyz
x,y,z
-x,-y,-z
loop_
_atom_site_type_symbol
_atom_site_label
_atom_site_fract_x
_atom_site_fract_y
_atom_site_fract_z
Si Si1 0.987244 0.172110 0.143138
Si Si2 0.289429 0.738226 0.421026
Si Si3 0.549860 0.568302 0.738474
Si Si4 0.212703 0.228032 0.758702
Si Si5 0.361004 0.514711 0.517508
Si Si6 0.753475 0.832268 0.424515
Si Si7 0.484994 0.103213 0.791102
O O1 0.084962 0.494886 0.294079
O O2 0.124811 0.255277 0.292723
O O3 0.743889 0.944846 0.983285
O O4 0.000000 0.000000 0.000000
O O5 0.354924 0.583157 0.319660
O O6 0.245317 0.893505 0.431489
O O7 0.472808 0.000205 0.655733
O O8 0.383999 0.453408 0.573708
O O9 0.430409 0.462330 0.726691
O O10 0.275449 0.273159 0.716376
O O11 0.320604 0.130951 0.779965
O O12 0.288056 0.552039 0.966761
O O13 0.970916 0.960666 0.576371
O O14 0.500000 0.500000 0.500000
O O15 0.449041 0.859544 0.712924
#
# Coordination Sequence:
#
# PCOD8009588 Si02
#       7
#     2   2   2   2   2   2   2
#     4   9  18  33  56  81 117 150 177 220 287 349
#     4   9  18  35  59  84 113 147 185 235 291 343
#     4  11  21  36  56  92 122 140 186 243 291 336
#     4   9  20  39  59  75 110 161 196 225 282 332
#     4  11  19  35  60  89 116 148 187 228 297 351
#     4  10  21  37  58  81 112 152 197 234 276 342
#     4   9  18  36  61  80 106 149 199 232 270 350
#
# _framework density 19.422554000000002
#
# number of rings (size 3 to 8) (size 9 to 14) (size 15 to 20)
#    0.000    2.286    4.286    0.429    2.000    0.000 
#    7.714    2.143    0.000    0.000    0.000    0.000 
#    0.000    0.000    0.000    0.000    0.000    0.000 
#
# Total GULP energy -173510.935189 kJ/mol
# GULP energy per Si atom -12393.638228 kJ/mol
# Density = 1.937835 g / cm^3
# Si number density = 19.422554 Si / 1000 Ang^3
#
#
#
# Elastic Constant Matrix: (Units=GPa)
#
#
# Indices 1 2 3 4 5 6 
#
# 1 65.9853 34.6682 31.1571 10.2771 14.7001 13.7466
# 2 34.6682 86.0691 22.9634 8.5550 16.1353 3.5544
# 3 31.1571 22.9634 100.9837 8.6297 13.4629 7.7419
# 4 10.2771 8.5550 8.6297 24.9991 -5.4255 4.1421
# 5 14.7001 16.1353 13.4629 -5.4255 31.4708 10.2440
# 6 13.7466 3.5544 7.7419 4.1421 10.2440 30.7142
#
#
#
# Elastic Compliance Matrix: (Units=1/GPa)
#
#
# Indices 1 2 3 4 5 6 
#
# 1 0.024115 -0.006787 -0.004220 -0.006132 -0.004930 -0.006473
# 2 -0.006787 0.016127 -0.000549 -0.004797 -0.007098 0.004324
# 3 -0.004220 -0.000549 0.012034 -0.003104 -0.003607 0.000540
# 4 -0.006132 -0.004797 -0.003104 0.050664 0.018264 -0.008842
# 5 -0.004930 -0.007098 -0.003607 0.018264 0.047036 -0.014214
# 6 -0.006473 0.004324 0.000540 -0.008842 -0.014214 0.040752
#
#
# Mechanical properties :
#
#
# Convention : Reuss Voigt Hill
#
# Bulk Modulus (GPa) = 34.28602 47.84617 41.06609
# Shear Modulus (GPa) = 22.36543 28.38677 25.37610
#
# Velocity S-wave (km/s) = 3.39708 3.82715 3.61851
# Velocity P-wave (km/s) = 5.75134 6.64961 6.21672
#
# Compressibility (1/GPa) = 0.02916641
#
# Stress axis : x y z
#
# Youngs Moduli (GPa) = 41.46871 62.00611 83.09848
#
# Poissons Ratio (x) = 0.42081 0.35064
# Poissons Ratio (y) = 0.28143 0.04560
# Poissons Ratio (z) = 0.17498 0.03402
#
# Static dielectric constant tensor:
#      x y z
#    x 3.361300 -0.225890 0.111930 
#    y -0.225890 3.670070 0.070590 
#    z 0.111930 0.070590 3.957560 
# 
# 
# High freq. dielectric constant tensor:
#      x y z
#    x 1.725910 -0.019650 0.001010 
#    y -0.019650 1.744890 0.002280 
#    z 0.001010 0.002280 1.764990 
# 
# From -- ./inp_files/181787.got.cif
#   From: 2010.06.25/outbox.cif.g09.slc.cpg/sg2_91_cif.got.tgz:181787.got - 2010.06.27 13:26:56.
