data_PCOD8009487
_publ_section_title
;
Structure prediction by ZEFSAII (Michael W. Deem and Ramdas Pophale) SiO2 
 PCOD8009487
Probable space group: P -1
;
_chemical_formula_sum "Si O2"
_cell_formula_units_Z 16
_cell_length_a 11.215067
_cell_length_b 14.274349
_cell_length_c 13.467994
_cell_angle_alpha 30.026265
_cell_angle_beta 56.383147
_cell_angle_gamma 76.862361
_cell_volume 715.475287
_symmetry_space_group_name_H-M "P -1"
_symmetry_group_IT_number 2
_symmetry_cell_setting 'triclinic'
loop_
_space_group_symop_operation_xyz
x,y,z
-x,-y,-z
loop_
_atom_site_type_symbol
_atom_site_label
_atom_site_fract_x
_atom_site_fract_y
_atom_site_fract_z
Si Si1 0.800589 0.761348 0.586077
Si Si2 0.187683 0.532317 0.990528
Si Si3 0.412576 0.187040 0.505177
Si Si4 0.256944 0.453994 0.679624
Si Si5 0.621984 0.803984 0.259590
Si Si6 0.003005 0.232732 0.164877
Si Si7 0.016498 0.763415 0.319535
Si Si8 0.933337 0.304114 0.847684
O O1 0.615627 0.677132 0.693038
O O2 0.941279 0.869242 0.328239
O O3 0.857657 0.954075 0.468307
O O4 0.791429 0.551432 0.834985
O O5 0.386782 0.735846 0.670095
O O6 0.083653 0.643417 0.949164
O O7 0.066785 0.303319 0.184651
O O8 0.394048 0.251622 0.564984
O O9 0.254342 0.906274 0.820790
O O10 0.431167 0.719013 0.380677
O O11 0.314604 0.340329 0.682412
O O12 0.095042 0.451154 0.715539
O O13 0.181758 0.316024 0.945299
O O14 0.766064 0.078345 0.912033
O O15 0.000316 0.787668 0.185891
O O16 0.905776 0.488243 0.646361
#
# Coordination Sequence:
#
# PCOD8009487 Si02
#       8
#     2   2   2   2   2   2   2   2
#     4  12  23  41  68  95 126 169 213 260 315 379
#     4  11  26  44  65  93 128 169 218 257 315 372
#     4  11  22  41  63  95 128 167 207 261 318 375
#     4  11  19  38  62  93 117 167 207 252 328 367
#     4  10  21  36  67  90 126 158 209 264 310 386
#     4  11  23  45  67  90 128 171 209 268 311 373
#     4  10  21  39  60  97 127 161 211 262 313 380
#     4  10  21  38  64  91 132 166 204 260 322 377
#
# _framework density 22.362757999999999
#
# number of rings (size 3 to 8) (size 9 to 14) (size 15 to 20)
#    0.000    1.250    3.750    2.250    0.000    3.000 
#    2.250    0.000    0.000    0.000    0.000    0.000 
#    0.000    0.000    0.000    0.000    0.000    0.000 
#
# Total GULP energy -198248.146670 kJ/mol
# GULP energy per Si atom -12390.509167 kJ/mol
# Density = 2.231186 g / cm^3
# Si number density = 22.362758 Si / 1000 Ang^3
#
#
#
# Elastic Constant Matrix: (Units=GPa)
#
#
# Indices 1 2 3 4 5 6 
#
# 1 96.3428 21.9269 39.1818 0.3610 -17.0045 12.5877
# 2 21.9269 76.4833 19.1463 7.1525 -9.7398 13.9078
# 3 39.1818 19.1463 72.8269 1.9651 -11.6473 7.3848
# 4 0.3610 7.1525 1.9651 30.0568 2.4578 -2.0802
# 5 -17.0045 -9.7398 -11.6473 2.4578 38.3476 1.5917
# 6 12.5877 13.9078 7.3848 -2.0802 1.5917 21.5334
#
#
#
# Elastic Compliance Matrix: (Units=1/GPa)
#
#
# Indices 1 2 3 4 5 6 
#
# 1 0.014812 -0.000880 -0.006336 -0.000375 0.004706 -0.006301
# 2 -0.000880 0.016684 -0.002106 -0.004858 0.003946 -0.010300
# 3 -0.006336 -0.002106 0.018235 -0.000904 0.002312 -0.001448
# 4 -0.000375 -0.004858 -0.000904 0.035349 -0.004247 0.007395
# 5 0.004706 0.003946 0.002312 -0.004247 0.030504 -0.008758
# 6 -0.006301 -0.010300 -0.001448 0.007395 -0.008758 0.058634
#
#
# Mechanical properties :
#
#
# Convention : Reuss Voigt Hill
#
# Bulk Modulus (GPa) = 32.16847 45.12923 38.64885
# Shear Modulus (GPa) = 24.60339 29.01409 26.80874
#
# Velocity S-wave (km/s) = 3.32052 3.60589 3.46614
# Velocity P-wave (km/s) = 5.39603 6.12870 5.77400
#
# Compressibility (1/GPa) = 0.03108634
#
# Stress axis : x y z
#
# Youngs Moduli (GPa) = 67.51310 59.93735 54.84062
#
# Poissons Ratio (x) = 0.05275 0.34747
# Poissons Ratio (y) = 0.05942 0.11550
# Poissons Ratio (z) = 0.42776 0.12623
#
# Static dielectric constant tensor:
#      x y z
#    x 3.967490 0.362430 -0.336170 
#    y 0.362430 4.161850 0.102950 
#    z -0.336170 0.102950 3.979480 
# 
# 
# High freq. dielectric constant tensor:
#      x y z
#    x 1.868140 0.024020 -0.016490 
#    y 0.024020 1.891790 0.010280 
#    z -0.016490 0.010280 1.871270 
# 
# From -- ./inp_files/474793.got.cif
#   From: 2010.06.25/outbox.cif.g09.slc.cpg/sg2_238_cif.got.tgz:474793.got - 2010.06.27 13:26:56.
