data_PCOD8009108
_publ_section_title
;
Structure prediction by ZEFSAII (Michael W. Deem and Ramdas Pophale) SiO2 
 PCOD8009108
Probable space group: P -1
;
_chemical_formula_sum "Si O2"
_cell_formula_units_Z 16
_cell_length_a 19.314409
_cell_length_b 6.334654
_cell_length_c 6.157158
_cell_angle_alpha 90.030414
_cell_angle_beta 76.901074
_cell_angle_gamma 79.157998
_cell_volume 719.896236
_symmetry_space_group_name_H-M "P -1"
_symmetry_group_IT_number 2
_symmetry_cell_setting 'triclinic'
loop_
_space_group_symop_operation_xyz
x,y,z
-x,-y,-z
loop_
_atom_site_type_symbol
_atom_site_label
_atom_site_fract_x
_atom_site_fract_y
_atom_site_fract_z
Si Si1 0.968880 0.380939 0.327045
Si Si2 0.214733 0.171470 0.204467
Si Si3 0.346282 0.802043 0.059541
Si Si4 0.102830 0.258792 0.933802
Si Si5 0.142860 0.894983 0.569666
Si Si6 0.393482 0.487720 0.645988
Si Si7 0.477239 0.663958 0.207475
Si Si8 0.729330 0.475528 0.567861
O O1 0.911904 0.549063 0.228008
O O2 0.925321 0.208112 0.456732
O O3 0.000000 0.500000 0.500000
O O4 0.033020 0.258457 0.131720
O O5 0.231023 0.345282 0.362874
O O6 0.289458 0.023133 0.072652
O O7 0.161040 0.035844 0.355733
O O8 0.172117 0.289532 0.028162
O O9 0.416971 0.855529 0.143801
O O10 0.314028 0.622218 0.214339
O O11 0.368776 0.701528 0.809130
O O12 0.121607 0.030224 0.802142
O O13 0.212045 0.713654 0.580035
O O14 0.439860 0.550245 0.418133
O O15 0.446127 0.292762 0.744087
O O16 0.323182 0.415329 0.591244
O O17 0.500000 0.500000 0.000000
#
# Coordination Sequence:
#
# PCOD8009108 Si02
#       8
#     2   2   2   2   2   2   2   2
#     4  11  25  44  64  90 121 151 194 247 299 356
#     4  11  24  40  60  88 122 157 200 247 295 353
#     4   9  19  35  57  84 118 157 197 243 296 351
#     4  11  24  40  63  90 118 157 197 241 297 361
#     4  11  23  41  63  87 119 157 197 242 298 354
#     4   9  16  32  58  83 116 158 197 241 294 347
#     4   8  15  30  57  88 114 152 200 243 292 347
#     4  10  21  36  56  85 119 156 198 246 293 346
#
# _framework density 22.225424
#
# number of rings (size 3 to 8) (size 9 to 14) (size 15 to 20)
#    0.000    2.000    0.000    3.375    0.000    8.000 
#    0.000    0.625    0.000   25.500    0.000    0.000 
#    0.000    0.000    0.000    0.000    0.000    0.000 
#
# Total GULP energy -198289.616556 kJ/mol
# GULP energy per Si atom -12393.101035 kJ/mol
# Density = 2.217484 g / cm^3
# Si number density = 22.225424 Si / 1000 Ang^3
#
#
#
# Elastic Constant Matrix: (Units=GPa)
#
#
# Indices 1 2 3 4 5 6 
#
# 1 151.8346 66.2490 64.3301 8.2300 40.1177 -29.2227
# 2 66.2490 85.4385 43.9365 15.5987 9.0452 -13.4148
# 3 64.3301 43.9365 120.2081 24.1282 7.2585 -15.0910
# 4 8.2300 15.5987 24.1282 28.4204 -8.0298 6.2132
# 5 40.1177 9.0452 7.2585 -8.0298 53.3356 1.4465
# 6 -29.2227 -13.4148 -15.0910 6.2132 1.4465 31.6121
#
#
#
# Elastic Compliance Matrix: (Units=1/GPa)
#
#
# Indices 1 2 3 4 5 6 
#
# 1 0.017066 -0.007589 -0.003249 -0.004132 -0.012065 0.012369
# 2 -0.007589 0.019945 -0.001527 -0.007543 0.001340 0.002141
# 3 -0.003249 -0.001527 0.013524 -0.011067 -0.000940 0.005023
# 4 -0.004132 -0.007543 -0.011067 0.059725 0.015556 -0.024754
# 5 -0.012065 0.001340 -0.000940 0.015556 0.030487 -0.015486
# 6 0.012369 0.002141 0.005023 -0.024754 -0.015486 0.051948
#
#
# Mechanical properties :
#
#
# Convention : Reuss Voigt Hill
#
# Bulk Modulus (GPa) = 38.74921 78.50136 58.62529
# Shear Modulus (GPa) = 22.12127 34.87133 28.49630
#
# Velocity S-wave (km/s) = 3.15828 3.96534 3.58460
# Velocity P-wave (km/s) = 5.54726 7.50749 6.60055
#
# Compressibility (1/GPa) = 0.02580698
#
# Stress axis : x y z
#
# Youngs Moduli (GPa) = 58.59588 50.13723 73.94076
#
# Poissons Ratio (x) = 0.38047 0.24020
# Poissons Ratio (y) = 0.44466 0.11292
# Poissons Ratio (z) = 0.19035 0.07657
#
# Static dielectric constant tensor:
#      x y z
#    x 4.747770 -0.444460 0.107340 
#    y -0.444460 3.673330 0.060260 
#    z 0.107340 0.060260 4.140010 
# 
# 
# High freq. dielectric constant tensor:
#      x y z
#    x 1.902640 -0.028090 -0.001120 
#    y -0.028090 1.835170 0.012120 
#    z -0.001120 0.012120 1.888820 
# 
# From -- ./inp_files/10636.got.cif
#   From: 2010.06.25/outbox.cif.g09.slc.cpg/sg2_6_cif.got.tgz:10636.got - 2010.06.27 13:26:56.
