data_PCOD8009976
_publ_section_title
;
Structure prediction by ZEFSAII (Michael W. Deem and Ramdas Pophale) SiO2 
 PCOD8009976
Probable space group: P -1
;
_chemical_formula_sum "Si O2"
_cell_formula_units_Z 16
_cell_length_a 9.205285
_cell_length_b 8.688981
_cell_length_c 14.495126
_cell_angle_alpha 49.479025
_cell_angle_beta 100.196104
_cell_angle_gamma 78.036942
_cell_volume 782.800147
_symmetry_space_group_name_H-M "P -1"
_symmetry_group_IT_number 2
_symmetry_cell_setting 'triclinic'
loop_
_space_group_symop_operation_xyz
x,y,z
-x,-y,-z
loop_
_atom_site_type_symbol
_atom_site_label
_atom_site_fract_x
_atom_site_fract_y
_atom_site_fract_z
Si Si1 0.097871 0.648653 0.465112
Si Si2 0.780367 0.495067 0.268170
Si Si3 0.779300 0.270961 0.730372
Si Si4 0.108509 0.156608 0.919903
Si Si5 0.937085 0.180848 0.236704
Si Si6 0.402285 0.666121 0.150165
Si Si7 0.657430 0.493805 0.973095
Si Si8 0.826365 0.808698 0.884604
O O1 0.203033 0.595691 0.590615
O O2 0.210051 0.583952 0.410865
O O3 0.000000 0.500000 0.500000
O O4 0.991020 0.916071 0.350372
O O5 0.859914 0.667902 0.208470
O O6 0.879386 0.292128 0.287220
O O7 0.588885 0.624075 0.171814
O O8 0.628191 0.424128 0.718891
O O9 0.946853 0.147003 0.860887
O O10 0.732653 0.077126 0.761805
O O11 0.072188 0.253325 0.983123
O O12 0.275550 0.926985 0.024122
O O13 0.062502 0.266007 0.166998
O O14 0.791462 0.260390 0.116886
O O15 0.359139 0.513786 0.134692
O O16 0.695824 0.704766 0.917371
O O17 0.500000 0.500000 0.000000
#
# Coordination Sequence:
#
# PCOD8009976 Si02
#       8
#     2   2   2   2   2   2   2   2
#     4  11  24  44  65  87 115 171 223 252 292 362
#     4  12  24  39  62  90 130 164 202 259 312 359
#     4  10  22  42  65  90 122 167 213 250 300 371
#     4  11  20  40  64  94 124 164 202 254 313 371
#     4  11  23  41  63  91 125 162 210 254 303 372
#     4  11  23  38  60  95 130 155 201 258 317 372
#     4  12  22  37  62  99 131 153 192 255 329 372
#     4  10  21  37  63  93 124 157 200 251 310 370
#
# _framework density 20.439444999999999
#
# number of rings (size 3 to 8) (size 9 to 14) (size 15 to 20)
#    0.000    1.000    3.750    4.875    1.750    1.500 
#    0.000    0.000    0.000    3.750    0.000    0.000 
#    0.000    0.000    0.000    0.000    0.000    0.000 
#
# Total GULP energy -198221.123543 kJ/mol
# GULP energy per Si atom -12388.820221 kJ/mol
# Density = 2.039292 g / cm^3
# Si number density = 20.439445 Si / 1000 Ang^3
#
#
#
# Elastic Constant Matrix: (Units=GPa)
#
#
# Indices 1 2 3 4 5 6 
#
# 1 113.1043 61.3954 35.0406 -6.5485 -17.0020 6.3958
# 2 61.3954 118.4612 40.2965 15.1397 -14.6459 -1.3777
# 3 35.0406 40.2965 86.9047 8.8697 -21.3173 1.7544
# 4 -6.5485 15.1397 8.8697 39.1867 -3.0895 -12.2612
# 5 -17.0020 -14.6459 -21.3173 -3.0895 33.1417 6.2197
# 6 6.3958 -1.3777 1.7544 -12.2612 6.2197 34.4449
#
#
#
# Elastic Compliance Matrix: (Units=1/GPa)
#
#
# Indices 1 2 3 4 5 6 
#
# 1 0.014175 -0.006861 -0.002150 0.005303 0.003646 -0.001568
# 2 -0.006861 0.013773 -0.002995 -0.005816 0.000120 -0.000115
# 3 -0.002150 -0.002995 0.016186 -0.003209 0.008283 -0.003183
# 4 0.005303 -0.005816 -0.003209 0.032667 -0.000883 0.010734
# 5 0.003646 0.000120 0.008283 -0.000883 0.038926 -0.008437
# 6 -0.001568 -0.000115 -0.003183 0.010734 -0.008437 0.034825
#
#
# Mechanical properties :
#
#
# Convention : Reuss Voigt Hill
#
# Bulk Modulus (GPa) = 49.69192 65.77059 57.73126
# Shear Modulus (GPa) = 27.58326 33.47050 30.52688
#
# Velocity S-wave (km/s) = 3.67755 4.05105 3.86881
# Velocity P-wave (km/s) = 6.51131 7.35727 6.94718
#
# Compressibility (1/GPa) = 0.02012399
#
# Stress axis : x y z
#
# Youngs Moduli (GPa) = 70.54578 72.60703 61.78316
#
# Poissons Ratio (x) = 0.49813 0.13281
# Poissons Ratio (y) = 0.48399 0.18502
# Poissons Ratio (z) = 0.15164 0.21743
#
# Static dielectric constant tensor:
#      x y z
#    x 3.715760 -0.178410 -0.309860 
#    y -0.178410 4.072250 0.282290 
#    z -0.309860 0.282290 3.716360 
# 
# 
# High freq. dielectric constant tensor:
#      x y z
#    x 1.799750 -0.001420 -0.026350 
#    y -0.001420 1.811580 0.017500 
#    z -0.026350 0.017500 1.783070 
# 
# From -- ./inp_files/224260.got.cif
#   From: 2010.06.25/outbox.cif.g09.slc.cpg/sg2_113_cif.got.tgz:224260.got - 2010.06.27 13:26:56.
