data_PCOD8009599
_publ_section_title
;
Structure prediction by ZEFSAII (Michael W. Deem and Ramdas Pophale) SiO2 
 PCOD8009599
Probable space group: P -1
;
_chemical_formula_sum "Si O2"
_cell_formula_units_Z 16
_cell_length_a 8.094212
_cell_length_b 13.614407
_cell_length_c 9.192212
_cell_angle_alpha 87.565040
_cell_angle_beta 85.201251
_cell_angle_gamma 58.643629
_cell_volume 861.983706
_symmetry_space_group_name_H-M "P -1"
_symmetry_group_IT_number 2
_symmetry_cell_setting 'triclinic'
loop_
_space_group_symop_operation_xyz
x,y,z
-x,-y,-z
loop_
_atom_site_type_symbol
_atom_site_label
_atom_site_fract_x
_atom_site_fract_y
_atom_site_fract_z
Si Si1 0.064067 0.073631 0.079400
Si Si2 0.096966 0.074166 0.519374
Si Si3 0.812060 0.251613 0.321591
Si Si4 0.931208 0.628915 0.373345
Si Si5 0.205793 0.530295 0.616780
Si Si6 0.819163 0.847908 0.206624
Si Si7 0.522229 0.707210 0.464215
Si Si8 0.610241 0.074658 0.706377
O O1 0.885602 0.172331 0.179087
O O2 0.239152 0.983944 0.171324
O O3 0.129311 0.139160 0.961322
O O4 0.000000 0.000000 0.000000
O O5 0.110531 0.090329 0.688670
O O6 0.967196 0.197646 0.444964
O O7 0.311016 0.007984 0.436185
O O8 0.000000 0.000000 0.500000
O O9 0.787546 0.376377 0.285437
O O10 0.609535 0.263015 0.383806
O O11 0.928820 0.518906 0.309078
O O12 0.926530 0.712072 0.242520
O O13 0.728989 0.699574 0.480324
O O14 0.119596 0.586169 0.461273
O O15 0.425523 0.419382 0.589151
O O16 0.589155 0.910685 0.229308
O O17 0.409339 0.803639 0.341714
#
# Coordination Sequence:
#
# PCOD8009599 Si02
#       8
#     2   2   2   2   2   2   2   2
#     4  11  26  39  54  80 123 158 187 229 290 352
#     4  11  20  33  57  87 114 145 190 239 282 332
#     4  11  20  35  57  87 112 151 187 233 284 336
#     4   8  18  33  58  89 110 139 183 240 290 322
#     4   9  17  35  58  90 111 136 192 240 285 325
#     4  11  20  39  57  82 115 155 185 238 286 339
#     4   9  18  32  60  85 113 137 187 240 280 323
#     4  10  21  37  58  85 109 151 196 237 282 332
#
# _framework density 18.561834999999999
#
# number of rings (size 3 to 8) (size 9 to 14) (size 15 to 20)
#    0.750    1.250    2.500    2.625    0.000    0.000 
#    0.000    1.875    0.000    1.500    0.000    0.000 
#    0.000    0.000    0.000    0.000    0.000    0.000 
#
# Total GULP energy -198231.075074 kJ/mol
# GULP energy per Si atom -12389.442192 kJ/mol
# Density = 1.851959 g / cm^3
# Si number density = 18.561835 Si / 1000 Ang^3
#
#
#
# Elastic Constant Matrix: (Units=GPa)
#
#
# Indices 1 2 3 4 5 6 
#
# 1 56.1686 35.4705 35.6397 1.5385 -6.1804 6.7971
# 2 35.4705 129.1550 53.9896 -4.0971 -4.7255 2.7801
# 3 35.6397 53.9896 99.3970 0.4918 -5.7944 4.7781
# 4 1.5385 -4.0971 0.4918 28.6429 1.9565 -0.2952
# 5 -6.1804 -4.7255 -5.7944 1.9565 25.4062 -1.1398
# 6 6.7971 2.7801 4.7781 -0.2952 -1.1398 29.5395
#
#
#
# Elastic Compliance Matrix: (Units=1/GPa)
#
#
# Indices 1 2 3 4 5 6 
#
# 1 0.025532 -0.004145 -0.006456 -0.002167 0.003941 -0.004310
# 2 -0.004145 0.010764 -0.004409 0.001853 -0.000125 0.000668
# 3 -0.006456 -0.004409 0.014855 -0.000614 0.001024 -0.000469
# 4 -0.002167 0.001853 -0.000614 0.035518 -0.003028 0.000662
# 5 0.003941 -0.000125 0.001024 -0.003028 0.040784 0.000483
# 6 -0.004310 0.000668 -0.000469 0.000662 0.000483 0.034883
#
#
# Mechanical properties :
#
#
# Convention : Reuss Voigt Hill
#
# Bulk Modulus (GPa) = 47.32133 59.43557 53.37845
# Shear Modulus (GPa) = 25.07519 27.35911 26.21715
#
# Velocity S-wave (km/s) = 3.67945 3.84336 3.76230
# Velocity P-wave (km/s) = 6.60306 7.19618 6.90599
#
# Compressibility (1/GPa) = 0.02113212
#
# Stress axis : x y z
#
# Youngs Moduli (GPa) = 39.16657 92.90289 67.31556
#
# Poissons Ratio (x) = 0.38510 0.43456
# Poissons Ratio (y) = 0.16235 0.29679
# Poissons Ratio (z) = 0.25284 0.40960
#
# Static dielectric constant tensor:
#      x y z
#    x 3.264130 -0.088420 -0.179690 
#    y -0.088420 3.784770 -0.098280 
#    z -0.179690 -0.098280 3.209440 
# 
# 
# High freq. dielectric constant tensor:
#      x y z
#    x 1.714620 -0.001090 -0.016850 
#    y -0.001090 1.742790 -0.009860 
#    z -0.016850 -0.009860 1.675350 
# 
# From -- ./inp_files/201996.got.cif
#   From: 2010.06.25/outbox.cif.g09.slc.cpg/sg2_101_cif.got.tgz:201996.got - 2010.06.27 13:26:56.
