data_PCOD8009253
_publ_section_title
;
Structure prediction by ZEFSAII (Michael W. Deem and Ramdas Pophale) SiO2 
 PCOD8009253
Probable space group: P -1
;
_chemical_formula_sum "Si O2"
_cell_formula_units_Z 16
_cell_length_a 25.699762
_cell_length_b 17.814751
_cell_length_c 13.952644
_cell_angle_alpha 22.312803
_cell_angle_beta 157.759463
_cell_angle_gamma 157.880339
_cell_volume 801.325959
_symmetry_space_group_name_H-M "P -1"
_symmetry_group_IT_number 2
_symmetry_cell_setting 'triclinic'
loop_
_space_group_symop_operation_xyz
x,y,z
-x,-y,-z
loop_
_atom_site_type_symbol
_atom_site_label
_atom_site_fract_x
_atom_site_fract_y
_atom_site_fract_z
Si Si1 0.753115 0.627910 0.192353
Si Si2 0.663512 0.081736 0.233181
Si Si3 0.134384 0.438966 0.908777
Si Si4 0.905069 0.029786 0.573874
Si Si5 0.020210 0.808484 0.703788
Si Si6 0.590919 0.894199 0.534617
Si Si7 0.192891 0.618578 0.590863
Si Si8 0.244818 0.622792 0.321101
O O1 0.728898 0.466587 0.252793
O O2 0.713127 0.480390 0.393978
O O3 0.629076 0.716194 0.862513
O O4 0.927574 0.843431 0.237013
O O5 0.726642 0.338295 0.070565
O O6 0.783546 0.076579 0.368745
O O7 0.645394 0.927449 0.477248
O O8 0.500000 0.000000 0.000000
O O9 0.142256 0.451140 0.792899
O O10 0.963366 0.392380 0.707499
O O11 0.160753 0.236575 0.227911
O O12 0.916512 0.114959 0.385364
O O13 0.853232 0.577515 0.686226
O O14 0.146386 0.748490 0.039155
O O15 0.000000 0.000000 0.500000
O O16 0.404599 0.803392 0.329018
O O17 0.678486 0.128864 0.462656
#
# Coordination Sequence:
#
# PCOD8009253 Si02
#       8
#     2   2   2   2   2   2   2   2
#     4  11  22  37  65  90 122 163 204 250 311 358
#     4  11  24  40  62  89 126 165 200 253 306 359
#     4  10  21  37  60  89 124 154 199 252 298 364
#     4  11  22  38  64  90 119 157 212 246 305 369
#     4  10  24  42  65  88 120 168 208 250 304 362
#     4  11  23  40  61  93 129 160 202 253 309 361
#     4  10  21  36  59  92 122 158 198 247 307 358
#     4  10  24  42  61  91 126 160 209 254 300 366
#
# _framework density 19.966906999999999
#
# number of rings (size 3 to 8) (size 9 to 14) (size 15 to 20)
#    0.000    1.500    2.500    1.875    1.750    5.000 
#    0.000    0.000    0.000    0.000    0.000    0.000 
#    0.000    0.000    0.000    0.000    0.000    0.000 
#
# Total GULP energy -198473.034834 kJ/mol
# GULP energy per Si atom -12404.564677 kJ/mol
# Density = 1.992146 g / cm^3
# Si number density = 19.966907 Si / 1000 Ang^3
#
#
#
# Elastic Constant Matrix: (Units=GPa)
#
#
# Indices 1 2 3 4 5 6 
#
# 1 90.8249 31.7193 20.6637 1.1403 7.1932 -6.7276
# 2 31.7193 134.5340 53.6724 5.0369 2.3560 18.0840
# 3 20.6637 53.6724 107.5213 -5.9672 -3.9894 5.3776
# 4 1.1403 5.0369 -5.9672 33.7290 1.4660 0.5219
# 5 7.1932 2.3560 -3.9894 1.4660 30.5465 -1.3617
# 6 -6.7276 18.0840 5.3776 0.5219 -1.3617 39.5584
#
#
#
# Elastic Compliance Matrix: (Units=1/GPa)
#
#
# Indices 1 2 3 4 5 6 
#
# 1 0.012820 -0.002938 -0.001290 -0.000157 -0.002793 0.003604
# 2 -0.002938 0.010748 -0.004717 -0.002229 -0.000859 -0.004772
# 3 -0.001290 -0.004717 0.012121 0.002795 0.002131 0.000326
# 4 -0.000157 -0.002229 0.002795 0.030516 -0.000883 0.000179
# 5 -0.002793 -0.000859 0.002131 -0.000883 0.033817 0.000804
# 6 0.003604 -0.004772 0.000326 0.000179 0.000804 0.028054
#
#
# Mechanical properties :
#
#
# Convention : Reuss Voigt Hill
#
# Bulk Modulus (GPa) = 56.18432 60.55455 58.36944
# Shear Modulus (GPa) = 32.91660 35.88844 34.40252
#
# Velocity S-wave (km/s) = 4.06465 4.24417 4.15538
# Velocity P-wave (km/s) = 7.08719 7.37635 7.23322
#
# Compressibility (1/GPa) = 0.01779856
#
# Stress axis : x y z
#
# Youngs Moduli (GPa) = 78.00480 93.04431 82.50109
#
# Poissons Ratio (x) = 0.27333 0.10642
# Poissons Ratio (y) = 0.22915 0.38918
# Poissons Ratio (z) = 0.10062 0.43892
#
# Static dielectric constant tensor:
#      x y z
#    x 3.574870 0.069360 -0.054500 
#    y 0.069360 2.840120 -0.498220 
#    z -0.054500 -0.498220 3.393890 
# 
# 
# High freq. dielectric constant tensor:
#      x y z
#    x 1.777600 0.002570 -0.004290 
#    y 0.002570 1.785550 -0.004440 
#    z -0.004290 -0.004440 1.782610 
# 
# From -- ./inp_files/123740.got.cif
#   From: 2010.06.25/outbox.cif.g09.slc.cpg/sg2_62_cif.got.tgz:123740.got - 2010.06.27 13:26:56.
