data_PCOD8009366
_publ_section_title
;
Structure prediction by ZEFSAII (Michael W. Deem and Ramdas Pophale) SiO2 
 PCOD8009366
Probable space group: P -1
;
_chemical_formula_sum "Si O2"
_cell_formula_units_Z 16
_cell_length_a 13.036508
_cell_length_b 11.049809
_cell_length_c 10.356322
_cell_angle_alpha 126.003722
_cell_angle_beta 47.602361
_cell_angle_gamma 134.310779
_cell_volume 768.825072
_symmetry_space_group_name_H-M "P -1"
_symmetry_group_IT_number 2
_symmetry_cell_setting 'triclinic'
loop_
_space_group_symop_operation_xyz
x,y,z
-x,-y,-z
loop_
_atom_site_type_symbol
_atom_site_label
_atom_site_fract_x
_atom_site_fract_y
_atom_site_fract_z
Si Si1 0.141024 0.904372 0.603293
Si Si2 0.514359 0.966514 0.697112
Si Si3 0.324278 0.728560 0.060776
Si Si4 0.067136 0.701150 0.077927
Si Si5 0.481739 0.329033 0.342601
Si Si6 0.177560 0.798698 0.773226
Si Si7 0.977346 0.439203 0.625134
Si Si8 0.126134 0.143851 0.573018
O O1 0.098386 0.856907 0.761813
O O2 0.031307 0.746717 0.496096
O O3 0.323421 0.943399 0.466671
O O4 0.130237 0.067792 0.664561
O O5 0.468720 0.777764 0.670797
O O6 0.368751 0.930790 0.702771
O O7 0.538478 0.098422 0.876259
O O8 0.411711 0.636049 0.856050
O O9 0.189187 0.589966 0.187249
O O10 0.231321 0.787700 0.076296
O O11 0.101991 0.803381 0.977712
O O12 0.000000 0.500000 0.000000
O O13 0.500000 0.500000 0.500000
O O14 0.292974 0.214410 0.399979
O O15 0.922827 0.710927 0.276251
O O16 0.129443 0.595531 0.668545
O O17 0.000000 0.500000 0.500000
O O18 0.000000 0.000000 0.500000
#
# Coordination Sequence:
#
# PCOD8009366 Si02
#       8
#     2   2   2   2   2   2   2   2
#     4   9  21  41  57  91 124 164 199 260 313 365
#     4  10  21  36  62  88 124 161 207 254 307 369
#     4  11  21  40  61  91 126 156 211 255 307 367
#     4  12  23  37  64  96 119 160 212 255 303 372
#     4  11  23  37  58  92 128 159 199 258 317 362
#     4  11  21  34  65  90 120 161 214 248 302 374
#     4   9  19  36  61  90 117 161 205 254 300 366
#     4  11  25  40  62  90 127 160 201 259 318 364
#
# _framework density 20.810977000000001
#
# number of rings (size 3 to 8) (size 9 to 14) (size 15 to 20)
#    0.000    1.500    2.500    3.750    1.750    0.500 
#    0.000    0.000    0.000    0.000    0.000    9.625 
#    0.000    0.000    0.000    0.000    0.000    0.000 
#
# Total GULP energy -198215.421432 kJ/mol
# GULP energy per Si atom -12388.463839 kJ/mol
# Density = 2.076361 g / cm^3
# Si number density = 20.810977 Si / 1000 Ang^3
#
#
#
# Elastic Constant Matrix: (Units=GPa)
#
#
# Indices 1 2 3 4 5 6 
#
# 1 80.6244 33.0947 48.6840 8.5359 -4.4686 12.0385
# 2 33.0947 96.8918 35.8792 10.3677 3.4219 9.5606
# 3 48.6840 35.8792 135.5167 -10.8234 -0.1734 -6.0370
# 4 8.5359 10.3677 -10.8234 37.4822 -2.6078 3.1641
# 5 -4.4686 3.4219 -0.1734 -2.6078 34.9561 6.2297
# 6 12.0385 9.5606 -6.0370 3.1641 6.2297 32.9738
#
#
#
# Elastic Compliance Matrix: (Units=1/GPa)
#
#
# Indices 1 2 3 4 5 6 
#
# 1 0.019786 -0.002993 -0.007045 -0.004777 0.003841 -0.007913
# 2 -0.002993 0.013072 -0.002792 -0.003626 -0.001487 -0.002580
# 3 -0.007045 -0.002792 0.011287 0.005123 -0.001110 0.005166
# 4 -0.004777 -0.003626 0.005123 0.030347 0.001953 0.000452
# 5 0.003841 -0.001487 -0.001110 0.001953 0.030659 -0.007154
# 6 -0.007913 -0.002580 0.005166 0.000452 -0.007154 0.036218
#
#
# Mechanical properties :
#
#
# Convention : Reuss Voigt Hill
#
# Bulk Modulus (GPa) = 54.09764 60.92764 57.51264
# Shear Modulus (GPa) = 28.86992 34.10744 31.48868
#
# Velocity S-wave (km/s) = 3.72861 4.05274 3.89405
# Velocity P-wave (km/s) = 6.67742 7.15820 6.92199
#
# Compressibility (1/GPa) = 0.01848509
#
# Stress axis : x y z
#
# Youngs Moduli (GPa) = 50.54132 76.49864 88.59758
#
# Poissons Ratio (x) = 0.22898 0.62414
# Poissons Ratio (y) = 0.15128 0.24737
# Poissons Ratio (z) = 0.35604 0.21359
#
# Static dielectric constant tensor:
#      x y z
#    x 3.698900 0.415370 0.113810 
#    y 0.415370 4.940930 -0.143140 
#    z 0.113810 -0.143140 3.852180 
# 
# 
# High freq. dielectric constant tensor:
#      x y z
#    x 1.780970 0.014390 0.013160 
#    y 0.014390 1.827280 -0.003730 
#    z 0.013160 -0.003730 1.820110 
# 
# From -- ./inp_files/423777.got.cif
#   From: 2010.06.25/outbox.cif.g09.slc.cpg/sg2_212_cif.got.tgz:423777.got - 2010.06.27 13:26:56.
