data_PCOD8009143
_publ_section_title
;
Structure prediction by ZEFSAII (Michael W. Deem and Ramdas Pophale) SiO2 
 PCOD8009143
Probable space group: P -1
;
_chemical_formula_sum "Si O2"
_cell_formula_units_Z 16
_cell_length_a 20.901006
_cell_length_b 10.071987
_cell_length_c 5.091718
_cell_angle_alpha 91.905687
_cell_angle_beta 128.516114
_cell_angle_gamma 103.435720
_cell_volume 793.107847
_symmetry_space_group_name_H-M "P -1"
_symmetry_group_IT_number 2
_symmetry_cell_setting 'triclinic'
loop_
_space_group_symop_operation_xyz
x,y,z
-x,-y,-z
loop_
_atom_site_type_symbol
_atom_site_label
_atom_site_fract_x
_atom_site_fract_y
_atom_site_fract_z
Si Si1 0.324810 0.714400 0.269729
Si Si2 0.535215 0.595200 0.348162
Si Si3 0.901594 0.481566 0.796080
Si Si4 0.509394 0.847337 0.587576
Si Si5 0.752287 0.209118 0.428393
Si Si6 0.823786 0.563106 0.093807
Si Si7 0.722849 0.756514 0.845300
Si Si8 0.696346 0.901408 0.283234
O O1 0.428568 0.755924 0.554736
O O2 0.291913 0.805950 0.399175
O O3 0.307660 0.746783 0.928942
O O4 0.270598 0.554066 0.188959
O O5 0.500000 0.500000 0.500000
O O6 0.516144 0.745851 0.350426
O O7 0.636834 0.624895 0.581151
O O8 0.500000 0.500000 0.000000
O O9 0.849309 0.315983 0.669021
O O10 0.864052 0.555934 0.479368
O O11 0.892352 0.551738 0.052705
O O12 0.000000 0.500000 0.000000
O O13 0.500000 0.000000 0.500000
O O14 0.594215 0.877258 0.987847
O O15 0.755179 0.056287 0.359606
O O16 0.807485 0.710409 0.018057
O O17 0.720077 0.875601 0.639692
O O18 0.726415 0.803031 0.158446
#
# Coordination Sequence:
#
# PCOD8009143 Si02
#       8
#     2   2   2   2   2   2   2   2
#     4  10  21  36  57  85 116 153 204 248 301 343
#     4  11  24  41  56  81 119 169 213 260 306 345
#     4  10  21  39  66  94 115 141 185 247 308 359
#     4  11  23  39  60  89 121 166 216 268 298 347
#     4  10  21  37  58  85 118 154 186 245 307 354
#     4  10  21  38  62  88 117 153 192 239 295 362
#     4  11  23  39  58  82 117 164 203 236 288 369
#     4  11  23  38  56  84 121 162 202 243 299 342
#
# _framework density 20.173801000000001
#
# number of rings (size 3 to 8) (size 9 to 14) (size 15 to 20)
#    0.000    1.500    1.250    4.125    1.750    6.500 
#    0.000    0.000    0.000    4.500    0.000    0.000 
#    0.000    0.000    0.000    0.000    0.000    0.000 
#
# Total GULP energy -198311.329869 kJ/mol
# GULP energy per Si atom -12394.458117 kJ/mol
# Density = 2.012788 g / cm^3
# Si number density = 20.173801 Si / 1000 Ang^3
#
#
#
# Elastic Constant Matrix: (Units=GPa)
#
#
# Indices 1 2 3 4 5 6 
#
# 1 107.7452 41.5801 40.1565 -3.0932 11.5610 7.2562
# 2 41.5801 81.7776 32.0559 -5.5121 12.2871 -11.8572
# 3 40.1565 32.0559 63.8105 0.8510 -0.6057 1.0544
# 4 -3.0932 -5.5121 0.8510 26.2849 -0.1219 -1.3906
# 5 11.5610 12.2871 -0.6057 -0.1219 38.0448 -1.6652
# 6 7.2562 -11.8572 1.0544 -1.3906 -1.6652 24.6601
#
#
#
# Elastic Compliance Matrix: (Units=1/GPa)
#
#
# Indices 1 2 3 4 5 6 
#
# 1 0.014528 -0.005388 -0.006359 0.000413 -0.003071 -0.006778
# 2 -0.005388 0.020466 -0.007187 0.004487 -0.004561 0.011678
# 3 -0.006359 -0.007187 0.023408 -0.003122 0.004509 -0.002457
# 4 0.000413 0.004487 -0.003122 0.039357 -0.001310 0.004300
# 5 -0.003071 -0.004561 0.004509 -0.001310 0.028776 0.000387
# 6 -0.006778 0.011678 -0.002457 0.004300 0.000387 0.048535
#
#
# Mechanical properties :
#
#
# Convention : Reuss Voigt Hill
#
# Bulk Modulus (GPa) = 48.69538 53.43537 51.06537
# Shear Modulus (GPa) = 22.74986 27.10066 24.92526
#
# Velocity S-wave (km/s) = 3.36176 3.66916 3.51882
# Velocity P-wave (km/s) = 6.26569 6.67048 6.47125
#
# Compressibility (1/GPa) = 0.02053583
#
# Stress axis : x y z
#
# Youngs Moduli (GPa) = 68.83218 48.86173 42.71962
#
# Poissons Ratio (x) = 0.26325 0.27164
# Poissons Ratio (y) = 0.37085 0.30702
# Poissons Ratio (z) = 0.43769 0.35116
#
# Static dielectric constant tensor:
#      x y z
#    x 3.715270 -0.058100 -0.190070 
#    y -0.058100 3.766080 0.152310 
#    z -0.190070 0.152310 3.568700 
# 
# 
# High freq. dielectric constant tensor:
#      x y z
#    x 1.786310 -0.003410 -0.021670 
#    y -0.003410 1.787040 0.000010 
#    z -0.021670 0.000010 1.774210 
# 
# From -- ./inp_files/45759.got.cif
#   From: 2010.06.25/outbox.cif.g09.slc.cpg/sg2_23_cif.got.tgz:45759.got - 2010.06.27 13:26:56.
