data_PCOD8009182
_publ_section_title
;
Structure prediction by ZEFSAII (Michael W. Deem and Ramdas Pophale) SiO2 
 PCOD8009182
Probable space group: P -1
;
_chemical_formula_sum "Si O2"
_cell_formula_units_Z 14
_cell_length_a 14.683994
_cell_length_b 9.434605
_cell_length_c 9.146078
_cell_angle_alpha 86.949983
_cell_angle_beta 66.757751
_cell_angle_gamma 135.959512
_cell_volume 687.631298
_symmetry_space_group_name_H-M "P -1"
_symmetry_group_IT_number 2
_symmetry_cell_setting 'triclinic'
loop_
_space_group_symop_operation_xyz
x,y,z
-x,-y,-z
loop_
_atom_site_type_symbol
_atom_site_label
_atom_site_fract_x
_atom_site_fract_y
_atom_site_fract_z
Si Si1 0.421864 0.050040 0.219695
Si Si2 0.075611 0.241892 0.444313
Si Si3 0.040505 0.371499 0.744670
Si Si4 0.751980 0.069497 0.161529
Si Si5 0.124194 0.788178 0.612760
Si Si6 0.349637 0.755535 0.700114
Si Si7 0.444729 0.744137 0.188773
O O1 0.255029 0.932268 0.388612
O O2 0.395451 0.849510 0.249425
O O3 0.574582 0.261345 0.223928
O O4 0.458798 0.153919 0.031820
O O5 0.005471 0.240797 0.630637
O O6 0.276270 0.458286 0.305588
O O7 0.019154 0.265066 0.335587
O O8 0.000000 0.000000 0.500000
O O9 0.039094 0.537104 0.701754
O O10 0.220886 0.527486 0.686181
O O11 0.894223 0.168482 0.963116
O O12 0.780526 0.047471 0.310163
O O13 0.761653 0.252492 0.147571
O O14 0.566825 0.817046 0.230582
O O15 0.500000 0.000000 0.500000
#
# Coordination Sequence:
#
# PCOD8009182 Si02
#       7
#     2   2   2   2   2   2   2
#     4  10  19  33  63  98 119 152 196 256 307 353
#     4  12  27  43  59  86 126 166 204 249 302 362
#     4  11  21  37  64  90 127 158 203 253 302 356
#     4  10  21  35  61  98 124 152 198 257 310 353
#     4  11  21  38  64  94 120 154 205 251 304 360
#     4  10  16  31  57  98 131 145 189 255 311 348
#     4  10  22  37  60  89 128 155 199 248 309 352
#
# _framework density 20.359748
#
# number of rings (size 3 to 8) (size 9 to 14) (size 15 to 20)
#    0.000    1.429    4.286    3.857    8.000    0.000 
#    0.000    4.286    0.000    0.000    0.000    0.000 
#    0.000    0.000    0.000    0.000    0.000    0.000 
#
# Total GULP energy -173590.191079 kJ/mol
# GULP energy per Si atom -12399.299363 kJ/mol
# Density = 2.031341 g / cm^3
# Si number density = 20.359748 Si / 1000 Ang^3
#
#
#
# Elastic Constant Matrix: (Units=GPa)
#
#
# Indices 1 2 3 4 5 6 
#
# 1 75.8029 66.1421 25.0982 6.9813 2.7576 27.7721
# 2 66.1421 120.0055 44.1231 -7.0121 8.3316 25.2465
# 3 25.0982 44.1231 120.8616 2.5318 -3.7821 13.3295
# 4 6.9813 -7.0121 2.5318 25.4862 14.4528 3.4733
# 5 2.7576 8.3316 -3.7821 14.4528 22.0702 -0.7654
# 6 27.7721 25.2465 13.3295 3.4733 -0.7654 32.8628
#
#
#
# Elastic Compliance Matrix: (Units=1/GPa)
#
#
# Indices 1 2 3 4 5 6 
#
# 1 0.038643 -0.022911 0.003037 -0.028086 0.022289 -0.012800
# 2 -0.022911 0.028224 -0.006764 0.032399 -0.030296 -0.003707
# 3 0.003037 -0.006764 0.010681 -0.009468 0.010189 -0.000464
# 4 -0.028086 0.032399 -0.009468 0.102121 -0.077562 -0.009914
# 5 0.022289 -0.030296 0.010189 -0.077562 0.106882 0.010993
# 6 -0.012800 -0.003707 -0.000464 -0.009914 0.010993 0.045587
#
#
# Mechanical properties :
#
#
# Convention : Reuss Voigt Hill
#
# Bulk Modulus (GPa) = 41.19929 65.26632 53.23280
# Shear Modulus (GPa) = 12.70639 28.17093 20.43866
#
# Velocity S-wave (km/s) = 2.50090 3.72379 3.17184
# Velocity P-wave (km/s) = 5.34966 7.11442 6.29420
#
# Compressibility (1/GPa) = 0.02427226
#
# Stress axis : x y z
#
# Youngs Moduli (GPa) = 25.87810 35.43121 93.62435
#
# Poissons Ratio (x) = 0.81175 -0.28433
# Poissons Ratio (y) = 0.59288 0.63327
# Poissons Ratio (z) = -0.07859 0.23965
#
# Static dielectric constant tensor:
#      x y z
#    x 3.592400 0.630570 -0.033300 
#    y 0.630570 3.567060 0.233100 
#    z -0.033300 0.233100 3.779210 
# 
# 
# High freq. dielectric constant tensor:
#      x y z
#    x 1.768720 0.062140 -0.007580 
#    y 0.062140 1.761910 0.015500 
#    z -0.007580 0.015500 1.809560 
# 
# From -- ./inp_files/180613.got.cif
#   From: 2010.06.25/outbox.cif.g09.slc.cpg/sg2_91_cif.got.tgz:180613.got - 2010.06.27 13:26:56.
