data_PCOD8009195
_publ_section_title
;
Structure prediction by ZEFSAII (Michael W. Deem and Ramdas Pophale) SiO2 
 PCOD8009195
Probable space group: P -1
;
_chemical_formula_sum "Si O2"
_cell_formula_units_Z 16
_cell_length_a 14.944786
_cell_length_b 12.337386
_cell_length_c 10.767984
_cell_angle_alpha 119.966281
_cell_angle_beta 50.820231
_cell_angle_gamma 148.799563
_cell_volume 793.117649
_symmetry_space_group_name_H-M "P -1"
_symmetry_group_IT_number 2
_symmetry_cell_setting 'triclinic'
loop_
_space_group_symop_operation_xyz
x,y,z
-x,-y,-z
loop_
_atom_site_type_symbol
_atom_site_label
_atom_site_fract_x
_atom_site_fract_y
_atom_site_fract_z
Si Si1 0.430709 0.263746 0.482790
Si Si2 0.020411 0.900743 0.014114
Si Si3 0.209726 0.817668 0.722998
Si Si4 0.203638 0.119606 0.240508
Si Si5 0.558125 0.003484 0.630206
Si Si6 0.408702 0.488614 0.761932
Si Si7 0.037044 0.861033 0.470649
Si Si8 0.937892 0.393247 0.626372
O O1 0.514275 0.201627 0.409792
O O2 0.436235 0.362302 0.651967
O O3 0.565766 0.430644 0.349974
O O4 0.206774 0.060161 0.523654
O O5 0.806779 0.662664 0.093461
O O6 0.141647 0.042699 0.110545
O O7 0.141976 0.900971 0.836228
O O8 0.000000 0.000000 0.000000
O O9 0.366921 0.924120 0.753863
O O10 0.021019 0.562190 0.752837
O O11 0.316548 0.879037 0.536997
O O12 0.437797 0.321114 0.164833
O O13 0.144763 0.206404 0.388896
O O14 0.105991 0.928602 0.304882
O O15 0.702145 0.174503 0.712950
O O16 0.973317 0.666285 0.454909
O O17 0.000000 0.500000 0.500000
#
# Coordination Sequence:
#
# PCOD8009195 Si02
#       8
#     2   2   2   2   2   2   2   2
#     4   9  17  35  63  87 117 147 198 254 291 340
#     4  12  26  42  57  83 131 161 191 246 310 362
#     4  10  22  37  57  84 114 157 198 238 294 363
#     4  10  22  37  60  90 118 162 199 248 296 351
#     4   9  19  38  59  85 110 150 201 247 289 342
#     4  10  21  36  58  90 115 155 199 241 296 356
#     4   9  18  37  62  91 123 147 205 256 291 340
#     4   9  19  34  59  88 115 149 193 248 292 345
#
# _framework density 20.173552000000001
#
# number of rings (size 3 to 8) (size 9 to 14) (size 15 to 20)
#    0.000    2.250    1.250    0.750    7.000    1.500 
#    2.250    2.500    0.000    4.500    0.000    0.000 
#    0.000    0.000    0.000    0.000    0.000    0.000 
#
# Total GULP energy -198338.821292 kJ/mol
# GULP energy per Si atom -12396.176331 kJ/mol
# Density = 2.012764 g / cm^3
# Si number density = 20.173552 Si / 1000 Ang^3
#
#
#
# Elastic Constant Matrix: (Units=GPa)
#
#
# Indices 1 2 3 4 5 6 
#
# 1 107.1125 46.7276 24.1279 7.4156 -15.8370 -5.0372
# 2 46.7276 102.0566 29.1988 9.4526 -7.9322 3.8370
# 3 24.1279 29.1988 46.2402 3.5431 -13.1256 10.3819
# 4 7.4156 9.4526 3.5431 21.6027 2.7469 -3.4540
# 5 -15.8370 -7.9322 -13.1256 2.7469 34.0304 3.3774
# 6 -5.0372 3.8370 10.3819 -3.4540 3.3774 47.0946
#
#
#
# Elastic Compliance Matrix: (Units=1/GPa)
#
#
# Indices 1 2 3 4 5 6 
#
# 1 0.012802 -0.004596 -0.003023 -0.002037 0.003687 0.001997
# 2 -0.004596 0.013977 -0.006362 -0.003430 -0.001018 -0.000406
# 3 -0.003023 -0.006362 0.032384 -0.004136 0.010730 -0.008017
# 4 -0.002037 -0.003430 -0.004136 0.051030 -0.007987 0.005289
# 5 0.003687 -0.001018 0.010730 -0.007987 0.036150 -0.005066
# 6 0.001997 -0.000406 -0.008017 0.005289 -0.005066 0.023999
#
#
# Mechanical properties :
#
#
# Convention : Reuss Voigt Hill
#
# Bulk Modulus (GPa) = 32.05249 50.61309 41.33279
# Shear Modulus (GPa) = 23.95706 30.90254 27.42980
#
# Velocity S-wave (km/s) = 3.44982 3.91811 3.69140
# Velocity P-wave (km/s) = 5.63837 6.75367 6.22107
#
# Compressibility (1/GPa) = 0.03119882
#
# Stress axis : x y z
#
# Youngs Moduli (GPa) = 78.11142 71.54497 30.87946
#
# Poissons Ratio (x) = 0.32885 0.09336
# Poissons Ratio (y) = 0.35904 0.19647
# Poissons Ratio (z) = 0.23616 0.45520
#
# Static dielectric constant tensor:
#      x y z
#    x 3.947030 0.166170 -0.055410 
#    y 0.166170 4.063300 -0.047960 
#    z -0.055410 -0.047960 3.217860 
# 
# 
# High freq. dielectric constant tensor:
#      x y z
#    x 1.797990 0.004650 -0.006930 
#    y 0.004650 1.801780 -0.002050 
#    z -0.006930 -0.002050 1.737750 
# 
# From -- ./inp_files/358853.got.cif
#   From: 2010.06.25/outbox.cif.g09.slc.cpg/sg2_180_cif.got.tgz:358853.got - 2010.06.27 13:26:56.
