data_PCOD8009930
_publ_section_title
;
Structure prediction by ZEFSAII (Michael W. Deem and Ramdas Pophale) SiO2 
 PCOD8009930
Probable space group: P -1
;
_chemical_formula_sum "Si O2"
_cell_formula_units_Z 16
_cell_length_a 12.400712
_cell_length_b 9.873507
_cell_length_c 11.182445
_cell_angle_alpha 124.176628
_cell_angle_beta 84.997859
_cell_angle_gamma 129.579246
_cell_volume 790.446991
_symmetry_space_group_name_H-M "P -1"
_symmetry_group_IT_number 2
_symmetry_cell_setting 'triclinic'
loop_
_space_group_symop_operation_xyz
x,y,z
-x,-y,-z
loop_
_atom_site_type_symbol
_atom_site_label
_atom_site_fract_x
_atom_site_fract_y
_atom_site_fract_z
Si Si1 0.833154 0.027027 0.497735
Si Si2 0.987959 0.931021 0.291987
Si Si3 0.380189 0.897972 0.124169
Si Si4 0.956452 0.513829 0.676994
Si Si5 0.096287 0.462586 0.041535
Si Si6 0.716151 0.238488 0.201775
Si Si7 0.779483 0.552583 0.537393
Si Si8 0.452738 0.279755 0.454893
O O1 0.853287 0.914728 0.334003
O O2 0.663696 0.831673 0.477120
O O3 0.870112 0.245759 0.551221
O O4 0.966947 0.134891 0.634001
O O5 0.931273 0.750583 0.105178
O O6 0.141065 0.185726 0.353511
O O7 0.279427 0.692208 0.127816
O O8 0.550145 0.999614 0.150621
O O9 0.383332 0.090206 0.262295
O O10 0.288647 0.778155 0.948829
O O11 0.937051 0.580933 0.837780
O O12 0.890097 0.546943 0.591869
O O13 0.141268 0.711127 0.735242
O O14 0.000000 0.500000 0.000000
O O15 0.746151 0.455215 0.355783
O O16 0.615815 0.383741 0.539772
O O17 0.500000 0.500000 0.500000
#
# Coordination Sequence:
#
# PCOD8009930 Si02
#       8
#     2   2   2   2   2   2   2   2
#     4  11  22  38  65  92 123 164 218 261 309 376
#     4  11  23  39  64  96 126 165 218 263 310 376
#     4  10  21  37  62  97 119 165 215 263 311 368
#     4  12  23  41  66  94 130 174 211 257 326 385
#     4  12  22  40  64  93 128 170 215 266 308 379
#     4  10  21  38  62  91 131 160 208 264 312 374
#     4  11  25  40  63  99 131 167 213 259 328 383
#     4  11  22  40  65  95 127 163 213 273 314 373
#
# _framework density 20.241710000000001
#
# number of rings (size 3 to 8) (size 9 to 14) (size 15 to 20)
#    0.000    1.000    6.250    0.375    1.750    2.000 
#    0.000    0.000    0.000    1.500    0.000    0.000 
#    0.000    0.000    0.000    0.000    0.000    0.000 
#
# Total GULP energy -198311.098754 kJ/mol
# GULP energy per Si atom -12394.443672 kJ/mol
# Density = 2.019564 g / cm^3
# Si number density = 20.241710 Si / 1000 Ang^3
#
#
#
# Elastic Constant Matrix: (Units=GPa)
#
#
# Indices 1 2 3 4 5 6 
#
# 1 94.9498 25.4235 41.7666 6.0970 2.6430 25.8103
# 2 25.4235 67.7791 43.6067 10.3727 -0.4843 16.3915
# 3 41.7666 43.6067 140.2001 12.2622 -24.8150 7.0497
# 4 6.0970 10.3727 12.2622 30.4051 5.0666 -1.8494
# 5 2.6430 -0.4843 -24.8150 5.0666 34.8134 0.2764
# 6 25.8103 16.3915 7.0497 -1.8494 0.2764 44.6946
#
#
#
# Elastic Compliance Matrix: (Units=1/GPa)
#
#
# Indices 1 2 3 4 5 6 
#
# 1 0.014967 -0.000787 -0.004515 -0.000676 -0.004207 -0.007644
# 2 -0.000787 0.021328 -0.006294 -0.004405 -0.003437 -0.006536
# 3 -0.004515 -0.006294 0.012256 -0.003295 0.009448 0.002788
# 4 -0.000676 -0.004405 -0.003295 0.037413 -0.007836 0.004122
# 5 -0.004207 -0.003437 0.009448 -0.007836 0.036858 0.001647
# 6 -0.007644 -0.006536 0.002788 0.004122 0.001647 0.028906
#
#
# Mechanical properties :
#
#
# Convention : Reuss Voigt Hill
#
# Bulk Modulus (GPa) = 39.43307 58.28029 48.85668
# Shear Modulus (GPa) = 27.26671 34.79141 31.02906
#
# Velocity S-wave (km/s) = 3.67421 4.15034 3.91951
# Velocity P-wave (km/s) = 6.12561 7.19873 6.68374
#
# Compressibility (1/GPa) = 0.02535942
#
# Stress axis : x y z
#
# Youngs Moduli (GPa) = 66.81264 46.88585 81.59519
#
# Poissons Ratio (x) = 0.03691 0.36841
# Poissons Ratio (y) = 0.05260 0.51353
# Poissons Ratio (z) = 0.30166 0.29508
#
# Static dielectric constant tensor:
#      x y z
#    x 4.019170 0.476280 -0.149690 
#    y 0.476280 3.567020 0.060490 
#    z -0.149690 0.060490 3.802510 
# 
# 
# High freq. dielectric constant tensor:
#      x y z
#    x 1.789740 0.036610 -0.014730 
#    y 0.036610 1.778940 0.008150 
#    z -0.014730 0.008150 1.793310 
# 
# From -- ./inp_files/257014.got.cif
#   From: 2010.06.25/outbox.cif.g09.slc.cpg/sg2_129_cif.got.tgz:257014.got - 2010.06.27 13:26:56.
