data_PCOD8009061
_publ_section_title
;
Structure prediction by ZEFSAII (Michael W. Deem and Ramdas Pophale) SiO2 
 PCOD8009061
Probable space group: P -1
;
_chemical_formula_sum "Si O2"
_cell_formula_units_Z 16
_cell_length_a 9.283779
_cell_length_b 8.869806
_cell_length_c 25.286186
_cell_angle_alpha 48.218116
_cell_angle_beta 48.362403
_cell_angle_gamma 31.719791
_cell_volume 790.615171
_symmetry_space_group_name_H-M "P -1"
_symmetry_group_IT_number 2
_symmetry_cell_setting 'triclinic'
loop_
_space_group_symop_operation_xyz
x,y,z
-x,-y,-z
loop_
_atom_site_type_symbol
_atom_site_label
_atom_site_fract_x
_atom_site_fract_y
_atom_site_fract_z
Si Si1 0.783885 0.940852 0.711006
Si Si2 0.325025 0.559284 0.840801
Si Si3 0.072220 0.874402 0.452930
Si Si4 0.491794 0.245780 0.452670
Si Si5 0.908668 0.162516 0.928854
Si Si6 0.735989 0.973977 0.929625
Si Si7 0.629414 0.444305 0.288771
Si Si8 0.484750 0.764101 0.839608
O O1 0.672075 0.800938 0.762643
O O2 0.102633 0.687161 0.712674
O O3 0.752624 0.082756 0.629381
O O4 0.595351 0.201015 0.739595
O O5 0.288353 0.669224 0.764799
O O6 0.405072 0.685132 0.828454
O O7 0.035456 0.664298 0.905491
O O8 0.588654 0.206039 0.863181
O O9 0.238646 0.531099 0.485098
O O10 0.000000 0.000000 0.500000
O O11 0.776454 0.086313 0.447993
O O12 0.484395 0.357126 0.370706
O O13 0.500000 0.000000 0.500000
O O14 0.650628 0.520976 0.904221
O O15 0.817178 0.046068 0.942752
O O16 0.185812 0.070951 0.862941
O O17 0.000000 0.000000 0.000000
O O18 0.500000 0.000000 0.000000
#
# Coordination Sequence:
#
# PCOD8009061 Si02
#       8
#     2   2   2   2   2   2   2   2
#     4  10  21  37  57  83 113 145 185 231 277 332
#     4  10  21  37  55  79 109 141 181 226 274 329
#     4  10  21  38  59  86 119 153 193 239 286 342
#     4  10  21  38  59  86 119 153 193 239 286 342
#     4  10  21  36  54  78 107 139 179 226 273 327
#     4  10  21  36  54  78 107 139 179 226 273 327
#     4  10  21  37  57  83 113 145 185 231 277 332
#     4  10  21  37  55  79 109 141 181 226 274 329
#
# _framework density 20.237406
#
# number of rings (size 3 to 8) (size 9 to 14) (size 15 to 20)
#    0.000    2.000    0.000    3.000    0.000    4.000 
#    0.000    3.750    0.000    0.000    0.000    0.000 
#    0.000    0.000    0.000    0.000    0.000    0.000 
#
# Total GULP energy -198251.734742 kJ/mol
# GULP energy per Si atom -12390.733421 kJ/mol
# Density = 2.019134 g / cm^3
# Si number density = 20.237406 Si / 1000 Ang^3
#
#
#
# Elastic Constant Matrix: (Units=GPa)
#
#
# Indices 1 2 3 4 5 6 
#
# 1 76.1117 35.2188 64.2338 3.5334 -7.7540 -6.6122
# 2 35.2188 119.9213 29.4441 11.0679 -15.2704 -1.6228
# 3 64.2338 29.4441 108.6676 5.9366 -0.8274 6.9908
# 4 3.5334 11.0679 5.9366 26.9833 -11.6638 -0.5677
# 5 -7.7540 -15.2704 -0.8274 -11.6638 68.2865 -3.7300
# 6 -6.6122 -1.6228 6.9908 -0.5677 -3.7300 26.5674
#
#
#
# Elastic Compliance Matrix: (Units=1/GPa)
#
#
# Indices 1 2 3 4 5 6 
#
# 1 0.032940 -0.004614 -0.019273 0.003776 0.003863 0.013611
# 2 -0.004614 0.010070 0.000207 -0.003072 0.001179 -0.000488
# 3 -0.019273 0.000207 0.021430 -0.003864 -0.003140 -0.010947
# 4 0.003776 -0.003072 -0.003864 0.041793 0.007033 0.003649
# 5 0.003863 0.001179 -0.003140 0.007033 0.016748 0.004362
# 6 0.013611 -0.000488 -0.010947 0.003649 0.004362 0.044569
#
#
# Mechanical properties :
#
#
# Convention : Reuss Voigt Hill
#
# Bulk Modulus (GPa) = 58.54896 62.49935 60.52415
# Shear Modulus (GPa) = 22.66520 36.08770 29.37645
#
# Velocity S-wave (km/s) = 3.35022 4.22740 3.81411
# Velocity P-wave (km/s) = 6.63017 7.40121 7.02628
#
# Compressibility (1/GPa) = 0.01707972
#
# Stress axis : x y z
#
# Youngs Moduli (GPa) = 30.35847 99.30342 46.66347
#
# Poissons Ratio (x) = 0.45820 0.89935
# Poissons Ratio (y) = 0.14008 -0.00966
# Poissons Ratio (z) = 0.58510 -0.02056
#
# Static dielectric constant tensor:
#      x y z
#    x 3.563590 -0.348180 -0.119320 
#    y -0.348180 4.157920 0.053880 
#    z -0.119320 0.053880 3.788950 
# 
# 
# High freq. dielectric constant tensor:
#      x y z
#    x 1.780790 -0.020450 -0.000850 
#    y -0.020450 1.807650 0.001500 
#    z -0.000850 0.001500 1.785400 
# 
# From -- ./inp_files/606665.got.cif
#   From: 2010.06.25/outbox.cif.g09.slc.cpg/sg2_304_cif.got.tgz:606665.got - 2010.06.27 13:26:56.
