data_PCOD8009828
_publ_section_title
;
Structure prediction by ZEFSAII (Michael W. Deem and Ramdas Pophale) SiO2 
 PCOD8009828
Probable space group: P -1
;
_chemical_formula_sum "Si O2"
_cell_formula_units_Z 16
_cell_length_a 12.313593
_cell_length_b 21.897211
_cell_length_c 8.053271
_cell_angle_alpha 139.090740
_cell_angle_beta 105.327608
_cell_angle_gamma 43.368159
_cell_volume 755.200464
_symmetry_space_group_name_H-M "P -1"
_symmetry_group_IT_number 2
_symmetry_cell_setting 'triclinic'
loop_
_space_group_symop_operation_xyz
x,y,z
-x,-y,-z
loop_
_atom_site_type_symbol
_atom_site_label
_atom_site_fract_x
_atom_site_fract_y
_atom_site_fract_z
Si Si1 0.246152 0.214169 0.507979
Si Si2 0.079026 0.713867 0.475455
Si Si3 0.495157 0.575581 0.797966
Si Si4 0.815096 0.234035 0.671463
Si Si5 0.589124 0.820059 0.813278
Si Si6 0.742873 0.093068 0.772656
Si Si7 0.746313 0.092169 0.156391
Si Si8 0.579769 0.841706 0.217098
O O1 0.244540 0.273518 0.455441
O O2 0.270599 0.267606 0.786196
O O3 0.034825 0.305693 0.634137
O O4 0.432331 0.013589 0.165288
O O5 0.271935 0.558322 0.348188
O O6 0.158050 0.697011 0.297102
O O7 0.930463 0.893674 0.868061
O O8 0.500000 0.500000 0.500000
O O9 0.380215 0.605671 0.966473
O O10 0.367959 0.754875 0.071474
O O11 0.767907 0.169941 0.429289
O O12 0.022760 0.081836 0.552837
O O13 0.469006 0.809299 0.688993
O O14 0.687950 0.738807 0.872223
O O15 0.621531 0.081135 0.678680
O O16 0.756502 0.114771 0.014595
O O17 0.500000 0.000000 0.500000
#
# Coordination Sequence:
#
# PCOD8009828 Si02
#       8
#     2   2   2   2   2   2   2   2
#     4   9  17  33  55  83 119 149 198 238 294 358
#     4  10  21  39  59  87 119 161 193 243 310 362
#     4  12  25  40  54  87 129 156 196 251 306 361
#     4  11  21  38  63  85 113 160 206 244 301 363
#     4   8  16  30  54  89 112 151 190 249 295 343
#     4  10  21  37  61  93 118 152 204 252 298 354
#     4   9  18  36  64  85 116 150 204 250 294 359
#     4   9  17  33  58  88 122 150 197 256 297 347
#
# _framework density 21.186429
#
# number of rings (size 3 to 8) (size 9 to 14) (size 15 to 20)
#    0.000    2.250    0.000    6.000    1.750    0.000 
#    9.000    0.625    0.000    1.500    0.000    0.000 
#    0.000    0.000    0.000    0.000    0.000    0.000 
#
# Total GULP energy -198334.234460 kJ/mol
# GULP energy per Si atom -12395.889654 kJ/mol
# Density = 2.113821 g / cm^3
# Si number density = 21.186429 Si / 1000 Ang^3
#
#
#
# Elastic Constant Matrix: (Units=GPa)
#
#
# Indices 1 2 3 4 5 6 
#
# 1 137.7599 55.0359 37.7868 -22.3272 -22.5544 -21.1399
# 2 55.0359 131.5102 40.7731 -11.9973 -16.3333 -24.3399
# 3 37.7868 40.7731 48.1538 -14.4894 -19.3995 -16.2689
# 4 -22.3272 -11.9973 -14.4894 29.4966 6.9801 4.1593
# 5 -22.5544 -16.3333 -19.3995 6.9801 18.6025 -1.1229
# 6 -21.1399 -24.3399 -16.2689 4.1593 -1.1229 32.9941
#
#
#
# Elastic Compliance Matrix: (Units=1/GPa)
#
#
# Indices 1 2 3 4 5 6 
#
# 1 0.011417 -0.002079 0.000905 0.004649 0.011580 0.006036
# 2 -0.002079 0.011250 -0.006206 -0.000976 0.001499 0.004082
# 3 0.000905 -0.006206 0.059565 0.010675 0.055323 0.025909
# 4 0.004649 -0.000976 0.010675 0.041870 0.000338 0.002256
# 5 0.011580 0.001499 0.055323 0.000338 0.129102 0.040155
# 6 0.006036 0.004082 0.025909 0.002256 0.040155 0.051044
#
#
# Mechanical properties :
#
#
# Convention : Reuss Voigt Hill
#
# Bulk Modulus (GPa) = 14.82091 64.95727 39.88909
# Shear Modulus (GPa) = 14.64127 28.47385 21.55756
#
# Velocity S-wave (km/s) = 2.63167 3.66999 3.19332
# Velocity P-wave (km/s) = 4.03050 6.97745 5.69780
#
# Compressibility (1/GPa) = 0.06747222
#
# Stress axis : x y z
#
# Youngs Moduli (GPa) = 87.58784 88.88497 16.78839
#
# Poissons Ratio (x) = 0.18479 -0.01519
# Poissons Ratio (y) = 0.18209 0.10418
# Poissons Ratio (z) = -0.07923 0.55160
#
# Static dielectric constant tensor:
#      x y z
#    x 4.125070 0.054130 -0.277270 
#    y 0.054130 4.358960 -0.227640 
#    z -0.277270 -0.227640 3.533020 
# 
# 
# High freq. dielectric constant tensor:
#      x y z
#    x 1.846450 -0.005380 -0.007160 
#    y -0.005380 1.831070 -0.012680 
#    z -0.007160 -0.012680 1.790640 
# 
# From -- ./inp_files/285043.got.cif
#   From: 2010.06.25/outbox.cif.g09.slc.cpg/sg2_143_cif.got.tgz:285043.got - 2010.06.27 13:26:56.
