data_PCOD8009257
_publ_section_title
;
Structure prediction by ZEFSAII (Michael W. Deem and Ramdas Pophale) SiO2 
 PCOD8009257
Probable space group: P -1
;
_chemical_formula_sum "Si O2"
_cell_formula_units_Z 16
_cell_length_a 8.634894
_cell_length_b 9.436419
_cell_length_c 24.607229
_cell_angle_alpha 46.633256
_cell_angle_beta 123.014301
_cell_angle_gamma 147.565889
_cell_volume 778.663600
_symmetry_space_group_name_H-M "P -1"
_symmetry_group_IT_number 2
_symmetry_cell_setting 'triclinic'
loop_
_space_group_symop_operation_xyz
x,y,z
-x,-y,-z
loop_
_atom_site_type_symbol
_atom_site_label
_atom_site_fract_x
_atom_site_fract_y
_atom_site_fract_z
Si Si1 0.677039 0.677526 0.540428
Si Si2 0.542709 0.591313 0.182597
Si Si3 0.337739 0.768193 0.481968
Si Si4 0.200899 0.621392 0.303557
Si Si5 0.727214 0.278995 0.836204
Si Si6 0.185108 0.604392 0.927137
Si Si7 0.465629 0.862353 0.684070
Si Si8 0.911698 0.731022 0.907731
O O1 0.500000 0.500000 0.500000
O O2 0.489219 0.681732 0.535731
O O3 0.671512 0.482444 0.627898
O O4 0.000000 0.000000 0.500000
O O5 0.409046 0.632453 0.189713
O O6 0.498168 0.339363 0.263309
O O7 0.391101 0.480102 0.124319
O O8 0.881977 0.911700 0.152093
O O9 0.000000 0.500000 0.500000
O O10 0.500000 0.000000 0.500000
O O11 0.370023 0.897890 0.396178
O O12 0.206668 0.641305 0.234908
O O13 0.870148 0.360524 0.327521
O O14 0.393304 0.947674 0.282510
O O15 0.020572 0.464497 0.875159
O O16 0.520056 0.923607 0.896443
O O17 0.070260 0.680562 0.923493
O O18 0.150851 0.371927 0.013971
#
# Coordination Sequence:
#
# PCOD8009257 Si02
#       8
#     2   2   2   2   2   2   2   2
#     4  12  23  46  68  92 124 167 217 250 303 386
#     4  10  21  37  59  92 121 156 206 253 306 363
#     4  12  26  44  67  98 125 161 207 268 315 361
#     4  12  24  43  65  88 125 172 204 250 307 374
#     4  10  21  36  59  93 118 156 208 256 300 353
#     4   9  17  33  58  89 122 151 203 258 300 356
#     4  12  25  44  63  89 130 167 202 248 319 377
#     4   9  17  33  59  88 120 159 196 253 312 355
#
# _framework density 20.548027000000001
#
# number of rings (size 3 to 8) (size 9 to 14) (size 15 to 20)
#    0.000    1.250    2.500    3.750    1.750    3.000 
#    4.500    0.000    0.000   15.000    0.000    0.000 
#    0.000    0.000    0.000    0.000    0.000    0.000 
#
# Total GULP energy -198391.413329 kJ/mol
# GULP energy per Si atom -12399.463333 kJ/mol
# Density = 2.050126 g / cm^3
# Si number density = 20.548027 Si / 1000 Ang^3
#
#
#
# Elastic Constant Matrix: (Units=GPa)
#
#
# Indices 1 2 3 4 5 6 
#
# 1 82.5255 35.3197 21.2634 -1.9209 0.0478 4.0137
# 2 35.3197 140.7709 19.1382 -1.9549 -10.5160 0.5958
# 3 21.2634 19.1382 100.9271 1.4669 -13.8981 -7.8586
# 4 -1.9209 -1.9549 1.4669 38.9273 -7.4450 -6.5858
# 5 0.0478 -10.5160 -13.8981 -7.4450 18.5852 0.8445
# 6 4.0137 0.5958 -7.8586 -6.5858 0.8445 33.9335
#
#
#
# Elastic Compliance Matrix: (Units=1/GPa)
#
#
# Indices 1 2 3 4 5 6 
#
# 1 0.014573 -0.003562 -0.003206 -0.000625 -0.004591 -0.002411
# 2 -0.003562 0.008418 -0.000122 0.001306 0.005188 0.000370
# 3 -0.003206 -0.000122 0.012159 0.001771 0.009591 0.003302
# 4 -0.000625 0.001306 0.001771 0.029221 0.013507 0.005796
# 5 -0.004591 0.005188 0.009591 0.013507 0.069174 0.003573
# 6 -0.002411 0.000370 0.003302 0.005796 0.003573 0.031549
#
#
# Mechanical properties :
#
#
# Convention : Reuss Voigt Hill
#
# Bulk Modulus (GPa) = 46.79155 52.85179 49.82167
# Shear Modulus (GPa) = 26.88224 34.85601 30.86912
#
# Velocity S-wave (km/s) = 3.62092 4.12311 3.88015
# Velocity P-wave (km/s) = 6.34843 6.96015 6.66132
#
# Compressibility (1/GPa) = 0.02137138
#
# Stress axis : x y z
#
# Youngs Moduli (GPa) = 68.61852 118.79112 82.24576
#
# Poissons Ratio (x) = 0.42314 0.26365
# Poissons Ratio (y) = 0.24443 0.01000
# Poissons Ratio (z) = 0.21997 0.01445
#
# Static dielectric constant tensor:
#      x y z
#    x 2.128590 0.694540 -0.477130 
#    y 0.694540 3.770380 0.209520 
#    z -0.477130 0.209520 3.676090 
# 
# 
# High freq. dielectric constant tensor:
#      x y z
#    x 1.785070 0.003170 0.001130 
#    y 0.003170 1.827810 0.002160 
#    z 0.001130 0.002160 1.811910 
# 
# From -- ./inp_files/52167.got.cif
#   From: 2010.06.25/outbox.cif.g09.slc.cpg/sg2_27_cif.got.tgz:52167.got - 2010.06.27 13:26:56.
