data_PCOD8009408
_publ_section_title
;
Structure prediction by ZEFSAII (Michael W. Deem and Ramdas Pophale) SiO2 
 PCOD8009408
Probable space group: P -1
;
_chemical_formula_sum "Si O2"
_cell_formula_units_Z 14
_cell_length_a 9.964023
_cell_length_b 16.134838
_cell_length_c 5.229465
_cell_angle_alpha 87.345300
_cell_angle_beta 120.085012
_cell_angle_gamma 112.917722
_cell_volume 658.250270
_symmetry_space_group_name_H-M "P -1"
_symmetry_group_IT_number 2
_symmetry_cell_setting 'triclinic'
loop_
_space_group_symop_operation_xyz
x,y,z
-x,-y,-z
loop_
_atom_site_type_symbol
_atom_site_label
_atom_site_fract_x
_atom_site_fract_y
_atom_site_fract_z
Si Si1 0.867171 0.542190 0.319225
Si Si2 0.357431 0.275108 0.341421
Si Si3 0.735297 0.227433 0.088271
Si Si4 0.422883 0.647367 0.956168
Si Si5 0.415384 0.108533 0.494828
Si Si6 0.638595 0.065648 0.315566
Si Si7 0.070671 0.339130 0.139958
O O1 0.675922 0.462319 0.133749
O O2 0.870782 0.609305 0.541306
O O3 0.000000 0.500000 0.500000
O O4 0.912307 0.593096 0.083814
O O5 0.442543 0.320228 0.149352
O O6 0.309398 0.165864 0.301841
O O7 0.179645 0.282113 0.197780
O O8 0.485130 0.326982 0.685358
O O9 0.719891 0.311086 0.215709
O O10 0.786823 0.156961 0.316363
O O11 0.871817 0.266843 0.984731
O O12 0.539795 0.166290 0.831533
O O13 0.543156 0.107086 0.402097
O O14 0.290159 0.002373 0.467926
O O15 0.500000 0.000000 0.000000
#
# Coordination Sequence:
#
# PCOD8009408 Si02
#       7
#     2   2   2   2   2   2   2
#     4  12  26  43  65  94 124 166 218 268 301 364
#     4  11  24  42  62  97 127 169 203 259 318 374
#     4  10  21  36  63  92 120 167 207 257 306 371
#     4  11  23  41  67  85 126 170 217 252 310 369
#     4   9  19  35  64  89 124 158 209 256 298 377
#     4   9  17  35  61  95 115 156 214 252 298 364
#     4  12  27  41  64  94 133 162 209 263 321 363
#
# _framework density 21.268505000000001
#
# number of rings (size 3 to 8) (size 9 to 14) (size 15 to 20)
#    0.000    1.429    2.857    2.143    6.000    3.429 
#    0.000    0.714    0.000    7.714    0.000    0.000 
#    0.000    0.000    0.000    0.000    0.000    0.000 
#
# Total GULP energy -173480.304364 kJ/mol
# GULP energy per Si atom -12391.450312 kJ/mol
# Density = 2.122010 g / cm^3
# Si number density = 21.268505 Si / 1000 Ang^3
#
#
#
# Elastic Constant Matrix: (Units=GPa)
#
#
# Indices 1 2 3 4 5 6 
#
# 1 106.2602 49.0337 -0.3229 -14.1995 -4.3070 -0.1147
# 2 49.0337 134.0421 8.8614 -22.2883 0.8290 11.5071
# 3 -0.3229 8.8614 34.9044 -7.3525 -15.3263 3.9677
# 4 -14.1995 -22.2883 -7.3525 22.3294 -0.5882 -7.7722
# 5 -4.3070 0.8290 -15.3263 -0.5882 35.5208 -8.7058
# 6 -0.1147 11.5071 3.9677 -7.7722 -8.7058 35.8624
#
#
#
# Elastic Compliance Matrix: (Units=1/GPa)
#
#
# Indices 1 2 3 4 5 6 
#
# 1 0.012298 -0.004008 0.003943 0.006374 0.004198 0.003289
# 2 -0.004008 0.010301 -0.001967 0.006254 -0.002020 -0.002235
# 3 0.003943 -0.001967 0.040533 0.015894 0.019329 0.004296
# 4 0.006374 0.006254 0.015894 0.065241 0.011816 0.013263
# 5 0.004198 -0.002020 0.019329 0.011816 0.039883 0.010765
# 6 0.003289 -0.002235 0.004296 0.013263 0.010765 0.033624
#
#
# Mechanical properties :
#
#
# Convention : Reuss Voigt Hill
#
# Bulk Modulus (GPa) = 16.93003 43.37236 30.15119
# Shear Modulus (GPa) = 22.15996 33.25149 27.70573
#
# Velocity S-wave (km/s) = 3.23137 3.95829 3.61316
# Velocity P-wave (km/s) = 4.67972 6.42867 5.62261
#
# Compressibility (1/GPa) = 0.05906664
#
# Stress axis : x y z
#
# Youngs Moduli (GPa) = 81.31645 97.07980 24.67154
#
# Poissons Ratio (x) = 0.38908 -0.09728
# Poissons Ratio (y) = 0.32590 0.04854
# Poissons Ratio (z) = -0.32064 0.19100
#
# Static dielectric constant tensor:
#      x y z
#    x 3.706670 -0.086870 -0.253800 
#    y -0.086870 4.745130 -0.329610 
#    z -0.253800 -0.329610 3.616580 
# 
# 
# High freq. dielectric constant tensor:
#      x y z
#    x 1.817590 -0.006700 -0.032550 
#    y -0.006700 1.863960 -0.009330 
#    z -0.032550 -0.009330 1.814010 
# 
# From -- ./inp_files/35005.got.cif
#   From: 2010.06.25/outbox.cif.g09.slc.cpg/sg2_18_cif.got.tgz:35005.got - 2010.06.27 13:26:56.
