data_PCOD8009924
_publ_section_title
;
Structure prediction by ZEFSAII (Michael W. Deem and Ramdas Pophale) SiO2 
 PCOD8009924
Probable space group: P -1
;
_chemical_formula_sum "Si O2"
_cell_formula_units_Z 12
_cell_length_a 13.036214
_cell_length_b 12.837861
_cell_length_c 9.355998
_cell_angle_alpha 96.841880
_cell_angle_beta 59.519219
_cell_angle_gamma 146.525877
_cell_volume 572.181106
_symmetry_space_group_name_H-M "P -1"
_symmetry_group_IT_number 2
_symmetry_cell_setting 'triclinic'
loop_
_space_group_symop_operation_xyz
x,y,z
-x,-y,-z
loop_
_atom_site_type_symbol
_atom_site_label
_atom_site_fract_x
_atom_site_fract_y
_atom_site_fract_z
Si Si1 0.552985 0.665865 0.287745
Si Si2 0.993003 0.878424 0.430732
Si Si3 0.490646 0.852890 0.836308
Si Si4 0.143461 0.663074 0.287273
Si Si5 0.009769 0.148188 0.898085
Si Si6 0.239212 0.535724 0.710388
O O1 0.266849 0.397785 0.370682
O O2 0.494170 0.670246 0.486595
O O3 0.757968 0.729082 0.156053
O O4 0.698028 0.872734 0.125804
O O5 0.949388 0.856097 0.291380
O O6 0.000000 0.000000 0.500000
O O7 0.281999 0.055416 0.293902
O O8 0.332814 0.705610 0.773831
O O9 0.620423 0.072006 0.773286
O O10 0.282722 0.684235 0.092491
O O11 0.000000 0.500000 0.500000
O O12 0.929508 0.557207 0.322586
O O13 0.051878 0.307774 0.903025
#
# Coordination Sequence:
#
# PCOD8009924 Si02
#       6
#     2   2   2   2   2   2
#     4  10  21  37  62  95 130 172 211 261 320 384
#     4  11  21  38  63  94 134 168 208 266 322 384
#     4  11  24  42  67  97 128 170 216 266 326 377
#     4  11  26  44  66  95 130 171 221 268 316 381
#     4  10  21  38  61  92 132 170 215 260 317 385
#     4  11  22  43  67  91 131 169 212 271 323 374
#
# _framework density 20.972382
#
# number of rings (size 3 to 8) (size 9 to 14) (size 15 to 20)
#    0.000    1.333    3.333    4.500    2.333    2.667 
#    0.000    0.000    0.000    0.000    0.000    0.000 
#    0.000    0.000    0.000    0.000    0.000    0.000 
#
# Total GULP energy -148770.429045 kJ/mol
# GULP energy per Si atom -12397.535754 kJ/mol
# Density = 2.092465 g / cm^3
# Si number density = 20.972382 Si / 1000 Ang^3
#
#
#
# Elastic Constant Matrix: (Units=GPa)
#
#
# Indices 1 2 3 4 5 6 
#
# 1 86.1853 29.5196 38.5321 -13.9065 6.9440 -4.3802
# 2 29.5196 146.4955 52.1266 7.4334 1.9493 -8.0477
# 3 38.5321 52.1266 123.3698 -23.1144 1.9083 -13.9017
# 4 -13.9065 7.4334 -23.1144 31.3692 -6.8851 -2.3433
# 5 6.9440 1.9493 1.9083 -6.8851 28.6935 -0.7799
# 6 -4.3802 -8.0477 -13.9017 -2.3433 -0.7799 26.3093
#
#
#
# Elastic Compliance Matrix: (Units=1/GPa)
#
#
# Indices 1 2 3 4 5 6 
#
# 1 0.014456 -0.002137 -0.002646 0.004565 -0.002063 0.000700
# 2 -0.002137 0.009211 -0.004553 -0.006851 -0.001466 -0.000598
# 3 -0.002646 -0.004553 0.013603 0.011039 0.002868 0.006423
# 4 0.004565 -0.006851 0.011039 0.046530 0.010035 0.008939
# 5 -0.002063 -0.001466 0.002868 0.010035 0.037741 0.002736
# 6 0.000700 -0.000598 0.006423 0.008939 0.002736 0.042214
#
#
# Mechanical properties :
#
#
# Convention : Reuss Voigt Hill
#
# Bulk Modulus (GPa) = 53.76639 66.26748 60.01694
# Shear Modulus (GPa) = 26.50724 32.99921 29.75322
#
# Velocity S-wave (km/s) = 3.55901 3.97099 3.77063
# Velocity P-wave (km/s) = 6.52542 7.25886 6.90189
#
# Compressibility (1/GPa) = 0.01859898
#
# Stress axis : x y z
#
# Youngs Moduli (GPa) = 69.17397 108.56473 73.51122
#
# Poissons Ratio (x) = 0.23203 0.19451
# Poissons Ratio (y) = 0.14784 0.33467
# Poissons Ratio (z) = 0.18303 0.49426
#
# Static dielectric constant tensor:
#      x y z
#    x 3.712160 0.016960 -0.236180 
#    y 0.016960 4.131420 -0.320270 
#    z -0.236180 -0.320270 4.228540 
# 
# 
# High freq. dielectric constant tensor:
#      x y z
#    x 1.815530 -0.005760 -0.012520 
#    y -0.005760 1.822730 -0.007210 
#    z -0.012520 -0.007210 1.824310 
# 
# From -- ./inp_files/116707.got.cif
#   From: 2010.06.25/outbox.cif.g09.slc.cpg/sg2_59_cif.got.tgz:116707.got - 2010.06.27 13:26:56.
