data_PCOD8009845
_publ_section_title
;
Structure prediction by ZEFSAII (Michael W. Deem and Ramdas Pophale) SiO2 
 PCOD8009845
Probable space group: P -1
;
_chemical_formula_sum "Si O2"
_cell_formula_units_Z 16
_cell_length_a 7.888892
_cell_length_b 14.757357
_cell_length_c 11.037481
_cell_angle_alpha 57.378911
_cell_angle_beta 77.064840
_cell_angle_gamma 43.999833
_cell_volume 721.694232
_symmetry_space_group_name_H-M "P -1"
_symmetry_group_IT_number 2
_symmetry_cell_setting 'triclinic'
loop_
_space_group_symop_operation_xyz
x,y,z
-x,-y,-z
loop_
_atom_site_type_symbol
_atom_site_label
_atom_site_fract_x
_atom_site_fract_y
_atom_site_fract_z
Si Si1 0.021997 0.596837 0.283937
Si Si2 0.283043 0.997864 0.678418
Si Si3 0.070241 0.012174 0.351977
Si Si4 0.104006 0.483756 0.865502
Si Si5 0.386593 0.783637 0.130812
Si Si6 0.586022 0.679390 0.424288
Si Si7 0.839559 0.814083 0.675223
Si Si8 0.880519 0.893443 0.108119
O O1 0.298837 0.465575 0.401236
O O2 0.036293 0.515420 0.222062
O O3 0.813641 0.658115 0.373125
O O4 0.936562 0.753256 0.139714
O O5 0.144117 0.941885 0.737134
O O6 0.589488 0.858066 0.722662
O O7 0.188369 0.113230 0.500032
O O8 0.191962 0.091104 0.751167
O O9 0.078695 0.138831 0.265097
O O10 0.000000 0.000000 0.500000
O O11 0.357066 0.844833 0.404233
O O12 0.402758 0.322740 0.930464
O O13 0.065411 0.628475 0.751200
O O14 0.000000 0.500000 0.000000
O O15 0.482207 0.681209 0.311469
O O16 0.137661 0.841293 0.080903
O O17 0.334485 0.936838 0.048149
#
# Coordination Sequence:
#
# PCOD8009845 Si02
#       8
#     2   2   2   2   2   2   2   2
#     4  10  25  38  70  93 127 172 216 271 330 387
#     4  10  21  38  66  96 128 173 219 277 317 397
#     4  10  21  37  61  97 130 173 213 271 331 384
#     4  11  25  46  62  94 131 174 215 270 332 401
#     4  10  24  42  65  91 136 167 215 270 330 393
#     4  10  21  42  61  99 130 162 221 272 316 394
#     4  10  23  38  64  94 132 173 223 264 330 388
#     4  11  22  42  64  98 125 172 218 269 333 389
#
# _framework density 22.170054
#
# number of rings (size 3 to 8) (size 9 to 14) (size 15 to 20)
#    0.000    1.750    1.250    1.500   10.500    5.500 
#    0.000    0.625    0.000    0.000    0.000    0.000 
#    0.000    0.000    0.000    0.000    0.000    0.000 
#
# Total GULP energy -198255.289928 kJ/mol
# GULP energy per Si atom -12390.955621 kJ/mol
# Density = 2.211959 g / cm^3
# Si number density = 22.170054 Si / 1000 Ang^3
#
#
#
# Elastic Constant Matrix: (Units=GPa)
#
#
# Indices 1 2 3 4 5 6 
#
# 1 97.7490 52.2455 36.6940 -20.9930 2.5559 5.9325
# 2 52.2455 146.1896 49.0529 -10.6742 -3.2640 -0.8983
# 3 36.6940 49.0529 70.3733 -3.2244 -2.5492 -8.0324
# 4 -20.9930 -10.6742 -3.2244 45.3339 5.0443 -5.3334
# 5 2.5559 -3.2640 -2.5492 5.0443 19.7483 -5.3785
# 6 5.9325 -0.8983 -8.0324 -5.3334 -5.3785 32.1537
#
#
#
# Elastic Compliance Matrix: (Units=1/GPa)
#
#
# Indices 1 2 3 4 5 6 
#
# 1 0.016370 -0.003295 -0.006726 0.006484 -0.006496 -0.004804
# 2 -0.003295 0.009755 -0.005037 0.000255 0.001291 -0.000120
# 3 -0.006726 -0.005037 0.022125 -0.002497 0.005473 0.007129
# 4 0.006484 0.000255 -0.002497 0.025914 -0.007399 0.001248
# 5 -0.006496 0.001291 0.005473 -0.007399 0.057271 0.010955
# 6 -0.004804 -0.000120 0.007129 0.001248 0.010955 0.035804
#
#
# Mechanical properties :
#
#
# Convention : Reuss Voigt Hill
#
# Bulk Modulus (GPa) = 55.13960 65.58850 60.36405
# Shear Modulus (GPa) = 24.58245 31.20181 27.89213
#
# Velocity S-wave (km/s) = 3.33350 3.75558 3.55082
# Velocity P-wave (km/s) = 6.30408 6.96092 6.64063
#
# Compressibility (1/GPa) = 0.01813579
#
# Stress axis : x y z
#
# Youngs Moduli (GPa) = 61.08783 102.51557 45.19779
#
# Poissons Ratio (x) = 0.33776 0.30398
# Poissons Ratio (y) = 0.20127 0.22764
# Poissons Ratio (z) = 0.41085 0.51633
#
# Static dielectric constant tensor:
#      x y z
#    x 4.463640 0.147370 0.011730 
#    y 0.147370 4.134050 -0.192080 
#    z 0.011730 -0.192080 4.125050 
# 
# 
# High freq. dielectric constant tensor:
#      x y z
#    x 1.861840 -0.011020 0.000540 
#    y -0.011020 1.882630 0.001520 
#    z 0.000540 0.001520 1.866460 
# 
# From -- ./inp_files/398790.got.cif
#   From: 2010.06.25/outbox.cif.g09.slc.cpg/sg2_200_cif.got.tgz:398790.got - 2010.06.27 13:26:56.
