data_PCOD8009816
_publ_section_title
;
Structure prediction by ZEFSAII (Michael W. Deem and Ramdas Pophale) SiO2 
 PCOD8009816
Probable space group: P -1
;
_chemical_formula_sum "Si O2"
_cell_formula_units_Z 16
_cell_length_a 19.644944
_cell_length_b 9.614702
_cell_length_c 13.800900
_cell_angle_alpha 77.167711
_cell_angle_beta 20.426519
_cell_angle_gamma 87.109934
_cell_volume 786.016815
_symmetry_space_group_name_H-M "P -1"
_symmetry_group_IT_number 2
_symmetry_cell_setting 'triclinic'
loop_
_space_group_symop_operation_xyz
x,y,z
-x,-y,-z
loop_
_atom_site_type_symbol
_atom_site_label
_atom_site_fract_x
_atom_site_fract_y
_atom_site_fract_z
Si Si1 0.695045 0.676937 0.330397
Si Si2 0.213296 0.842968 0.653973
Si Si3 0.498286 0.211362 0.257121
Si Si4 0.026379 0.662208 0.396131
Si Si5 0.507198 0.303672 0.602290
Si Si6 0.430804 0.831493 0.168607
Si Si7 0.341809 0.572477 0.179165
Si Si8 0.808021 0.825077 0.778177
O O1 0.560488 0.694767 0.596843
O O2 0.638668 0.493764 0.414960
O O3 0.617836 0.741563 0.328380
O O4 0.950257 0.769695 0.008735
O O5 0.312784 0.763816 0.612826
O O6 0.283375 0.814828 0.459614
O O7 0.307088 0.030995 0.525021
O O8 0.725856 0.205627 0.982262
O O9 0.555188 0.315131 0.068491
O O10 0.000000 0.500000 0.500000
O O11 0.882487 0.596864 0.501810
O O12 0.918422 0.716587 0.616893
O O13 0.311085 0.225774 0.952551
O O14 0.296491 0.679606 0.302074
O O15 0.647916 0.819248 0.907646
O O16 0.500000 0.000000 0.000000
O O17 0.500000 0.500000 0.000000
O O18 0.000000 0.000000 0.500000
#
# Coordination Sequence:
#
# PCOD8009816 Si02
#       8
#     2   2   2   2   2   2   2   2
#     4  11  25  45  68  91 133 182 222 273 324 392
#     4  11  24  44  67  95 131 172 225 276 326 397
#     4  11  24  43  62  95 134 169 224 267 327 402
#     4  10  21  37  61  90 130 167 205 265 329 382
#     4  10  24  44  66  98 129 169 232 267 330 399
#     4  11  23  40  63  99 131 163 218 271 333 403
#     4  11  22  40  64  99 133 170 214 268 337 398
#     4  11  23  39  66  96 132 167 209 279 333 393
#
# _framework density 20.355798
#
# number of rings (size 3 to 8) (size 9 to 14) (size 15 to 20)
#    0.000    1.250    2.500    3.750    5.250    2.500 
#    4.500    0.000    0.000    0.000    0.000    0.000 
#    0.000    0.000    0.000    0.000    0.000    0.000 
#
# Total GULP energy -198220.318416 kJ/mol
# GULP energy per Si atom -12388.769901 kJ/mol
# Density = 2.030947 g / cm^3
# Si number density = 20.355798 Si / 1000 Ang^3
#
#
#
# Elastic Constant Matrix: (Units=GPa)
#
#
# Indices 1 2 3 4 5 6 
#
# 1 102.1620 32.9854 38.2238 1.5138 -12.6058 -2.6421
# 2 32.9854 87.5413 14.0223 2.7568 -3.3663 4.7567
# 3 38.2238 14.0223 110.2826 -0.7273 -23.5117 -4.1098
# 4 1.5138 2.7568 -0.7273 40.7426 2.0134 -2.5518
# 5 -12.6058 -3.3663 -23.5117 2.0134 31.1211 -0.4788
# 6 -2.6421 4.7567 -4.1098 -2.5518 -0.4788 37.4856
#
#
#
# Elastic Compliance Matrix: (Units=1/GPa)
#
#
# Indices 1 2 3 4 5 6 
#
# 1 0.012710 -0.004215 -0.003366 -0.000288 0.002185 0.001070
# 2 -0.004215 0.013197 -0.000423 -0.000846 -0.000577 -0.002083
# 3 -0.003366 -0.000423 0.011964 0.000067 0.007644 0.001230
# 4 -0.000288 -0.000846 0.000067 0.024810 -0.001736 0.001761
# 5 0.002185 -0.000577 0.007644 -0.001736 0.038865 0.001444
# 6 0.001070 -0.002083 0.001230 0.001761 0.001444 0.027290
#
#
# Mechanical properties :
#
#
# Convention : Reuss Voigt Hill
#
# Bulk Modulus (GPa) = 45.73925 52.27208 49.00566
# Shear Modulus (GPa) = 32.86651 36.18682 34.52667
#
# Velocity S-wave (km/s) = 4.02257 4.22087 4.12291
# Velocity P-wave (km/s) = 6.64029 7.03486 6.84042
#
# Compressibility (1/GPa) = 0.02186306
#
# Stress axis : x y z
#
# Youngs Moduli (GPa) = 78.67778 75.77563 83.58449
#
# Poissons Ratio (x) = 0.31940 0.28131
# Poissons Ratio (y) = 0.33163 0.03538
# Poissons Ratio (z) = 0.26480 0.03207
#
# Static dielectric constant tensor:
#      x y z
#    x 4.245580 -0.081300 -0.590310 
#    y -0.081300 3.803750 0.058980 
#    z -0.590310 0.058980 4.019840 
# 
# 
# High freq. dielectric constant tensor:
#      x y z
#    x 1.799110 0.003320 -0.018480 
#    y 0.003320 1.814350 0.001160 
#    z -0.018480 0.001160 1.799640 
# 
# From -- ./inp_files/262088.got.cif
#   From: 2010.06.25/outbox.cif.g09.slc.cpg/sg2_132_cif.got.tgz:262088.got - 2010.06.27 13:26:56.
