data_PCOD8009303
_publ_section_title
;
Structure prediction by ZEFSAII (Michael W. Deem and Ramdas Pophale) SiO2 
 PCOD8009303
Probable space group: P -1
;
_chemical_formula_sum "Si O2"
_cell_formula_units_Z 16
_cell_length_a 11.883697
_cell_length_b 11.835363
_cell_length_c 9.682938
_cell_angle_alpha 47.896971
_cell_angle_beta 131.837399
_cell_angle_gamma 118.504249
_cell_volume 751.706632
_symmetry_space_group_name_H-M "P -1"
_symmetry_group_IT_number 2
_symmetry_cell_setting 'triclinic'
loop_
_space_group_symop_operation_xyz
x,y,z
-x,-y,-z
loop_
_atom_site_type_symbol
_atom_site_label
_atom_site_fract_x
_atom_site_fract_y
_atom_site_fract_z
Si Si1 0.112796 0.509685 0.957729
Si Si2 0.451567 0.495318 0.304284
Si Si3 0.823231 0.137957 0.324722
Si Si4 0.443234 0.743739 0.871710
Si Si5 0.971263 0.260066 0.847316
Si Si6 0.304574 0.590312 0.621790
Si Si7 0.769661 0.759695 0.126728
Si Si8 0.892857 0.007918 0.209502
O O1 0.126982 0.682867 0.774159
O O2 0.041355 0.409177 0.858620
O O3 0.273411 0.443592 0.188761
O O4 0.000000 0.500000 0.000000
O O5 0.500000 0.500000 0.500000
O O6 0.561470 0.383437 0.404251
O O7 0.472695 0.658941 0.111358
O O8 0.665620 0.118812 0.296991
O O9 0.939427 0.029812 0.577907
O O10 0.799259 0.083109 0.193356
O O11 0.369927 0.623236 0.800862
O O12 0.606102 0.807321 0.896401
O O13 0.829523 0.299267 0.605318
O O14 0.100282 0.190915 0.915830
O O15 0.906491 0.130914 0.000755
O O16 0.232108 0.419173 0.696728
O O17 0.802090 0.853298 0.216912
#
# Coordination Sequence:
#
# PCOD8009303 Si02
#       8
#     2   2   2   2   2   2   2   2
#     4  11  20  38  65  94 123 159 214 260 307 365
#     4  10  21  36  60  96 129 157 200 265 314 365
#     4  10  22  43  63  85 130 166 207 253 323 364
#     4  10  22  42  66  90 125 167 210 261 313 370
#     4  12  23  39  65  97 123 162 217 259 308 372
#     4  11  22  41  67  94 126 165 209 263 318 362
#     4  11  22  40  63  90 125 163 209 253 316 375
#     4  11  24  40  60  91 127 168 207 260 307 380
#
# _framework density 21.2849
#
# number of rings (size 3 to 8) (size 9 to 14) (size 15 to 20)
#    0.000    1.250    1.250    6.750    1.750    1.500 
#    0.000    3.750    0.000    0.000    0.000    0.000 
#    0.000    0.000    0.000    0.000    0.000    0.000 
#
# Total GULP energy -198385.352840 kJ/mol
# GULP energy per Si atom -12399.084552 kJ/mol
# Density = 2.123645 g / cm^3
# Si number density = 21.284900 Si / 1000 Ang^3
#
#
#
# Elastic Constant Matrix: (Units=GPa)
#
#
# Indices 1 2 3 4 5 6 
#
# 1 141.4833 45.5583 36.0301 12.2711 28.7092 -12.3869
# 2 45.5583 88.2227 32.2134 11.6151 -4.0228 -15.2508
# 3 36.0301 32.2134 88.5444 15.4484 2.9944 -5.5116
# 4 12.2711 11.6151 15.4484 26.8838 -2.3708 1.5983
# 5 28.7092 -4.0228 2.9944 -2.3708 36.1660 6.8091
# 6 -12.3869 -15.2508 -5.5116 1.5983 6.8091 29.3753
#
#
#
# Elastic Compliance Matrix: (Units=1/GPa)
#
#
# Indices 1 2 3 4 5 6 
#
# 1 0.012092 -0.004703 -0.001869 -0.003702 -0.011169 0.005097
# 2 -0.004703 0.016471 -0.003425 -0.002882 0.004721 0.004988
# 3 -0.001869 -0.003425 0.014412 -0.006038 -0.000601 0.000606
# 4 -0.003702 -0.002882 -0.006038 0.044774 0.007634 -0.008395
# 5 -0.011169 0.004721 -0.000601 0.007634 0.039856 -0.012026
# 6 0.005097 0.004988 0.000606 -0.008395 -0.012026 0.042139
#
#
# Mechanical properties :
#
#
# Convention : Reuss Voigt Hill
#
# Bulk Modulus (GPa) = 43.51298 60.65047 52.08173
# Shear Modulus (GPa) = 25.32966 32.11492 28.72229
#
# Velocity S-wave (km/s) = 3.45342 3.88856 3.67743
# Velocity P-wave (km/s) = 6.03233 6.97980 6.52329
#
# Compressibility (1/GPa) = 0.02298165
#
# Stress axis : x y z
#
# Youngs Moduli (GPa) = 82.69975 60.71257 69.38839
#
# Poissons Ratio (x) = 0.28552 0.12966
# Poissons Ratio (y) = 0.38892 0.23766
# Poissons Ratio (z) = 0.15453 0.20794
#
# Static dielectric constant tensor:
#      x y z
#    x 4.508180 -0.110080 0.304520 
#    y -0.110080 3.985310 0.351590 
#    z 0.304520 0.351590 3.808110 
# 
# 
# High freq. dielectric constant tensor:
#      x y z
#    x 1.859670 -0.013540 0.013160 
#    y -0.013540 1.817920 0.017230 
#    z 0.013160 0.017230 1.827220 
# 
# From -- ./inp_files/184236.got.cif
#   From: 2010.06.25/outbox.cif.g09.slc.cpg/sg2_93_cif.got.tgz:184236.got - 2010.06.27 13:26:56.
