data_PCOD8009783
_publ_section_title
;
Structure prediction by ZEFSAII (Michael W. Deem and Ramdas Pophale) SiO2 
 PCOD8009783
Probable space group: P -1
;
_chemical_formula_sum "Si O2"
_cell_formula_units_Z 16
_cell_length_a 13.654904
_cell_length_b 13.856238
_cell_length_c 13.393749
_cell_angle_alpha 31.353099
_cell_angle_beta 146.783082
_cell_angle_gamma 139.402570
_cell_volume 713.316532
_symmetry_space_group_name_H-M "P -1"
_symmetry_group_IT_number 2
_symmetry_cell_setting 'triclinic'
loop_
_space_group_symop_operation_xyz
x,y,z
-x,-y,-z
loop_
_atom_site_type_symbol
_atom_site_label
_atom_site_fract_x
_atom_site_fract_y
_atom_site_fract_z
Si Si1 0.764812 0.125150 0.935677
Si Si2 0.305282 0.867961 0.347904
Si Si3 0.683565 0.511781 0.205352
Si Si4 0.853753 0.685692 0.865095
Si Si5 0.712735 0.008409 0.567191
Si Si6 0.717172 0.694310 0.267373
Si Si7 0.106483 0.607826 0.688322
Si Si8 0.514499 0.593710 0.536360
O O1 0.816585 0.133743 0.853989
O O2 0.590436 0.227021 0.713045
O O3 0.935683 0.230465 0.052362
O O4 0.722867 0.906555 0.125087
O O5 0.335617 0.657591 0.582803
O O6 0.499043 0.995633 0.382816
O O7 0.216004 0.951271 0.294183
O O8 0.703237 0.694580 0.133003
O O9 0.848672 0.504356 0.275130
O O10 0.500000 0.500000 0.000000
O O11 0.780490 0.819906 0.762967
O O12 0.727719 0.668209 0.674529
O O13 0.831975 0.484466 0.077442
O O14 0.794296 0.179085 0.414934
O O15 0.555733 0.560155 0.303583
O O16 0.894790 0.605551 0.522008
O O17 0.500000 0.500000 0.500000
#
# Coordination Sequence:
#
# PCOD8009783 Si02
#       8
#     2   2   2   2   2   2   2   2
#     4  12  26  45  73 103 140 178 233 290 351 420
#     4  10  21  38  61  99 154 183 234 268 334 414
#     4  11  22  37  64 103 145 196 232 272 336 414
#     4  12  24  45  73 102 140 183 226 285 354 410
#     4  10  21  37  61 104 141 193 221 272 331 412
#     4  12  25  46  67 103 142 186 232 291 341 417
#     4  11  23  39  67 104 146 187 233 271 341 417
#     4  12  29  53  76 100 134 178 239 303 357 412
#
# _framework density 22.430436
#
# number of rings (size 3 to 8) (size 9 to 14) (size 15 to 20)
#    0.000    0.750    5.000    1.875    8.750    2.500 
#    0.000    0.625    0.000    0.000    0.000    0.000 
#    0.000    0.000    0.000    0.000    0.000    0.000 
#
# Total GULP energy -198389.150474 kJ/mol
# GULP energy per Si atom -12399.321905 kJ/mol
# Density = 2.237938 g / cm^3
# Si number density = 22.430436 Si / 1000 Ang^3
#
#
#
# Elastic Constant Matrix: (Units=GPa)
#
#
# Indices 1 2 3 4 5 6 
#
# 1 40.8344 22.1458 22.6589 2.2928 1.5047 -19.1668
# 2 22.1458 106.3222 46.7739 17.8197 1.7343 -10.4635
# 3 22.6589 46.7739 109.8093 11.0878 7.9627 -12.5372
# 4 2.2928 17.8197 11.0878 36.8603 -0.6335 -0.6460
# 5 1.5047 1.7343 7.9627 -0.6335 12.3692 0.1792
# 6 -19.1668 -10.4635 -12.5372 -0.6460 0.1792 35.3839
#
#
#
# Elastic Compliance Matrix: (Units=1/GPa)
#
#
# Indices 1 2 3 4 5 6 
#
# 1 0.037275 -0.004579 -0.003749 0.001302 -0.001667 0.017541
# 2 -0.004579 0.012958 -0.004215 -0.004695 0.001217 -0.000234
# 3 -0.003749 -0.004215 0.012481 -0.001585 -0.007086 0.001152
# 4 0.001302 -0.004695 -0.001585 0.029835 0.003059 -0.000715
# 5 -0.001667 0.001217 -0.007086 0.003059 0.085646 -0.003431
# 6 0.017541 -0.000234 0.001152 -0.000715 -0.003431 0.038106
#
#
# Mechanical properties :
#
#
# Convention : Reuss Voigt Hill
#
# Bulk Modulus (GPa) = 26.57737 48.90256 37.73996
# Shear Modulus (GPa) = 19.69053 27.94850 23.81952
#
# Velocity S-wave (km/s) = 2.96607 3.53371 3.26226
# Velocity P-wave (km/s) = 4.85845 6.20473 5.57240
#
# Compressibility (1/GPa) = 0.03762600
#
# Stress axis : x y z
#
# Youngs Moduli (GPa) = 26.82798 77.17492 80.12056
#
# Poissons Ratio (x) = 0.35342 0.30035
# Poissons Ratio (y) = 0.12286 0.33774
# Poissons Ratio (z) = 0.10057 0.32532
#
# Static dielectric constant tensor:
#      x y z
#    x 3.741460 -0.001210 0.116310 
#    y -0.001210 4.399870 -0.008130 
#    z 0.116310 -0.008130 4.167710 
# 
# 
# High freq. dielectric constant tensor:
#      x y z
#    x 1.840400 0.006820 0.007630 
#    y 0.006820 1.894180 -0.005490 
#    z 0.007630 -0.005490 1.894950 
# 
# From -- ./inp_files/534169.got.cif
#   From: 2010.06.25/outbox.cif.g09.slc.cpg/sg2_268_cif.got.tgz:534169.got - 2010.06.27 13:26:56.
