data_PCOD8009638
_publ_section_title
;
Structure prediction by ZEFSAII (Michael W. Deem and Ramdas Pophale) SiO2 
 PCOD8009638
Probable space group: P -1
;
_chemical_formula_sum "Si O2"
_cell_formula_units_Z 14
_cell_length_a 23.819770
_cell_length_b 5.202313
_cell_length_c 11.753248
_cell_angle_alpha 118.511576
_cell_angle_beta 29.590073
_cell_angle_gamma 114.608949
_cell_volume 631.951979
_symmetry_space_group_name_H-M "P -1"
_symmetry_group_IT_number 2
_symmetry_cell_setting 'triclinic'
loop_
_space_group_symop_operation_xyz
x,y,z
-x,-y,-z
loop_
_atom_site_type_symbol
_atom_site_label
_atom_site_fract_x
_atom_site_fract_y
_atom_site_fract_z
Si Si1 0.033812 0.660126 0.361122
Si Si2 0.148368 0.648756 0.521865
Si Si3 0.459387 0.482652 0.197664
Si Si4 0.347435 0.753654 0.042508
Si Si5 0.760143 0.755847 0.550506
Si Si6 0.597235 0.084751 0.434026
Si Si7 0.295719 0.522173 0.849061
O O1 0.000000 0.500000 0.500000
O O2 0.971551 0.490817 0.332340
O O3 0.166837 0.622227 0.104877
O O4 0.000000 0.000000 0.500000
O O5 0.245224 0.559388 0.239195
O O6 0.174418 0.521661 0.573798
O O7 0.150172 0.004134 0.607686
O O8 0.331813 0.348403 0.402232
O O9 0.456690 0.805458 0.328429
O O10 0.500000 0.500000 0.000000
O O11 0.539529 0.276892 0.088044
O O12 0.309606 0.092671 0.189644
O O13 0.366970 0.663797 0.858558
O O14 0.661165 0.358571 0.321832
O O15 0.500000 0.000000 0.500000
O O16 0.685677 0.825350 0.249644
#
# Coordination Sequence:
#
# PCOD8009638 Si02
#       7
#     2   2   2   2   2   2   2
#     4  12  22  39  70 102 134 184 233 286 343 409
#     4  10  21  37  59 101 129 164 225 291 330 386
#     4  12  24  43  72  98 134 185 242 278 335 424
#     4  10  22  36  67  97 138 165 230 278 346 387
#     4  10  22  37  60  98 130 164 225 285 333 378
#     4  12  29  46  66 100 148 187 220 284 364 412
#     4  12  26  44  68  99 150 179 223 287 362 413
#
# _framework density 22.153579000000001
#
# number of rings (size 3 to 8) (size 9 to 14) (size 15 to 20)
#    0.857    0.000    4.286    3.429    4.000    2.286 
#    0.000    0.000    0.000    5.143    0.000    0.000 
#    0.000    0.000    0.000    0.000    0.000    0.000 
#
# Total GULP energy -173528.957071 kJ/mol
# GULP energy per Si atom -12394.925505 kJ/mol
# Density = 2.210316 g / cm^3
# Si number density = 22.153579 Si / 1000 Ang^3
#
#
#
# Elastic Constant Matrix: (Units=GPa)
#
#
# Indices 1 2 3 4 5 6 
#
# 1 131.2536 47.8880 39.4021 -3.7937 -11.5592 4.7783
# 2 47.8880 125.4048 25.8363 7.8353 -5.3067 -12.0057
# 3 39.4021 25.8363 76.4707 7.6222 -1.9871 -7.1468
# 4 -3.7937 7.8353 7.6222 27.1507 4.0600 -4.9918
# 5 -11.5592 -5.3067 -1.9871 4.0600 37.9173 3.7563
# 6 4.7783 -12.0057 -7.1468 -4.9918 3.7563 47.7914
#
#
#
# Elastic Compliance Matrix: (Units=1/GPa)
#
#
# Indices 1 2 3 4 5 6 
#
# 1 0.010716 -0.003422 -0.004838 0.003009 0.002463 -0.002534
# 2 -0.003422 0.009912 -0.001092 -0.002647 0.000336 0.002366
# 3 -0.004838 -0.001092 0.016588 -0.004529 -0.000497 0.002256
# 4 0.003009 -0.002647 -0.004529 0.040470 -0.004313 0.002923
# 5 0.002463 0.000336 -0.000497 -0.004313 0.027892 -0.002879
# 6 -0.002534 0.002366 0.002256 0.002923 -0.002879 0.022641
#
#
# Mechanical properties :
#
#
# Convention : Reuss Voigt Hill
#
# Bulk Modulus (GPa) = 54.01851 62.15355 58.08603
# Shear Modulus (GPa) = 32.66003 37.23872 34.94938
#
# Velocity S-wave (km/s) = 3.84377 4.10437 3.97620
# Velocity P-wave (km/s) = 6.64349 7.11181 6.88163
#
# Compressibility (1/GPa) = 0.01851217
#
# Stress axis : x y z
#
# Youngs Moduli (GPa) = 93.32112 100.88911 60.28437
#
# Poissons Ratio (x) = 0.34520 0.29166
# Poissons Ratio (y) = 0.31930 0.06584
# Poissons Ratio (z) = 0.45149 0.11018
#
# Static dielectric constant tensor:
#      x y z
#    x 4.088760 0.039810 -0.126770 
#    y 0.039810 4.015300 0.148830 
#    z -0.126770 0.148830 3.411820 
# 
# 
# High freq. dielectric constant tensor:
#      x y z
#    x 1.878640 -0.001150 -0.014440 
#    y -0.001150 1.881250 0.000770 
#    z -0.014440 0.000770 1.837490 
# 
# From -- ./inp_files/473464.got.cif
#   From: 2010.06.25/outbox.cif.g09.slc.cpg/sg2_237_cif.got.tgz:473464.got - 2010.06.27 13:26:56.
