data_PCOD8009402
_publ_section_title
;
Structure prediction by ZEFSAII (Michael W. Deem and Ramdas Pophale) SiO2 
 PCOD8009402
Probable space group: P -1
;
_chemical_formula_sum "Si O2"
_cell_formula_units_Z 14
_cell_length_a 10.570543
_cell_length_b 17.452479
_cell_length_c 8.535421
_cell_angle_alpha 103.695070
_cell_angle_beta 121.596396
_cell_angle_gamma 34.419409
_cell_volume 692.834960
_symmetry_space_group_name_H-M "P -1"
_symmetry_group_IT_number 2
_symmetry_cell_setting 'triclinic'
loop_
_space_group_symop_operation_xyz
x,y,z
-x,-y,-z
loop_
_atom_site_type_symbol
_atom_site_label
_atom_site_fract_x
_atom_site_fract_y
_atom_site_fract_z
Si Si1 0.748241 0.995273 0.689494
Si Si2 0.434016 0.539521 0.211776
Si Si3 0.608456 0.702442 0.347557
Si Si4 0.372033 0.681667 0.965200
Si Si5 0.091487 0.248850 0.839685
Si Si6 0.900674 0.441971 0.568156
Si Si7 0.504026 0.981829 0.749784
O O1 0.664414 0.986838 0.790267
O O2 0.668122 0.123539 0.712657
O O3 0.583355 0.034340 0.455541
O O4 0.076092 0.848171 0.797782
O O5 0.308238 0.644537 0.036192
O O6 0.735099 0.437536 0.408499
O O7 0.213930 0.646724 0.262204
O O8 0.470757 0.431201 0.132786
O O9 0.562282 0.666065 0.150397
O O10 0.691316 0.611588 0.509484
O O11 0.858265 0.650837 0.448334
O O12 0.042544 0.358925 0.788191
O O13 0.231252 0.130144 0.742067
O O14 0.290073 0.162965 0.078481
#
# Coordination Sequence:
#
# PCOD8009402 Si02
#       7
#     2   2   2   2   2   2   2
#     4  11  20  40  60  87 121 159 198 248 282 368
#     4  10  21  36  63  90 120 151 203 248 293 347
#     4  10  22  38  60  88 123 161 195 238 298 365
#     4  10  21  37  61  93 116 158 200 243 294 358
#     4  11  20  40  60  94 120 151 197 262 290 342
#     4  10  21  37  59  87 120 158 197 237 300 352
#     4  10  23  34  65  91 115 156 205 240 304 341
#
# _framework density 20.206834000000001
#
# number of rings (size 3 to 8) (size 9 to 14) (size 15 to 20)
#    0.000    1.714    2.857    1.714    2.000    2.286 
#    0.000    2.857    0.000    5.143    0.000    0.000 
#    0.000    0.000    0.000    0.000    0.000    0.000 
#
# Total GULP energy -173569.364464 kJ/mol
# GULP energy per Si atom -12397.811747 kJ/mol
# Density = 2.016084 g / cm^3
# Si number density = 20.206834 Si / 1000 Ang^3
#
#
#
# Elastic Constant Matrix: (Units=GPa)
#
#
# Indices 1 2 3 4 5 6 
#
# 1 80.4819 45.7342 45.3772 -5.3544 -7.9371 0.1730
# 2 45.7342 125.2779 50.8574 -12.8539 -0.5348 5.1423
# 3 45.3772 50.8574 95.3991 -18.6318 -9.8676 11.6524
# 4 -5.3544 -12.8539 -18.6318 34.6116 5.7344 -8.3368
# 5 -7.9371 -0.5348 -9.8676 5.7344 36.8050 -10.4565
# 6 0.1730 5.1423 11.6524 -8.3368 -10.4565 33.5772
#
#
#
# Elastic Compliance Matrix: (Units=1/GPa)
#
#
# Indices 1 2 3 4 5 6 
#
# 1 0.019262 -0.004426 -0.007336 -0.002318 0.003519 0.003645
# 2 -0.004426 0.011310 -0.003739 0.001710 -0.002255 -0.000689
# 3 -0.007336 -0.003739 0.017691 0.005919 0.001131 -0.003707
# 4 -0.002318 0.001710 0.005919 0.034082 -0.002686 0.005321
# 5 0.003519 -0.002255 0.001131 -0.002686 0.031168 0.008974
# 6 0.003645 -0.000689 -0.003707 0.005321 0.008974 0.035271
#
#
# Mechanical properties :
#
#
# Convention : Reuss Voigt Hill
#
# Bulk Modulus (GPa) = 57.93821 65.01071 61.47446
# Shear Modulus (GPa) = 26.94838 31.61143 29.27991
#
# Velocity S-wave (km/s) = 3.65585 3.95953 3.81072
# Velocity P-wave (km/s) = 6.82313 7.29015 7.06050
#
# Compressibility (1/GPa) = 0.01725977
#
# Stress axis : x y z
#
# Youngs Moduli (GPa) = 51.91673 88.41661 56.52532
#
# Poissons Ratio (x) = 0.39132 0.41469
# Poissons Ratio (y) = 0.22978 0.21136
# Poissons Ratio (z) = 0.38088 0.33061
#
# Static dielectric constant tensor:
#      x y z
#    x 3.583260 0.102980 -0.189730 
#    y 0.102980 3.709010 -0.276400 
#    z -0.189730 -0.276400 3.654010 
# 
# 
# High freq. dielectric constant tensor:
#      x y z
#    x 1.769670 0.001520 -0.005700 
#    y 0.001520 1.790400 -0.027940 
#    z -0.005700 -0.027940 1.787830 
# 
# From -- ./inp_files/169723.got.cif
#   From: 2010.06.25/outbox.cif.g09.slc.cpg/sg2_85_cif.got.tgz:169723.got - 2010.06.27 13:26:56.
