data_PCOD8009873
_publ_section_title
;
Structure prediction by ZEFSAII (Michael W. Deem and Ramdas Pophale) SiO2 
 PCOD8009873
Probable space group: P -1
;
_chemical_formula_sum "Si O2"
_cell_formula_units_Z 16
_cell_length_a 5.167372
_cell_length_b 17.924547
_cell_length_c 9.527158
_cell_angle_alpha 111.875872
_cell_angle_beta 64.287438
_cell_angle_gamma 91.472253
_cell_volume 727.985836
_symmetry_space_group_name_H-M "P -1"
_symmetry_group_IT_number 2
_symmetry_cell_setting 'triclinic'
loop_
_space_group_symop_operation_xyz
x,y,z
-x,-y,-z
loop_
_atom_site_type_symbol
_atom_site_label
_atom_site_fract_x
_atom_site_fract_y
_atom_site_fract_z
Si Si1 0.300172 0.737182 0.650773
Si Si2 0.247576 0.652067 0.342623
Si Si3 0.233570 0.247311 0.014751
Si Si4 0.264296 0.415846 0.471686
Si Si5 0.635889 0.923810 0.057688
Si Si6 0.421566 0.504878 0.759412
Si Si7 0.697462 0.090773 0.151455
Si Si8 0.203841 0.671511 0.052149
O O1 0.337937 0.725477 0.464380
O O2 0.463460 0.657442 0.635182
O O3 0.443256 0.818638 0.700506
O O4 0.971903 0.747819 0.796789
O O5 0.500620 0.573166 0.210197
O O6 0.022561 0.623619 0.485460
O O7 0.121150 0.682923 0.244025
O O8 0.494197 0.296225 0.024161
O O9 0.063462 0.280057 0.937455
O O10 0.361679 0.151636 0.888105
O O11 0.244123 0.478948 0.650578
O O12 0.292458 0.463058 0.351186
O O13 0.574042 0.015230 0.206112
O O14 0.387679 0.915643 0.996312
O O15 0.957014 0.918732 0.910001
O O16 0.229010 0.576210 0.942289
#
# Coordination Sequence:
#
# PCOD8009873 Si02
#       8
#     2   2   2   2   2   2   2   2
#     4  10  21  37  62  89 118 157 199 247 297 357
#     4  11  25  38  59  85 124 156 204 250 300 355
#     4  11  23  40  63  89 120 159 201 243 300 356
#     4  10  21  38  60  87 115 154 201 252 299 353
#     4   9  18  34  57  92 123 148 190 249 294 346
#     4  10  22  39  58  87 111 159 202 255 299 350
#     4   9  18  32  59  93 121 148 191 246 300 340
#     4  12  26  40  62  87 121 164 200 248 298 356
#
# _framework density 21.978449000000001
#
# number of rings (size 3 to 8) (size 9 to 14) (size 15 to 20)
#    0.000    1.750    1.250    3.000    8.750    0.500 
#    0.000    0.000    0.000    1.500    0.000    0.000 
#    0.000    0.000    0.000    0.000    0.000    0.000 
#
# Total GULP energy -198246.054074 kJ/mol
# GULP energy per Si atom -12390.378380 kJ/mol
# Density = 2.192843 g / cm^3
# Si number density = 21.978449 Si / 1000 Ang^3
#
#
#
# Elastic Constant Matrix: (Units=GPa)
#
#
# Indices 1 2 3 4 5 6 
#
# 1 60.6410 14.8480 -1.6380 9.2890 11.8489 -2.2293
# 2 14.8480 127.4762 43.1856 32.1018 18.7400 -1.2266
# 3 -1.6380 43.1856 62.3240 12.1555 18.8030 0.0647
# 4 9.2890 32.1018 12.1555 25.5771 4.5422 15.1824
# 5 11.8489 18.7400 18.8030 4.5422 22.5511 -3.0851
# 6 -2.2293 -1.2266 0.0647 15.1824 -3.0851 28.0693
#
#
#
# Elastic Compliance Matrix: (Units=1/GPa)
#
#
# Indices 1 2 3 4 5 6 
#
# 1 0.021748 0.000971 0.006997 -0.014873 -0.013941 0.008266
# 2 0.000971 0.017342 -0.005801 -0.028488 -0.002154 0.016021
# 3 0.006997 -0.005801 0.027463 -0.005071 -0.020635 0.000714
# 4 -0.014873 -0.028488 -0.005071 0.123355 0.001434 -0.068978
# 5 -0.013941 -0.002154 -0.020635 0.001434 0.071182 0.005894
# 6 0.008266 0.016021 0.000714 -0.068978 0.005894 0.074938
#
#
# Mechanical properties :
#
#
# Convention : Reuss Voigt Hill
#
# Bulk Modulus (GPa) = 14.10719 40.35914 27.23317
# Shear Modulus (GPa) = 14.07172 28.17588 21.12380
#
# Velocity S-wave (km/s) = 2.53306 3.58436 3.10355
# Velocity P-wave (km/s) = 3.87141 5.96096 5.02597
#
# Compressibility (1/GPa) = 0.07088584
#
# Stress axis : x y z
#
# Youngs Moduli (GPa) = 45.98122 57.66418 36.41301
#
# Poissons Ratio (x) = -0.05599 -0.25479
# Poissons Ratio (y) = -0.04464 0.21125
# Poissons Ratio (z) = -0.32174 0.33453
#
# Static dielectric constant tensor:
#      x y z
#    x 3.949180 0.019720 0.136420 
#    y 0.019720 4.697160 0.431780 
#    z 0.136420 0.431780 3.573140 
# 
# 
# High freq. dielectric constant tensor:
#      x y z
#    x 1.869310 -0.000980 0.018870 
#    y -0.000980 1.879390 0.025440 
#    z 0.018870 0.025440 1.813240 
# 
# From -- ./inp_files/44546.got.cif
#   From: 2010.06.25/outbox.cif.g09.slc.cpg/sg2_23_cif.got.tgz:44546.got - 2010.06.27 13:26:56.
