data_PCOD8009815
_publ_section_title
;
Structure prediction by ZEFSAII (Michael W. Deem and Ramdas Pophale) SiO2 
 PCOD8009815
Probable space group: P -1
;
_chemical_formula_sum "Si O2"
_cell_formula_units_Z 16
_cell_length_a 6.074736
_cell_length_b 25.677885
_cell_length_c 6.387380
_cell_angle_alpha 46.991850
_cell_angle_beta 78.573076
_cell_angle_gamma 95.250877
_cell_volume 677.496275
_symmetry_space_group_name_H-M "P -1"
_symmetry_group_IT_number 2
_symmetry_cell_setting 'triclinic'
loop_
_space_group_symop_operation_xyz
x,y,z
-x,-y,-z
loop_
_atom_site_type_symbol
_atom_site_label
_atom_site_fract_x
_atom_site_fract_y
_atom_site_fract_z
Si Si1 0.499455 0.946289 0.836928
Si Si2 0.715554 0.838167 0.858190
Si Si3 0.373665 0.408695 0.582177
Si Si4 0.809508 0.077698 0.665226
Si Si5 0.258293 0.549926 0.253735
Si Si6 0.869801 0.709481 0.348374
Si Si7 0.691242 0.220128 0.188582
Si Si8 0.072188 0.669276 0.838284
O O1 0.566600 0.875658 0.931533
O O2 0.500000 0.000000 0.500000
O O3 0.694974 0.992558 0.840075
O O4 0.245447 0.920073 0.079879
O O5 0.556754 0.783261 0.861195
O O6 0.915467 0.898113 0.517478
O O7 0.811660 0.787703 0.135697
O O8 0.396422 0.495473 0.280213
O O9 0.599781 0.408468 0.679899
O O10 0.351163 0.359098 0.511845
O O11 0.129530 0.371111 0.850360
O O12 0.697160 0.134925 0.414614
O O13 0.000000 0.500000 0.500000
O O14 0.228122 0.612808 0.922524
O O15 0.927374 0.688549 0.624632
O O16 0.107906 0.721219 0.143248
O O17 0.735648 0.253672 0.323160
#
# Coordination Sequence:
#
# PCOD8009815 Si02
#       8
#     2   2   2   2   2   2   2   2
#     4  11  23  45  68  95 135 169 223 274 329 407
#     4  11  23  44  69  95 133 180 214 278 342 386
#     4   9  19  39  59  89 129 166 217 268 323 393
#     4  10  24  44  64  99 130 171 220 275 331 402
#     4   9  18  36  62  87 125 172 210 268 330 380
#     4  10  23  40  61  94 130 167 223 271 321 400
#     4  10  22  42  61  93 132 166 216 273 324 391
#     4  10  21  37  61  90 126 170 216 269 326 388
#
# _framework density 23.616364999999998
#
# number of rings (size 3 to 8) (size 9 to 14) (size 15 to 20)
#    0.000    2.000    1.250    1.125    1.750    2.000 
#    9.000    5.625    0.000    0.000    0.000    0.000 
#    0.000    0.000    0.000    0.000    0.000    0.000 
#
# Total GULP energy -198253.563388 kJ/mol
# GULP energy per Si atom -12390.847712 kJ/mol
# Density = 2.356261 g / cm^3
# Si number density = 23.616365 Si / 1000 Ang^3
#
#
#
# Elastic Constant Matrix: (Units=GPa)
#
#
# Indices 1 2 3 4 5 6 
#
# 1 89.2164 43.0771 32.1035 3.9571 14.1070 13.7382
# 2 43.0771 130.1819 48.3022 1.4676 4.9765 16.4602
# 3 32.1035 48.3022 81.1432 6.9784 19.2623 -3.6102
# 4 3.9571 1.4676 6.9784 28.5981 -0.0822 -2.9268
# 5 14.1070 4.9765 19.2623 -0.0822 38.5251 1.6501
# 6 13.7382 16.4602 -3.6102 -2.9268 1.6501 36.6537
#
#
#
# Elastic Compliance Matrix: (Units=1/GPa)
#
#
# Indices 1 2 3 4 5 6 
#
# 1 0.015233 -0.002984 -0.003561 -0.001576 -0.003214 -0.004701
# 2 -0.002984 0.011690 -0.006843 0.000994 0.003215 -0.004871
# 3 -0.003561 -0.006843 0.020361 -0.003482 -0.008278 0.006508
# 4 -0.001576 0.000994 -0.003482 0.036256 0.002156 0.002600
# 5 -0.003214 0.003215 -0.008278 0.002156 0.030960 -0.002276
# 6 -0.004701 -0.004871 0.006508 0.002600 -0.002276 0.032183
#
#
# Mechanical properties :
#
#
# Convention : Reuss Voigt Hill
#
# Bulk Modulus (GPa) = 48.76548 60.83411 54.79979
# Shear Modulus (GPa) = 27.73228 32.55930 30.14579
#
# Velocity S-wave (km/s) = 3.43050 3.71708 3.57666
# Velocity P-wave (km/s) = 6.03199 6.65113 6.34911
#
# Compressibility (1/GPa) = 0.02050631
#
# Stress axis : x y z
#
# Youngs Moduli (GPa) = 65.64665 85.54388 49.11445
#
# Poissons Ratio (x) = 0.25529 0.17490
# Poissons Ratio (y) = 0.19591 0.33611
# Poissons Ratio (z) = 0.23377 0.58541
#
# Static dielectric constant tensor:
#      x y z
#    x 4.230450 0.076080 0.063310 
#    y 0.076080 4.814450 -0.258610 
#    z 0.063310 -0.258610 4.173370 
# 
# 
# High freq. dielectric constant tensor:
#      x y z
#    x 1.930580 0.010280 0.004680 
#    y 0.010280 1.936640 -0.021230 
#    z 0.004680 -0.021230 1.926660 
# 
# From -- ./inp_files/14312.got.cif
#   From: 2010.06.25/outbox.cif.g09.slc.cpg/sg2_8_cif.got.tgz:14312.got - 2010.06.27 13:26:56.
