data_PCOD8009380
_publ_section_title
;
Structure prediction by ZEFSAII (Michael W. Deem and Ramdas Pophale) SiO2 
 PCOD8009380
Probable space group: P -1
;
_chemical_formula_sum "Si O2"
_cell_formula_units_Z 16
_cell_length_a 6.962541
_cell_length_b 13.274679
_cell_length_c 13.843801
_cell_angle_alpha 117.451447
_cell_angle_beta 63.225467
_cell_angle_gamma 70.501500
_cell_volume 740.028831
_symmetry_space_group_name_H-M "P -1"
_symmetry_group_IT_number 2
_symmetry_cell_setting 'triclinic'
loop_
_space_group_symop_operation_xyz
x,y,z
-x,-y,-z
loop_
_atom_site_type_symbol
_atom_site_label
_atom_site_fract_x
_atom_site_fract_y
_atom_site_fract_z
Si Si1 0.270497 0.821693 0.351855
Si Si2 0.766947 0.508858 0.829592
Si Si3 0.317413 0.159515 0.816791
Si Si4 0.746851 0.899760 0.759600
Si Si5 0.823681 0.967553 0.965550
Si Si6 0.725666 0.373487 0.596612
Si Si7 0.058246 0.644098 0.840322
Si Si8 0.843504 0.286536 0.852979
O O1 0.568626 0.780573 0.248315
O O2 0.315137 0.738518 0.403755
O O3 0.210736 0.763899 0.251053
O O4 0.000000 0.000000 0.500000
O O5 0.840978 0.414516 0.672658
O O6 0.868429 0.408070 0.861061
O O7 0.920162 0.575134 0.805269
O O8 0.413211 0.645036 0.980349
O O9 0.149828 0.136801 0.769186
O O10 0.584737 0.008542 0.749456
O O11 0.045444 0.308139 0.004872
O O12 0.835949 0.970626 0.846082
O O13 0.028849 0.723132 0.586519
O O14 0.515232 0.899207 0.864394
O O15 0.932355 0.799876 0.883968
O O16 0.000000 0.000000 0.000000
O O17 0.409797 0.523850 0.692423
#
# Coordination Sequence:
#
# PCOD8009380 Si02
#       8
#     2   2   2   2   2   2   2   2
#     4  11  22  38  59  95 140 179 216 265 307 381
#     4  10  21  38  60  96 135 174 215 266 309 386
#     4  11  21  39  64  92 131 182 216 258 322 385
#     4  10  24  45  65  97 134 162 216 282 328 392
#     4  10  25  49  73  93 121 168 223 276 344 397
#     4  11  23  40  63 101 137 169 214 267 328 383
#     4  11  23  40  68  96 124 172 222 271 329 387
#     4  10  21  36  62  91 135 180 223 251 312 383
#
# _framework density 21.620781000000001
#
# number of rings (size 3 to 8) (size 9 to 14) (size 15 to 20)
#    0.000    1.500    3.750    0.750    0.000    8.000 
#    2.250    1.250    0.000    0.000    0.000    0.000 
#    0.000    0.000    0.000    0.000    0.000    0.000 
#
# Total GULP energy -198224.490922 kJ/mol
# GULP energy per Si atom -12389.030683 kJ/mol
# Density = 2.157157 g / cm^3
# Si number density = 21.620781 Si / 1000 Ang^3
#
#
#
# Elastic Constant Matrix: (Units=GPa)
#
#
# Indices 1 2 3 4 5 6 
#
# 1 135.6670 58.6492 21.8987 2.6859 -2.4818 -7.9431
# 2 58.6492 115.8169 -2.4153 12.8269 9.8300 -2.3940
# 3 21.8987 -2.4153 141.3003 -3.8106 -30.2729 1.4782
# 4 2.6859 12.8269 -3.8106 27.8421 -2.7367 0.1158
# 5 -2.4818 9.8300 -30.2729 -2.7367 34.4123 4.5693
# 6 -7.9431 -2.3940 1.4782 0.1158 4.5693 31.2755
#
#
#
# Elastic Compliance Matrix: (Units=1/GPa)
#
#
# Indices 1 2 3 4 5 6 
#
# 1 0.009990 -0.005258 -0.001460 0.001325 0.000766 0.002087
# 2 -0.005258 0.012300 -0.000082 -0.005609 -0.004448 0.000281
# 3 -0.001460 -0.000082 0.009198 0.002278 0.008464 -0.002057
# 4 0.001325 -0.005609 0.002278 0.039380 0.007016 -0.001371
# 5 0.000766 -0.004448 0.008464 0.007016 0.039226 -0.006303
# 6 0.002087 0.000281 -0.002057 -0.001371 -0.006303 0.033549
#
#
# Mechanical properties :
#
#
# Convention : Reuss Voigt Hill
#
# Bulk Modulus (GPa) = 55.90376 61.00548 58.45462
# Shear Modulus (GPa) = 30.63632 39.68275 35.15954
#
# Velocity S-wave (km/s) = 3.76837 4.28880 4.03698
# Velocity P-wave (km/s) = 6.69677 7.26653 6.98746
#
# Compressibility (1/GPa) = 0.01788788
#
# Stress axis : x y z
#
# Youngs Moduli (GPa) = 100.10426 81.30282 108.71471
#
# Poissons Ratio (x) = 0.42748 0.15872
# Poissons Ratio (y) = 0.52633 0.00893
# Poissons Ratio (z) = 0.14615 0.00667
#
# Static dielectric constant tensor:
#      x y z
#    x 3.916200 -0.048680 -0.077380 
#    y -0.048680 3.978730 -0.106380 
#    z -0.077380 -0.106380 3.993890 
# 
# 
# High freq. dielectric constant tensor:
#      x y z
#    x 1.855340 -0.008880 -0.004210 
#    y -0.008880 1.834160 -0.003950 
#    z -0.004210 -0.003950 1.848110 
# 
# From -- ./inp_files/272291.got.cif
#   From: 2010.06.25/outbox.cif.g09.slc.cpg/sg2_137_cif.got.tgz:272291.got - 2010.06.27 13:26:56.
