data_PCOD8009438
_publ_section_title
;
Structure prediction by ZEFSAII (Michael W. Deem and Ramdas Pophale) SiO2 
 PCOD8009438
Probable space group: P -1
;
_chemical_formula_sum "Si O2"
_cell_formula_units_Z 16
_cell_length_a 12.016889
_cell_length_b 6.297110
_cell_length_c 12.426921
_cell_angle_alpha 71.655955
_cell_angle_beta 74.932388
_cell_angle_gamma 52.318275
_cell_volume 703.540326
_symmetry_space_group_name_H-M "P -1"
_symmetry_group_IT_number 2
_symmetry_cell_setting 'triclinic'
loop_
_space_group_symop_operation_xyz
x,y,z
-x,-y,-z
loop_
_atom_site_type_symbol
_atom_site_label
_atom_site_fract_x
_atom_site_fract_y
_atom_site_fract_z
Si Si1 0.489428 0.580318 0.315206
Si Si2 0.900534 0.672349 0.842320
Si Si3 0.992901 0.942533 0.634483
Si Si4 0.254783 0.488427 0.393411
Si Si5 0.365218 0.884386 0.814740
Si Si6 0.898075 0.906504 0.024718
Si Si7 0.720063 0.569080 0.364977
Si Si8 0.629867 0.832532 0.795589
O O1 0.355427 0.585219 0.381427
O O2 0.600960 0.318254 0.258491
O O3 0.576425 0.582653 0.394891
O O4 0.431223 0.853628 0.217295
O O5 0.918721 0.787474 0.706878
O O6 0.766229 0.655181 0.866795
O O7 0.037596 0.376674 0.883396
O O8 0.877464 0.881597 0.907965
O O9 0.154093 0.730447 0.668392
O O10 0.895708 0.252091 0.658802
O O11 0.000000 0.000000 0.500000
O O12 0.240060 0.391503 0.530367
O O13 0.324767 0.243255 0.329821
O O14 0.511064 0.778940 0.859555
O O15 0.256831 0.878817 0.921175
O O16 0.298368 0.190085 0.740178
O O17 0.000000 0.000000 0.000000
#
# Coordination Sequence:
#
# PCOD8009438 Si02
#       8
#     2   2   2   2   2   2   2   2
#     4  10  21  36  64  89 134 174 211 263 313 383
#     4  11  24  46  68  96 132 168 216 270 326 385
#     4  10  21  41  67  97 132 169 213 263 323 387
#     4  10  21  38  61  98 128 176 212 253 329 381
#     4  10  23  42  62  97 127 171 220 264 325 377
#     4  11  27  44  71  95 125 172 217 272 330 382
#     4  10  21  38  61  94 136 166 216 265 311 391
#     4  10  23  41  66  92 133 167 216 271 316 389
#
# _framework density 22.742122999999999
#
# number of rings (size 3 to 8) (size 9 to 14) (size 15 to 20)
#    0.000    1.750    2.500    0.375    3.500    7.000 
#    0.000    2.500    0.000    0.000    0.000    0.000 
#    0.000    0.000    0.000    0.000    0.000    0.000 
#
# Total GULP energy -198257.544459 kJ/mol
# GULP energy per Si atom -12391.096529 kJ/mol
# Density = 2.269036 g / cm^3
# Si number density = 22.742123 Si / 1000 Ang^3
#
#
#
# Elastic Constant Matrix: (Units=GPa)
#
#
# Indices 1 2 3 4 5 6 
#
# 1 121.7694 20.2222 42.5562 11.9165 1.8213 -8.5104
# 2 20.2222 80.6776 20.1890 7.3059 -1.1105 -12.0144
# 3 42.5562 20.1890 75.9440 4.2558 -10.2427 1.1769
# 4 11.9165 7.3059 4.2558 24.1796 -1.2587 -1.8099
# 5 1.8213 -1.1105 -10.2427 -1.2587 34.1924 2.6969
# 6 -8.5104 -12.0144 1.1769 -1.8099 2.6969 37.4051
#
#
#
# Elastic Compliance Matrix: (Units=1/GPa)
#
#
# Indices 1 2 3 4 5 6 
#
# 1 0.011125 -0.000491 -0.006294 -0.004183 -0.002851 0.002575
# 2 -0.000491 0.014362 -0.003577 -0.003184 -0.001054 0.004536
# 3 -0.006294 -0.003577 0.018463 0.000983 0.006066 -0.003552
# 4 -0.004183 -0.003184 0.000983 0.044313 0.002046 -0.000008
# 5 -0.002851 -0.001054 0.006066 0.002046 0.031521 -0.003352
# 6 0.002575 0.004536 -0.003552 -0.000008 -0.003352 0.029130
#
#
# Mechanical properties :
#
#
# Convention : Reuss Voigt Hill
#
# Bulk Modulus (GPa) = 43.05167 49.36954 46.21060
# Shear Modulus (GPa) = 28.18789 32.18365 30.18577
#
# Velocity S-wave (km/s) = 3.52441 3.76594 3.64717
# Velocity P-wave (km/s) = 5.96099 6.37693 6.17247
#
# Compressibility (1/GPa) = 0.02322790
#
# Stress axis : x y z
#
# Youngs Moduli (GPa) = 89.88621 69.62590 54.16093
#
# Poissons Ratio (x) = 0.03416 0.34087
# Poissons Ratio (y) = 0.04410 0.19375
# Poissons Ratio (z) = 0.56572 0.24907
#
# Static dielectric constant tensor:
#      x y z
#    x 4.296010 -0.402160 -0.051510 
#    y -0.402160 4.265610 0.009270 
#    z -0.051510 0.009270 3.721840 
# 
# 
# High freq. dielectric constant tensor:
#      x y z
#    x 1.901860 -0.021310 -0.005460 
#    y -0.021310 1.902690 -0.000450 
#    z -0.005460 -0.000450 1.869590 
# 
# From -- ./inp_files/364506.got.cif
#   From: 2010.06.25/outbox.cif.g09.slc.cpg/sg2_183_cif.got.tgz:364506.got - 2010.06.27 13:26:56.
