data_PCOD8009235
_publ_section_title
;
Structure prediction by ZEFSAII (Michael W. Deem and Ramdas Pophale) SiO2 
 PCOD8009235
Probable space group: P -1
;
_chemical_formula_sum "Si O2"
_cell_formula_units_Z 16
_cell_length_a 15.428776
_cell_length_b 12.534722
_cell_length_c 11.677080
_cell_angle_alpha 54.506540
_cell_angle_beta 44.844350
_cell_angle_gamma 29.127862
_cell_volume 770.216052
_symmetry_space_group_name_H-M "P -1"
_symmetry_group_IT_number 2
_symmetry_cell_setting 'triclinic'
loop_
_space_group_symop_operation_xyz
x,y,z
-x,-y,-z
loop_
_atom_site_type_symbol
_atom_site_label
_atom_site_fract_x
_atom_site_fract_y
_atom_site_fract_z
Si Si1 0.829498 0.318652 0.455349
Si Si2 0.499640 0.598771 0.773138
Si Si3 0.402007 0.970046 0.958486
Si Si4 0.173202 0.927440 0.543229
Si Si5 0.318129 0.491333 0.106392
Si Si6 0.049125 0.607690 0.892232
Si Si7 0.909494 0.964095 0.183871
Si Si8 0.482790 0.192269 0.798912
O O1 0.608906 0.505999 0.606089
O O2 0.820612 0.223177 0.419407
O O3 0.880799 0.411876 0.289072
O O4 0.999574 0.153106 0.495930
O O5 0.651718 0.508952 0.787417
O O6 0.316813 0.864683 0.766068
O O7 0.420448 0.518499 0.918336
O O8 0.578613 0.736362 0.874990
O O9 0.458970 0.074219 0.828007
O O10 0.394547 0.933511 0.120511
O O11 0.168932 0.136199 0.024877
O O12 0.111492 0.969641 0.707053
O O13 0.391503 0.815454 0.394207
O O14 0.067833 0.704525 0.188711
O O15 0.252546 0.451327 0.880238
O O16 0.000000 0.500000 0.000000
O O17 0.000000 0.000000 0.000000
#
# Coordination Sequence:
#
# PCOD8009235 Si02
#       8
#     2   2   2   2   2   2   2   2
#     4  11  22  37  66  93 121 157 200 255 310 354
#     4  10  21  36  59  87 124 157 195 255 301 354
#     4  10  21  38  61  88 122 162 201 245 303 363
#     4  11  22  38  64  94 122 155 203 255 306 355
#     4  10  21  37  57  86 122 161 200 241 303 364
#     4  10  22  38  60  89 123 157 196 248 302 359
#     4  10  22  39  58  85 124 158 198 245 300 361
#     4  10  21  39  61  89 123 156 200 256 301 355
#
# _framework density 20.773391
#
# number of rings (size 3 to 8) (size 9 to 14) (size 15 to 20)
#    0.000    1.750    2.500    1.500    1.750    5.000 
#    0.000    0.625    0.000    3.750    0.000    0.000 
#    0.000    0.000    0.000    0.000    0.000    0.000 
#
# Total GULP energy -198258.374537 kJ/mol
# GULP energy per Si atom -12391.148409 kJ/mol
# Density = 2.072611 g / cm^3
# Si number density = 20.773391 Si / 1000 Ang^3
#
#
#
# Elastic Constant Matrix: (Units=GPa)
#
#
# Indices 1 2 3 4 5 6 
#
# 1 38.9618 26.3008 28.0133 -1.6482 -9.2502 -9.0423
# 2 26.3008 141.5883 24.5905 15.6277 -9.4247 -25.9521
# 3 28.0133 24.5905 111.4048 -6.4577 6.7748 -5.2747
# 4 -1.6482 15.6277 -6.4577 33.8760 -4.3734 -3.0792
# 5 -9.2502 -9.4247 6.7748 -4.3734 18.9332 9.3806
# 6 -9.0423 -25.9521 -5.2747 -3.0792 9.3806 22.1290
#
#
#
# Elastic Compliance Matrix: (Units=1/GPa)
#
#
# Indices 1 2 3 4 5 6 
#
# 1 0.042549 -0.005155 -0.010698 0.005406 0.023508 -0.000422
# 2 -0.005155 0.010362 -0.000529 -0.004613 -0.003587 0.010798
# 3 -0.010698 -0.000529 0.012661 0.000951 -0.011251 0.002928
# 4 0.005406 -0.004613 0.000951 0.033022 0.008645 -0.002045
# 5 0.023508 -0.003587 -0.011251 0.008645 0.084303 -0.031816
# 6 -0.000422 0.010798 0.002928 -0.002045 -0.031816 0.071581
#
#
# Mechanical properties :
#
#
# Convention : Reuss Voigt Hill
#
# Bulk Modulus (GPa) = 30.47951 49.97380 40.22665
# Shear Modulus (GPa) = 16.76849 29.19101 22.97975
#
# Velocity S-wave (km/s) = 2.84423 3.75268 3.32958
# Velocity P-wave (km/s) = 5.04880 6.54872 5.84705
#
# Compressibility (1/GPa) = 0.03280893
#
# Stress axis : x y z
#
# Youngs Moduli (GPa) = 23.50209 96.50827 78.98294
#
# Poissons Ratio (x) = 0.49751 0.84493
# Poissons Ratio (y) = 0.12116 0.04178
# Poissons Ratio (z) = 0.25142 0.05105
#
# Static dielectric constant tensor:
#      x y z
#    x 3.598540 -0.552740 -0.078860 
#    y -0.552740 4.486970 0.170500 
#    z -0.078860 0.170500 3.781780 
# 
# 
# High freq. dielectric constant tensor:
#      x y z
#    x 1.781390 -0.033900 0.003300 
#    y -0.033900 1.833850 0.003790 
#    z 0.003300 0.003790 1.810250 
# 
# From -- ./inp_files/451235.got.cif
#   From: 2010.06.25/outbox.cif.g09.slc.cpg/sg2_226_cif.got.tgz:451235.got - 2010.06.27 13:26:56.
