data_PCOD8009313
_publ_section_title
;
Structure prediction by ZEFSAII (Michael W. Deem and Ramdas Pophale) SiO2 
 PCOD8009313
Probable space group: P -1
;
_chemical_formula_sum "Si O2"
_cell_formula_units_Z 16
_cell_length_a 14.995316
_cell_length_b 12.251723
_cell_length_c 15.002578
_cell_angle_alpha 52.288667
_cell_angle_beta 160.092399
_cell_angle_gamma 127.683442
_cell_volume 735.739154
_symmetry_space_group_name_H-M "P -1"
_symmetry_group_IT_number 2
_symmetry_cell_setting 'triclinic'
loop_
_space_group_symop_operation_xyz
x,y,z
-x,-y,-z
loop_
_atom_site_type_symbol
_atom_site_label
_atom_site_fract_x
_atom_site_fract_y
_atom_site_fract_z
Si Si1 0.570244 0.615692 0.935427
Si Si2 0.426445 0.126459 0.069234
Si Si3 0.864195 0.297302 0.629338
Si Si4 0.860188 0.029565 0.635226
Si Si5 0.439039 0.834743 0.018325
Si Si6 0.214396 0.615517 0.300864
Si Si7 0.138156 0.295235 0.403782
Si Si8 0.211897 0.277805 0.273149
O O1 0.584202 0.763402 0.919343
O O2 0.854049 0.606719 0.163411
O O3 0.500000 0.500000 0.000000
O O4 0.346149 0.607420 0.653817
O O5 0.496234 0.204137 0.002847
O O6 0.139467 0.035726 0.843348
O O7 0.649008 0.033743 0.354969
O O8 0.805956 0.277503 0.689552
O O9 0.851014 0.147555 0.643406
O O10 0.800713 0.878404 0.701080
O O11 0.133068 0.786284 0.773599
O O12 0.617047 0.759969 0.289843
O O13 0.500000 0.000000 0.000000
O O14 0.146278 0.458379 0.350314
O O15 0.505857 0.635203 0.524197
O O16 0.010742 0.643158 0.019237
O O17 0.160768 0.267737 0.334655
#
# Coordination Sequence:
#
# PCOD8009313 Si02
#       8
#     2   2   2   2   2   2   2   2
#     4  10  21  36  61  85 126 162 197 240 301 377
#     4  10  21  37  60  93 123 160 198 249 310 366
#     4  10  23  39  59  93 124 157 206 254 301 358
#     4  10  21  41  63  90 126 160 208 257 298 371
#     4  12  24  41  66  95 125 162 204 252 306 370
#     4  12  26  42  65  91 126 161 211 259 305 368
#     4  12  26  42  65  92 128 159 208 261 304 368
#     4  12  24  44  66  86 120 171 210 258 316 351
#
# _framework density 21.746836999999999
#
# number of rings (size 3 to 8) (size 9 to 14) (size 15 to 20)
#    0.000    1.000    0.000    6.750    3.500    1.000 
#    0.000    0.000    0.000    0.000    0.000    0.000 
#    0.000    0.000    0.000    0.000    0.000    0.000 
#
# Total GULP energy -198452.546538 kJ/mol
# GULP energy per Si atom -12403.284159 kJ/mol
# Density = 2.169734 g / cm^3
# Si number density = 21.746837 Si / 1000 Ang^3
#
#
#
# Elastic Constant Matrix: (Units=GPa)
#
#
# Indices 1 2 3 4 5 6 
#
# 1 99.6900 9.4686 25.1078 8.9178 -8.2473 6.3751
# 2 9.4686 103.6011 32.9498 -1.2915 9.8222 7.2958
# 3 25.1078 32.9498 174.4864 3.0908 2.9932 7.5162
# 4 8.9178 -1.2915 3.0908 38.2044 16.2913 6.5874
# 5 -8.2473 9.8222 2.9932 16.2913 20.6462 0.8386
# 6 6.3751 7.2958 7.5162 6.5874 0.8386 24.4123
#
#
#
# Elastic Compliance Matrix: (Units=1/GPa)
#
#
# Indices 1 2 3 4 5 6 
#
# 1 0.012361 -0.001909 -0.001469 -0.008053 0.012432 -0.000459
# 2 -0.001909 0.011751 -0.001704 0.006293 -0.010917 -0.003812
# 3 -0.001469 -0.001704 0.006322 0.000366 -0.000936 -0.001120
# 4 -0.008053 0.006293 0.000366 0.049309 -0.044699 -0.011661
# 5 0.012432 -0.010917 -0.000936 -0.044699 0.093629 0.009150
# 6 -0.000459 -0.003812 -0.001120 -0.011661 0.009150 0.045399
#
#
# Mechanical properties :
#
#
# Convention : Reuss Voigt Hill
#
# Bulk Modulus (GPa) = 49.33717 56.98110 53.15913
# Shear Modulus (GPa) = 21.21413 37.33601 29.27507
#
# Velocity S-wave (km/s) = 3.12669 4.14798 3.67301
# Velocity P-wave (km/s) = 5.98091 7.01426 6.51810
#
# Compressibility (1/GPa) = 0.02026869
#
# Stress axis : x y z
#
# Youngs Moduli (GPa) = 80.90205 85.10034 158.17426
#
# Poissons Ratio (x) = 0.16247 0.23235
# Poissons Ratio (y) = 0.15446 0.26958
# Poissons Ratio (z) = 0.11884 0.14504
#
# Static dielectric constant tensor:
#      x y z
#    x 4.019500 0.218330 0.209770 
#    y 0.218330 3.328880 0.119920 
#    z 0.209770 0.119920 4.693680 
# 
# 
# High freq. dielectric constant tensor:
#      x y z
#    x 1.858210 0.000550 0.003180 
#    y 0.000550 1.855790 0.005330 
#    z 0.003180 0.005330 1.877090 
# 
# From -- ./inp_files/519988.got.cif
#   From: 2010.06.25/outbox.cif.g09.slc.cpg/sg2_260_cif.got.tgz:519988.got - 2010.06.27 13:26:56.
