data_PCOD8009538
_publ_section_title
;
Structure prediction by ZEFSAII (Michael W. Deem and Ramdas Pophale) SiO2 
 PCOD8009538
Probable space group: P -1
;
_chemical_formula_sum "Si O2"
_cell_formula_units_Z 16
_cell_length_a 7.503652
_cell_length_b 13.537473
_cell_length_c 11.486197
_cell_angle_alpha 130.836394
_cell_angle_beta 102.070706
_cell_angle_gamma 101.639823
_cell_volume 767.589525
_symmetry_space_group_name_H-M "P -1"
_symmetry_group_IT_number 2
_symmetry_cell_setting 'triclinic'
loop_
_space_group_symop_operation_xyz
x,y,z
-x,-y,-z
loop_
_atom_site_type_symbol
_atom_site_label
_atom_site_fract_x
_atom_site_fract_y
_atom_site_fract_z
Si Si1 0.733504 0.507653 0.058277
Si Si2 0.488293 0.016012 0.805759
Si Si3 0.417660 0.202404 0.747085
Si Si4 0.086680 0.442519 0.117603
Si Si5 0.925338 0.070346 0.210456
Si Si6 0.039834 0.831712 0.958045
Si Si7 0.325218 0.779507 0.424421
Si Si8 0.932433 0.799060 0.422471
O O1 0.779595 0.623501 0.258111
O O2 0.860338 0.415472 0.028978
O O3 0.496285 0.378488 0.921276
O O4 0.809082 0.588475 0.005731
O O5 0.433968 0.121788 0.800292
O O6 0.714508 0.098565 0.950186
O O7 0.314799 0.967501 0.844625
O O8 0.470206 0.873517 0.622466
O O9 0.553103 0.184168 0.650291
O O10 0.180160 0.127359 0.614790
O O11 0.224316 0.608053 0.310889
O O12 0.069199 0.332356 0.133522
O O13 0.052437 0.158486 0.408012
O O14 0.020906 0.172415 0.188838
O O15 0.952658 0.924090 0.090865
O O16 0.152351 0.835039 0.426441
#
# Coordination Sequence:
#
# PCOD8009538 Si02
#       8
#     2   2   2   2   2   2   2   2
#     4   9  18  35  56  91 122 149 187 242 294 351
#     4  11  22  37  62  89 117 150 202 242 289 347
#     4  11  20  33  60  92 118 160 185 232 312 343
#     4   9  18  36  62  84 118 157 191 233 298 348
#     4  10  25  41  59  87 114 160 200 243 284 339
#     4  11  22  43  66  77 119 159 202 239 287 347
#     4   9  21  37  53  88 127 148 183 242 295 349
#     4  10  21  37  56  85 126 146 195 241 287 348
#
# _framework density 20.844474000000002
#
# number of rings (size 3 to 8) (size 9 to 14) (size 15 to 20)
#    0.000    2.000    1.250    2.625    1.750    2.000 
#    0.000    5.625    0.000    4.500    0.000    0.000 
#    0.000    0.000    0.000    0.000    0.000    0.000 
#
# Total GULP energy -198388.006940 kJ/mol
# GULP energy per Si atom -12399.250434 kJ/mol
# Density = 2.079703 g / cm^3
# Si number density = 20.844474 Si / 1000 Ang^3
#
#
#
# Elastic Constant Matrix: (Units=GPa)
#
#
# Indices 1 2 3 4 5 6 
#
# 1 47.7960 -17.7993 0.2888 -8.8152 -7.1707 4.4174
# 2 -17.7993 50.3102 -21.8719 -5.0222 -7.6063 8.1014
# 3 0.2888 -21.8719 52.2111 -4.9500 -7.5345 4.6579
# 4 -8.8152 -5.0222 -4.9500 22.1262 1.2694 4.9501
# 5 -7.1707 -7.6063 -7.5345 1.2694 33.6847 -4.2404
# 6 4.4174 8.1014 4.6579 4.9501 -4.2404 21.5857
#
#
#
# Elastic Compliance Matrix: (Units=1/GPa)
#
#
# Indices 1 2 3 4 5 6 
#
# 1 0.054833 0.048140 0.031463 0.048080 0.022393 -0.042705
# 2 0.048140 0.076070 0.046179 0.057664 0.028534 -0.055985
# 3 0.031463 0.046179 0.048907 0.041592 0.021508 -0.039637
# 4 0.048080 0.057664 0.041592 0.098687 0.021429 -0.058878
# 5 0.022393 0.028534 0.021508 0.021429 0.042832 -0.016433
# 6 -0.042705 -0.055985 -0.039637 -0.058878 -0.016433 0.094905
#
#
# Mechanical properties :
#
#
# Convention : Reuss Voigt Hill
#
# Bulk Modulus (GPa) = 2.31818 7.95028 5.13423
# Shear Modulus (GPa) = 16.20949 28.12597 22.16773
#
# Velocity S-wave (km/s) = 2.79164 3.67730 3.26465
# Velocity P-wave (km/s) = 3.39199 4.67466 4.08399
#
# Compressibility (1/GPa) = 0.43137343
#
# Stress axis : x y z
#
# Youngs Moduli (GPa) = 18.23707 13.14587 20.44687
#
# Poissons Ratio (x) = -0.63284 -0.64331
# Poissons Ratio (y) = -0.87792 -0.94423
# Poissons Ratio (z) = -0.57379 -0.60707
#
# Static dielectric constant tensor:
#      x y z
#    x 3.990430 -0.061260 0.036750 
#    y -0.061260 3.474770 0.138910 
#    z 0.036750 0.138910 3.909870 
# 
# 
# High freq. dielectric constant tensor:
#      x y z
#    x 1.836200 -0.006970 -0.001530 
#    y -0.006970 1.791820 0.012760 
#    z -0.001530 0.012760 1.817370 
# 
# From -- ./inp_files/388273.got.cif
#   From: 2010.06.25/outbox.cif.g09.slc.cpg/sg2_195_cif.got.tgz:388273.got - 2010.06.27 13:26:56.
