data_PCOD8009544
_publ_section_title
;
Structure prediction by ZEFSAII (Michael W. Deem and Ramdas Pophale) SiO2 
 PCOD8009544
Probable space group: P -1
;
_chemical_formula_sum "Si O2"
_cell_formula_units_Z 16
_cell_length_a 18.430706
_cell_length_b 20.896314
_cell_length_c 8.822789
_cell_angle_alpha 139.356121
_cell_angle_beta 43.500999
_cell_angle_gamma 159.540137
_cell_volume 772.092474
_symmetry_space_group_name_H-M "P -1"
_symmetry_group_IT_number 2
_symmetry_cell_setting 'triclinic'
loop_
_space_group_symop_operation_xyz
x,y,z
-x,-y,-z
loop_
_atom_site_type_symbol
_atom_site_label
_atom_site_fract_x
_atom_site_fract_y
_atom_site_fract_z
Si Si1 0.476731 0.201880 0.319088
Si Si2 0.432731 0.555535 0.170649
Si Si3 0.356252 0.781140 0.646806
Si Si4 0.744106 0.427592 0.045541
Si Si5 0.447267 0.216281 0.858642
Si Si6 0.047090 0.785347 0.731338
Si Si7 0.846513 0.179457 0.027067
Si Si8 0.052450 0.593321 0.249337
O O1 0.442913 0.272364 0.595386
O O2 0.501672 0.125292 0.251457
O O3 0.685245 0.393291 0.249995
O O4 0.277504 0.019493 0.187246
O O5 0.508941 0.648660 0.056087
O O6 0.184969 0.364879 0.219025
O O7 0.500000 0.500000 0.000000
O O8 0.445870 0.794442 0.392891
O O9 0.138099 0.555722 0.613000
O O10 0.322258 0.867861 0.815223
O O11 0.963023 0.655191 0.082232
O O12 0.552994 0.317072 0.042130
O O13 0.769014 0.329995 0.806315
O O14 0.200811 0.001192 0.864583
O O15 0.120867 0.762673 0.452171
O O16 0.066588 0.757992 0.822629
O O17 0.000000 0.500000 0.000000
#
# Coordination Sequence:
#
# PCOD8009544 Si02
#       8
#     2   2   2   2   2   2   2   2
#     4  11  22  41  62  98 127 165 212 260 308 372
#     4  11  26  50  68  88 123 160 213 279 324 370
#     4  10  21  37  56  96 140 174 203 243 304 373
#     4  11  21  37  62  94 137 168 201 253 307 371
#     4  11  23  40  67  92 127 167 212 252 321 378
#     4  12  23  41  66  94 126 169 214 258 314 380
#     4  11  23  36  65  95 136 169 209 248 308 378
#     4  11  20  34  58  93 137 176 203 243 300 374
#
# _framework density 20.722906999999999
#
# number of rings (size 3 to 8) (size 9 to 14) (size 15 to 20)
#    0.000    1.000    6.250    1.125    1.750    9.500 
#    0.000    1.250    0.000    0.000    0.000    0.000 
#    0.000    0.000    0.000    0.000    0.000    0.000 
#
# Total GULP energy -198306.257891 kJ/mol
# GULP energy per Si atom -12394.141118 kJ/mol
# Density = 2.067574 g / cm^3
# Si number density = 20.722907 Si / 1000 Ang^3
#
#
#
# Elastic Constant Matrix: (Units=GPa)
#
#
# Indices 1 2 3 4 5 6 
#
# 1 103.4066 36.5415 54.3945 4.6443 -12.1337 6.1019
# 2 36.5415 80.4939 26.8281 8.9405 -12.1378 -8.0888
# 3 54.3945 26.8281 69.1020 8.2131 -6.9816 11.8215
# 4 4.6443 8.9405 8.2131 24.0110 -4.6309 10.7716
# 5 -12.1337 -12.1378 -6.9816 -4.6309 32.3055 -0.3833
# 6 6.1019 -8.0888 11.8215 10.7716 -0.3833 26.0065
#
#
#
# Elastic Compliance Matrix: (Units=1/GPa)
#
#
# Indices 1 2 3 4 5 6 
#
# 1 0.017897 -0.004024 -0.012427 0.003385 0.002996 -0.001160
# 2 -0.004024 0.018764 -0.004867 -0.009795 0.003238 0.013097
# 3 -0.012427 -0.004867 0.028045 -0.000499 -0.000639 -0.011149
# 4 0.003385 -0.009795 -0.000499 0.058289 0.005511 -0.027675
# 5 0.002996 0.003238 -0.000639 0.005511 0.033934 -0.001188
# 6 -0.001160 0.013097 -0.011149 -0.027675 -0.001188 0.059311
#
#
# Mechanical properties :
#
#
# Convention : Reuss Voigt Hill
#
# Bulk Modulus (GPa) = 45.30807 54.28117 49.79462
# Shear Modulus (GPa) = 18.78043 25.48049 22.13046
#
# Velocity S-wave (km/s) = 3.01369 3.51034 3.27145
# Velocity P-wave (km/s) = 5.83275 6.53304 6.19280
#
# Compressibility (1/GPa) = 0.02207112
#
# Stress axis : x y z
#
# Youngs Moduli (GPa) = 55.87375 53.29216 35.65660
#
# Poissons Ratio (x) = 0.21443 0.44312
# Poissons Ratio (y) = 0.22482 0.17354
# Poissons Ratio (z) = 0.69436 0.25938
#
# Static dielectric constant tensor:
#      x y z
#    x 3.725000 -0.096770 0.204140 
#    y -0.096770 3.839840 0.001030 
#    z 0.204140 0.001030 3.430220 
# 
# 
# High freq. dielectric constant tensor:
#      x y z
#    x 1.804550 -0.004710 0.030020 
#    y -0.004710 1.819260 0.001420 
#    z 0.030020 0.001420 1.775130 
# 
# From -- ./inp_files/208520.got.cif
#   From: 2010.06.25/outbox.cif.g09.slc.cpg/sg2_105_cif.got.tgz:208520.got - 2010.06.27 13:26:56.
