data_PCOD8009575
_publ_section_title
;
Structure prediction by ZEFSAII (Michael W. Deem and Ramdas Pophale) SiO2 
 PCOD8009575
Probable space group: P -1
;
_chemical_formula_sum "Si O2"
_cell_formula_units_Z 16
_cell_length_a 15.701218
_cell_length_b 11.504337
_cell_length_c 13.437065
_cell_angle_alpha 90.784479
_cell_angle_beta 147.468608
_cell_angle_gamma 113.256251
_cell_volume 854.633795
_symmetry_space_group_name_H-M "P -1"
_symmetry_group_IT_number 2
_symmetry_cell_setting 'triclinic'
loop_
_space_group_symop_operation_xyz
x,y,z
-x,-y,-z
loop_
_atom_site_type_symbol
_atom_site_label
_atom_site_fract_x
_atom_site_fract_y
_atom_site_fract_z
Si Si1 0.520419 0.255529 0.198493
Si Si2 0.830730 0.129058 0.137884
Si Si3 0.743256 0.384372 0.701732
Si Si4 0.590859 0.369783 0.754683
Si Si5 0.408368 0.068146 0.701364
Si Si6 0.214869 0.028812 0.722742
Si Si7 0.850530 0.289902 0.636353
Si Si8 0.680986 0.546428 0.487051
O O1 0.775862 0.328833 0.467682
O O2 0.528396 0.388145 0.254023
O O3 0.315906 0.064082 0.051612
O O4 0.445756 0.219128 0.007580
O O5 0.877714 0.130987 0.302250
O O6 0.074518 0.274652 0.319715
O O7 0.672225 0.157162 0.969794
O O8 0.564456 0.294538 0.619066
O O9 0.688666 0.249339 0.569390
O O10 0.744279 0.507212 0.646132
O O11 0.000000 0.500000 0.000000
O O12 0.436397 0.207178 0.676958
O O13 0.478318 0.434106 0.636745
O O14 0.866410 0.537141 0.063930
O O15 0.295916 0.024727 0.697734
O O16 0.220232 0.883234 0.452768
O O17 0.000000 0.000000 0.500000
#
# Coordination Sequence:
#
# PCOD8009575 Si02
#       8
#     2   2   2   2   2   2   2   2
#     4   8  20  37  57  81 115 149 191 228 280 335
#     4   9  20  37  59  81 113 155 186 235 276 336
#     4   9  19  39  60  83 114 148 192 233 283 336
#     4  11  23  35  59  89 115 149 188 238 285 335
#     4  11  21  39  59  83 116 153 195 225 284 342
#     4  10  21  37  57  87 118 146 187 243 281 329
#     4   9  20  38  61  82 111 154 191 234 277 342
#     4  11  20  38  60  86 118 149 185 236 289 332
#
# _framework density 18.721468999999999
#
# number of rings (size 3 to 8) (size 9 to 14) (size 15 to 20)
#    0.750    1.500    0.000    3.750    1.750    0.500 
#    2.250    6.250    0.000   11.250    0.000    0.000 
#    0.000    0.000    0.000    0.000    0.000    0.000 
#
# Total GULP energy -198249.803495 kJ/mol
# GULP energy per Si atom -12390.612718 kJ/mol
# Density = 1.867886 g / cm^3
# Si number density = 18.721469 Si / 1000 Ang^3
#
#
#
# Elastic Constant Matrix: (Units=GPa)
#
#
# Indices 1 2 3 4 5 6 
#
# 1 83.1402 10.3501 43.2589 0.0608 -3.2771 -5.5646
# 2 10.3501 65.2305 29.5162 -7.8766 -7.4102 -2.3701
# 3 43.2589 29.5162 91.0187 -5.7536 -6.5386 -4.2874
# 4 0.0608 -7.8766 -5.7536 27.3039 -1.1851 -0.5399
# 5 -3.2771 -7.4102 -6.5386 -1.1851 26.0555 0.3061
# 6 -5.5646 -2.3701 -4.2874 -0.5399 0.3061 36.5210
#
#
#
# Elastic Compliance Matrix: (Units=1/GPa)
#
#
# Indices 1 2 3 4 5 6 
#
# 1 0.016188 0.000967 -0.008006 -0.001404 0.000219 0.001567
# 2 0.000967 0.018915 -0.005982 0.004390 0.004191 0.000702
# 3 -0.008006 -0.005982 0.016992 0.001952 0.001640 0.000402
# 4 -0.001404 0.004390 0.001952 0.038466 0.003301 0.000841
# 5 0.000219 0.004191 0.001640 0.003301 0.040159 0.000210
# 6 0.001567 0.000702 0.000402 0.000841 0.000210 0.027724
#
#
# Mechanical properties :
#
#
# Convention : Reuss Voigt Hill
#
# Bulk Modulus (GPa) = 38.38449 45.07109 41.72779
# Shear Modulus (GPa) = 25.88396 28.39368 27.13882
#
# Velocity S-wave (km/s) = 3.72234 3.89863 3.81150
# Velocity P-wave (km/s) = 6.24675 6.66277 6.45811
#
# Compressibility (1/GPa) = 0.02605219
#
# Stress axis : x y z
#
# Youngs Moduli (GPa) = 61.77459 52.86733 58.85157
#
# Poissons Ratio (x) = -0.05110 0.47119
# Poissons Ratio (y) = -0.05971 0.35203
# Poissons Ratio (z) = 0.49459 0.31624
#
# Static dielectric constant tensor:
#      x y z
#    x 3.852580 -0.137140 -0.095770 
#    y -0.137140 3.431980 -0.262910 
#    z -0.095770 -0.262910 3.689020 
# 
# 
# High freq. dielectric constant tensor:
#      x y z
#    x 1.722680 -0.009620 -0.006100 
#    y -0.009620 1.721800 -0.016570 
#    z -0.006100 -0.016570 1.725680 
# 
# From -- ./inp_files/448330.got.cif
#   From: 2010.06.25/outbox.cif.g09.slc.cpg/sg2_225_cif.got.tgz:448330.got - 2010.06.27 13:26:56.
