data_PCOD8009904
_publ_section_title
;
Structure prediction by ZEFSAII (Michael W. Deem and Ramdas Pophale) SiO2 
 PCOD8009904
Probable space group: P -1
;
_chemical_formula_sum "Si O2"
_cell_formula_units_Z 16
_cell_length_a 8.681558
_cell_length_b 19.205517
_cell_length_c 24.291201
_cell_angle_alpha 21.440597
_cell_angle_beta 38.901038
_cell_angle_gamma 31.793892
_cell_volume 778.263433
_symmetry_space_group_name_H-M "P -1"
_symmetry_group_IT_number 2
_symmetry_cell_setting 'triclinic'
loop_
_space_group_symop_operation_xyz
x,y,z
-x,-y,-z
loop_
_atom_site_type_symbol
_atom_site_label
_atom_site_fract_x
_atom_site_fract_y
_atom_site_fract_z
Si Si1 0.302201 0.966055 0.773989
Si Si2 0.885547 0.436434 0.400346
Si Si3 0.444790 0.698594 0.828742
Si Si4 0.713664 0.368687 0.617527
Si Si5 0.565466 0.623954 0.680563
Si Si6 0.837140 0.856221 0.561501
Si Si7 0.298764 0.483096 0.939829
Si Si8 0.443750 0.739478 0.509024
O O1 0.525977 0.046109 0.659047
O O2 0.960640 0.157098 0.741467
O O3 0.275279 0.920978 0.750229
O O4 0.436992 0.749774 0.935541
O O5 0.845213 0.378574 0.515861
O O6 0.577925 0.632894 0.313304
O O7 0.103911 0.523307 0.278823
O O8 0.042797 0.206222 0.488687
O O9 0.734405 0.687657 0.733881
O O10 0.254743 0.692667 0.835274
O O11 0.500000 0.500000 0.000000
O O12 0.610472 0.592390 0.517340
O O13 0.396900 0.509747 0.832731
O O14 0.594232 0.598018 0.626344
O O15 0.423654 0.881634 0.553007
O O16 0.106102 0.820526 0.549291
O O17 0.000000 0.500000 0.000000
#
# Coordination Sequence:
#
# PCOD8009904 Si02
#       8
#     2   2   2   2   2   2   2   2
#     4  11  22  43  61  91 128 174 205 251 318 380
#     4  10  21  37  62  93 122 157 212 269 295 367
#     4  10  22  38  63  88 130 163 202 258 324 379
#     4  10  22  41  63  90 126 169 216 249 315 363
#     4  12  22  37  65  96 128 155 213 266 317 364
#     4  11  21  37  64  98 124 161 208 263 325 368
#     4  11  26  42  60  95 134 162 203 262 328 377
#     4  11  23  37  68  93 128 164 213 262 300 382
#
# _framework density 20.558592000000001
#
# number of rings (size 3 to 8) (size 9 to 14) (size 15 to 20)
#    0.000    1.250    3.750    1.875    5.250    0.000 
#    2.250    1.250    0.000    0.000    0.000    0.000 
#    0.000    0.000    0.000    0.000    0.000    0.000 
#
# Total GULP energy -198223.630486 kJ/mol
# GULP energy per Si atom -12388.976905 kJ/mol
# Density = 2.051180 g / cm^3
# Si number density = 20.558592 Si / 1000 Ang^3
#
#
#
# Elastic Constant Matrix: (Units=GPa)
#
#
# Indices 1 2 3 4 5 6 
#
# 1 107.1800 42.4038 46.6984 8.6150 -16.6914 -10.7551
# 2 42.4038 85.2410 44.8556 10.6013 -8.1014 -11.3696
# 3 46.6984 44.8556 104.9741 16.0691 -8.6246 -5.0114
# 4 8.6150 10.6013 16.0691 25.2846 -3.5270 -2.2405
# 5 -16.6914 -8.1014 -8.6246 -3.5270 38.8620 11.1821
# 6 -10.7551 -11.3696 -5.0114 -2.2405 11.1821 53.9223
#
#
#
# Elastic Compliance Matrix: (Units=1/GPa)
#
#
# Indices 1 2 3 4 5 6 
#
# 1 0.013288 -0.004185 -0.003816 0.000242 0.003829 0.000629
# 2 -0.004185 0.016989 -0.004943 -0.002387 -0.000212 0.002233
# 3 -0.003816 -0.004943 0.014185 -0.005684 0.000181 -0.000759
# 4 0.000242 -0.002387 -0.005684 0.044431 0.002264 0.000393
# 5 0.003829 -0.000212 0.000181 0.002264 0.029074 -0.005199
# 6 0.000629 0.002233 -0.000759 0.000393 -0.005199 0.020166
#
#
# Mechanical properties :
#
#
# Convention : Reuss Voigt Hill
#
# Bulk Modulus (GPa) = 53.83644 62.81231 58.32438
# Shear Modulus (GPa) = 29.37528 34.50961 31.94244
#
# Velocity S-wave (km/s) = 3.78412 4.10151 3.94601
# Velocity P-wave (km/s) = 6.73324 7.28348 7.01375
#
# Compressibility (1/GPa) = 0.01857478
#
# Stress axis : x y z
#
# Youngs Moduli (GPa) = 75.25499 58.86179 70.49934
#
# Poissons Ratio (x) = 0.24632 0.26900
# Poissons Ratio (y) = 0.31492 0.34849
# Poissons Ratio (z) = 0.28714 0.29096
#
# Static dielectric constant tensor:
#      x y z
#    x 4.177960 0.007850 -0.216780 
#    y 0.007850 3.914950 0.214980 
#    z -0.216780 0.214980 3.603950 
# 
# 
# High freq. dielectric constant tensor:
#      x y z
#    x 1.829450 0.002360 -0.010110 
#    y 0.002360 1.798980 0.019690 
#    z -0.010110 0.019690 1.777580 
# 
# From -- ./inp_files/259393.got.cif
#   From: 2010.06.25/outbox.cif.g09.slc.cpg/sg2_130_cif.got.tgz:259393.got - 2010.06.27 13:26:56.
