data_PCOD8009539
_publ_section_title
;
Structure prediction by ZEFSAII (Michael W. Deem and Ramdas Pophale) SiO2 
 PCOD8009539
Probable space group: P -1
;
_chemical_formula_sum "Si O2"
_cell_formula_units_Z 10
_cell_length_a 9.197527
_cell_length_b 12.070560
_cell_length_c 8.930190
_cell_angle_alpha 65.388653
_cell_angle_beta 83.366086
_cell_angle_gamma 36.483474
_cell_volume 489.846444
_symmetry_space_group_name_H-M "P -1"
_symmetry_group_IT_number 2
_symmetry_cell_setting 'triclinic'
loop_
_space_group_symop_operation_xyz
x,y,z
-x,-y,-z
loop_
_atom_site_type_symbol
_atom_site_label
_atom_site_fract_x
_atom_site_fract_y
_atom_site_fract_z
Si Si1 0.770967 0.524312 0.446543
Si Si2 0.983014 0.213758 0.864671
Si Si3 0.428876 0.708800 0.113435
Si Si4 0.841794 0.497679 0.951019
Si Si5 0.692837 0.757415 0.571666
O O1 0.907819 0.334113 0.651696
O O2 0.534325 0.631145 0.315970
O O3 0.638009 0.732408 0.431670
O O4 0.999283 0.412015 0.368509
O O5 0.741581 0.292809 0.894110
O O6 0.033485 0.271335 0.964243
O O7 0.256999 0.949014 0.961647
O O8 0.680759 0.532820 0.072193
O O9 0.640680 0.692813 0.741377
O O10 0.000000 0.500000 0.000000
O O11 0.500000 0.000000 0.500000
#
# Coordination Sequence:
#
# PCOD8009539 Si02
#       5
#     2   2   2   2   2
#     4  10  21  38  59  85 116 151 194 239 284 343
#     4  10  24  40  58  89 119 152 197 237 286 350
#     4  11  22  40  63  84 118 158 191 238 293 342
#     4  11  22  38  59  87 117 152 193 241 288 340
#     4  10  21  37  56  87 119 147 191 242 288 343
#
# _framework density 20.414560999999999
#
# number of rings (size 3 to 8) (size 9 to 14) (size 15 to 20)
#    0.000    1.600    2.000    2.400    2.800    0.800 
#    0.000    0.000    0.000   13.200    0.000    0.000 
#    0.000    0.000    0.000    0.000    0.000    0.000 
#
# Total GULP energy -123975.700641 kJ/mol
# GULP energy per Si atom -12397.570064 kJ/mol
# Density = 2.036810 g / cm^3
# Si number density = 20.414561 Si / 1000 Ang^3
#
#
#
# Elastic Constant Matrix: (Units=GPa)
#
#
# Indices 1 2 3 4 5 6 
#
# 1 73.0787 14.8786 16.9283 10.8301 7.3744 13.4575
# 2 14.8786 83.2371 33.0161 6.7764 1.7851 19.1484
# 3 16.9283 33.0161 92.4291 3.7121 1.6819 7.0762
# 4 10.8301 6.7764 3.7121 26.0201 0.6013 -8.5432
# 5 7.3744 1.7851 1.6819 0.6013 34.4732 2.2108
# 6 13.4575 19.1484 7.0762 -8.5432 2.2108 32.6232
#
#
#
# Elastic Compliance Matrix: (Units=1/GPa)
#
#
# Indices 1 2 3 4 5 6 
#
# 1 0.017700 0.000961 -0.002354 -0.010465 -0.002904 -0.009899
# 2 0.000961 0.017134 -0.005107 -0.007881 0.000026 -0.011411
# 3 -0.002354 -0.005107 0.012929 0.000926 0.000031 0.001404
# 4 -0.010465 -0.007881 0.000926 0.052041 0.000260 0.022352
# 5 -0.002904 0.000026 0.000031 0.000260 0.029671 -0.000766
# 6 -0.009899 -0.011411 0.001404 0.022352 -0.000766 0.047035
#
#
# Mechanical properties :
#
#
# Convention : Reuss Voigt Hill
#
# Bulk Modulus (GPa) = 28.76541 42.04343 35.40442
# Shear Modulus (GPa) = 24.86361 30.88473 27.87417
#
# Velocity S-wave (km/s) = 3.49368 3.89379 3.69915
# Velocity P-wave (km/s) = 5.51322 6.39179 5.96870
#
# Compressibility (1/GPa) = 0.03476397
#
# Stress axis : x y z
#
# Youngs Moduli (GPa) = 56.49640 58.36441 77.34471
#
# Poissons Ratio (x) = -0.05610 0.18209
# Poissons Ratio (y) = -0.05431 0.39497
# Poissons Ratio (z) = 0.13300 0.29805
#
# Static dielectric constant tensor:
#      x y z
#    x 3.728580 0.142550 -0.114470 
#    y 0.142550 3.720300 0.218490 
#    z -0.114470 0.218490 3.791680 
# 
# 
# High freq. dielectric constant tensor:
#      x y z
#    x 1.796050 0.013060 -0.007660 
#    y 0.013060 1.796370 0.014220 
#    z -0.007660 0.014220 1.802560 
# 
# From -- ./inp_files/15322.got.cif
#   From: 2010.06.25/outbox.cif.g09.slc.cpg/sg2_8_cif.got.tgz:15322.got - 2010.06.27 13:26:56.
