data_PCOD8009412
_publ_section_title
;
Structure prediction by ZEFSAII (Michael W. Deem and Ramdas Pophale) SiO2 
 PCOD8009412
Probable space group: P -1
;
_chemical_formula_sum "Si O2"
_cell_formula_units_Z 16
_cell_length_a 8.621630
_cell_length_b 11.445039
_cell_length_c 11.335158
_cell_angle_alpha 88.743722
_cell_angle_beta 68.636191
_cell_angle_gamma 49.183154
_cell_volume 750.313607
_symmetry_space_group_name_H-M "P -1"
_symmetry_group_IT_number 2
_symmetry_cell_setting 'triclinic'
loop_
_space_group_symop_operation_xyz
x,y,z
-x,-y,-z
loop_
_atom_site_type_symbol
_atom_site_label
_atom_site_fract_x
_atom_site_fract_y
_atom_site_fract_z
Si Si1 0.570501 0.134139 0.584140
Si Si2 0.852784 0.812194 0.370325
Si Si3 0.977015 0.782225 0.844541
Si Si4 0.180068 0.399561 0.114227
Si Si5 0.600425 0.337478 0.417019
Si Si6 0.813346 0.524980 0.630140
Si Si7 0.068832 0.240902 0.899092
Si Si8 0.525935 0.119649 0.860490
O O1 0.310906 0.219300 0.619499
O O2 0.640361 0.223485 0.509501
O O3 0.612851 0.131054 0.711894
O O4 0.740658 0.953861 0.489478
O O5 0.925195 0.835533 0.223573
O O6 0.083833 0.653665 0.371559
O O7 0.976372 0.641044 0.844740
O O8 0.158012 0.750042 0.707215
O O9 0.727553 0.953938 0.875882
O O10 0.054893 0.771174 0.960248
O O11 0.243032 0.384331 0.233787
O O12 0.037483 0.578283 0.097817
O O13 0.415027 0.271471 0.974734
O O14 0.500000 0.500000 0.500000
O O15 0.429449 0.365560 0.368982
O O16 0.000000 0.500000 0.500000
O O17 0.328720 0.123271 0.880325
#
# Coordination Sequence:
#
# PCOD8009412 Si02
#       8
#     2   2   2   2   2   2   2   2
#     4  10  22  40  63  94 127 167 208 263 318 367
#     4   9  20  40  67  94 119 161 222 265 299 371
#     4  11  23  39  60  96 132 168 203 267 323 372
#     4  10  21  39  71  95 120 166 224 263 300 373
#     4  12  28  41  62  96 134 167 207 265 330 381
#     4  11  22  42  68  92 121 167 222 260 307 380
#     4   9  19  38  67  95 123 165 217 261 307 369
#     4  10  21  36  63  93 125 167 213 257 307 379
#
# _framework density 21.324415999999999
#
# number of rings (size 3 to 8) (size 9 to 14) (size 15 to 20)
#    0.000    1.750    1.250    3.750    8.750    2.500 
#    0.000    5.000    0.000    0.000    0.000    0.000 
#    0.000    0.000    0.000    0.000    0.000    0.000 
#
# Total GULP energy -198304.034905 kJ/mol
# GULP energy per Si atom -12394.002182 kJ/mol
# Density = 2.127588 g / cm^3
# Si number density = 21.324416 Si / 1000 Ang^3
#
#
#
# Elastic Constant Matrix: (Units=GPa)
#
#
# Indices 1 2 3 4 5 6 
#
# 1 43.9486 23.6100 39.7546 -1.5188 8.3790 -1.6687
# 2 23.6100 81.9153 63.0011 -4.1640 1.0451 -11.6172
# 3 39.7546 63.0011 184.5817 -9.5248 26.8010 10.0847
# 4 -1.5188 -4.1640 -9.5248 41.7854 0.6894 1.0693
# 5 8.3790 1.0451 26.8010 0.6894 29.9352 -4.9551
# 6 -1.6687 -11.6172 10.0847 1.0693 -4.9551 21.2164
#
#
#
# Elastic Compliance Matrix: (Units=1/GPa)
#
#
# Indices 1 2 3 4 5 6 
#
# 1 0.030223 -0.005654 -0.003906 -0.000278 -0.004752 0.000042
# 2 -0.005654 0.024541 -0.010311 -0.000872 0.013467 0.021083
# 3 -0.003906 -0.010311 0.012483 0.002258 -0.012234 -0.014858
# 4 -0.000278 -0.000872 0.002258 0.024490 -0.003060 -0.003522
# 5 -0.004752 0.013467 -0.012234 -0.003060 0.049343 0.024494
# 6 0.000042 0.021083 -0.014858 -0.003522 0.024494 0.071641
#
#
# Mechanical properties :
#
#
# Convention : Reuss Voigt Hill
#
# Bulk Modulus (GPa) = 36.35786 62.57522 49.46654
# Shear Modulus (GPa) = 19.11079 30.85940 24.98510
#
# Velocity S-wave (km/s) = 2.99690 3.80826 3.42667
# Velocity P-wave (km/s) = 5.39092 6.98178 6.23728
#
# Compressibility (1/GPa) = 0.02750437
#
# Stress axis : x y z
#
# Youngs Moduli (GPa) = 33.08773 40.74735 80.10978
#
# Poissons Ratio (x) = 0.23040 0.31291
# Poissons Ratio (y) = 0.18709 0.82601
# Poissons Ratio (z) = 0.12924 0.42014
#
# Static dielectric constant tensor:
#      x y z
#    x 3.655200 -0.197670 0.269240 
#    y -0.197670 3.809940 -0.095660 
#    z 0.269240 -0.095660 4.591660 
# 
# 
# High freq. dielectric constant tensor:
#      x y z
#    x 1.789920 -0.014700 0.021570 
#    y -0.014700 1.842380 -0.003580 
#    z 0.021570 -0.003580 1.869850 
# 
# From -- ./inp_files/283044.got.cif
#   From: 2010.06.25/outbox.cif.g09.slc.cpg/sg2_142_cif.got.tgz:283044.got - 2010.06.27 13:26:56.
