data_PCOD8009211
_publ_section_title
;
Structure prediction by ZEFSAII (Michael W. Deem and Ramdas Pophale) SiO2 
 PCOD8009211
Probable space group: P -1
;
_chemical_formula_sum "Si O2"
_cell_formula_units_Z 16
_cell_length_a 11.504216
_cell_length_b 15.496149
_cell_length_c 15.373596
_cell_angle_alpha 26.886194
_cell_angle_beta 66.139490
_cell_angle_gamma 48.548175
_cell_volume 776.708986
_symmetry_space_group_name_H-M "P -1"
_symmetry_group_IT_number 2
_symmetry_cell_setting 'triclinic'
loop_
_space_group_symop_operation_xyz
x,y,z
-x,-y,-z
loop_
_atom_site_type_symbol
_atom_site_label
_atom_site_fract_x
_atom_site_fract_y
_atom_site_fract_z
Si Si1 0.788808 0.256281 0.121605
Si Si2 0.141998 0.563840 0.482091
Si Si3 0.757278 0.886056 0.243800
Si Si4 0.883219 0.820202 0.931852
Si Si5 0.265885 0.835210 0.163493
Si Si6 0.899575 0.375664 0.367845
Si Si7 0.509529 0.563801 0.079445
Si Si8 0.351082 0.676732 0.566992
O O1 0.676903 0.435428 0.080893
O O2 0.921255 0.284773 0.029577
O O3 0.648957 0.381849 0.970728
O O4 0.900611 0.938920 0.391443
O O5 0.276463 0.289905 0.625963
O O6 0.140687 0.783101 0.254839
O O7 0.207029 0.480397 0.637435
O O8 0.936067 0.698228 0.420529
O O9 0.801527 0.979589 0.067083
O O10 0.574568 0.146835 0.117367
O O11 0.763604 0.000849 0.890877
O O12 0.767717 0.012795 0.708993
O O13 0.923389 0.551431 0.154486
O O14 0.480922 0.541822 0.354418
O O15 0.776705 0.372743 0.347444
O O16 0.580764 0.358124 0.323965
#
# Coordination Sequence:
#
# PCOD8009211 Si02
#       8
#     2   2   2   2   2   2   2   2
#     4  10  22  44  68  84 121 156 212 254 295 354
#     4  11  20  35  59  91 127 156 196 245 305 360
#     4  10  21  36  58  94 123 156 196 249 302 362
#     4  11  22  39  62  91 121 167 200 240 303 364
#     4  11  20  36  59  89 123 158 198 243 302 359
#     4  11  22  40  61  90 125 163 200 243 305 360
#     4  10  21  44  65  89 119 163 199 258 303 342
#     4  10  24  39  59  91 126 160 199 246 303 366
#
# _framework density 20.599737000000001
#
# number of rings (size 3 to 8) (size 9 to 14) (size 15 to 20)
#    0.000    1.500    5.000    0.750    0.000    5.500 
#    0.000    8.750    0.000    0.000    0.000    0.000 
#    0.000    0.000    0.000    0.000    0.000    0.000 
#
# Total GULP energy -198426.016145 kJ/mol
# GULP energy per Si atom -12401.626009 kJ/mol
# Density = 2.055285 g / cm^3
# Si number density = 20.599737 Si / 1000 Ang^3
#
#
#
# Elastic Constant Matrix: (Units=GPa)
#
#
# Indices 1 2 3 4 5 6 
#
# 1 71.7873 29.1339 57.5555 4.5535 2.3919 -0.4111
# 2 29.1339 111.4344 37.8545 -3.2665 7.8154 9.4921
# 3 57.5555 37.8545 111.2014 7.8925 -12.3181 5.8017
# 4 4.5535 -3.2665 7.8925 24.4350 2.3002 1.2865
# 5 2.3919 7.8154 -12.3181 2.3002 40.7334 1.5374
# 6 -0.4111 9.4921 5.8017 1.2865 1.5374 28.3385
#
#
#
# Elastic Compliance Matrix: (Units=1/GPa)
#
#
# Indices 1 2 3 4 5 6 
#
# 1 0.025750 -0.002200 -0.013341 -0.000508 -0.005252 0.004150
# 2 -0.002200 0.011168 -0.003071 0.003343 -0.003013 -0.003132
# 3 -0.013341 -0.003071 0.018213 -0.004326 0.007241 -0.003090
# 4 -0.000508 0.003343 -0.004326 0.043372 -0.004294 -0.001978
# 5 -0.005252 -0.003013 0.007241 -0.004294 0.027939 -0.001870
# 6 0.004150 -0.003132 -0.003090 -0.001978 -0.001870 0.037221
#
#
# Mechanical properties :
#
#
# Convention : Reuss Voigt Hill
#
# Bulk Modulus (GPa) = 55.84071 60.39008 58.11539
# Shear Modulus (GPa) = 24.17121 30.02667 27.09894
#
# Velocity S-wave (km/s) = 3.42917 3.82203 3.63092
# Velocity P-wave (km/s) = 6.54563 6.98976 6.77134
#
# Compressibility (1/GPa) = 0.01790808
#
# Stress axis : x y z
#
# Youngs Moduli (GPa) = 38.83476 89.53850 54.90444
#
# Poissons Ratio (x) = 0.19701 0.73248
# Poissons Ratio (y) = 0.08545 0.16859
# Poissons Ratio (z) = 0.51810 0.27494
#
# Static dielectric constant tensor:
#      x y z
#    x 3.563060 0.110980 0.076440 
#    y 0.110980 3.738850 -0.092180 
#    z 0.076440 -0.092180 3.773570 
# 
# 
# High freq. dielectric constant tensor:
#      x y z
#    x 1.796890 0.008450 0.011180 
#    y 0.008450 1.797100 -0.001680 
#    z 0.011180 -0.001680 1.806770 
# 
# From -- ./inp_files/434222.got.cif
#   From: 2010.06.25/outbox.cif.g09.slc.cpg/sg2_218_cif.got.tgz:434222.got - 2010.06.27 13:26:56.
