data_PCOD8009282
_publ_section_title
;
Structure prediction by ZEFSAII (Michael W. Deem and Ramdas Pophale) SiO2 
 PCOD8009282
Probable space group: P -1
;
_chemical_formula_sum "Si O2"
_cell_formula_units_Z 12
_cell_length_a 21.886421
_cell_length_b 6.175085
_cell_length_c 6.356965
_cell_angle_alpha 91.149066
_cell_angle_beta 114.417352
_cell_angle_gamma 48.417255
_cell_volume 542.841947
_symmetry_space_group_name_H-M "P -1"
_symmetry_group_IT_number 2
_symmetry_cell_setting 'triclinic'
loop_
_space_group_symop_operation_xyz
x,y,z
-x,-y,-z
loop_
_atom_site_type_symbol
_atom_site_label
_atom_site_fract_x
_atom_site_fract_y
_atom_site_fract_z
Si Si1 0.876421 0.627352 0.394981
Si Si2 0.055698 0.263884 0.885115
Si Si3 0.703489 0.734302 0.231344
Si Si4 0.617934 0.247018 0.434202
Si Si5 0.215914 0.831835 0.397715
Si Si6 0.554176 0.069994 0.690001
O O1 0.895417 0.664485 0.187445
O O2 0.803654 0.594941 0.279370
O O3 0.978506 0.306790 0.636963
O O4 0.835914 0.920934 0.481012
O O5 0.000000 0.500000 0.000000
O O6 0.140507 0.926170 0.111308
O O7 0.727056 0.505084 0.437845
O O8 0.639213 0.076491 0.242986
O O9 0.637688 0.781266 0.955877
O O10 0.708407 0.190352 0.615570
O O11 0.607390 0.099782 0.601702
O O12 0.522204 0.613638 0.277537
O O13 0.500000 0.000000 0.500000
#
# Coordination Sequence:
#
# PCOD8009282 Si02
#       6
#     2   2   2   2   2   2
#     4   9  20  38  60  85 119 157 193 240 292 350
#     4   9  18  38  61  85 119 156 192 236 294 351
#     4  11  23  39  61  89 119 156 201 246 296 351
#     4  10  23  41  60  85 120 160 196 245 298 350
#     4  10  21  36  60  89 118 153 196 244 292 349
#     4  11  24  40  61  88 119 158 202 247 297 352
#
# _framework density 22.105881
#
# number of rings (size 3 to 8) (size 9 to 14) (size 15 to 20)
#    0.000    2.000    0.000    2.500    0.000   11.333 
#    0.000    7.500    0.000    0.000    0.000    0.000 
#    0.000    0.000    0.000    0.000    0.000    0.000 
#
# Total GULP energy -148765.149159 kJ/mol
# GULP energy per Si atom -12397.095763 kJ/mol
# Density = 2.205557 g / cm^3
# Si number density = 22.105881 Si / 1000 Ang^3
#
#
#
# Elastic Constant Matrix: (Units=GPa)
#
#
# Indices 1 2 3 4 5 6 
#
# 1 160.0727 57.2680 75.8217 -6.4008 4.0857 -13.3426
# 2 57.2680 50.2453 46.1295 -15.7919 6.1141 4.5293
# 3 75.8217 46.1295 181.6065 -37.4631 19.8417 2.1282
# 4 -6.4008 -15.7919 -37.4631 30.9534 -4.8655 -4.4210
# 5 4.0857 6.1141 19.8417 -4.8655 36.5864 3.2873
# 6 -13.3426 4.5293 2.1282 -4.4210 3.2873 30.3659
#
#
#
# Elastic Compliance Matrix: (Units=1/GPa)
#
#
# Indices 1 2 3 4 5 6 
#
# 1 0.014018 -0.016035 -0.003788 -0.008593 0.001359 0.007418
# 2 -0.016035 0.045711 -0.001109 0.016757 -0.002019 -0.011128
# 3 -0.003788 -0.001109 0.009784 0.009913 -0.003346 -0.000379
# 4 -0.008593 0.016757 0.009913 0.051076 -0.000471 0.000518
# 5 0.001359 -0.002019 -0.003346 -0.000471 0.029461 -0.002125
# 6 0.007418 -0.011128 -0.000379 0.000518 -0.002125 0.038183
#
#
# Mechanical properties :
#
#
# Convention : Reuss Voigt Hill
#
# Bulk Modulus (GPa) = 36.16454 83.37366 59.76910
# Shear Modulus (GPa) = 20.89313 33.76151 27.32732
#
# Velocity S-wave (km/s) = 3.07765 3.91226 3.51978
# Velocity P-wave (km/s) = 5.38743 7.62923 6.60415
#
# Compressibility (1/GPa) = 0.02765140
#
# Stress axis : x y z
#
# Youngs Moduli (GPa) = 71.33755 21.87639 102.20411
#
# Poissons Ratio (x) = 0.35078 0.38711
# Poissons Ratio (y) = 1.14386 0.11334
# Poissons Ratio (z) = 0.27020 0.02426
#
# Static dielectric constant tensor:
#      x y z
#    x 4.123990 -0.376690 0.187570 
#    y -0.376690 3.915330 -0.181650 
#    z 0.187570 -0.181650 4.152150 
# 
# 
# High freq. dielectric constant tensor:
#      x y z
#    x 1.880910 -0.027820 0.002890 
#    y -0.027820 1.851070 -0.009840 
#    z 0.002890 -0.009840 1.875830 
# 
# From -- ./inp_files/3047.got.cif
#   From: 2010.06.25/outbox.cif.g09.slc.cpg/sg2_2_cif.got.tgz:3047.got - 2010.06.27 13:26:56.
