data_PCOD8009791
_publ_section_title
;
Structure prediction by ZEFSAII (Michael W. Deem and Ramdas Pophale) SiO2 
 PCOD8009791
Probable space group: P -1
;
_chemical_formula_sum "Si O2"
_cell_formula_units_Z 16
_cell_length_a 20.005513
_cell_length_b 9.105301
_cell_length_c 19.467629
_cell_angle_alpha 50.581097
_cell_angle_beta 158.922179
_cell_angle_gamma 138.294456
_cell_volume 819.838204
_symmetry_space_group_name_H-M "P -1"
_symmetry_group_IT_number 2
_symmetry_cell_setting 'triclinic'
loop_
_space_group_symop_operation_xyz
x,y,z
-x,-y,-z
loop_
_atom_site_type_symbol
_atom_site_label
_atom_site_fract_x
_atom_site_fract_y
_atom_site_fract_z
Si Si1 0.761893 0.612588 0.217229
Si Si2 0.660057 0.944052 0.476466
Si Si3 0.031273 0.137011 0.285250
Si Si4 0.831094 0.252748 0.941881
Si Si5 0.078320 0.545718 0.460216
Si Si6 0.274029 0.136886 0.149259
Si Si7 0.780788 0.489122 0.537065
Si Si8 0.840289 0.118579 0.745387
O O1 0.845878 0.579670 0.379981
O O2 0.839686 0.503818 0.265823
O O3 0.867544 0.876650 0.226989
O O4 0.500000 0.500000 0.000000
O O5 0.400264 0.768033 0.266331
O O6 0.775631 0.825505 0.591134
O O7 0.739428 0.182182 0.444495
O O8 0.704788 0.977555 0.590411
O O9 0.144279 0.280332 0.420114
O O10 0.899955 0.225635 0.092046
O O11 0.806724 0.056982 0.927600
O O12 0.000000 0.500000 0.000000
O O13 0.062194 0.447016 0.398313
O O14 0.521044 0.355107 0.304554
O O15 0.278896 0.044412 0.255991
O O16 0.101023 0.213022 0.960487
O O17 0.821475 0.333799 0.672495
#
# Coordination Sequence:
#
# PCOD8009791 Si02
#       8
#     2   2   2   2   2   2   2   2
#     4  10  21  40  67  90 118 154 200 252 302 370
#     4  10  21  40  62  86 127 160 205 254 295 362
#     4  11  25  40  60  94 124 159 204 251 309 353
#     4  12  24  37  60  91 122 163 209 249 294 358
#     4   9  20  39  64  90 114 160 201 238 311 364
#     4  11  22  38  61  85 118 167 210 248 299 358
#     4  11  23  39  62  86 128 158 196 256 302 356
#     4  10  21  37  61  86 116 167 215 243 299 355
#
# _framework density 19.516045999999999
#
# number of rings (size 3 to 8) (size 9 to 14) (size 15 to 20)
#    0.000    1.500    3.750    1.875    1.750    4.000 
#    0.000    0.625    0.000    0.000    0.000    0.000 
#    0.000    0.000    0.000    0.000    0.000    0.000 
#
# Total GULP energy -198437.949562 kJ/mol
# GULP energy per Si atom -12402.371848 kJ/mol
# Density = 1.947163 g / cm^3
# Si number density = 19.516046 Si / 1000 Ang^3
#
#
#
# Elastic Constant Matrix: (Units=GPa)
#
#
# Indices 1 2 3 4 5 6 
#
# 1 92.0731 26.4618 34.2810 12.5176 -1.1597 -2.3029
# 2 26.4618 67.4537 37.2131 7.2386 -8.1677 0.3372
# 3 34.2810 37.2131 110.6211 3.9982 12.3029 8.2708
# 4 12.5176 7.2386 3.9982 25.3066 4.0527 -6.3050
# 5 -1.1597 -8.1677 12.3029 4.0527 31.3315 -2.4561
# 6 -2.3029 0.3372 8.2708 -6.3050 -2.4561 34.5354
#
#
#
# Elastic Compliance Matrix: (Units=1/GPa)
#
#
# Indices 1 2 3 4 5 6 
#
# 1 0.013707 -0.002650 -0.003439 -0.005572 0.001957 0.000885
# 2 -0.002650 0.021539 -0.007348 -0.004868 0.009121 0.001133
# 3 -0.003439 -0.007348 0.013660 0.002014 -0.007952 -0.003627
# 4 -0.005572 -0.004868 0.002014 0.046350 -0.007704 0.007108
# 5 0.001957 0.009121 -0.007952 -0.007704 0.038744 0.003295
# 6 0.000885 0.001133 -0.003627 0.007108 0.003295 0.031404
#
#
# Mechanical properties :
#
#
# Convention : Reuss Voigt Hill
#
# Bulk Modulus (GPa) = 45.38505 51.78444 48.58474
# Shear Modulus (GPa) = 25.04734 29.71417 27.38076
#
# Velocity S-wave (km/s) = 3.58638 3.90622 3.74971
# Velocity P-wave (km/s) = 6.36044 6.85103 6.61029
#
# Compressibility (1/GPa) = 0.02203369
#
# Stress axis : x y z
#
# Youngs Moduli (GPa) = 72.95491 46.42700 73.20587
#
# Poissons Ratio (x) = 0.12301 0.25175
# Poissons Ratio (y) = 0.19330 0.53791
# Poissons Ratio (z) = 0.25089 0.34114
#
# Static dielectric constant tensor:
#      x y z
#    x 3.739320 0.035100 0.173080 
#    y 0.035100 3.474310 -0.187470 
#    z 0.173080 -0.187470 3.649210 
# 
# 
# High freq. dielectric constant tensor:
#      x y z
#    x 1.769620 0.004290 0.009060 
#    y 0.004290 1.746110 -0.015920 
#    z 0.009060 -0.015920 1.765610 
# 
# From -- ./inp_files/202260.got.cif
#   From: 2010.06.25/outbox.cif.g09.slc.cpg/sg2_102_cif.got.tgz:202260.got - 2010.06.27 13:26:56.
