data_PCOD8009015
_publ_section_title
;
Structure prediction by ZEFSAII (Michael W. Deem and Ramdas Pophale) SiO2 
 PCOD8009015
Probable space group: P -1
;
_chemical_formula_sum "Si O2"
_cell_formula_units_Z 12
_cell_length_a 12.529807
_cell_length_b 5.198553
_cell_length_c 9.561602
_cell_angle_alpha 84.776501
_cell_angle_beta 69.681960
_cell_angle_gamma 111.700166
_cell_volume 525.179408
_symmetry_space_group_name_H-M "P -1"
_symmetry_group_IT_number 2
_symmetry_cell_setting 'triclinic'
loop_
_space_group_symop_operation_xyz
x,y,z
-x,-y,-z
loop_
_atom_site_type_symbol
_atom_site_label
_atom_site_fract_x
_atom_site_fract_y
_atom_site_fract_z
Si Si1 0.985487 0.182431 0.689743
Si Si2 0.386264 0.821564 0.158284
Si Si3 0.118345 0.820768 0.571154
Si Si4 0.274305 0.210800 0.098138
Si Si5 0.553653 0.663041 0.259617
Si Si6 0.599997 0.896919 0.514453
O O1 0.927876 0.175831 0.564053
O O2 0.044080 0.512233 0.695851
O O3 0.875010 0.967724 0.853158
O O4 0.093333 0.066364 0.650043
O O5 0.302779 0.506397 0.148758
O O6 0.452017 0.800677 0.275913
O O7 0.304626 0.000509 0.199112
O O8 0.500000 0.000000 0.000000
O O9 0.264609 0.875312 0.504428
O O10 0.348980 0.266197 0.915797
O O11 0.627412 0.753938 0.367939
O O12 0.465328 0.324975 0.319362
O O13 0.500000 0.000000 0.500000
#
# Coordination Sequence:
#
# PCOD8009015 Si02
#       6
#     2   2   2   2   2   2
#     4  10  22  41  68  92 121 168 208 275 303 370
#     4  10  21  35  63  95 130 161 200 269 320 371
#     4  10  23  42  64  92 126 163 221 249 319 373
#     4  11  22  40  66  97 130 160 216 267 322 370
#     4  10  24  39  60  96 126 171 212 257 328 378
#     4  11  26  41  65  89 133 177 208 263 315 391
#
# _framework density 22.849336999999998
#
# number of rings (size 3 to 8) (size 9 to 14) (size 15 to 20)
#    0.000    1.667    0.000    4.000   14.000    1.333 
#    0.000    1.667    0.000    0.000    0.000    0.000 
#    0.000    0.000    0.000    0.000    0.000    0.000 
#
# Total GULP energy -148687.089997 kJ/mol
# GULP energy per Si atom -12390.590833 kJ/mol
# Density = 2.279733 g / cm^3
# Si number density = 22.849337 Si / 1000 Ang^3
#
#
#
# Elastic Constant Matrix: (Units=GPa)
#
#
# Indices 1 2 3 4 5 6 
#
# 1 126.4064 39.2667 27.6258 -26.7743 -4.4495 1.4873
# 2 39.2667 126.5387 28.9381 -37.0911 0.3115 -0.7614
# 3 27.6258 28.9381 92.9267 -24.1502 -5.4250 4.3525
# 4 -26.7743 -37.0911 -24.1502 41.0613 4.6594 -1.9853
# 5 -4.4495 0.3115 -5.4250 4.6594 27.4943 -10.3428
# 6 1.4873 -0.7614 4.3525 -1.9853 -10.3428 36.5558
#
#
#
# Elastic Compliance Matrix: (Units=1/GPa)
#
#
# Indices 1 2 3 4 5 6 
#
# 1 0.009532 -0.001475 -0.001288 0.004056 0.000673 0.000145
# 2 -0.001475 0.011156 -0.000865 0.008839 -0.001908 0.000336
# 3 -0.001288 -0.000865 0.013047 0.005891 0.001037 -0.000906
# 4 0.004056 0.008839 0.005891 0.039003 -0.004869 0.000058
# 5 0.000673 -0.001908 0.001037 -0.004869 0.041810 0.011374
# 6 0.000145 0.000336 -0.000906 0.000058 0.011374 0.030686
#
#
# Mechanical properties :
#
#
# Convention : Reuss Voigt Hill
#
# Bulk Modulus (GPa) = 37.76659 59.72589 48.74624
# Shear Modulus (GPa) = 30.99483 37.69171 34.34327
#
# Velocity S-wave (km/s) = 3.68705 4.06590 3.88110
# Velocity P-wave (km/s) = 5.88984 6.94535 6.43925
#
# Compressibility (1/GPa) = 0.02647843
#
# Stress axis : x y z
#
# Youngs Moduli (GPa) = 104.91250 89.63721 76.64356
#
# Poissons Ratio (x) = 0.13224 0.09869
# Poissons Ratio (y) = 0.15477 0.06633
# Poissons Ratio (z) = 0.13510 0.07758
#
# Static dielectric constant tensor:
#      x y z
#    x 4.460040 0.360000 0.341450 
#    y 0.360000 4.096150 -0.028370 
#    z 0.341450 -0.028370 4.360380 
# 
# 
# High freq. dielectric constant tensor:
#      x y z
#    x 1.901150 -0.010910 -0.008450 
#    y -0.010910 1.909470 -0.018470 
#    z -0.008450 -0.018470 1.890830 
# 
# From -- ./inp_files/63588.got.cif
#   From: 2010.06.25/outbox.cif.g09.slc.cpg/sg2_32_cif.got.tgz:63588.got - 2010.06.27 13:26:56.
