data_PCOD8009691
_publ_section_title
;
Structure prediction by ZEFSAII (Michael W. Deem and Ramdas Pophale) SiO2 
 PCOD8009691
Probable space group: P -1
;
_chemical_formula_sum "Si O2"
_cell_formula_units_Z 16
_cell_length_a 14.746215
_cell_length_b 13.881871
_cell_length_c 15.317709
_cell_angle_alpha 134.922233
_cell_angle_beta 135.358356
_cell_angle_gamma 20.215533
_cell_volume 751.744847
_symmetry_space_group_name_H-M "P -1"
_symmetry_group_IT_number 2
_symmetry_cell_setting 'triclinic'
loop_
_space_group_symop_operation_xyz
x,y,z
-x,-y,-z
loop_
_atom_site_type_symbol
_atom_site_label
_atom_site_fract_x
_atom_site_fract_y
_atom_site_fract_z
Si Si1 0.047594 0.495660 0.128362
Si Si2 0.039856 0.998067 0.266351
Si Si3 0.506773 0.638417 0.859075
Si Si4 0.803484 0.127674 0.519808
Si Si5 0.175812 0.144972 0.363703
Si Si6 0.661429 0.775198 0.350157
Si Si7 0.563272 0.631423 0.704678
Si Si8 0.553339 0.868196 0.134481
O O1 0.164985 0.539345 0.238745
O O2 0.761915 0.760245 0.149377
O O3 0.255498 0.200721 0.128024
O O4 0.000000 0.500000 0.000000
O O5 0.126000 0.034111 0.280996
O O6 0.734658 0.234227 0.193253
O O7 0.223663 0.697142 0.183425
O O8 0.052830 0.051331 0.407116
O O9 0.441397 0.777093 0.810768
O O10 0.560703 0.702128 0.009757
O O11 0.606027 0.430227 0.607918
O O12 0.640503 0.153831 0.378824
O O13 0.000000 0.000000 0.500000
O O14 0.295371 0.114307 0.509587
O O15 0.898947 0.460424 0.342839
O O16 0.386657 0.960312 0.311673
O O17 0.649750 0.799066 0.254333
#
# Coordination Sequence:
#
# PCOD8009691 Si02
#       8
#     2   2   2   2   2   2   2   2
#     4  12  26  40  65  95 131 173 219 256 304 387
#     4  11  23  39  67  94 123 171 212 259 319 385
#     4  11  23  41  62  89 134 168 209 256 321 369
#     4  10  21  37  59  88 130 167 206 261 307 379
#     4  10  22  44  69  94 128 158 214 269 336 371
#     4  10  23  45  68  94 127 166 203 279 326 380
#     4  10  23  38  56  89 129 171 207 257 312 361
#     4  12  26  44  66  95 128 174 218 262 320 380
#
# _framework density 21.283816000000002
#
# number of rings (size 3 to 8) (size 9 to 14) (size 15 to 20)
#    0.000    1.250    2.500    2.625    5.250    0.000 
#    0.000    3.750    0.000    0.000    0.000    0.000 
#    0.000    0.000    0.000    0.000    0.000    0.000 
#
# Total GULP energy -198408.284987 kJ/mol
# GULP energy per Si atom -12400.517812 kJ/mol
# Density = 2.123537 g / cm^3
# Si number density = 21.283816 Si / 1000 Ang^3
#
#
#
# Elastic Constant Matrix: (Units=GPa)
#
#
# Indices 1 2 3 4 5 6 
#
# 1 113.1910 24.4498 29.4992 -23.0717 -7.9264 -19.9185
# 2 24.4498 83.3687 2.4332 -19.6640 -11.0855 -20.9554
# 3 29.4992 2.4332 92.2978 -16.0011 -6.3678 -1.7630
# 4 -23.0717 -19.6640 -16.0011 40.5048 1.9834 6.7453
# 5 -7.9264 -11.0855 -6.3678 1.9834 44.7082 -4.1685
# 6 -19.9185 -20.9554 -1.7630 6.7453 -4.1685 38.3199
#
#
#
# Elastic Compliance Matrix: (Units=1/GPa)
#
#
# Indices 1 2 3 4 5 6 
#
# 1 0.011565 -0.000876 -0.002736 0.004189 0.001710 0.004855
# 2 -0.000876 0.016321 0.001433 0.006453 0.004545 0.007894
# 3 -0.002736 0.001433 0.012467 0.004099 0.001405 -0.000634
# 4 0.004189 0.006453 0.004099 0.031668 0.001567 0.000491
# 5 0.001710 0.004545 0.001405 0.001567 0.024471 0.005825
# 6 0.004855 0.007894 -0.000634 0.000491 0.005825 0.033455
#
#
# Mechanical properties :
#
#
# Convention : Reuss Voigt Hill
#
# Bulk Modulus (GPa) = 27.78276 44.62465 36.20371
# Shear Modulus (GPa) = 34.17569 40.20493 37.19031
#
# Velocity S-wave (km/s) = 4.01148 4.35097 4.18467
# Velocity P-wave (km/s) = 5.87689 6.80097 6.35575
#
# Compressibility (1/GPa) = 0.03599354
#
# Stress axis : x y z
#
# Youngs Moduli (GPa) = 86.46845 61.27180 80.21420
#
# Poissons Ratio (x) = 0.05367 0.21948
# Poissons Ratio (y) = 0.07575 -0.11493
# Poissons Ratio (z) = 0.23660 -0.08779
#
# Static dielectric constant tensor:
#      x y z
#    x 3.775100 -0.069080 0.119240 
#    y -0.069080 3.983870 -0.116910 
#    z 0.119240 -0.116910 4.383160 
# 
# 
# High freq. dielectric constant tensor:
#      x y z
#    x 1.822040 -0.014580 0.001090 
#    y -0.014580 1.840080 -0.008120 
#    z 0.001090 -0.008120 1.842500 
# 
# From -- ./inp_files/95207.got.cif
#   From: 2010.06.25/outbox.cif.g09.slc.cpg/sg2_48_cif.got.tgz:95207.got - 2010.06.27 13:26:56.
