data_PCOD8009941
_publ_section_title
;
Structure prediction by ZEFSAII (Michael W. Deem and Ramdas Pophale) SiO2 
 PCOD8009941
Probable space group: P -1
;
_chemical_formula_sum "Si O2"
_cell_formula_units_Z 14
_cell_length_a 5.076165
_cell_length_b 30.086996
_cell_length_c 16.248426
_cell_angle_alpha 16.804458
_cell_angle_beta 108.627912
_cell_angle_gamma 107.931667
_cell_volume 679.831955
_symmetry_space_group_name_H-M "P -1"
_symmetry_group_IT_number 2
_symmetry_cell_setting 'triclinic'
loop_
_space_group_symop_operation_xyz
x,y,z
-x,-y,-z
loop_
_atom_site_type_symbol
_atom_site_label
_atom_site_fract_x
_atom_site_fract_y
_atom_site_fract_z
Si Si1 0.700151 0.977002 0.178339
Si Si2 0.079449 0.402456 0.851645
Si Si3 0.295152 0.191134 0.682644
Si Si4 0.128420 0.709686 0.407819
Si Si5 0.332017 0.039941 0.331081
Si Si6 0.528515 0.629598 0.205587
Si Si7 0.253001 0.111629 0.476878
O O1 0.808980 0.857613 0.331954
O O2 0.700243 0.888511 0.420874
O O3 0.390371 0.034873 0.017925
O O4 0.898288 0.130136 0.930778
O O5 0.267229 0.424338 0.750851
O O6 0.033477 0.568751 0.592009
O O7 0.777016 0.331009 0.928760
O O8 0.227347 0.287457 0.133586
O O9 0.056081 0.281590 0.544646
O O10 0.555636 0.309955 0.494226
O O11 0.500000 0.000000 0.500000
O O12 0.472215 0.959746 0.409192
O O13 0.337992 0.223409 0.996343
O O14 0.013817 0.987587 0.401114
O O15 0.500000 0.500000 0.500000
#
# Coordination Sequence:
#
# PCOD8009941 Si02
#       7
#     2   2   2   2   2   2   2
#     4   9  23  37  66  90 122 155 211 242 302 359
#     4  12  24  43  57  94 124 155 202 258 299 360
#     4   9  20  39  63  90 122 158 200 253 292 361
#     4  10  21  37  63  84 123 159 195 251 304 345
#     4  12  24  45  63  85 125 164 204 249 309 356
#     4  12  27  41  64  86 122 160 205 254 306 359
#     4  12  25  39  66  92 121 165 204 251 300 368
#
# _framework density 20.593323999999999
#
# number of rings (size 3 to 8) (size 9 to 14) (size 15 to 20)
#    0.857    0.286    2.857    3.000    6.000    0.000 
#    0.000    1.429    0.000    0.000    0.000    0.000 
#    0.000    0.000    0.000    0.000    0.000    0.000 
#
# Total GULP energy -173591.794847 kJ/mol
# GULP energy per Si atom -12399.413918 kJ/mol
# Density = 2.054645 g / cm^3
# Si number density = 20.593324 Si / 1000 Ang^3
#
#
#
# Elastic Constant Matrix: (Units=GPa)
#
#
# Indices 1 2 3 4 5 6 
#
# 1 91.8695 24.5046 10.0775 -7.3252 -9.9341 -30.2110
# 2 24.5046 111.8832 36.5216 7.8168 1.6588 -28.1413
# 3 10.0775 36.5216 74.8265 -4.6904 -6.5146 -13.7494
# 4 -7.3252 7.8168 -4.6904 28.2241 -1.1373 2.3950
# 5 -9.9341 1.6588 -6.5146 -1.1373 23.0375 -7.1130
# 6 -30.2110 -28.1413 -13.7494 2.3950 -7.1130 37.5542
#
#
#
# Elastic Compliance Matrix: (Units=1/GPa)
#
#
# Indices 1 2 3 4 5 6 
#
# 1 0.018633 -0.001112 0.002846 0.004707 0.014606 0.017664
# 2 -0.001112 0.013127 -0.005378 -0.005464 -0.001014 0.007129
# 3 0.002846 -0.005378 0.017812 0.005023 0.008790 0.006125
# 4 0.004707 -0.005464 0.005023 0.039224 0.005820 0.000132
# 5 0.014606 -0.001014 0.008790 0.005820 0.060354 0.025269
# 6 0.017664 0.007129 0.006125 0.000132 0.025269 0.053201
#
#
# Mechanical properties :
#
#
# Convention : Reuss Voigt Hill
#
# Bulk Modulus (GPa) = 23.65034 46.75408 35.20221
# Shear Modulus (GPa) = 22.34804 31.59486 26.97145
#
# Velocity S-wave (km/s) = 3.29782 3.92117 3.62293
# Velocity P-wave (km/s) = 5.10003 6.57675 5.88489
#
# Compressibility (1/GPa) = 0.04228269
#
# Stress axis : x y z
#
# Youngs Moduli (GPa) = 53.66804 76.17882 56.14322
#
# Poissons Ratio (x) = 0.08474 -0.15978
# Poissons Ratio (y) = 0.05970 0.30194
# Poissons Ratio (z) = -0.15274 0.40970
#
# Static dielectric constant tensor:
#      x y z
#    x 3.840650 -0.067560 -0.046170 
#    y -0.067560 3.723740 -0.203750 
#    z -0.046170 -0.203750 3.633290 
# 
# 
# High freq. dielectric constant tensor:
#      x y z
#    x 1.815110 -0.010130 -0.007250 
#    y -0.010130 1.802080 -0.010560 
#    z -0.007250 -0.010560 1.787160 
# 
# From -- ./inp_files/74416.got.cif
#   From: 2010.06.25/outbox.cif.g09.slc.cpg/sg2_38_cif.got.tgz:74416.got - 2010.06.27 13:26:56.
