data_PCOD8009024
_publ_section_title
;
Structure prediction by ZEFSAII (Michael W. Deem and Ramdas Pophale) SiO2 
 PCOD8009024
Probable space group: P -1
;
_chemical_formula_sum "Si O2"
_cell_formula_units_Z 16
_cell_length_a 12.182940
_cell_length_b 17.973744
_cell_length_c 8.961939
_cell_angle_alpha 51.393813
_cell_angle_beta 59.673662
_cell_angle_gamma 29.714304
_cell_volume 756.664462
_symmetry_space_group_name_H-M "P -1"
_symmetry_group_IT_number 2
_symmetry_cell_setting 'triclinic'
loop_
_space_group_symop_operation_xyz
x,y,z
-x,-y,-z
loop_
_atom_site_type_symbol
_atom_site_label
_atom_site_fract_x
_atom_site_fract_y
_atom_site_fract_z
Si Si1 0.744157 0.884081 0.004276
Si Si2 0.977051 0.862653 0.646073
Si Si3 0.847896 0.946543 0.123155
Si Si4 0.279639 0.575030 0.366333
Si Si5 0.514097 0.726087 0.858362
Si Si6 0.880879 0.104141 0.227276
Si Si7 0.883210 0.483141 0.681628
Si Si8 0.649214 0.492958 0.265844
O O1 0.739634 0.937716 0.098750
O O2 0.935950 0.684914 0.131482
O O3 0.774453 0.938449 0.777799
O O4 0.500000 0.000000 0.000000
O O5 0.124661 0.822203 0.722132
O O6 0.108330 0.698080 0.684229
O O7 0.910305 0.977748 0.420333
O O8 0.049894 0.774289 0.290178
O O9 0.656938 0.088844 0.195938
O O10 0.936188 0.982313 0.917866
O O11 0.245055 0.510876 0.350639
O O12 0.470579 0.535275 0.250125
O O13 0.373555 0.474977 0.582244
O O14 0.363904 0.736551 0.872203
O O15 0.699238 0.645687 0.712388
O O16 0.640823 0.603029 0.065230
O O17 0.000000 0.500000 0.500000
#
# Coordination Sequence:
#
# PCOD8009024 Si02
#       8
#     2   2   2   2   2   2   2   2
#     4  10  23  45  64  86 126 172 215 262 308 366
#     4  10  21  38  59  97 125 170 207 255 313 381
#     4  10  22  41  63  95 131 166 205 254 318 381
#     4  10  23  42  64  93 136 166 199 260 321 381
#     4  12  23  39  66  98 125 165 207 261 317 377
#     4  10  21  35  64  94 135 161 204 251 322 385
#     4  11  26  47  65  90 125 171 220 262 310 369
#     4  11  22  37  66  99 130 160 207 259 327 371
#
# _framework density 21.145434999999999
#
# number of rings (size 3 to 8) (size 9 to 14) (size 15 to 20)
#    0.000    1.500    2.500    1.875    5.250    2.000 
#    2.250    2.500    0.000    0.000    0.000    0.000 
#    0.000    0.000    0.000    0.000    0.000    0.000 
#
# Total GULP energy -198230.440136 kJ/mol
# GULP energy per Si atom -12389.402508 kJ/mol
# Density = 2.109731 g / cm^3
# Si number density = 21.145435 Si / 1000 Ang^3
#
#
#
# Elastic Constant Matrix: (Units=GPa)
#
#
# Indices 1 2 3 4 5 6 
#
# 1 72.4436 29.5500 32.8198 3.0475 5.4694 -16.8167
# 2 29.5500 124.5789 38.8244 11.1770 -0.1079 1.9675
# 3 32.8198 38.8244 102.6255 -2.1994 -3.1123 -1.9461
# 4 3.0475 11.1770 -2.1994 23.3274 -0.1808 2.6615
# 5 5.4694 -0.1079 -3.1123 -0.1808 22.5282 -3.5109
# 6 -16.8167 1.9675 -1.9461 2.6615 -3.5109 28.5402
#
#
#
# Elastic Compliance Matrix: (Units=1/GPa)
#
#
# Indices 1 2 3 4 5 6 
#
# 1 0.020712 -0.003145 -0.005396 -0.003091 -0.003967 0.011853
# 2 -0.003145 0.010135 -0.002968 -0.004458 0.000002 -0.002338
# 3 -0.005396 -0.002968 0.012713 0.003587 0.002753 -0.002104
# 4 -0.003091 -0.004458 0.003587 0.046380 0.000739 -0.005504
# 5 -0.003967 0.000002 0.002753 0.000739 0.046280 0.003475
# 6 0.011853 -0.002338 -0.002104 -0.005504 0.003475 0.042981
#
#
# Mechanical properties :
#
#
# Convention : Reuss Voigt Hill
#
# Bulk Modulus (GPa) = 48.67929 55.78183 52.23056
# Shear Modulus (GPa) = 23.91591 28.10942 26.01267
#
# Velocity S-wave (km/s) = 3.36671 3.64996 3.51120
# Velocity P-wave (km/s) = 6.17933 6.64833 6.41812
#
# Compressibility (1/GPa) = 0.02054261
#
# Stress axis : x y z
#
# Youngs Moduli (GPa) = 48.28070 98.66877 78.65838
#
# Poissons Ratio (x) = 0.31028 0.42443
# Poissons Ratio (y) = 0.15183 0.23348
# Poissons Ratio (z) = 0.26052 0.29288
#
# Static dielectric constant tensor:
#      x y z
#    x 3.695960 -0.025210 0.179720 
#    y -0.025210 3.691180 0.006200 
#    z 0.179720 0.006200 4.148510 
# 
# 
# High freq. dielectric constant tensor:
#      x y z
#    x 1.811280 0.001100 0.017540 
#    y 0.001100 1.826450 0.000110 
#    z 0.017540 0.000110 1.839350 
# 
# From -- ./inp_files/178864.got.cif
#   From: 2010.06.25/outbox.cif.g09.slc.cpg/sg2_90_cif.got.tgz:178864.got - 2010.06.27 13:26:56.
