data_PCOD8009050
_publ_section_title
;
Structure prediction by ZEFSAII (Michael W. Deem and Ramdas Pophale) SiO2 
 PCOD8009050
Probable space group: P -1
;
_chemical_formula_sum "Si O2"
_cell_formula_units_Z 16
_cell_length_a 11.473603
_cell_length_b 17.588452
_cell_length_c 20.457580
_cell_angle_alpha 159.324669
_cell_angle_beta 136.579795
_cell_angle_gamma 54.945586
_cell_volume 902.860488
_symmetry_space_group_name_H-M "P -1"
_symmetry_group_IT_number 2
_symmetry_cell_setting 'triclinic'
loop_
_space_group_symop_operation_xyz
x,y,z
-x,-y,-z
loop_
_atom_site_type_symbol
_atom_site_label
_atom_site_fract_x
_atom_site_fract_y
_atom_site_fract_z
Si Si1 0.130080 0.732429 0.200620
Si Si2 0.667124 0.909920 0.748052
Si Si3 0.061366 0.257452 0.126729
Si Si4 0.861939 0.380202 0.034693
Si Si5 0.802528 0.530438 0.514825
Si Si6 0.130083 0.123160 0.591353
Si Si7 0.802522 0.121445 0.105831
Si Si8 0.532067 0.967130 0.343753
O O1 0.115171 0.702026 0.093499
O O2 0.061307 0.936181 0.352932
O O3 0.346344 0.820884 0.385185
O O4 0.000000 0.500000 0.000000
O O5 0.498984 0.910642 0.636200
O O6 0.655264 0.642426 0.529321
O O7 0.655267 0.007420 0.894311
O O8 0.864065 0.083855 0.937319
O O9 0.172926 0.463639 0.391529
O O10 0.030503 0.379208 0.146739
O O11 0.172947 0.098572 0.026468
O O12 0.660932 0.208708 0.843529
O O13 0.884829 0.646101 0.254624
O O14 0.727268 0.259606 0.238045
O O15 0.999998 0.692132 0.692126
O O16 0.346346 0.178905 0.743210
O O17 0.000000 0.000000 0.500000
#
# Coordination Sequence:
#
# PCOD8009050 Si02
#       8
#     2   2   2   2   2   2   2   2
#     4  10  21  36  53  70 100 141 175 211 257 317
#     4   8  14  28  39  68 100 130 163 201 253 292
#     4   8  16  24  43  66 102 130 159 207 247 298
#     4  11  18  35  52  78 106 133 175 222 261 290
#     4   8  13  24  41  63  97 135 161 190 246 310
#     4  10  21  36  53  70 100 141 175 211 257 317
#     4   8  13  24  41  63  97 135 161 190 246 310
#     4   9  20  33  52  78 106 133 173 226 257 292
#
# _framework density 17.721451999999999
#
# number of rings (size 3 to 8) (size 9 to 14) (size 15 to 20)
#    0.750    2.250    1.250    2.250    0.000    1.000 
#    2.250    2.500    0.000    0.000    0.000   14.000 
#    0.000   16.000    0.000    0.000    0.000    0.000 
#
# Total GULP energy -198212.996845 kJ/mol
# GULP energy per Si atom -12388.312303 kJ/mol
# Density = 1.768112 g / cm^3
# Si number density = 17.721452 Si / 1000 Ang^3
#
#
#
# Elastic Constant Matrix: (Units=GPa)
#
#
# Indices 1 2 3 4 5 6 
#
# 1 79.5825 56.9572 49.4976 6.5672 -27.0882 9.5742
# 2 56.9572 169.9273 65.3349 5.8287 -31.7397 17.2883
# 3 49.4976 65.3349 90.9636 15.0289 -37.1989 7.0867
# 4 6.5672 5.8287 15.0289 20.0496 -1.1975 -10.3706
# 5 -27.0882 -31.7397 -37.1989 -1.1975 42.0726 4.2272
# 6 9.5742 17.2883 7.0867 -10.3706 4.2272 16.9283
#
#
#
# Elastic Compliance Matrix: (Units=1/GPa)
#
#
# Indices 1 2 3 4 5 6 
#
# 1 0.025502 -0.000910 0.003615 -0.029404 0.021961 -0.038505
# 2 -0.000910 0.010306 0.001395 -0.014542 0.010225 -0.022056
# 3 0.003615 0.001395 0.051753 -0.083822 0.055838 -0.090429
# 4 -0.029404 -0.014542 -0.083822 0.248081 -0.121972 0.249008
# 5 0.021961 0.010225 0.055838 -0.121972 0.106341 -0.147515
# 6 -0.038505 -0.022056 -0.090429 0.249008 -0.147515 0.330614
#
#
# Mechanical properties :
#
#
# Convention : Reuss Voigt Hill
#
# Bulk Modulus (GPa) = 10.44260 76.00589 43.22424
# Shear Modulus (GPa) = 6.27891 27.05566 16.66729
#
# Velocity S-wave (km/s) = 1.88436 3.91156 3.07011
# Velocity P-wave (km/s) = 3.26188 7.96133 6.08369
#
# Compressibility (1/GPa) = 0.09576161
#
# Stress axis : x y z
#
# Youngs Moduli (GPa) = 39.21246 97.02933 19.32270
#
# Poissons Ratio (x) = 0.08829 -0.06986
# Poissons Ratio (y) = 0.03568 -0.02695
# Poissons Ratio (z) = -0.14177 -0.13535
#
# Static dielectric constant tensor:
#      x y z
#    x 5.056170 -0.708280 -2.701890 
#    y -0.708280 3.782520 0.887160 
#    z -2.701890 0.887160 6.195410 
# 
# 
# High freq. dielectric constant tensor:
#      x y z
#    x 1.663100 0.003150 -0.022110 
#    y 0.003150 1.685420 0.003690 
#    z -0.022110 0.003690 1.670170 
# 
# From -- ./inp_files/196577.got.cif
#   From: 2010.06.25/outbox.cif.g09.slc.cpg/sg2_99_cif.got.tgz:196577.got - 2010.06.27 13:26:56.
