data_PCOD8009583
_publ_section_title
;
Structure prediction by ZEFSAII (Michael W. Deem and Ramdas Pophale) SiO2 
 PCOD8009583
Probable space group: P -1
;
_chemical_formula_sum "Si O2"
_cell_formula_units_Z 16
_cell_length_a 11.306907
_cell_length_b 20.278943
_cell_length_c 8.940299
_cell_angle_alpha 88.600527
_cell_angle_beta 93.599730
_cell_angle_gamma 157.271111
_cell_volume 787.488697
_symmetry_space_group_name_H-M "P -1"
_symmetry_group_IT_number 2
_symmetry_cell_setting 'triclinic'
loop_
_space_group_symop_operation_xyz
x,y,z
-x,-y,-z
loop_
_atom_site_type_symbol
_atom_site_label
_atom_site_fract_x
_atom_site_fract_y
_atom_site_fract_z
Si Si1 0.765008 0.094892 0.932188
Si Si2 0.168616 0.418348 0.869287
Si Si3 0.034812 0.612845 0.423588
Si Si4 0.981616 0.968052 0.240808
Si Si5 0.502468 0.864395 0.705630
Si Si6 0.028807 0.582312 0.912903
Si Si7 0.631625 0.342953 0.638974
Si Si8 0.156593 0.180906 0.058499
O O1 0.072015 0.294111 0.905948
O O2 0.636224 0.002347 0.767895
O O3 0.877666 0.090667 0.041607
O O4 0.500000 0.000000 0.000000
O O5 0.528629 0.617204 0.904746
O O6 0.062511 0.378538 0.693668
O O7 0.970711 0.359018 0.972592
O O8 0.267347 0.759635 0.559695
O O9 0.198905 0.640507 0.338098
O O10 0.722468 0.423589 0.484549
O O11 0.733052 0.851377 0.359269
O O12 0.832970 0.853590 0.094289
O O13 0.242261 0.056656 0.333943
O O14 0.108696 0.104817 0.193956
O O15 0.348937 0.748201 0.840654
O O16 0.752833 0.449597 0.780151
O O17 0.000000 0.500000 0.000000
#
# Coordination Sequence:
#
# PCOD8009583 Si02
#       8
#     2   2   2   2   2   2   2   2
#     4  11  24  41  65  90 121 165 214 255 298 359
#     4  12  22  40  64  88 124 168 205 254 301 360
#     4  10  24  38  60  92 130 165 201 240 317 380
#     4  10  21  37  66  91 131 154 198 265 315 354
#     4  10  23  42  58  95 128 158 205 252 307 373
#     4  11  19  33  64  89 120 155 202 253 306 360
#     4  10  21  37  57  93 126 162 195 246 315 373
#     4  10  23  38  62 101 120 155 209 261 310 357
#
# _framework density 20.31775
#
# number of rings (size 3 to 8) (size 9 to 14) (size 15 to 20)
#    0.000    1.500    3.750    1.125    8.750    1.000 
#    0.000    0.000    0.000    3.750    0.000    0.000 
#    0.000    0.000    0.000    0.000    0.000    0.000 
#
# Total GULP energy -198389.504131 kJ/mol
# GULP energy per Si atom -12399.344008 kJ/mol
# Density = 2.027151 g / cm^3
# Si number density = 20.317750 Si / 1000 Ang^3
#
#
#
# Elastic Constant Matrix: (Units=GPa)
#
#
# Indices 1 2 3 4 5 6 
#
# 1 89.9153 37.7438 28.9547 -6.9563 -0.7537 1.0356
# 2 37.7438 127.4310 27.0800 -5.1984 -7.0998 0.3499
# 3 28.9547 27.0800 67.7006 4.4431 -0.4615 5.9144
# 4 -6.9563 -5.1984 4.4431 31.9099 6.0394 -8.2148
# 5 -0.7537 -7.0998 -0.4615 6.0394 22.7373 -2.0338
# 6 1.0356 0.3499 5.9144 -8.2148 -2.0338 40.6551
#
#
#
# Elastic Compliance Matrix: (Units=1/GPa)
#
#
# Indices 1 2 3 4 5 6 
#
# 1 0.014396 -0.003064 -0.005303 0.003966 -0.001537 0.001156
# 2 -0.003064 0.009486 -0.002587 0.000918 0.002626 0.000690
# 3 -0.005303 -0.002587 0.018732 -0.005197 0.000456 -0.003595
# 4 0.003966 0.000918 -0.005197 0.036695 -0.008752 0.007624
# 5 -0.001537 0.002626 0.000456 -0.008752 0.047132 0.000540
# 6 0.001156 0.000690 -0.003595 0.007624 0.000540 0.026652
#
#
# Mechanical properties :
#
#
# Convention : Reuss Voigt Hill
#
# Bulk Modulus (GPa) = 48.29344 52.51156 50.40250
# Shear Modulus (GPa) = 27.48702 31.81169 29.64936
#
# Velocity S-wave (km/s) = 3.68211 3.96120 3.82420
# Velocity P-wave (km/s) = 6.47286 6.84271 6.66036
#
# Compressibility (1/GPa) = 0.02070675
#
# Stress axis : x y z
#
# Youngs Moduli (GPa) = 69.46293 105.41302 53.38468
#
# Poissons Ratio (x) = 0.32299 0.28311
# Poissons Ratio (y) = 0.21284 0.13809
# Poissons Ratio (z) = 0.36837 0.27267
#
# Static dielectric constant tensor:
#      x y z
#    x 3.714840 -0.093260 -0.206590 
#    y -0.093260 3.858370 0.065720 
#    z -0.206590 0.065720 3.731060 
# 
# 
# High freq. dielectric constant tensor:
#      x y z
#    x 1.773500 0.001880 -0.007480 
#    y 0.001880 1.808640 0.003990 
#    z -0.007480 0.003990 1.785890 
# 
# From -- ./inp_files/208301.got.cif
#   From: 2010.06.25/outbox.cif.g09.slc.cpg/sg2_105_cif.got.tgz:208301.got - 2010.06.27 13:26:56.
