data_PCOD8009872
_publ_section_title
;
Structure prediction by ZEFSAII (Michael W. Deem and Ramdas Pophale) SiO2 
 PCOD8009872
Probable space group: P -1
;
_chemical_formula_sum "Si O2"
_cell_formula_units_Z 14
_cell_length_a 11.082093
_cell_length_b 13.465219
_cell_length_c 15.623924
_cell_angle_alpha 18.395868
_cell_angle_beta 88.847988
_cell_angle_gamma 96.393785
_cell_volume 669.805296
_symmetry_space_group_name_H-M "P -1"
_symmetry_group_IT_number 2
_symmetry_cell_setting 'triclinic'
loop_
_space_group_symop_operation_xyz
x,y,z
-x,-y,-z
loop_
_atom_site_type_symbol
_atom_site_label
_atom_site_fract_x
_atom_site_fract_y
_atom_site_fract_z
Si Si1 0.610285 0.248778 0.734823
Si Si2 0.965783 0.322634 0.238652
Si Si3 0.878568 0.274015 0.930275
Si Si4 0.435804 0.911985 0.698604
Si Si5 0.102199 0.446771 0.479477
Si Si6 0.331835 0.129575 0.359544
Si Si7 0.590897 0.912823 0.260885
O O1 0.753900 0.246315 0.749139
O O2 0.624181 0.626880 0.447019
O O3 0.548913 0.106898 0.757877
O O4 0.500000 0.000000 0.000000
O O5 0.045293 0.576185 0.105450
O O6 0.811565 0.183742 0.379181
O O7 0.000000 0.000000 0.500000
O O8 0.000000 0.500000 0.000000
O O9 0.936803 0.518711 0.646676
O O10 0.895161 0.921140 0.202819
O O11 0.727853 0.246348 0.965877
O O12 0.583546 0.928804 0.671762
O O13 0.404852 0.122389 0.452244
O O14 0.429992 0.128377 0.604173
O O15 0.330745 0.508416 0.038199
O O16 0.000000 0.500000 0.500000
#
# Coordination Sequence:
#
# PCOD8009872 Si02
#       7
#     2   2   2   2   2   2   2
#     4  10  21  39  60  88 119 149 208 252 286 365
#     4  12  24  40  64  91 126 163 203 254 304 366
#     4  11  23  40  64  90 122 161 209 244 302 380
#     4  10  22  39  64  87 120 161 194 255 303 358
#     4  11  24  43  62  89 127 164 198 257 312 357
#     4  10  22  41  58  91 124 151 206 246 300 361
#     4  10  21  37  62  89 116 158 201 247 306 347
#
# _framework density 20.901596000000001
#
# number of rings (size 3 to 8) (size 9 to 14) (size 15 to 20)
#    0.000    1.429    1.429    3.857    2.000    2.286 
#    2.571    0.000    0.000    0.000    0.000    0.000 
#    0.000    0.000    0.000    0.000    0.000    0.000 
#
# Total GULP energy -173493.809872 kJ/mol
# GULP energy per Si atom -12392.414991 kJ/mol
# Density = 2.085402 g / cm^3
# Si number density = 20.901596 Si / 1000 Ang^3
#
#
#
# Elastic Constant Matrix: (Units=GPa)
#
#
# Indices 1 2 3 4 5 6 
#
# 1 111.5818 50.4025 30.9910 -7.3053 -24.0378 -0.7545
# 2 50.4025 134.5725 20.3559 5.5077 -12.5156 -2.5798
# 3 30.9910 20.3559 70.7822 14.4679 -9.7885 0.7896
# 4 -7.3053 5.5077 14.4679 35.0239 6.4953 -2.6026
# 5 -24.0378 -12.5156 -9.7885 6.4953 41.6114 3.4563
# 6 -0.7545 -2.5798 0.7896 -2.6026 3.4563 28.8397
#
#
#
# Elastic Compliance Matrix: (Units=1/GPa)
#
#
# Indices 1 2 3 4 5 6 
#
# 1 0.013509 -0.004052 -0.005061 0.004680 0.004665 -0.000007
# 2 -0.004052 0.009157 -0.000316 -0.002243 0.000653 0.000441
# 3 -0.005061 -0.000316 0.018815 -0.009484 0.003045 -0.001897
# 4 0.004680 -0.002243 -0.009484 0.035222 -0.006039 0.004084
# 5 0.004665 0.000653 0.003045 -0.006039 0.028907 -0.003912
# 6 -0.000007 0.000441 -0.001897 0.004084 -0.003912 0.035603
#
#
# Mechanical properties :
#
#
# Convention : Reuss Voigt Hill
#
# Bulk Modulus (GPa) = 44.19914 57.82616 51.01265
# Shear Modulus (GPa) = 29.83067 35.44080 32.63573
#
# Velocity S-wave (km/s) = 3.78192 4.12224 3.95574
# Velocity P-wave (km/s) = 6.34530 7.09810 6.73223
#
# Compressibility (1/GPa) = 0.02262488
#
# Stress axis : x y z
#
# Youngs Moduli (GPa) = 74.02314 109.20275 53.14814
#
# Poissons Ratio (x) = 0.44249 0.26898
# Poissons Ratio (y) = 0.29994 0.01677
# Poissons Ratio (z) = 0.37463 0.03445
#
# Static dielectric constant tensor:
#      x y z
#    x 4.016710 0.119700 -0.125000 
#    y 0.119700 4.090050 0.281230 
#    z -0.125000 0.281230 3.737370 
# 
# 
# High freq. dielectric constant tensor:
#      x y z
#    x 1.821460 0.004900 -0.007370 
#    y 0.004900 1.822890 0.010700 
#    z -0.007370 0.010700 1.816520 
# 
# From -- ./inp_files/69570.got.cif
#   From: 2010.06.25/outbox.cif.g09.slc.cpg/sg2_35_cif.got.tgz:69570.got - 2010.06.27 13:26:56.
