data_PCOD8009146
_publ_section_title
;
Structure prediction by ZEFSAII (Michael W. Deem and Ramdas Pophale) SiO2 
 PCOD8009146
Probable space group: P -1
;
_chemical_formula_sum "Si O2"
_cell_formula_units_Z 16
_cell_length_a 24.652370
_cell_length_b 24.651805
_cell_length_c 8.227484
_cell_angle_alpha 49.662615
_cell_angle_beta 130.336224
_cell_angle_gamma 167.989210
_cell_volume 789.945448
_symmetry_space_group_name_H-M "P -1"
_symmetry_group_IT_number 2
_symmetry_cell_setting 'triclinic'
loop_
_space_group_symop_operation_xyz
x,y,z
-x,-y,-z
loop_
_atom_site_type_symbol
_atom_site_label
_atom_site_fract_x
_atom_site_fract_y
_atom_site_fract_z
Si Si1 0.583118 0.416467 0.074734
Si Si2 0.706287 0.293772 0.377579
Si Si3 0.099175 0.900269 0.340157
Si Si4 0.148776 0.851339 0.824603
Si Si5 0.027201 0.972491 0.252026
Si Si6 0.367742 0.632119 0.026677
Si Si7 0.500393 0.499922 0.691152
Si Si8 0.222373 0.777642 0.231624
O O1 0.595100 0.404889 0.930902
O O2 0.849629 0.651876 0.223453
O O3 0.346935 0.149337 0.222684
O O4 0.540486 0.459967 0.919640
O O5 0.663242 0.336827 0.236943
O O6 0.734213 0.265860 0.642432
O O7 0.964907 0.535212 0.307516
O O8 0.464877 0.035172 0.307496
O O9 0.135444 0.864714 0.587599
O O10 0.067333 0.932285 0.344950
O O11 0.192550 0.807405 0.972795
O O12 0.884758 0.615683 0.867418
O O13 0.384573 0.115475 0.867387
O O14 0.272644 0.229339 0.338199
O O15 0.770202 0.726905 0.338014
O O16 0.000000 0.000000 0.000000
O O17 0.500000 0.500000 0.500000
#
# Coordination Sequence:
#
# PCOD8009146 Si02
#       8
#     2   2   2   2   2   2   2   2
#     4  12  24  41  56  83 115 149 178 226 284 336
#     4   8  14  27  49  78 105 142 171 226 272 311
#     4  12  25  39  61  80 114 152 183 222 278 333
#     4  10  21  36  57  86 108 147 187 232 265 322
#     4  12  23  44  62  82 110 147 189 222 271 341
#     4  10  21  36  58  83 115 142 188 229 275 321
#     4  12  26  41  62  87 110 140 184 238 279 318
#     4   8  14  27  49  77 109 132 182 224 266 309
#
# _framework density 20.254563000000001
#
# number of rings (size 3 to 8) (size 9 to 14) (size 15 to 20)
#    0.000    1.500    2.500    3.000    3.500    0.000 
#    0.000    0.000    0.000    1.500    0.000    0.000 
#    0.000    0.000    0.000    0.000    0.000    0.000 
#
# Total GULP energy -198239.194535 kJ/mol
# GULP energy per Si atom -12389.949658 kJ/mol
# Density = 2.020846 g / cm^3
# Si number density = 20.254563 Si / 1000 Ang^3
#
#
#
# Elastic Constant Matrix: (Units=GPa)
#
#
# Indices 1 2 3 4 5 6 
#
# 1 26.5467 16.1297 -4.4842 0.4763 -11.2000 4.5716
# 2 16.1297 173.0671 20.5758 1.6918 -18.4635 8.2074
# 3 -4.4842 20.5758 104.8750 0.1985 -4.0812 2.1147
# 4 0.4763 1.6918 0.1985 37.4246 0.6550 -2.5671
# 5 -11.2000 -18.4635 -4.0812 0.6550 31.2186 -0.8345
# 6 4.5716 8.2074 2.1147 -2.5671 -0.8345 31.4310
#
#
#
# Elastic Compliance Matrix: (Units=1/GPa)
#
#
# Indices 1 2 3 4 5 6 
#
# 1 0.047670 -0.002863 0.003336 -0.001188 0.015707 -0.006090
# 2 -0.002863 0.006539 -0.001278 -0.000379 0.002650 -0.001166
# 3 0.003336 -0.001278 0.010012 -0.000122 0.001731 -0.000789
# 4 -0.001188 -0.000379 -0.000122 0.026942 -0.001166 0.002449
# 5 0.015707 0.002650 0.001731 -0.001166 0.039428 -0.002141
# 6 -0.006090 -0.001166 -0.000789 0.002449 -0.002141 0.033202
#
#
# Mechanical properties :
#
#
# Convention : Reuss Voigt Hill
#
# Bulk Modulus (GPa) = 15.97182 40.99238 28.48210
# Shear Modulus (GPa) = 26.84248 38.16599 32.50424
#
# Velocity S-wave (km/s) = 3.64436 4.34558 4.01032
# Velocity P-wave (km/s) = 5.06074 6.74250 5.96122
#
# Compressibility (1/GPa) = 0.06261026
#
# Stress axis : x y z
#
# Youngs Moduli (GPa) = 20.97773 152.93946 99.87958
#
# Poissons Ratio (x) = 0.43792 -0.33323
# Poissons Ratio (y) = 0.06007 0.12764
# Poissons Ratio (z) = -0.06999 0.19544
#
# Static dielectric constant tensor:
#      x y z
#    x 3.367180 0.050210 0.290560 
#    y 0.050210 3.902330 -0.021130 
#    z 0.290560 -0.021130 3.818190 
# 
# 
# High freq. dielectric constant tensor:
#      x y z
#    x 1.752690 0.006090 0.027810 
#    y 0.006090 1.821730 -0.002410 
#    z 0.027810 -0.002410 1.804040 
# 
# From -- ./inp_files/55187.got.cif
#   From: 2010.06.25/outbox.cif.g09.slc.cpg/sg2_28_cif.got.tgz:55187.got - 2010.06.27 13:26:56.
