data_PCOD8009644
_publ_section_title
;
Structure prediction by ZEFSAII (Michael W. Deem and Ramdas Pophale) SiO2 
 PCOD8009644
Probable space group: P -1
;
_chemical_formula_sum "Si O2"
_cell_formula_units_Z 16
_cell_length_a 13.225423
_cell_length_b 6.489601
_cell_length_c 13.670740
_cell_angle_alpha 114.333305
_cell_angle_beta 134.428250
_cell_angle_gamma 56.256002
_cell_volume 696.210498
_symmetry_space_group_name_H-M "P -1"
_symmetry_group_IT_number 2
_symmetry_cell_setting 'triclinic'
loop_
_space_group_symop_operation_xyz
x,y,z
-x,-y,-z
loop_
_atom_site_type_symbol
_atom_site_label
_atom_site_fract_x
_atom_site_fract_y
_atom_site_fract_z
Si Si1 0.518619 0.245534 0.632295
Si Si2 0.460750 0.322445 0.186765
Si Si3 0.565151 0.730814 0.629812
Si Si4 0.164155 0.552938 0.477456
Si Si5 0.877847 0.295745 0.742716
Si Si6 0.777527 0.144339 0.264317
Si Si7 0.033195 0.740066 0.743229
Si Si8 0.837329 0.666583 0.103873
O O1 0.603563 0.380991 0.780756
O O2 0.526850 0.321773 0.536175
O O3 0.339684 0.346171 0.563989
O O4 0.603235 0.953842 0.653650
O O5 0.528331 0.195509 0.315493
O O6 0.594038 0.248532 0.181277
O O7 0.327100 0.243311 0.044052
O O8 0.726478 0.506925 0.728633
O O9 0.134976 0.677310 0.376972
O O10 0.134217 0.783698 0.574606
O O11 0.052198 0.414245 0.398066
O O12 0.033464 0.332653 0.886343
O O13 0.902492 0.016456 0.732987
O O14 0.821607 0.257922 0.219644
O O15 0.830559 0.851038 0.226000
O O16 0.110501 0.608091 0.871027
#
# Coordination Sequence:
#
# PCOD8009644 Si02
#       8
#     2   2   2   2   2   2   2   2
#     4   9  21  38  61  92 116 145 189 234 293 355
#     4  11  23  38  60  87 118 154 190 236 289 342
#     4  10  21  40  63  86 118 148 186 243 293 340
#     4   9  19  36  59  89 117 145 190 242 292 340
#     4   9  21  39  59  86 117 150 192 239 288 343
#     4  10  22  38  58  87 116 151 197 239 286 342
#     4  10  21  37  59  82 118 158 193 239 284 332
#     4  10  23  40  57  83 117 157 199 235 280 339
#
# _framework density 22.981553999999999
#
# number of rings (size 3 to 8) (size 9 to 14) (size 15 to 20)
#    0.000    2.250    0.000    1.125    0.000   17.500 
#    0.000    1.250    0.000    0.000    0.000    0.000 
#    0.000    0.000    0.000    0.000    0.000    0.000 
#
# Total GULP energy -198249.180444 kJ/mol
# GULP energy per Si atom -12390.573778 kJ/mol
# Density = 2.292925 g / cm^3
# Si number density = 22.981554 Si / 1000 Ang^3
#
#
#
# Elastic Constant Matrix: (Units=GPa)
#
#
# Indices 1 2 3 4 5 6 
#
# 1 75.9664 36.6666 32.2135 7.6691 9.3520 7.6909
# 2 36.6666 121.4680 29.0555 4.4285 2.6174 -0.5840
# 3 32.2135 29.0555 63.2649 6.5418 19.0226 1.2751
# 4 7.6691 4.4285 6.5418 18.3710 0.4404 -1.7066
# 5 9.3520 2.6174 19.0226 0.4404 33.6524 4.2626
# 6 7.6909 -0.5840 1.2751 -1.7066 4.2626 23.1936
#
#
#
# Elastic Compliance Matrix: (Units=1/GPa)
#
#
# Indices 1 2 3 4 5 6 
#
# 1 0.019368 -0.003921 -0.007400 -0.005107 -0.000005 -0.006489
# 2 -0.003921 0.010165 -0.003352 0.000463 0.002010 0.001405
# 3 -0.007400 -0.003352 0.025202 -0.004514 -0.012237 0.002901
# 4 -0.005107 0.000463 -0.004514 0.058544 0.002432 0.005814
# 5 -0.000005 0.002010 -0.012237 0.002432 0.037197 -0.005932
# 6 -0.006489 0.001405 0.002901 0.005814 -0.005932 0.046661
#
#
# Mechanical properties :
#
#
# Convention : Reuss Voigt Hill
#
# Bulk Modulus (GPa) = 39.39040 50.73006 45.06023
# Shear Modulus (GPa) = 21.28150 25.89431 23.58790
#
# Velocity S-wave (km/s) = 3.04637 3.36034 3.20720
# Velocity P-wave (km/s) = 5.43609 6.09738 5.77620
#
# Compressibility (1/GPa) = 0.02538690
#
# Stress axis : x y z
#
# Youngs Moduli (GPa) = 51.63267 98.37979 39.67940
#
# Poissons Ratio (x) = 0.38575 0.29364
# Poissons Ratio (y) = 0.20245 0.13302
# Poissons Ratio (z) = 0.38210 0.32980
#
# Static dielectric constant tensor:
#      x y z
#    x 4.410550 -0.065570 0.211320 
#    y -0.065570 4.124920 0.251830 
#    z 0.211320 0.251830 3.955830 
# 
# 
# High freq. dielectric constant tensor:
#      x y z
#    x 1.913120 0.006710 0.014850 
#    y 0.006710 1.906180 0.020170 
#    z 0.014850 0.020170 1.886040 
# 
# From -- ./inp_files/525467.got.cif
#   From: 2010.06.25/outbox.cif.g09.slc.cpg/sg2_263_cif.got.tgz:525467.got - 2010.06.27 13:26:56.
