data_PCOD8009031
_publ_section_title
;
Structure prediction by ZEFSAII (Michael W. Deem and Ramdas Pophale) SiO2 
 PCOD8009031
Probable space group: P -1
;
_chemical_formula_sum "Si O2"
_cell_formula_units_Z 14
_cell_length_a 9.314768
_cell_length_b 5.139635
_cell_length_c 18.318064
_cell_angle_alpha 78.238626
_cell_angle_beta 129.962371
_cell_angle_gamma 112.677775
_cell_volume 619.009640
_symmetry_space_group_name_H-M "P -1"
_symmetry_group_IT_number 2
_symmetry_cell_setting 'triclinic'
loop_
_space_group_symop_operation_xyz
x,y,z
-x,-y,-z
loop_
_atom_site_type_symbol
_atom_site_label
_atom_site_fract_x
_atom_site_fract_y
_atom_site_fract_z
Si Si1 0.621664 0.380127 0.448459
Si Si2 0.143982 0.688709 0.194206
Si Si3 0.391228 0.335054 0.236712
Si Si4 0.074076 0.805623 0.763548
Si Si5 0.238509 0.102464 0.437067
Si Si6 0.451558 0.686038 0.868572
Si Si7 0.776093 0.822960 0.075558
O O1 0.572575 0.448703 0.346346
O O2 0.414494 0.231724 0.430048
O O3 0.753144 0.673684 0.510133
O O4 0.753545 0.178010 0.505208
O O5 0.244843 0.519392 0.184127
O O6 0.081847 0.518029 0.261123
O O7 0.936410 0.709331 0.093204
O O8 0.290196 0.003020 0.240583
O O9 0.476193 0.384408 0.180885
O O10 0.284682 0.831404 0.794626
O O11 0.971632 0.979083 0.670050
O O12 0.106211 0.905296 0.853071
O O13 0.362096 0.397469 0.899755
O O14 0.639188 0.892357 0.964504
#
# Coordination Sequence:
#
# PCOD8009031 Si02
#       7
#     2   2   2   2   2   2   2
#     4  10  21  36  61  95 126 161 215 266 314 373
#     4  11  23  40  70  93 134 164 220 264 324 373
#     4  12  24  44  63 103 134 167 207 284 322 373
#     4  11  22  43  68  95 130 174 219 263 314 400
#     4  10  21  35  65  91 123 169 215 257 313 382
#     4  10  26  41  69  94 135 173 215 262 335 381
#     4  10  22  47  67  97 123 182 220 262 309 409
#
# _framework density 22.616772999999998
#
# number of rings (size 3 to 8) (size 9 to 14) (size 15 to 20)
#    0.000    1.429    2.857    1.286   10.000    1.143 
#    0.000    1.429    0.000    0.000    0.000    0.000 
#    0.000    0.000    0.000    0.000    0.000    0.000 
#
# Total GULP energy -173573.456186 kJ/mol
# GULP energy per Si atom -12398.104013 kJ/mol
# Density = 2.256530 g / cm^3
# Si number density = 22.616773 Si / 1000 Ang^3
#
#
#
# Elastic Constant Matrix: (Units=GPa)
#
#
# Indices 1 2 3 4 5 6 
#
# 1 121.2677 35.9030 70.2306 -5.8834 8.3563 -37.4612
# 2 35.9030 97.7039 32.1345 3.2200 7.3194 -36.7861
# 3 70.2306 32.1345 145.5308 -0.5455 6.2741 -22.8385
# 4 -5.8834 3.2200 -0.5455 26.3061 -13.2217 -0.5738
# 5 8.3563 7.3194 6.2741 -13.2217 35.2779 -6.1158
# 6 -37.4612 -36.7861 -22.8385 -0.5738 -6.1158 23.6552
#
#
#
# Elastic Compliance Matrix: (Units=1/GPa)
#
#
# Indices 1 2 3 4 5 6 
#
# 1 0.025575 0.013391 -0.006635 0.007687 0.005002 0.056400
# 2 0.013391 0.031908 -0.002810 0.002325 0.003556 0.069090
# 3 -0.006635 -0.002810 0.009840 -0.001672 -0.001216 -0.005731
# 4 0.007687 0.002325 -0.001672 0.050091 0.020348 0.020652
# 5 0.005002 0.003556 -0.001216 0.020348 0.038192 0.022646
# 6 0.056400 0.069090 -0.005731 0.020652 0.022646 0.239855
#
#
# Mechanical properties :
#
#
# Convention : Reuss Voigt Hill
#
# Bulk Modulus (GPa) = 13.29505 71.22652 42.26078
# Shear Modulus (GPa) = 12.11704 32.13011 22.12358
#
# Velocity S-wave (km/s) = 2.31715 3.77322 3.13100
# Velocity P-wave (km/s) = 3.61249 7.10943 5.63889
#
# Compressibility (1/GPa) = 0.07521598
#
# Stress axis : x y z
#
# Youngs Moduli (GPa) = 39.10056 31.34000 101.62126
#
# Poissons Ratio (x) = -0.41968 0.67424
# Poissons Ratio (y) = -0.52360 0.28557
# Poissons Ratio (z) = 0.25942 0.08807
#
# Static dielectric constant tensor:
#      x y z
#    x 3.938190 -0.257240 0.267210 
#    y -0.257240 4.086820 0.021560 
#    z 0.267210 0.021560 4.166320 
# 
# 
# High freq. dielectric constant tensor:
#      x y z
#    x 1.873800 -0.020590 0.018440 
#    y -0.020590 1.889120 0.001260 
#    z 0.018440 0.001260 1.890340 
# 
# From -- ./inp_files/104837.got.cif
#   From: 2010.06.25/outbox.cif.g09.slc.cpg/sg2_53_cif.got.tgz:104837.got - 2010.06.27 13:26:56.
