data_PCOD8009530
_publ_section_title
;
Structure prediction by ZEFSAII (Michael W. Deem and Ramdas Pophale) SiO2 
 PCOD8009530
Probable space group: P -1
;
_chemical_formula_sum "Si O2"
_cell_formula_units_Z 14
_cell_length_a 15.915629
_cell_length_b 16.928116
_cell_length_c 7.796480
_cell_angle_alpha 75.827502
_cell_angle_beta 89.107744
_cell_angle_gamma 154.104509
_cell_volume 738.733631
_symmetry_space_group_name_H-M "P -1"
_symmetry_group_IT_number 2
_symmetry_cell_setting 'triclinic'
loop_
_space_group_symop_operation_xyz
x,y,z
-x,-y,-z
loop_
_atom_site_type_symbol
_atom_site_label
_atom_site_fract_x
_atom_site_fract_y
_atom_site_fract_z
Si Si1 0.634257 0.161280 0.256356
Si Si2 0.470083 0.241382 0.759356
Si Si3 0.996557 0.621853 0.039219
Si Si4 0.946360 0.045690 0.966787
Si Si5 0.699948 0.046370 0.846968
Si Si6 0.960570 0.759864 0.448233
Si Si7 0.042452 0.835406 0.789691
O O1 0.815250 0.259777 0.131231
O O2 0.447668 0.013747 0.194443
O O3 0.500000 0.000000 0.500000
O O4 0.760678 0.358069 0.208783
O O5 0.331568 0.189203 0.891031
O O6 0.322642 0.086001 0.674403
O O7 0.473061 0.164468 0.921013
O O8 0.725938 0.497678 0.565607
O O9 0.937899 0.650660 0.919148
O O10 0.091013 0.728846 0.166735
O O11 0.064412 0.200197 0.042678
O O12 0.045432 0.169331 0.718602
O O13 0.000000 0.000000 0.000000
O O14 0.821294 0.101743 0.666614
O O15 0.977898 0.808315 0.616716
#
# Coordination Sequence:
#
# PCOD8009530 Si02
#       7
#     2   2   2   2   2   2   2
#     4  11  23  35  56  85 113 153 196 235 288 338
#     4   8  20  38  57  87 112 150 195 236 279 349
#     4  10  21  40  54  80 120 148 192 245 279 335
#     4   9  21  41  58  90 123 141 192 246 278 347
#     4  10  21  37  56  83 116 151 194 242 279 336
#     4  11  19  37  63  82 117 159 188 230 297 336
#     4   9  20  40  59  85 115 153 194 235 282 349
#
# _framework density 18.951349
#
# number of rings (size 3 to 8) (size 9 to 14) (size 15 to 20)
#    0.857    1.429    1.429    2.143    0.000    6.286 
#    5.143    0.714    0.000    0.000    0.000    0.000 
#    0.000    0.000    0.000    0.000    0.000    0.000 
#
# Total GULP energy -173535.656105 kJ/mol
# GULP energy per Si atom -12395.404007 kJ/mol
# Density = 1.890822 g / cm^3
# Si number density = 18.951349 Si / 1000 Ang^3
#
#
#
# Elastic Constant Matrix: (Units=GPa)
#
#
# Indices 1 2 3 4 5 6 
#
# 1 79.4593 26.6637 42.0218 4.3084 19.5899 -21.4704
# 2 26.6637 86.6502 56.4639 15.2188 15.5576 -4.2015
# 3 42.0218 56.4639 123.3129 3.0495 22.3856 0.6237
# 4 4.3084 15.2188 3.0495 35.9620 4.9753 -2.3994
# 5 19.5899 15.5576 22.3856 4.9753 22.4223 -0.7703
# 6 -21.4704 -4.2015 0.6237 -2.3994 -0.7703 20.9603
#
#
#
# Elastic Compliance Matrix: (Units=1/GPa)
#
#
# Indices 1 2 3 4 5 6 
#
# 1 0.027820 -0.000172 -0.006480 0.001535 -0.017089 0.028204
# 2 -0.000172 0.018460 -0.007608 -0.006466 -0.003529 0.002881
# 3 -0.006480 -0.007608 0.014601 0.002825 -0.004553 -0.008441
# 4 0.001535 -0.006466 0.002825 0.031253 -0.006489 0.003532
# 5 -0.017089 -0.003529 -0.004553 -0.006489 0.067401 -0.016342
# 6 0.028204 0.002881 -0.008441 0.003532 -0.016342 0.077232
#
#
# Mechanical properties :
#
#
# Convention : Reuss Voigt Hill
#
# Bulk Modulus (GPa) = 30.90156 59.96902 45.43529
# Shear Modulus (GPa) = 18.11098 26.82044 22.46571
#
# Velocity S-wave (km/s) = 3.09472 3.76603 3.44676
# Velocity P-wave (km/s) = 5.39545 7.11498 6.31403
#
# Compressibility (1/GPa) = 0.03236083
#
# Stress axis : x y z
#
# Youngs Moduli (GPa) = 35.94480 54.17041 68.48915
#
# Poissons Ratio (x) = 0.00932 0.44381
# Poissons Ratio (y) = 0.00619 0.52108
# Poissons Ratio (z) = 0.23292 0.41214
#
# Static dielectric constant tensor:
#      x y z
#    x 3.323690 -0.003080 0.061140 
#    y -0.003080 3.446920 0.034710 
#    z 0.061140 0.034710 3.357720 
# 
# 
# High freq. dielectric constant tensor:
#      x y z
#    x 1.722710 -0.000170 0.006390 
#    y -0.000170 1.731710 0.004650 
#    z 0.006390 0.004650 1.734710 
# 
# From -- ./inp_files/314936.got.cif
#   From: 2010.06.25/outbox.cif.g09.slc.cpg/sg2_158_cif.got.tgz:314936.got - 2010.06.27 13:26:56.
