data_PCOD8009813
_publ_section_title
;
Structure prediction by ZEFSAII (Michael W. Deem and Ramdas Pophale) SiO2 
 PCOD8009813
Probable space group: P -1
;
_chemical_formula_sum "Si O2"
_cell_formula_units_Z 16
_cell_length_a 6.337517
_cell_length_b 14.844179
_cell_length_c 11.195443
_cell_angle_alpha 53.725797
_cell_angle_beta 85.476011
_cell_angle_gamma 65.732110
_cell_volume 754.475770
_symmetry_space_group_name_H-M "P -1"
_symmetry_group_IT_number 2
_symmetry_cell_setting 'triclinic'
loop_
_space_group_symop_operation_xyz
x,y,z
-x,-y,-z
loop_
_atom_site_type_symbol
_atom_site_label
_atom_site_fract_x
_atom_site_fract_y
_atom_site_fract_z
Si Si1 0.972598 0.276779 0.124159
Si Si2 0.921208 0.479756 0.789554
Si Si3 0.897380 0.716774 0.263940
Si Si4 0.043270 0.883812 0.963049
Si Si5 0.368731 0.146923 0.399235
Si Si6 0.403972 0.678018 0.703708
Si Si7 0.607602 0.094939 0.903192
Si Si8 0.977315 0.303550 0.455792
O O1 0.743980 0.344716 0.165486
O O2 0.925806 0.183490 0.111669
O O3 0.208626 0.198149 0.249250
O O4 0.025357 0.378145 0.970202
O O5 0.639497 0.551582 0.766198
O O6 0.987175 0.412901 0.711135
O O7 0.029357 0.577781 0.711095
O O8 0.607986 0.774881 0.236770
O O9 0.013716 0.681012 0.416433
O O10 0.972894 0.814267 0.124542
O O11 0.832552 0.028481 0.853962
O O12 0.292693 0.880505 0.994157
O O13 0.554327 0.203712 0.355064
O O14 0.211157 0.180878 0.499785
O O15 0.500000 0.000000 0.500000
O O16 0.254478 0.710211 0.561681
O O17 0.500000 0.000000 0.000000
#
# Coordination Sequence:
#
# PCOD8009813 Si02
#       8
#     2   2   2   2   2   2   2   2
#     4  10  22  39  64  91 118 160 205 251 306 360
#     4  10  22  40  62  91 124 158 209 252 300 361
#     4  10  21  37  61  90 125 162 198 247 306 359
#     4   9  20  37  58  91 120 158 205 244 302 366
#     4  10  24  44  61  89 122 160 206 254 306 364
#     4  10  23  41  61  88 124 161 209 252 302 353
#     4   9  19  37  55  85 124 155 200 249 300 356
#     4  10  23  40  61  92 123 166 205 247 304 363
#
# _framework density 21.206778
#
# number of rings (size 3 to 8) (size 9 to 14) (size 15 to 20)
#    0.000    2.250    0.000    0.750    1.750   15.000 
#    9.000    0.000    0.000    0.000    0.000    0.000 
#    0.000    0.000    0.000    0.000    0.000    0.000 
#
# Total GULP energy -198361.097609 kJ/mol
# GULP energy per Si atom -12397.568601 kJ/mol
# Density = 2.115851 g / cm^3
# Si number density = 21.206778 Si / 1000 Ang^3
#
#
#
# Elastic Constant Matrix: (Units=GPa)
#
#
# Indices 1 2 3 4 5 6 
#
# 1 119.5600 49.8481 45.0243 3.7658 23.0585 19.2656
# 2 49.8481 144.5042 58.0309 -7.5747 17.2883 -0.8045
# 3 45.0243 58.0309 91.6505 5.2386 17.8664 -4.0184
# 4 3.7658 -7.5747 5.2386 34.8488 4.3778 2.0046
# 5 23.0585 17.2883 17.8664 4.3778 19.9894 4.6330
# 6 19.2656 -0.8045 -4.0184 2.0046 4.6330 29.1049
#
#
#
# Elastic Compliance Matrix: (Units=1/GPa)
#
#
# Indices 1 2 3 4 5 6 
#
# 1 0.013799 -0.002105 -0.004182 0.000227 -0.008454 -0.008440
# 2 -0.002105 0.010196 -0.004987 0.003498 -0.002982 0.001220
# 3 -0.004182 -0.004987 0.018127 -0.002732 -0.007995 0.006594
# 4 0.000227 0.003498 -0.002732 0.030836 -0.007275 -0.001397
# 5 -0.008454 -0.002982 -0.007995 -0.007275 0.072638 -0.006652
# 6 -0.008440 0.001220 0.006594 -0.001397 -0.006652 0.042044
#
#
# Mechanical properties :
#
#
# Convention : Reuss Voigt Hill
#
# Bulk Modulus (GPa) = 51.08387 73.50235 62.29311
# Shear Modulus (GPa) = 23.07210 30.30937 26.69073
#
# Velocity S-wave (km/s) = 3.30200 3.78462 3.55152
# Velocity P-wave (km/s) = 6.21919 7.33709 6.80115
#
# Compressibility (1/GPa) = 0.01957565
#
# Stress axis : x y z
#
# Youngs Moduli (GPa) = 72.46650 98.07963 55.16760
#
# Poissons Ratio (x) = 0.20642 0.23068
# Poissons Ratio (y) = 0.15252 0.27512
# Poissons Ratio (z) = 0.30302 0.48912
#
# Static dielectric constant tensor:
#      x y z
#    x 4.012200 -0.068640 0.156990 
#    y -0.068640 4.158080 -0.056250 
#    z 0.156990 -0.056250 3.604050 
# 
# 
# High freq. dielectric constant tensor:
#      x y z
#    x 1.835590 0.005220 0.010000 
#    y 0.005220 1.849370 -0.001520 
#    z 0.010000 -0.001520 1.809590 
# 
# From -- ./inp_files/365109.got.cif
#   From: 2010.06.25/outbox.cif.g09.slc.cpg/sg2_183_cif.got.tgz:365109.got - 2010.06.27 13:26:56.
