data_PCOD8009912
_publ_section_title
;
Structure prediction by ZEFSAII (Michael W. Deem and Ramdas Pophale) SiO2 
 PCOD8009912
Probable space group: P -1
;
_chemical_formula_sum "Si O2"
_cell_formula_units_Z 16
_cell_length_a 10.777884
_cell_length_b 14.589901
_cell_length_c 4.866228
_cell_angle_alpha 110.756176
_cell_angle_beta 97.738105
_cell_angle_gamma 95.807794
_cell_volume 699.810046
_symmetry_space_group_name_H-M "P -1"
_symmetry_group_IT_number 2
_symmetry_cell_setting 'triclinic'
loop_
_space_group_symop_operation_xyz
x,y,z
-x,-y,-z
loop_
_atom_site_type_symbol
_atom_site_label
_atom_site_fract_x
_atom_site_fract_y
_atom_site_fract_z
Si Si1 0.648273 0.872377 0.844027
Si Si2 0.942140 0.709816 0.957937
Si Si3 0.026657 0.927068 0.166266
Si Si4 0.374524 0.807494 0.548808
Si Si5 0.141240 0.493428 0.458225
Si Si6 0.307139 0.918985 0.147074
Si Si7 0.808019 0.378818 0.908263
Si Si8 0.809861 0.843914 0.366788
O O1 0.516181 0.798644 0.684344
O O2 0.764487 0.845264 0.667211
O O3 0.692610 0.864460 0.162031
O O4 0.621976 0.982101 0.874868
O O5 0.853637 0.625071 0.662418
O O6 0.852488 0.737274 0.210450
O O7 0.985681 0.813268 0.915202
O O8 0.066756 0.671924 0.074336
O O9 0.935194 0.930047 0.421591
O O10 0.177197 0.939742 0.273026
O O11 0.000000 0.000000 0.000000
O O12 0.290980 0.835730 0.812768
O O13 0.309714 0.702216 0.300267
O O14 0.388384 0.887117 0.389349
O O15 0.168741 0.532362 0.203930
O O16 0.000000 0.500000 0.500000
O O17 0.231099 0.564697 0.770163
#
# Coordination Sequence:
#
# PCOD8009912 Si02
#       8
#     2   2   2   2   2   2   2   2
#     4  12  24  43  58  88 124 172 214 247 300 368
#     4   9  20  40  62  96 125 162 196 256 318 383
#     4  10  21  41  63  95 130 163 200 256 310 379
#     4  12  25  40  64  87 123 165 214 263 299 358
#     4  10  21  37  62  94 126 154 197 259 326 373
#     4  12  23  41  62  90 124 163 212 254 314 360
#     4  11  22  39  63  94 123 157 204 264 315 365
#     4  10  24  38  63  86 124 166 201 251 309 367
#
# _framework density 22.863344999999999
#
# number of rings (size 3 to 8) (size 9 to 14) (size 15 to 20)
#    0.750    0.500    2.500    4.500    1.750    5.500 
#    0.000    0.000    0.000    4.500    0.000    0.000 
#    0.000    0.000    0.000    0.000    0.000    0.000 
#
# Total GULP energy -198301.304178 kJ/mol
# GULP energy per Si atom -12393.831511 kJ/mol
# Density = 2.281131 g / cm^3
# Si number density = 22.863345 Si / 1000 Ang^3
#
#
#
# Elastic Constant Matrix: (Units=GPa)
#
#
# Indices 1 2 3 4 5 6 
#
# 1 83.5044 17.9038 23.4120 16.2648 10.1938 7.0193
# 2 17.9038 92.0606 17.7822 7.2792 3.5458 3.3515
# 3 23.4120 17.7822 85.9529 8.8652 3.8515 3.5172
# 4 16.2648 7.2792 8.8652 35.6229 5.5191 4.6862
# 5 10.1938 3.5458 3.8515 5.5191 45.0320 2.2272
# 6 7.0193 3.3515 3.5172 4.6862 2.2272 15.4938
#
#
#
# Elastic Compliance Matrix: (Units=1/GPa)
#
#
# Indices 1 2 3 4 5 6 
#
# 1 0.014672 -0.001691 -0.002898 -0.004789 -0.002162 -0.003864
# 2 -0.001691 0.011663 -0.001798 -0.000997 -0.000209 -0.001017
# 3 -0.002898 -0.001798 0.012979 -0.001419 -0.000099 -0.000801
# 4 -0.004789 -0.000997 -0.001419 0.032049 -0.002315 -0.006653
# 5 -0.002162 -0.000209 -0.000099 -0.002315 0.023082 -0.001571
# 6 -0.003864 -0.001017 -0.000801 -0.006653 -0.001571 0.068933
#
#
# Mechanical properties :
#
#
# Convention : Reuss Voigt Hill
#
# Bulk Modulus (GPa) = 37.67940 42.19043 39.93492
# Shear Modulus (GPa) = 27.02729 32.72440 29.87584
#
# Velocity S-wave (km/s) = 3.44193 3.78736 3.61877
# Velocity P-wave (km/s) = 5.68436 6.13342 5.91315
#
# Compressibility (1/GPa) = 0.02653970
#
# Stress axis : x y z
#
# Youngs Moduli (GPa) = 68.15736 85.74434 77.04681
#
# Poissons Ratio (x) = 0.14500 0.22325
# Poissons Ratio (y) = 0.11526 0.13856
# Poissons Ratio (z) = 0.19749 0.15420
#
# Static dielectric constant tensor:
#      x y z
#    x 3.896550 -0.073860 -0.127190 
#    y -0.073860 4.335860 0.624060 
#    z -0.127190 0.624060 4.764480 
# 
# 
# High freq. dielectric constant tensor:
#      x y z
#    x 1.878190 0.005240 -0.007740 
#    y 0.005240 1.897030 0.011720 
#    z -0.007740 0.011720 1.920830 
# 
# From -- ./inp_files/75078.got.cif
#   From: 2010.06.25/outbox.cif.g09.slc.cpg/sg2_38_cif.got.tgz:75078.got - 2010.06.27 13:26:56.
