data_PCOD8009149
_publ_section_title
;
Structure prediction by ZEFSAII (Michael W. Deem and Ramdas Pophale) SiO2 
 PCOD8009149
Probable space group: P -1
;
_chemical_formula_sum "Si O2"
_cell_formula_units_Z 16
_cell_length_a 24.437148
_cell_length_b 6.777018
_cell_length_c 9.829878
_cell_angle_alpha 136.497432
_cell_angle_beta 41.940004
_cell_angle_gamma 129.874424
_cell_volume 730.511466
_symmetry_space_group_name_H-M "P -1"
_symmetry_group_IT_number 2
_symmetry_cell_setting 'triclinic'
loop_
_space_group_symop_operation_xyz
x,y,z
-x,-y,-z
loop_
_atom_site_type_symbol
_atom_site_label
_atom_site_fract_x
_atom_site_fract_y
_atom_site_fract_z
Si Si1 0.360474 0.460421 0.864055
Si Si2 0.115450 0.254275 0.427713
Si Si3 0.081531 0.865009 0.777409
Si Si4 0.410479 0.960209 0.823227
Si Si5 0.081820 0.741256 0.425268
Si Si6 0.593372 0.141196 0.517978
Si Si7 0.304750 0.426769 0.247361
Si Si8 0.175940 0.275313 0.024449
O O1 0.414343 0.744902 0.833544
O O2 0.412059 0.207468 0.638714
O O3 0.342191 0.554405 0.097341
O O4 0.274846 0.337727 0.880837
O O5 0.063840 0.513087 0.663606
O O6 0.204147 0.345315 0.388023
O O7 0.130915 0.183035 0.206454
O O8 0.062083 0.961720 0.455496
O O9 0.117980 0.922042 0.585260
O O10 0.149416 0.013763 0.835802
O O11 0.000000 0.000000 0.000000
O O12 0.501758 0.184252 0.754731
O O13 0.388685 0.770968 0.629521
O O14 0.339263 0.139193 0.076705
O O15 0.150218 0.566996 0.158075
O O16 0.000000 0.500000 0.500000
O O17 0.666879 0.328444 0.567147
#
# Coordination Sequence:
#
# PCOD8009149 Si02
#       8
#     2   2   2   2   2   2   2   2
#     4  10  21  37  59  84 118 154 195 237 286 340
#     4  10  24  40  63  84 118 155 192 242 296 340
#     4  11  23  41  59  89 114 147 197 239 291 353
#     4  10  21  36  57  87 119 156 191 238 287 334
#     4  11  23  42  59  87 116 148 194 243 290 351
#     4  10  21  36  57  86 122 151 195 239 281 342
#     4  10  21  39  58  87 115 153 196 235 286 345
#     4  10  22  41  60  85 118 152 195 244 288 347
#
# _framework density 21.902463000000001
#
# number of rings (size 3 to 8) (size 9 to 14) (size 15 to 20)
#    0.000    1.750    1.250    2.250    0.000    6.000 
#    0.000    0.000    0.000    0.000    0.000    0.000 
#    0.000    0.000    0.000    0.000    0.000    0.000 
#
# Total GULP energy -198402.931476 kJ/mol
# GULP energy per Si atom -12400.183217 kJ/mol
# Density = 2.185261 g / cm^3
# Si number density = 21.902463 Si / 1000 Ang^3
#
#
#
# Elastic Constant Matrix: (Units=GPa)
#
#
# Indices 1 2 3 4 5 6 
#
# 1 76.7987 11.0233 10.9830 6.7078 8.4097 -3.9656
# 2 11.0233 96.6406 25.1028 2.4887 3.1222 -27.7348
# 3 10.9830 25.1028 67.9993 8.9446 0.2914 -3.0956
# 4 6.7078 2.4887 8.9446 18.7689 0.0310 -2.7709
# 5 8.4097 3.1222 0.2914 0.0310 49.7041 7.5905
# 6 -3.9656 -27.7348 -3.0956 -2.7709 7.5905 36.0615
#
#
#
# Elastic Compliance Matrix: (Units=1/GPa)
#
#
# Indices 1 2 3 4 5 6 
#
# 1 0.014009 -0.000750 -0.001390 -0.004086 -0.002473 0.001051
# 2 -0.000750 0.015254 -0.005288 0.002533 -0.002626 0.011943
# 3 -0.001390 -0.005288 0.017742 -0.007776 0.001004 -0.003506
# 4 -0.004086 0.002533 -0.007776 0.058910 -0.000286 0.005418
# 5 -0.002473 -0.002626 0.001004 -0.000286 0.021735 -0.006802
# 6 0.001051 0.011943 -0.003506 0.005418 -0.006802 0.038578
#
#
# Mechanical properties :
#
#
# Convention : Reuss Voigt Hill
#
# Bulk Modulus (GPa) = 31.10599 37.29521 34.20060
# Shear Modulus (GPa) = 26.06860 33.86221 29.96540
#
# Velocity S-wave (km/s) = 3.45369 3.93624 3.70284
# Velocity P-wave (km/s) = 5.48970 6.14195 5.82496
#
# Compressibility (1/GPa) = 0.03214815
#
# Stress axis : x y z
#
# Youngs Moduli (GPa) = 71.38043 65.55742 56.36427
#
# Poissons Ratio (x) = 0.04919 0.07834
# Poissons Ratio (y) = 0.05355 0.29807
# Poissons Ratio (z) = 0.09921 0.34668
#
# Static dielectric constant tensor:
#      x y z
#    x 4.274420 -0.252440 0.018270 
#    y -0.252440 3.720680 0.107640 
#    z 0.018270 0.107640 4.003320 
# 
# 
# High freq. dielectric constant tensor:
#      x y z
#    x 1.883620 -0.013630 -0.005040 
#    y -0.013630 1.835760 0.005130 
#    z -0.005040 0.005130 1.860020 
# 
# From -- ./inp_files/107787.got.cif
#   From: 2010.06.25/outbox.cif.g09.slc.cpg/sg2_54_cif.got.tgz:107787.got - 2010.06.27 13:26:56.
