data_PCOD8009684
_publ_section_title
;
Structure prediction by ZEFSAII (Michael W. Deem and Ramdas Pophale) SiO2 
 PCOD8009684
Probable space group: P -1
;
_chemical_formula_sum "Si O2"
_cell_formula_units_Z 14
_cell_length_a 24.011829
_cell_length_b 12.371161
_cell_length_c 10.288551
_cell_angle_alpha 52.619619
_cell_angle_beta 148.250060
_cell_angle_gamma 151.461876
_cell_volume 638.302588
_symmetry_space_group_name_H-M "P -1"
_symmetry_group_IT_number 2
_symmetry_cell_setting 'triclinic'
loop_
_space_group_symop_operation_xyz
x,y,z
-x,-y,-z
loop_
_atom_site_type_symbol
_atom_site_label
_atom_site_fract_x
_atom_site_fract_y
_atom_site_fract_z
Si Si1 0.080211 0.684871 0.357981
Si Si2 0.650845 0.279677 0.445936
Si Si3 0.372725 0.724518 0.311710
Si Si4 0.704373 0.952381 0.223632
Si Si5 0.639294 0.826292 0.609830
Si Si6 0.402352 0.489527 0.133918
Si Si7 0.895099 0.594237 0.456305
O O1 0.169458 0.845858 0.550300
O O2 0.141426 0.593406 0.546093
O O3 0.175498 0.861451 0.287698
O O4 0.826657 0.420915 0.043140
O O5 0.689678 0.392632 0.580297
O O6 0.858700 0.535986 0.581730
O O7 0.590871 0.054925 0.512845
O O8 0.445413 0.100820 0.093131
O O9 0.435739 0.665317 0.394203
O O10 0.867491 0.088974 0.334639
O O11 0.553660 0.658661 0.182451
O O12 0.564176 0.678972 0.434457
O O13 0.722308 0.793274 0.891216
O O14 0.255956 0.459823 0.865182
#
# Coordination Sequence:
#
# PCOD8009684 Si02
#       7
#     2   2   2   2   2   2   2
#     4  11  22  34  64  92 112 148 200 242 295 331
#     4  10  23  36  56  88 119 156 189 233 300 340
#     4  11  22  38  57  87 121 153 191 240 289 347
#     4  10  21  37  59  88 118 151 193 241 291 342
#     4  10  21  40  58  86 121 155 191 243 283 350
#     4   9  22  37  60  87 119 155 192 233 301 338
#     4  11  20  36  58  87 117 147 193 246 280 345
#
# _framework density 21.933173
#
# number of rings (size 3 to 8) (size 9 to 14) (size 15 to 20)
#    0.000    1.714    2.857    1.286    2.000    4.571 
#    0.000    7.143    0.000    5.143    0.000    0.000 
#    0.000    0.000    0.000    0.000    0.000    0.000 
#
# Total GULP energy -173458.473940 kJ/mol
# GULP energy per Si atom -12389.890996 kJ/mol
# Density = 2.188325 g / cm^3
# Si number density = 21.933173 Si / 1000 Ang^3
#
#
#
# Elastic Constant Matrix: (Units=GPa)
#
#
# Indices 1 2 3 4 5 6 
#
# 1 40.3047 30.7152 63.7644 -6.2911 12.2024 43.6798
# 2 30.7152 133.7584 42.9159 -21.8773 28.0312 26.1286
# 3 63.7644 42.9159 36.2897 -9.5456 15.7188 1.9342
# 4 -6.2911 -21.8773 -9.5456 30.0973 0.4583 6.4168
# 5 12.2024 28.0312 15.7188 0.4583 36.1997 0.2585
# 6 43.6798 26.1286 1.9342 6.4168 0.2585 34.9558
#
#
#
# Elastic Compliance Matrix: (Units=1/GPa)
#
#
# Indices 1 2 3 4 5 6 
#
# 1 -0.004870 -0.005982 0.014259 -0.003046 0.000047 0.010326
# 2 -0.005982 0.011817 0.002702 0.008984 -0.008399 -0.003094
# 3 0.014259 0.002702 0.008374 0.012564 -0.010534 -0.022530
# 4 -0.003046 0.008984 0.012564 0.045828 -0.011881 -0.011929
# 5 0.000047 -0.008399 -0.010534 -0.011881 0.038775 0.008697
# 6 0.010326 -0.003094 -0.022530 -0.011929 0.008697 0.021389
#
#
# Mechanical properties :
#
#
# Convention : Reuss Voigt Hill
#
# Bulk Modulus (GPa) = 26.82408 53.90489 40.36448
# Shear Modulus (GPa) = 44.73067 25.11437 34.92252
#
# Velocity S-wave (km/s) = 4.52088 3.38752 3.99460
# Velocity P-wave (km/s) = 6.28551 6.31906 6.30231
#
# Compressibility (1/GPa) = 0.03727993
#
# Stress axis : x y z
#
# Youngs Moduli (GPa) = -205.34364 84.62582 119.41936
#
# Poissons Ratio (x) = 0.50622 -1.70281
# Poissons Ratio (y) = -1.22835 -0.32272
# Poissons Ratio (z) = 2.92802 -0.22869
#
# Static dielectric constant tensor:
#      x y z
#    x 3.953290 0.559540 0.172460 
#    y 0.559540 4.682280 -0.179540 
#    z 0.172460 -0.179540 3.662300 
# 
# 
# High freq. dielectric constant tensor:
#      x y z
#    x 1.848040 0.034840 0.007980 
#    y 0.034840 1.871360 -0.015840 
#    z 0.007980 -0.015840 1.842230 
# 
# From -- ./inp_files/277375.got.cif
#   From: 2010.06.25/outbox.cif.g09.slc.cpg/sg2_139_cif.got.tgz:277375.got - 2010.06.27 13:26:56.
