data_PCOD8009439
_publ_section_title
;
Structure prediction by ZEFSAII (Michael W. Deem and Ramdas Pophale) SiO2 
 PCOD8009439
Probable space group: P -1
;
_chemical_formula_sum "Si O2"
_cell_formula_units_Z 14
_cell_length_a 10.990438
_cell_length_b 14.109316
_cell_length_c 7.863067
_cell_angle_alpha 96.430571
_cell_angle_beta 114.259086
_cell_angle_gamma 41.740693
_cell_volume 701.028226
_symmetry_space_group_name_H-M "P -1"
_symmetry_group_IT_number 2
_symmetry_cell_setting 'triclinic'
loop_
_space_group_symop_operation_xyz
x,y,z
-x,-y,-z
loop_
_atom_site_type_symbol
_atom_site_label
_atom_site_fract_x
_atom_site_fract_y
_atom_site_fract_z
Si Si1 0.506054 0.623235 0.866053
Si Si2 0.761072 0.625863 0.839180
Si Si3 0.622263 0.102813 0.149371
Si Si4 0.757872 0.409357 0.290791
Si Si5 0.457857 0.917732 0.251327
Si Si6 0.224861 0.401527 0.536573
Si Si7 0.228603 0.084730 0.491193
O O1 0.670824 0.568393 0.806116
O O2 0.350553 0.798696 0.857341
O O3 0.363609 0.615753 0.711982
O O4 0.646051 0.510835 0.079820
O O5 0.619536 0.778894 0.896614
O O6 0.743104 0.664383 0.640925
O O7 0.000000 0.500000 0.000000
O O8 0.777718 0.987361 0.370490
O O9 0.663925 0.014513 0.987647
O O10 0.748598 0.499154 0.441375
O O11 0.998566 0.252460 0.357168
O O12 0.595177 0.745234 0.274702
O O13 0.611012 0.922317 0.359769
O O14 0.298956 0.998569 0.335412
O O15 0.000000 0.500000 0.500000
#
# Coordination Sequence:
#
# PCOD8009439 Si02
#       7
#     2   2   2   2   2   2   2
#     4   9  22  41  63  86 125 164 209 257 307 371
#     4  10  21  36  64  90 120 157 214 252 304 371
#     4  10  21  42  59  90 125 166 199 260 311 369
#     4  11  22  40  64  90 124 163 212 257 307 374
#     4  11  21  39  62  90 127 161 206 260 313 370
#     4  12  20  38  65  91 121 167 207 252 317 367
#     4  11  24  37  61  95 124 159 209 262 314 364
#
# _framework density 19.970666000000001
#
# number of rings (size 3 to 8) (size 9 to 14) (size 15 to 20)
#    0.857    0.571    4.286    2.143    0.000    1.143 
#    2.571    0.714    0.000    0.000    0.000    0.000 
#    0.000    0.000    0.000    0.000    0.000    0.000 
#
# Total GULP energy -173483.510603 kJ/mol
# GULP energy per Si atom -12391.679329 kJ/mol
# Density = 1.992521 g / cm^3
# Si number density = 19.970666 Si / 1000 Ang^3
#
#
#
# Elastic Constant Matrix: (Units=GPa)
#
#
# Indices 1 2 3 4 5 6 
#
# 1 82.0774 23.2071 28.7293 10.8962 -2.5437 11.9335
# 2 23.2071 97.6438 34.6088 4.6983 -4.6574 7.9853
# 3 28.7293 34.6088 85.6859 14.0302 -17.5026 0.7631
# 4 10.8962 4.6983 14.0302 35.7755 0.0803 -6.4531
# 5 -2.5437 -4.6574 -17.5026 0.0803 32.4395 6.0483
# 6 11.9335 7.9853 0.7631 -6.4531 6.0483 26.9145
#
#
#
# Elastic Compliance Matrix: (Units=1/GPa)
#
#
# Indices 1 2 3 4 5 6 
#
# 1 0.015624 -0.001540 -0.003740 -0.004447 0.000399 -0.007521
# 2 -0.001540 0.012431 -0.004556 0.000121 -0.000275 -0.002785
# 3 -0.003740 -0.004556 0.017373 -0.005213 0.008561 -0.000657
# 4 -0.004447 0.000121 -0.005213 0.033383 -0.005331 0.011286
# 5 0.000399 -0.000275 0.008561 -0.005331 0.037316 -0.010002
# 6 -0.007521 -0.002785 -0.000657 0.011286 -0.010002 0.046288
#
#
# Mechanical properties :
#
#
# Convention : Reuss Voigt Hill
#
# Bulk Modulus (GPa) = 38.82445 48.72193 43.77319
# Shear Modulus (GPa) = 26.22311 30.95002 28.58657
#
# Velocity S-wave (km/s) = 3.62758 3.94099 3.78753
# Velocity P-wave (km/s) = 6.08512 6.71999 6.41042
#
# Compressibility (1/GPa) = 0.02575697
#
# Stress axis : x y z
#
# Youngs Moduli (GPa) = 64.00272 80.44494 57.56092
#
# Poissons Ratio (x) = 0.12387 0.21527
# Poissons Ratio (y) = 0.09855 0.26224
# Poissons Ratio (z) = 0.23937 0.36650
#
# Static dielectric constant tensor:
#      x y z
#    x 3.133020 -0.247090 1.353780 
#    y -0.247090 3.344700 1.291100 
#    z 1.353780 1.291100 -0.476020 
# 
# 
# High freq. dielectric constant tensor:
#      x y z
#    x 1.765010 0.011920 -0.015360 
#    y 0.011920 1.775670 -0.004490 
#    z -0.015360 -0.004490 1.775680 
# 
# From -- ./inp_files/179972.got.cif
#   From: 2010.06.25/outbox.cif.g09.slc.cpg/sg2_90_cif.got.tgz:179972.got - 2010.06.27 13:26:56.
