data_PCOD8009609
_publ_section_title
;
Structure prediction by ZEFSAII (Michael W. Deem and Ramdas Pophale) SiO2 
 PCOD8009609
Probable space group: P -1
;
_chemical_formula_sum "Si O2"
_cell_formula_units_Z 16
_cell_length_a 12.636647
_cell_length_b 6.716238
_cell_length_c 13.483422
_cell_angle_alpha 104.542407
_cell_angle_beta 46.044935
_cell_angle_gamma 84.028120
_cell_volume 731.035353
_symmetry_space_group_name_H-M "P -1"
_symmetry_group_IT_number 2
_symmetry_cell_setting 'triclinic'
loop_
_space_group_symop_operation_xyz
x,y,z
-x,-y,-z
loop_
_atom_site_type_symbol
_atom_site_label
_atom_site_fract_x
_atom_site_fract_y
_atom_site_fract_z
Si Si1 0.182515 0.126617 0.429424
Si Si2 0.841831 0.045568 0.880025
Si Si3 0.817959 0.295703 0.725179
Si Si4 0.347099 0.684171 0.781202
Si Si5 0.410022 0.183398 0.437989
Si Si6 0.324751 0.202377 0.152413
Si Si7 0.316090 0.247374 0.729507
Si Si8 0.111813 0.987878 0.834581
O O1 0.257761 0.151371 0.488049
O O2 0.266654 0.221736 0.305191
O O3 0.993652 0.278768 0.578239
O O4 0.222602 0.866651 0.344726
O O5 0.813562 0.221931 0.832038
O O6 0.805081 0.838256 0.838254
O O7 0.724611 0.143625 0.060979
O O8 0.027725 0.957323 0.784080
O O9 0.683142 0.550250 0.837256
O O10 0.534317 0.644351 0.640006
O O11 0.303733 0.477451 0.816044
O O12 0.273749 0.774579 0.729731
O O13 0.374840 0.261998 0.582802
O O14 0.558152 0.942952 0.308242
O O15 0.500000 0.000000 0.000000
O O16 0.149436 0.212137 0.831123
O O17 0.000000 0.000000 0.000000
#
# Coordination Sequence:
#
# PCOD8009609 Si02
#       8
#     2   2   2   2   2   2   2   2
#     4  10  22  41  64  90 122 162 208 257 312 368
#     4  10  22  37  59  88 118 158 203 250 308 367
#     4  10  23  42  63  90 122 161 209 258 310 374
#     4  10  21  37  58  87 123 161 202 252 307 365
#     4  10  21  37  58  87 120 156 206 256 301 367
#     4  11  24  41  62  91 124 158 204 258 314 372
#     4  10  21  37  58  86 120 160 201 249 309 365
#     4   9  20  36  54  84 119 150 195 245 293 362
#
# _framework density 21.886766999999999
#
# number of rings (size 3 to 8) (size 9 to 14) (size 15 to 20)
#    0.000    2.000    0.000    2.250    0.000   12.000 
#    0.000    0.000    0.000    0.000    0.000    0.000 
#    0.000    0.000    0.000    0.000    0.000    0.000 
#
# Total GULP energy -198290.482200 kJ/mol
# GULP energy per Si atom -12393.155137 kJ/mol
# Density = 2.183695 g / cm^3
# Si number density = 21.886767 Si / 1000 Ang^3
#
#
#
# Elastic Constant Matrix: (Units=GPa)
#
#
# Indices 1 2 3 4 5 6 
#
# 1 89.1373 18.5541 3.5684 6.1848 -7.3955 13.2500
# 2 18.5541 115.0267 23.0279 2.2674 -7.5299 11.4687
# 3 3.5684 23.0279 65.7019 -11.3510 -6.7193 -2.4923
# 4 6.1848 2.2674 -11.3510 39.9771 3.3941 -3.7657
# 5 -7.3955 -7.5299 -6.7193 3.3941 23.9926 -5.6515
# 6 13.2500 11.4687 -2.4923 -3.7657 -5.6515 28.4207
#
#
#
# Elastic Compliance Matrix: (Units=1/GPa)
#
#
# Indices 1 2 3 4 5 6 
#
# 1 0.012690 -0.001145 -0.000727 -0.002824 0.002476 -0.005400
# 2 -0.001145 0.010158 -0.003875 -0.001964 0.001098 -0.003947
# 3 -0.000727 -0.003875 0.018196 0.005631 0.004049 0.005050
# 4 -0.002824 -0.001964 0.005631 0.027920 -0.002492 0.005807
# 5 0.002476 0.001098 0.004049 -0.002492 0.046061 0.007587
# 6 -0.005400 -0.003947 0.005050 0.005807 0.007587 0.042017
#
#
# Mechanical properties :
#
#
# Convention : Reuss Voigt Hill
#
# Bulk Modulus (GPa) = 33.84117 40.01851 36.92984
# Shear Modulus (GPa) = 28.02900 33.45911 30.74406
#
# Velocity S-wave (km/s) = 3.58248 3.91415 3.75198
# Velocity P-wave (km/s) = 5.71032 6.22507 5.97324
#
# Compressibility (1/GPa) = 0.02954981
#
# Stress axis : x y z
#
# Youngs Moduli (GPa) = 78.80127 98.44217 54.95620
#
# Poissons Ratio (x) = 0.11274 0.03997
# Poissons Ratio (y) = 0.09025 0.21295
# Poissons Ratio (z) = 0.05731 0.38146
#
# Static dielectric constant tensor:
#      x y z
#    x 4.655730 0.101030 -0.269830 
#    y 0.101030 3.958430 -0.192790 
#    z -0.269830 -0.192790 3.781600 
# 
# 
# High freq. dielectric constant tensor:
#      x y z
#    x 1.864000 0.012950 0.001850 
#    y 0.012950 1.858470 -0.022170 
#    z 0.001850 -0.022170 1.849390 
# 
# From -- ./inp_files/94656.got.cif
#   From: 2010.06.25/outbox.cif.g09.slc.cpg/sg2_48_cif.got.tgz:94656.got - 2010.06.27 13:26:56.
