data_PCOD8009568
_publ_section_title
;
Structure prediction by ZEFSAII (Michael W. Deem and Ramdas Pophale) SiO2 
 PCOD8009568
Probable space group: P -1
;
_chemical_formula_sum "Si O2"
_cell_formula_units_Z 12
_cell_length_a 15.143426
_cell_length_b 17.332856
_cell_length_c 13.455466
_cell_angle_alpha 155.081883
_cell_angle_beta 152.491645
_cell_angle_gamma 29.049010
_cell_volume 641.514009
_symmetry_space_group_name_H-M "P -1"
_symmetry_group_IT_number 2
_symmetry_cell_setting 'triclinic'
loop_
_space_group_symop_operation_xyz
x,y,z
-x,-y,-z
loop_
_atom_site_type_symbol
_atom_site_label
_atom_site_fract_x
_atom_site_fract_y
_atom_site_fract_z
Si Si1 0.210978 0.830635 0.485734
Si Si2 0.745723 0.550979 0.024335
Si Si3 0.522923 0.520235 0.162242
Si Si4 0.158691 0.602308 0.514792
Si Si5 0.363845 0.803278 0.816967
Si Si6 0.553392 0.817018 0.674840
O O1 0.336381 0.737672 0.601658
O O2 0.355133 0.914391 0.661079
O O3 0.159682 0.666029 0.180479
O O4 0.000000 0.000000 0.500000
O O5 0.919920 0.640039 0.323057
O O6 0.638763 0.550092 0.022057
O O7 0.589338 0.684915 0.944222
O O8 0.752925 0.384065 0.269943
O O9 0.485448 0.747178 0.419971
O O10 0.500000 0.500000 0.000000
O O11 0.190827 0.767241 0.669671
O O12 0.293391 0.382643 0.351672
O O13 0.329554 0.034110 0.053769
#
# Coordination Sequence:
#
# PCOD8009568 Si02
#       6
#     2   2   2   2   2   2
#     4  11  22  36  57  84 115 158 191 222 280 333
#     4  10  21  37  57  86 116 148 191 230 278 333
#     4   8  18  39  63  81 111 147 186 235 284 332
#     4   9  21  38  57  82 117 144 190 227 283 329
#     4  11  21  37  57  81 120 150 187 231 276 329
#     4   9  21  39  55  84 116 144 192 234 273 336
#
# _framework density 18.705749000000001
#
# number of rings (size 3 to 8) (size 9 to 14) (size 15 to 20)
#    1.000    1.333    1.667    2.000    2.333    1.333 
#    0.000    3.333    0.000    2.000    0.000    0.000 
#    0.000    0.000    0.000    0.000    0.000    0.000 
#
# Total GULP energy -148686.213231 kJ/mol
# GULP energy per Si atom -12390.517769 kJ/mol
# Density = 1.866317 g / cm^3
# Si number density = 18.705749 Si / 1000 Ang^3
#
#
#
# Elastic Constant Matrix: (Units=GPa)
#
#
# Indices 1 2 3 4 5 6 
#
# 1 116.7306 49.4559 76.4402 -21.9757 -1.7421 17.9310
# 2 49.4559 63.4072 33.0886 -11.7909 4.6414 8.9526
# 3 76.4402 33.0886 112.2793 -20.8821 20.7718 18.3855
# 4 -21.9757 -11.7909 -20.8821 37.7558 6.5156 7.0745
# 5 -1.7421 4.6414 20.7718 6.5156 41.2369 -4.7747
# 6 17.9310 8.9526 18.3855 7.0745 -4.7747 28.1592
#
#
#
# Elastic Compliance Matrix: (Units=1/GPa)
#
#
# Indices 1 2 3 4 5 6 
#
# 1 0.022228 -0.010761 -0.013221 0.000955 0.008556 -0.000890
# 2 -0.010761 0.024768 0.003025 0.005222 -0.006212 -0.005363
# 3 -0.013221 0.003025 0.025121 0.012977 -0.017357 -0.015148
# 4 0.000955 0.005222 0.012977 0.043328 -0.016764 -0.024469
# 5 0.008556 -0.006212 -0.017357 -0.016764 0.038863 0.018661
# 6 -0.000890 -0.005363 -0.015148 -0.024469 0.018661 0.056986
#
#
# Mechanical properties :
#
#
# Convention : Reuss Voigt Hill
#
# Bulk Modulus (GPa) = 33.10791 67.82071 50.46431
# Shear Modulus (GPa) = 18.99154 30.32588 24.65871
#
# Velocity S-wave (km/s) = 3.18980 4.03079 3.63470
# Velocity P-wave (km/s) = 5.59501 7.61566 6.68216
#
# Compressibility (1/GPa) = 0.03020426
#
# Stress axis : x y z
#
# Youngs Moduli (GPa) = 44.98907 40.37408 39.80755
#
# Poissons Ratio (x) = 0.43445 0.52630
# Poissons Ratio (y) = 0.48411 -0.12044
# Poissons Ratio (z) = 0.59480 -0.12215
#
# Static dielectric constant tensor:
#      x y z
#    x 3.160900 0.110910 0.179020 
#    y 0.110910 3.210820 -0.070300 
#    z 0.179020 -0.070300 3.469800 
# 
# 
# High freq. dielectric constant tensor:
#      x y z
#    x 1.707760 0.009310 0.019010 
#    y 0.009310 1.711740 -0.009230 
#    z 0.019010 -0.009230 1.727800 
# 
# From -- ./inp_files/103424.got.cif
#   From: 2010.06.25/outbox.cif.g09.slc.cpg/sg2_52_cif.got.tgz:103424.got - 2010.06.27 13:26:56.
