data_PCOD8009239
_publ_section_title
;
Structure prediction by ZEFSAII (Michael W. Deem and Ramdas Pophale) SiO2 
 PCOD8009239
Probable space group: P -1
;
_chemical_formula_sum "Si O2"
_cell_formula_units_Z 12
_cell_length_a 9.484548
_cell_length_b 11.287990
_cell_length_c 11.172791
_cell_angle_alpha 113.964155
_cell_angle_beta 139.558569
_cell_angle_gamma 54.084095
_cell_volume 626.554668
_symmetry_space_group_name_H-M "P -1"
_symmetry_group_IT_number 2
_symmetry_cell_setting 'triclinic'
loop_
_space_group_symop_operation_xyz
x,y,z
-x,-y,-z
loop_
_atom_site_type_symbol
_atom_site_label
_atom_site_fract_x
_atom_site_fract_y
_atom_site_fract_z
Si Si1 0.496364 0.713620 0.621425
Si Si2 0.311154 0.000940 0.475962
Si Si3 0.254415 0.183025 0.987672
Si Si4 0.881325 0.405023 0.681919
Si Si5 0.868899 0.045534 0.059658
Si Si6 0.341825 0.190378 0.786731
O O1 0.389619 0.835659 0.499185
O O2 0.555024 0.775412 0.805321
O O3 0.744806 0.580064 0.673958
O O4 0.302792 0.656310 0.506761
O O5 0.038135 0.072794 0.274175
O O6 0.500000 0.000000 0.500000
O O7 0.294331 0.098360 0.617619
O O8 0.193192 0.082738 0.993946
O O9 0.364176 0.109899 0.897908
O O10 0.998521 0.332107 0.856348
O O11 0.107762 0.353397 0.710362
O O12 0.602490 0.191525 0.933150
O O13 0.000000 0.000000 0.000000
#
# Coordination Sequence:
#
# PCOD8009239 Si02
#       6
#     2   2   2   2   2   2
#     4  11  20  39  60  88 120 154 189 240 298 341
#     4  12  23  38  61  85 119 156 194 241 295 345
#     4  10  21  36  59  89 117 151 193 241 284 343
#     4   9  23  36  59  90 117 153 193 241 289 342
#     4  12  22  38  59  86 119 155 193 240 296 345
#     4  10  23  37  58  91 114 152 200 241 286 337
#
# _framework density 19.152360000000002
#
# number of rings (size 3 to 8) (size 9 to 14) (size 15 to 20)
#    1.000    0.333    5.000    1.000    2.333    1.333 
#    0.000    0.833    0.000    2.000    0.000    0.000 
#    0.000    0.000    0.000    0.000    0.000    0.000 
#
# Total GULP energy -148714.652562 kJ/mol
# GULP energy per Si atom -12392.887713 kJ/mol
# Density = 1.910877 g / cm^3
# Si number density = 19.152360 Si / 1000 Ang^3
#
#
#
# Elastic Constant Matrix: (Units=GPa)
#
#
# Indices 1 2 3 4 5 6 
#
# 1 114.8074 42.4045 48.5170 0.9350 1.2632 -29.6332
# 2 42.4045 53.6987 32.5075 -3.7487 0.4614 -23.9870
# 3 48.5170 32.5075 158.5521 7.9374 5.6874 -18.9057
# 4 0.9350 -3.7487 7.9374 30.2482 -10.8402 8.5163
# 5 1.2632 0.4614 5.6874 -10.8402 35.3878 -5.4335
# 6 -29.6332 -23.9870 -18.9057 8.5163 -5.4335 27.2996
#
#
#
# Elastic Compliance Matrix: (Units=1/GPa)
#
#
# Indices 1 2 3 4 5 6 
#
# 1 0.014316 -0.005864 -0.001790 -0.003467 0.000373 0.010304
# 2 -0.005864 0.035463 -0.002801 0.000039 0.003834 0.023605
# 3 -0.001790 -0.002801 0.007892 -0.003578 -0.001990 0.001781
# 4 -0.003467 0.000039 -0.003578 0.043025 0.011207 -0.017398
# 5 0.000373 0.003834 -0.001990 0.011207 0.032780 0.005423
# 6 0.010304 0.023605 0.001781 -0.017398 0.005423 0.076297
#
#
# Mechanical properties :
#
#
# Convention : Reuss Voigt Hill
#
# Bulk Modulus (GPa) = 27.20272 63.76846 45.48559
# Shear Modulus (GPa) = 20.58140 32.16241 26.37191
#
# Velocity S-wave (km/s) = 3.28169 4.10236 3.71476
# Velocity P-wave (km/s) = 5.34729 7.47040 6.49616
#
# Compressibility (1/GPa) = 0.03676103
#
# Stress axis : x y z
#
# Youngs Moduli (GPa) = 69.85109 28.19813 126.71178
#
# Poissons Ratio (x) = 0.16536 0.22677
# Poissons Ratio (y) = 0.40963 0.35495
# Poissons Ratio (z) = 0.12501 0.07899
#
# Static dielectric constant tensor:
#      x y z
#    x 3.437690 -0.201330 0.181280 
#    y -0.201330 3.376190 -0.273530 
#    z 0.181280 -0.273530 3.984810 
# 
# 
# High freq. dielectric constant tensor:
#      x y z
#    x 1.730220 -0.021790 0.005470 
#    y -0.021790 1.719200 -0.011350 
#    z 0.005470 -0.011350 1.773630 
# 
# From -- ./inp_files/250925.got.cif
#   From: 2010.06.25/outbox.cif.g09.slc.cpg/sg2_126_cif.got.tgz:250925.got - 2010.06.27 13:26:56.
