data_PCOD8009749
_publ_section_title
;
Structure prediction by ZEFSAII (Michael W. Deem and Ramdas Pophale) SiO2 
 PCOD8009749
Probable space group: P -1
;
_chemical_formula_sum "Si O2"
_cell_formula_units_Z 16
_cell_length_a 12.677707
_cell_length_b 17.424758
_cell_length_c 8.117033
_cell_angle_alpha 95.828342
_cell_angle_beta 44.968101
_cell_angle_gamma 129.510856
_cell_volume 751.755250
_symmetry_space_group_name_H-M "P -1"
_symmetry_group_IT_number 2
_symmetry_cell_setting 'triclinic'
loop_
_space_group_symop_operation_xyz
x,y,z
-x,-y,-z
loop_
_atom_site_type_symbol
_atom_site_label
_atom_site_fract_x
_atom_site_fract_y
_atom_site_fract_z
Si Si1 0.963608 0.453882 0.297369
Si Si2 0.610831 0.299296 0.945664
Si Si3 0.417379 0.066340 0.703108
Si Si4 0.308439 0.110106 0.497746
Si Si5 0.666043 0.724530 0.301932
Si Si6 0.868161 0.551882 0.208124
Si Si7 0.099450 0.797274 0.920926
Si Si8 0.767003 0.862866 0.919264
O O1 0.769180 0.337232 0.618512
O O2 0.904979 0.519196 0.328814
O O3 0.238564 0.568305 0.104754
O O4 0.949094 0.401469 0.131544
O O5 0.550567 0.208107 0.129864
O O6 0.332915 0.208282 0.164430
O O7 0.347966 0.070362 0.598591
O O8 0.712871 0.168841 0.405556
O O9 0.263649 0.923918 0.876919
O O10 0.335177 0.092175 0.938177
O O11 0.273946 0.185383 0.607476
O O12 0.064362 0.981527 0.637769
O O13 0.412001 0.571758 0.581700
O O14 0.624125 0.750596 0.182980
O O15 0.892806 0.759052 0.039886
O O16 0.950682 0.674474 0.174649
#
# Coordination Sequence:
#
# PCOD8009749 Si02
#       8
#     2   2   2   2   2   2   2   2
#     4  10  22  38  58  92 114 142 200 246 278 344
#     4  11  21  34  60  88 117 149 190 239 291 337
#     4  10  21  37  60  90 116 147 198 240 278 343
#     4  11  20  38  61  86 118 151 192 242 283 337
#     4  11  20  38  59  89 116 148 198 241 284 333
#     4  11  21  38  64  84 116 150 194 243 290 329
#     4  11  21  34  60  91 114 150 190 246 287 333
#     4  11  20  38  61  86 118 151 192 242 283 337
#
# _framework density 21.283522000000001
#
# number of rings (size 3 to 8) (size 9 to 14) (size 15 to 20)
#    0.000    1.250    5.000    3.000    3.500    0.000 
#    0.000    0.000    0.000   22.500    0.000    0.000 
#    0.000    0.000    0.000    0.000    0.000    0.000 
#
# Total GULP energy -198242.211458 kJ/mol
# GULP energy per Si atom -12390.138216 kJ/mol
# Density = 2.123508 g / cm^3
# Si number density = 21.283522 Si / 1000 Ang^3
#
#
#
# Elastic Constant Matrix: (Units=GPa)
#
#
# Indices 1 2 3 4 5 6 
#
# 1 61.3319 40.6171 23.6790 -3.1006 -6.8595 5.8056
# 2 40.6171 71.8182 32.4098 -27.9056 0.7163 -8.7081
# 3 23.6790 32.4098 97.7241 -17.2956 8.6447 -7.4574
# 4 -3.1006 -27.9056 -17.2956 38.1930 -2.2804 -2.3177
# 5 -6.8595 0.7163 8.6447 -2.2804 38.5676 1.2092
# 6 5.8056 -8.7081 -7.4574 -2.3177 1.2092 35.3411
#
#
#
# Elastic Compliance Matrix: (Units=1/GPa)
#
#
# Indices 1 2 3 4 5 6 
#
# 1 0.040881 -0.031754 -0.005502 -0.022941 0.008286 -0.017489
# 2 -0.031754 0.046968 -0.000224 0.032486 -0.005146 0.019049
# 3 -0.005502 -0.000224 0.013246 0.005414 -0.003753 0.004127
# 4 -0.022941 0.032486 0.005414 0.051302 -0.003378 0.016396
# 5 0.008286 -0.005146 -0.003753 -0.003378 0.028284 -0.004610
# 6 -0.017489 0.019049 0.004127 0.016396 -0.004610 0.037966
#
#
# Mechanical properties :
#
#
# Convention : Reuss Voigt Hill
#
# Bulk Modulus (GPa) = 38.26564 47.14288 42.70426
# Shear Modulus (GPa) = 16.53888 31.36487 23.95188
#
# Velocity S-wave (km/s) = 2.79063 3.84300 3.35830
# Velocity P-wave (km/s) = 5.32931 6.47222 5.92837
#
# Compressibility (1/GPa) = 0.02613311
#
# Stress axis : x y z
#
# Youngs Moduli (GPa) = 24.46135 21.29114 75.49731
#
# Poissons Ratio (x) = 0.67609 0.41539
# Poissons Ratio (y) = 0.77676 0.01692
# Poissons Ratio (z) = 0.13459 0.00477
#
# Static dielectric constant tensor:
#      x y z
#    x 3.780800 0.017050 -0.010240 
#    y 0.017050 3.758300 -0.345290 
#    z -0.010240 -0.345290 4.021650 
# 
# 
# High freq. dielectric constant tensor:
#      x y z
#    x 1.816630 0.012770 -0.006130 
#    y 0.012770 1.809760 -0.044280 
#    z -0.006130 -0.044280 1.845260 
# 
# From -- ./inp_files/204268.got.cif
#   From: 2010.06.25/outbox.cif.g09.slc.cpg/sg2_103_cif.got.tgz:204268.got - 2010.06.27 13:26:56.
