data_PCOD8009283
_publ_section_title
;
Structure prediction by ZEFSAII (Michael W. Deem and Ramdas Pophale) SiO2 
 PCOD8009283
Probable space group: P -1
;
_chemical_formula_sum "Si O2"
_cell_formula_units_Z 14
_cell_length_a 9.163821
_cell_length_b 6.388448
_cell_length_c 20.694771
_cell_angle_alpha 81.867222
_cell_angle_beta 38.037088
_cell_angle_gamma 100.991541
_cell_volume 642.009323
_symmetry_space_group_name_H-M "P -1"
_symmetry_group_IT_number 2
_symmetry_cell_setting 'triclinic'
loop_
_space_group_symop_operation_xyz
x,y,z
-x,-y,-z
loop_
_atom_site_type_symbol
_atom_site_label
_atom_site_fract_x
_atom_site_fract_y
_atom_site_fract_z
Si Si1 0.809979 0.400756 0.866752
Si Si2 0.154230 0.463406 0.526103
Si Si3 0.214764 0.908737 0.425145
Si Si4 0.499142 0.363689 0.100284
Si Si5 0.382059 0.574275 0.711632
Si Si6 0.255517 0.838874 0.226719
Si Si7 0.277676 0.254459 0.887212
O O1 0.722278 0.582963 0.857558
O O2 0.717617 0.174802 0.859817
O O3 0.132780 0.534019 0.756185
O O4 0.675223 0.317098 0.987480
O O5 0.211054 0.741430 0.493961
O O6 0.403375 0.441180 0.411083
O O7 0.866497 0.278160 0.598010
O O8 0.061353 0.355648 0.635504
O O9 0.504003 0.156020 0.308876
O O10 0.000000 0.000000 0.500000
O O11 0.709189 0.569395 0.066854
O O12 0.326166 0.110413 0.209805
O O13 0.291573 0.373423 0.807769
O O14 0.462170 0.778647 0.195153
O O15 0.000000 0.000000 0.000000
#
# Coordination Sequence:
#
# PCOD8009283 Si02
#       7
#     2   2   2   2   2   2   2
#     4  10  24  41  61  89 121 163 209 248 298 364
#     4  10  21  36  60  89 122 160 198 248 303 356
#     4   9  18  35  57  85 121 158 196 242 299 354
#     4  10  23  44  64  85 122 166 200 252 311 353
#     4  11  23  39  61  92 124 156 200 252 302 361
#     4  11  22  41  63  88 124 164 202 244 303 368
#     4  11  24  39  64  97 120 150 206 257 303 363
#
# _framework density 21.806536999999999
#
# number of rings (size 3 to 8) (size 9 to 14) (size 15 to 20)
#    0.000    1.714    0.000    4.714    0.000   12.000 
#    0.000    1.429    0.000    0.000    0.000    0.000 
#    0.000    0.000    0.000    0.000    0.000    0.000 
#
# Total GULP energy -173507.819853 kJ/mol
# GULP energy per Si atom -12393.415704 kJ/mol
# Density = 2.175690 g / cm^3
# Si number density = 21.806537 Si / 1000 Ang^3
#
#
#
# Elastic Constant Matrix: (Units=GPa)
#
#
# Indices 1 2 3 4 5 6 
#
# 1 80.4667 35.5019 46.9187 1.0939 -13.9171 12.5489
# 2 35.5019 126.2141 62.9360 -22.3585 -0.3877 1.7172
# 3 46.9187 62.9360 142.5066 -6.5498 0.8493 2.4947
# 4 1.0939 -22.3585 -6.5498 42.1691 1.4808 3.7861
# 5 -13.9171 -0.3877 0.8493 1.4808 34.7882 -2.0710
# 6 12.5489 1.7172 2.4947 3.7861 -2.0710 19.5932
#
#
#
# Elastic Compliance Matrix: (Units=1/GPa)
#
#
# Indices 1 2 3 4 5 6 
#
# 1 0.019776 -0.003315 -0.005017 -0.002371 0.007473 -0.010489
# 2 -0.003315 0.011784 -0.003846 0.005754 -0.001326 0.000328
# 3 -0.005017 -0.003846 0.010325 -0.000417 -0.002160 0.002088
# 4 -0.002371 0.005754 -0.000417 0.027241 -0.002298 -0.004439
# 5 0.007473 -0.001326 -0.002160 -0.002298 0.031836 -0.000586
# 6 -0.010489 0.000328 0.002088 -0.004439 -0.000586 0.058257
#
#
# Mechanical properties :
#
#
# Convention : Reuss Voigt Hill
#
# Bulk Modulus (GPa) = 57.05069 71.10006 64.07537
# Shear Modulus (GPa) = 26.39670 32.89884 29.64777
#
# Velocity S-wave (km/s) = 3.48299 3.88837 3.69125
# Velocity P-wave (km/s) = 6.51106 7.26877 6.90032
#
# Compressibility (1/GPa) = 0.01752827
#
# Stress axis : x y z
#
# Youngs Moduli (GPa) = 50.56665 84.85935 96.85556
#
# Poissons Ratio (x) = 0.28134 0.48589
# Poissons Ratio (y) = 0.16765 0.37252
# Poissons Ratio (z) = 0.25368 0.32638
#
# Static dielectric constant tensor:
#      x y z
#    x 3.866680 0.132650 0.052440 
#    y 0.132650 4.239900 -0.185550 
#    z 0.052440 -0.185550 4.031090 
# 
# 
# High freq. dielectric constant tensor:
#      x y z
#    x 1.842950 -0.004450 0.005850 
#    y -0.004450 1.866790 -0.003240 
#    z 0.005850 -0.003240 1.859260 
# 
# From -- ./inp_files/246255.got.cif
#   From: 2010.06.25/outbox.cif.g09.slc.cpg/sg2_124_cif.got.tgz:246255.got - 2010.06.27 13:26:56.
