data_PCOD8009577
_publ_section_title
;
Structure prediction by ZEFSAII (Michael W. Deem and Ramdas Pophale) SiO2 
 PCOD8009577
Probable space group: P -1
;
_chemical_formula_sum "Si O2"
_cell_formula_units_Z 16
_cell_length_a 13.449636
_cell_length_b 15.852399
_cell_length_c 11.069475
_cell_angle_alpha 54.579479
_cell_angle_beta 142.435519
_cell_angle_gamma 149.965779
_cell_volume 674.741540
_symmetry_space_group_name_H-M "P -1"
_symmetry_group_IT_number 2
_symmetry_cell_setting 'triclinic'
loop_
_space_group_symop_operation_xyz
x,y,z
-x,-y,-z
loop_
_atom_site_type_symbol
_atom_site_label
_atom_site_fract_x
_atom_site_fract_y
_atom_site_fract_z
Si Si1 0.936419 0.877845 0.155424
Si Si2 0.259295 0.383246 0.155086
Si Si3 0.116305 0.101555 0.348744
Si Si4 0.737094 0.281950 0.206142
Si Si5 0.217845 0.405018 0.649545
Si Si6 0.447391 0.262226 0.761413
Si Si7 0.993087 0.615160 0.292125
Si Si8 0.592275 0.885594 0.751987
O O1 0.796795 0.725748 0.238838
O O2 0.146175 0.063714 0.278058
O O3 0.132156 0.918252 0.210434
O O4 0.683466 0.811259 0.904154
O O5 0.093048 0.215286 0.220140
O O6 0.478255 0.421060 0.263136
O O7 0.427093 0.557732 0.247880
O O8 0.041437 0.324706 0.902810
O O9 0.388272 0.216312 0.600187
O O10 0.838802 0.905863 0.301448
O O11 0.869806 0.439191 0.288732
O O12 0.460774 0.103719 0.168707
O O13 0.967635 0.310464 0.394716
O O14 0.665295 0.287063 0.999464
O O15 0.188584 0.443422 0.719006
O O16 0.325609 0.774941 0.504118
#
# Coordination Sequence:
#
# PCOD8009577 Si02
#       8
#     2   2   2   2   2   2   2   2
#     4  11  23  37  61  93 128 159 208 255 297 372
#     4  11  23  40  66  94 119 162 214 250 305 370
#     4  11  23  40  71  86 120 170 202 262 306 356
#     4  10  21  40  60  88 128 165 198 258 308 363
#     4  11  22  37  60  91 130 159 202 251 305 369
#     4  10  22  46  64  90 122 157 218 254 306 364
#     4  10  23  36  60  91 130 166 196 250 314 371
#     4  10  21  37  57  87 131 157 200 244 310 368
#
# _framework density 23.712783999999999
#
# number of rings (size 3 to 8) (size 9 to 14) (size 15 to 20)
#    0.000    1.500    2.500    3.000    7.000    3.000 
#    0.000    1.250    2.750    0.000    0.000    0.000 
#    0.000    0.000    0.000    0.000    0.000    0.000 
#
# Total GULP energy -198278.298134 kJ/mol
# GULP energy per Si atom -12392.393633 kJ/mol
# Density = 2.365881 g / cm^3
# Si number density = 23.712784 Si / 1000 Ang^3
#
#
#
# Elastic Constant Matrix: (Units=GPa)
#
#
# Indices 1 2 3 4 5 6 
#
# 1 39.2688 6.8813 30.5132 2.8380 0.9308 -1.9462
# 2 6.8813 74.1796 11.1028 -3.7717 -11.5362 -4.4521
# 3 30.5132 11.1028 141.7939 -4.3928 -6.7556 -2.3892
# 4 2.8380 -3.7717 -4.3928 28.4099 8.0350 -2.7136
# 5 0.9308 -11.5362 -6.7556 8.0350 36.4679 8.7047
# 6 -1.9462 -4.4521 -2.3892 -2.7136 8.7047 20.1092
#
#
#
# Elastic Compliance Matrix: (Units=1/GPa)
#
#
# Indices 1 2 3 4 5 6 
#
# 1 0.031607 -0.002355 -0.006811 -0.003563 -0.002594 0.002371
# 2 -0.002355 0.014518 -0.000382 0.001096 0.004018 0.001349
# 3 -0.006811 -0.000382 0.008659 0.001587 0.001325 -0.000075
# 4 -0.003563 0.001096 0.001587 0.039849 -0.010430 0.009978
# 5 -0.002594 0.004018 0.001325 -0.010430 0.035072 -0.015793
# 6 0.002371 0.001349 -0.000075 0.009978 -0.015793 0.058431
#
#
# Mechanical properties :
#
#
# Convention : Reuss Voigt Hill
#
# Bulk Modulus (GPa) = 28.02044 39.13744 33.57894
# Shear Modulus (GPa) = 22.81765 30.78039 26.79902
#
# Velocity S-wave (km/s) = 3.10538 3.60676 3.36542
# Velocity P-wave (km/s) = 4.96992 5.82113 5.41228
#
# Compressibility (1/GPa) = 0.03568823
#
# Stress axis : x y z
#
# Youngs Moduli (GPa) = 31.63824 68.87973 115.48416
#
# Poissons Ratio (x) = 0.16221 0.78660
# Poissons Ratio (y) = 0.07451 0.04410
# Poissons Ratio (z) = 0.21550 0.02630
#
# Static dielectric constant tensor:
#      x y z
#    x 3.936310 0.030660 -0.136410 
#    y 0.030660 4.345030 -0.136920 
#    z -0.136410 -0.136920 4.668600 
# 
# 
# High freq. dielectric constant tensor:
#      x y z
#    x 1.890350 0.003830 -0.005720 
#    y 0.003830 1.948090 -0.009450 
#    z -0.005720 -0.009450 1.957130 
# 
# From -- ./inp_files/456958.got.cif
#   From: 2010.06.25/outbox.cif.g09.slc.cpg/sg2_229_cif.got.tgz:456958.got - 2010.06.27 13:26:56.
