data_PCOD8009483
_publ_section_title
;
Structure prediction by ZEFSAII (Michael W. Deem and Ramdas Pophale) SiO2 
 PCOD8009483
Probable space group: P -1
;
_chemical_formula_sum "Si O2"
_cell_formula_units_Z 14
_cell_length_a 13.995478
_cell_length_b 7.572485
_cell_length_c 13.738315
_cell_angle_alpha 112.193241
_cell_angle_beta 118.012740
_cell_angle_gamma 119.528816
_cell_volume 681.279765
_symmetry_space_group_name_H-M "P -1"
_symmetry_group_IT_number 2
_symmetry_cell_setting 'triclinic'
loop_
_space_group_symop_operation_xyz
x,y,z
-x,-y,-z
loop_
_atom_site_type_symbol
_atom_site_label
_atom_site_fract_x
_atom_site_fract_y
_atom_site_fract_z
Si Si1 0.826312 0.282722 0.301624
Si Si2 0.125953 0.705232 0.198188
Si Si3 0.485930 0.905552 0.183452
Si Si4 0.119759 0.424957 0.807559
Si Si5 0.221434 0.201247 0.888268
Si Si6 0.525994 0.175732 0.459210
Si Si7 0.925017 0.769824 0.827884
O O1 0.904180 0.514418 0.295857
O O2 0.000000 0.500000 0.500000
O O3 0.668230 0.178149 0.258176
O O4 0.736185 0.948896 0.160161
O O5 0.111891 0.497423 0.212927
O O6 0.053012 0.772800 0.244199
O O7 0.345530 0.058180 0.345892
O O8 0.000000 0.500000 0.000000
O O9 0.537950 0.068900 0.345113
O O10 0.317241 0.783175 0.025854
O O11 0.416171 0.584084 0.097227
O O12 0.128971 0.205705 0.760982
O O13 0.080396 0.989666 0.865975
O O14 0.727303 0.574490 0.652208
O O15 0.500000 0.000000 0.500000
O O16 0.000000 0.000000 0.000000
#
# Coordination Sequence:
#
# PCOD8009483 Si02
#       7
#     2   2   2   2   2   2   2
#     4  12  24  42  68  93 126 175 216 265 328 380
#     4  11  19  39  65  91 128 170 212 262 329 374
#     4  10  22  42  66  92 126 169 219 264 322 382
#     4  10  23  41  66  90 131 167 213 267 322 375
#     4  10  22  41  64  92 127 165 221 257 323 381
#     4  10  21  36  66  94 127 169 212 264 321 387
#     4  11  21  38  63  94 134 170 211 262 323 388
#
# _framework density 20.54956
#
# number of rings (size 3 to 8) (size 9 to 14) (size 15 to 20)
#    0.857    0.571    2.857    4.286    2.000    0.571 
#    0.000    2.857    0.000    0.000    0.000    0.000 
#    0.000    0.000    0.000    0.000    0.000    0.000 
#
# Total GULP energy -173506.419956 kJ/mol
# GULP energy per Si atom -12393.315711 kJ/mol
# Density = 2.050279 g / cm^3
# Si number density = 20.549560 Si / 1000 Ang^3
#
#
#
# Elastic Constant Matrix: (Units=GPa)
#
#
# Indices 1 2 3 4 5 6 
#
# 1 102.6718 25.6555 22.3529 -8.4728 2.3480 25.5762
# 2 25.6555 74.8331 18.5150 -18.4572 -5.5464 16.2197
# 3 22.3529 18.5150 111.4489 -9.2927 3.0106 22.7765
# 4 -8.4728 -18.4572 -9.2927 33.6959 4.1936 3.8543
# 5 2.3480 -5.5464 3.0106 4.1936 30.5353 3.3035
# 6 25.5762 16.2197 22.7765 3.8543 3.3035 44.4038
#
#
#
# Elastic Compliance Matrix: (Units=1/GPa)
#
#
# Indices 1 2 3 4 5 6 
#
# 1 0.012146 -0.002153 -0.000607 0.002518 -0.000957 -0.006045
# 2 -0.002153 0.018155 -0.000612 0.009577 0.002871 -0.006122
# 3 -0.000607 -0.000612 0.010506 0.003105 -0.000985 -0.005012
# 4 0.002518 0.009577 0.003105 0.037876 -0.002922 -0.009611
# 5 -0.000957 0.002871 -0.000985 -0.002922 0.034088 -0.002275
# 6 -0.006045 -0.006122 -0.005012 -0.009611 -0.002275 0.031813
#
#
# Mechanical properties :
#
#
# Convention : Reuss Voigt Hill
#
# Bulk Modulus (GPa) = 29.35899 46.88894 38.12397
# Shear Modulus (GPa) = 30.73480 36.55569 33.64524
#
# Velocity S-wave (km/s) = 3.87155 4.22228 4.05071
# Velocity P-wave (km/s) = 5.85689 6.82915 6.36162
#
# Compressibility (1/GPa) = 0.03406112
#
# Stress axis : x y z
#
# Youngs Moduli (GPa) = 82.33472 55.08248 95.18407
#
# Poissons Ratio (x) = 0.11862 0.05778
# Poissons Ratio (y) = 0.17731 0.05825
# Poissons Ratio (z) = 0.04998 0.03371
#
# Static dielectric constant tensor:
#      x y z
#    x 3.864380 0.170210 0.317830 
#    y 0.170210 3.700350 0.118740 
#    z 0.317830 0.118740 4.117930 
# 
# 
# High freq. dielectric constant tensor:
#      x y z
#    x 1.802850 0.019400 0.012740 
#    y 0.019400 1.802630 -0.003320 
#    z 0.012740 -0.003320 1.798440 
# 
# From -- ./inp_files/195391.got.cif
#   From: 2010.06.25/outbox.cif.g09.slc.cpg/sg2_98_cif.got.tgz:195391.got - 2010.06.27 13:26:56.
