data_PCOD8009230
_publ_section_title
;
Structure prediction by ZEFSAII (Michael W. Deem and Ramdas Pophale) SiO2 
 PCOD8009230
Probable space group: P -1
;
_chemical_formula_sum "Si O2"
_cell_formula_units_Z 10
_cell_length_a 9.793635
_cell_length_b 13.943086
_cell_length_c 9.217834
_cell_angle_alpha 130.614696
_cell_angle_beta 45.102286
_cell_angle_gamma 151.079662
_cell_volume 429.168417
_symmetry_space_group_name_H-M "P -1"
_symmetry_group_IT_number 2
_symmetry_cell_setting 'triclinic'
loop_
_space_group_symop_operation_xyz
x,y,z
-x,-y,-z
loop_
_atom_site_type_symbol
_atom_site_label
_atom_site_fract_x
_atom_site_fract_y
_atom_site_fract_z
Si Si1 0.913658 0.849410 0.032006
Si Si2 0.181343 0.981611 0.267892
Si Si3 0.233833 0.452544 0.827290
Si Si4 0.798885 0.396934 0.263411
Si Si5 0.316617 0.493355 0.286824
O O1 0.564864 0.688411 0.190583
O O2 0.148867 0.979438 0.115858
O O3 0.932140 0.714523 0.821053
O O4 0.000000 0.000000 0.000000
O O5 0.046669 0.781645 0.226145
O O6 0.530932 0.157100 0.230046
O O7 0.000000 0.000000 0.500000
O O8 0.328839 0.562973 0.713549
O O9 0.518151 0.524478 0.751084
O O10 0.118512 0.500605 0.075584
O O11 0.850464 0.485540 0.469869
#
# Coordination Sequence:
#
# PCOD8009230 Si02
#       5
#     2   2   2   2   2
#     4  10  21  36  59  86 116 153 195 233 289 348
#     4  11  21  38  61  86 115 157 191 241 288 339
#     4  10  22  36  61  90 117 149 200 239 285 349
#     4  11  21  37  63  87 117 154 194 241 290 341
#     4  10  21  38  58  83 118 153 192 239 287 342
#
# _framework density 23.300877
#
# number of rings (size 3 to 8) (size 9 to 14) (size 15 to 20)
#    0.000    1.600    4.000    2.400    2.800    0.000 
#    0.000    9.000    0.000    8.400    0.000    0.000 
#    0.000    0.000    0.000    0.000    0.000    0.000 
#
# Total GULP energy -123998.181114 kJ/mol
# GULP energy per Si atom -12399.818111 kJ/mol
# Density = 2.324784 g / cm^3
# Si number density = 23.300877 Si / 1000 Ang^3
#
#
#
# Elastic Constant Matrix: (Units=GPa)
#
#
# Indices 1 2 3 4 5 6 
#
# 1 34.7306 9.5573 -1.4624 6.4582 13.6494 7.5363
# 2 9.5573 71.9597 32.9029 12.8741 17.6240 -9.2969
# 3 -1.4624 32.9029 150.3113 27.3822 22.5859 11.3394
# 4 6.4582 12.8741 27.3822 34.5637 6.5278 8.3353
# 5 13.6494 17.6240 22.5859 6.5278 25.1113 4.7647
# 6 7.5363 -9.2969 11.3394 8.3353 4.7647 30.6377
#
#
#
# Elastic Compliance Matrix: (Units=1/GPa)
#
#
# Indices 1 2 3 4 5 6 
#
# 1 0.041733 -0.002771 0.006083 -0.005179 -0.023284 -0.008327
# 2 -0.002771 0.020724 -0.002686 -0.005657 -0.011289 0.011259
# 3 0.006083 -0.002686 0.009782 -0.005585 -0.008172 -0.003142
# 4 -0.005179 -0.005657 -0.005585 0.037971 0.003699 -0.009281
# 5 -0.023284 -0.011289 -0.008172 0.003699 0.067977 -0.006251
# 6 -0.008327 0.011259 -0.003142 -0.009281 -0.006251 0.042764
#
#
# Mechanical properties :
#
#
# Convention : Reuss Voigt Hill
#
# Bulk Modulus (GPa) = 13.60707 37.66636 25.63671
# Shear Modulus (GPa) = 20.47536 32.46279 26.46908
#
# Velocity S-wave (km/s) = 2.96757 3.73661 3.37407
# Velocity P-wave (km/s) = 4.19456 5.90056 5.11913
#
# Compressibility (1/GPa) = 0.07349123
#
# Stress axis : x y z
#
# Youngs Moduli (GPa) = 23.96212 48.25255 102.22515
#
# Poissons Ratio (x) = 0.13370 -0.62182
# Poissons Ratio (y) = 0.06639 0.27459
# Poissons Ratio (z) = -0.14576 0.12961
#
# Static dielectric constant tensor:
#      x y z
#    x 3.862760 -0.080910 0.250480 
#    y -0.080910 4.399970 0.271570 
#    z 0.250480 0.271570 4.395850 
# 
# 
# High freq. dielectric constant tensor:
#      x y z
#    x 1.898590 -0.008840 0.014260 
#    y -0.008840 1.922330 0.012930 
#    z 0.014260 0.012930 1.933170 
# 
# From -- ./inp_files/151640.got.cif
#   From: 2010.06.25/outbox.cif.g09.slc.cpg/sg2_76_cif.got.tgz:151640.got - 2010.06.27 13:26:56.
