data_PCOD8009091
_publ_section_title
;
Structure prediction by ZEFSAII (Michael W. Deem and Ramdas Pophale) SiO2 
 PCOD8009091
Probable space group: P -1
;
_chemical_formula_sum "Si O2"
_cell_formula_units_Z 16
_cell_length_a 18.576972
_cell_length_b 11.765792
_cell_length_c 5.232456
_cell_angle_alpha 108.572852
_cell_angle_beta 126.183457
_cell_angle_gamma 61.536873
_cell_volume 810.400930
_symmetry_space_group_name_H-M "P -1"
_symmetry_group_IT_number 2
_symmetry_cell_setting 'triclinic'
loop_
_space_group_symop_operation_xyz
x,y,z
-x,-y,-z
loop_
_atom_site_type_symbol
_atom_site_label
_atom_site_fract_x
_atom_site_fract_y
_atom_site_fract_z
Si Si1 0.670240 0.567205 0.644658
Si Si2 0.649916 0.301514 0.551634
Si Si3 0.084661 0.691484 0.354653
Si Si4 0.785686 0.556230 0.365863
Si Si5 0.533554 0.353504 0.871149
Si Si6 0.035722 0.129464 0.396165
Si Si7 0.147122 0.861547 0.266365
Si Si8 0.041121 0.377805 0.314875
O O1 0.667937 0.427607 0.592212
O O2 0.735231 0.568317 0.541449
O O3 0.562278 0.670499 0.431748
O O4 0.711144 0.609936 0.015832
O O5 0.602428 0.324115 0.747525
O O6 0.750930 0.178759 0.693550
O O7 0.586456 0.269132 0.170213
O O8 0.149488 0.598915 0.650488
O O9 0.154319 0.740488 0.372370
O O10 0.992200 0.817142 0.337306
O O11 0.041400 0.596676 0.053305
O O12 0.854511 0.636971 0.581644
O O13 0.500000 0.500000 0.000000
O O14 0.057910 0.238597 0.368729
O O15 0.126500 0.993760 0.480508
O O16 0.939205 0.109688 0.092089
O O17 0.000000 0.500000 0.500000
#
# Coordination Sequence:
#
# PCOD8009091 Si02
#       8
#     2   2   2   2   2   2   2   2
#     4  11  21  35  54  86 114 148 189 234 295 352
#     4  11  20  35  58  82 119 152 190 232 299 356
#     4  11  21  36  56  81 121 156 197 238 289 341
#     4  12  22  33  58  83 116 155 192 229 287 351
#     4  10  21  36  55  83 119 151 181 243 300 358
#     4  10  22  38  57  79 124 154 205 238 283 334
#     4  10  22  37  56  88 112 163 197 239 284 350
#     4  11  23  37  53  83 117 160 197 242 287 335
#
# _framework density 19.743314000000002
#
# number of rings (size 3 to 8) (size 9 to 14) (size 15 to 20)
#    0.000    1.250    2.500    6.000    3.500    0.000 
#    0.000    0.000    0.000    0.000    0.000    5.250 
#    0.000    0.000    0.000    0.000    0.000    0.000 
#
# Total GULP energy -198278.373067 kJ/mol
# GULP energy per Si atom -12392.398317 kJ/mol
# Density = 1.969838 g / cm^3
# Si number density = 19.743314 Si / 1000 Ang^3
#
#
#
# Elastic Constant Matrix: (Units=GPa)
#
#
# Indices 1 2 3 4 5 6 
#
# 1 124.0818 33.3719 49.7531 3.9830 -0.9491 -25.3465
# 2 33.3719 62.7489 45.1528 4.1699 12.6875 -25.5166
# 3 49.7531 45.1528 97.0679 -3.4476 -8.2008 0.2052
# 4 3.9830 4.1699 -3.4476 20.1002 -4.5909 0.7591
# 5 -0.9491 12.6875 -8.2008 -4.5909 33.5273 3.5747
# 6 -25.3465 -25.5166 0.2052 0.7591 3.5747 25.7756
#
#
#
# Elastic Compliance Matrix: (Units=1/GPa)
#
#
# Indices 1 2 3 4 5 6 
#
# 1 0.001662 -0.038359 0.019963 0.018604 0.026332 -0.040697
# 2 -0.038359 -0.114757 0.083625 0.072723 0.090525 -0.166685
# 3 0.019963 0.083625 -0.045884 -0.047311 -0.060788 0.112604
# 4 0.018604 0.072723 -0.047311 0.008285 -0.047778 0.097044
# 5 0.026332 0.090525 -0.060788 -0.047778 -0.038178 0.122695
# 6 -0.040697 -0.166685 0.112604 0.097044 0.122695 -0.187004
#
#
# Mechanical properties :
#
#
# Convention : Reuss Voigt Hill
#
# Bulk Modulus (GPa) = -35.06379 60.05047 12.49334
# Shear Modulus (GPa) = -9.69293 26.25535 8.28121
#
# Velocity S-wave (km/s) = -2.21814 3.65065 2.05025
# Velocity P-wave (km/s) = 4.93544 6.94631 3.45635
#
# Compressibility (1/GPa) = -0.02851945
#
# Stress axis : x y z
#
# Youngs Moduli (GPa) = 601.57675 -8.71410 -21.79424
#
# Poissons Ratio (x) = -0.33426 0.43507
# Poissons Ratio (y) = 23.07563 1.82255
# Poissons Ratio (z) = -12.00901 0.72872
#
# Static dielectric constant tensor:
#      x y z
#    x 3.757030 -0.166750 0.146440 
#    y -0.166750 3.459060 -0.077970 
#    z 0.146440 -0.077970 4.201380 
# 
# 
# High freq. dielectric constant tensor:
#      x y z
#    x 1.778340 -0.013770 -0.007740 
#    y -0.013770 1.723510 -0.007760 
#    z -0.007740 -0.007760 1.774920 
# 
# From -- ./inp_files/77304.got.cif
#   From: 2010.06.25/outbox.cif.g09.slc.cpg/sg2_39_cif.got.tgz:77304.got - 2010.06.27 13:26:56.
