data_PCOD8009951
_publ_section_title
;
Structure prediction by ZEFSAII (Michael W. Deem and Ramdas Pophale) SiO2 
 PCOD8009951
Probable space group: P -1
;
_chemical_formula_sum "Si O2"
_cell_formula_units_Z 16
_cell_length_a 15.050924
_cell_length_b 11.573977
_cell_length_c 20.223980
_cell_angle_alpha 45.272185
_cell_angle_beta 27.270487
_cell_angle_gamma 30.721728
_cell_volume 796.750165
_symmetry_space_group_name_H-M "P -1"
_symmetry_group_IT_number 2
_symmetry_cell_setting 'triclinic'
loop_
_space_group_symop_operation_xyz
x,y,z
-x,-y,-z
loop_
_atom_site_type_symbol
_atom_site_label
_atom_site_fract_x
_atom_site_fract_y
_atom_site_fract_z
Si Si1 0.241414 0.441745 0.724889
Si Si2 0.398467 0.055627 0.704447
Si Si3 0.016813 0.299465 0.579498
Si Si4 0.814315 0.196810 0.639009
Si Si5 0.779334 0.470937 0.899544
Si Si6 0.365770 0.257655 0.981237
Si Si7 0.430534 0.369690 0.162588
Si Si8 0.742869 0.324682 0.488610
O O1 0.401233 0.174683 0.717939
O O2 0.420443 0.464694 0.637510
O O3 0.193296 0.540500 0.641922
O O4 0.951030 0.582177 0.898092
O O5 0.112520 0.251085 0.774814
O O6 0.450609 0.846215 0.783914
O O7 0.657958 0.946901 0.528559
O O8 0.877956 0.291965 0.612901
O O9 0.834210 0.372139 0.735498
O O10 0.000000 0.500000 0.500000
O O11 0.530273 0.270373 0.814844
O O12 0.792292 0.308133 0.540275
O O13 0.064305 0.919069 0.579367
O O14 0.677317 0.630398 0.837370
O O15 0.640519 0.645918 0.983047
O O16 0.680372 0.346508 0.003577
O O17 0.500000 0.000000 0.000000
#
# Coordination Sequence:
#
# PCOD8009951 Si02
#       8
#     2   2   2   2   2   2   2   2
#     4  10  21  39  60  92 125 160 199 258 309 368
#     4  10  21  37  63  88 124 155 203 258 304 363
#     4  10  21  38  63  87 120 158 206 257 299 365
#     4  11  21  40  63  89 121 164 206 254 314 366
#     4  10  22  39  63  89 120 165 203 249 312 365
#     4  11  22  38  63  90 129 160 203 255 309 374
#     4  10  21  40  63  87 121 162 205 253 307 366
#     4  10  22  38  64  88 122 160 206 252 312 374
#
# _framework density 20.081578
#
# number of rings (size 3 to 8) (size 9 to 14) (size 15 to 20)
#    0.000    1.750    3.750    0.375    0.000    6.000 
#    0.000    2.500    0.000    0.000    0.000    0.000 
#    0.000    0.000    0.000    0.000    0.000    0.000 
#
# Total GULP energy -198296.053063 kJ/mol
# GULP energy per Si atom -12393.503316 kJ/mol
# Density = 2.003587 g / cm^3
# Si number density = 20.081578 Si / 1000 Ang^3
#
#
#
# Elastic Constant Matrix: (Units=GPa)
#
#
# Indices 1 2 3 4 5 6 
#
# 1 70.1153 21.4386 20.7092 -0.7518 2.2142 -1.4409
# 2 21.4386 71.3163 25.8212 8.1197 -1.8059 4.7092
# 3 20.7092 25.8212 117.7069 9.8004 -9.5269 0.3451
# 4 -0.7518 8.1197 9.8004 30.0048 2.8214 0.5584
# 5 2.2142 -1.8059 -9.5269 2.8214 28.6761 3.5716
# 6 -1.4409 4.7092 0.3451 0.5584 3.5716 23.8803
#
#
#
# Elastic Compliance Matrix: (Units=1/GPa)
#
#
# Indices 1 2 3 4 5 6 
#
# 1 0.016549 -0.004653 -0.002355 0.002673 -0.002906 0.002322
# 2 -0.004653 0.017050 -0.002458 -0.003997 0.001475 -0.003735
# 3 -0.002355 -0.002458 0.009998 -0.003000 0.003679 -0.000282
# 4 0.002673 -0.003997 -0.003000 0.035919 -0.005103 0.000916
# 5 -0.002906 0.001475 0.003679 -0.005103 0.037665 -0.006033
# 6 0.002322 -0.003735 -0.000282 0.000916 -0.006033 0.043637
#
#
# Mechanical properties :
#
#
# Convention : Reuss Voigt Hill
#
# Bulk Modulus (GPa) = 40.54757 43.89737 42.22247
# Shear Modulus (GPa) = 26.59955 29.25687 27.92821
#
# Velocity S-wave (km/s) = 3.64342 3.82108 3.73331
# Velocity P-wave (km/s) = 6.15911 6.43230 6.29719
#
# Compressibility (1/GPa) = 0.02466239
#
# Stress axis : x y z
#
# Youngs Moduli (GPa) = 60.42721 58.65101 100.02254
#
# Poissons Ratio (x) = 0.27292 0.23559
# Poissons Ratio (y) = 0.28118 0.24590
# Poissons Ratio (z) = 0.14233 0.14419
#
# Static dielectric constant tensor:
#      x y z
#    x 3.673200 0.454560 0.239950 
#    y 0.454560 4.271020 0.631240 
#    z 0.239950 0.631240 4.631910 
# 
# 
# High freq. dielectric constant tensor:
#      x y z
#    x 1.771250 0.016060 -0.011690 
#    y 0.016060 1.776980 0.003260 
#    z -0.011690 0.003260 1.804320 
# 
# From -- ./inp_files/354556.got.cif
#   From: 2010.06.25/outbox.cif.g09.slc.cpg/sg2_178_cif.got.tgz:354556.got - 2010.06.27 13:26:56.
