data_PCOD8009687
_publ_section_title
;
Structure prediction by ZEFSAII (Michael W. Deem and Ramdas Pophale) SiO2 
 PCOD8009687
Probable space group: P -1
;
_chemical_formula_sum "Si O2"
_cell_formula_units_Z 16
_cell_length_a 12.186744
_cell_length_b 8.444815
_cell_length_c 18.414004
_cell_angle_alpha 146.553224
_cell_angle_beta 50.936422
_cell_angle_gamma 127.264917
_cell_volume 796.812729
_symmetry_space_group_name_H-M "P -1"
_symmetry_group_IT_number 2
_symmetry_cell_setting 'triclinic'
loop_
_space_group_symop_operation_xyz
x,y,z
-x,-y,-z
loop_
_atom_site_type_symbol
_atom_site_label
_atom_site_fract_x
_atom_site_fract_y
_atom_site_fract_z
Si Si1 0.077772 0.886173 0.270258
Si Si2 0.328379 0.665077 0.733309
Si Si3 0.958192 0.242759 0.059866
Si Si4 0.334261 0.826819 0.627759
Si Si5 0.046524 0.982436 0.781120
Si Si6 0.651369 0.814501 0.661003
Si Si7 0.341284 0.022885 0.445164
Si Si8 0.063349 0.626770 0.445038
O O1 0.036928 0.548192 0.178718
O O2 0.249775 0.989812 0.245547
O O3 0.020810 0.920878 0.226817
O O4 0.007774 0.089239 0.434137
O O5 0.213116 0.767283 0.873846
O O6 0.304913 0.784061 0.708821
O O7 0.486773 0.805057 0.749276
O O8 0.306673 0.314510 0.608235
O O9 0.000000 0.000000 0.000000
O O10 0.009024 0.199061 0.940698
O O11 0.219564 0.008890 0.712069
O O12 0.314349 0.511272 0.477303
O O13 0.495085 0.007170 0.615911
O O14 0.979398 0.639855 0.696227
O O15 0.680095 0.960879 0.626004
O O16 0.235907 0.739830 0.414250
O O17 0.000000 0.500000 0.500000
#
# Coordination Sequence:
#
# PCOD8009687 Si02
#       8
#     2   2   2   2   2   2   2   2
#     4  11  23  40  58  87 122 163 197 244 306 352
#     4   9  18  37  58  91 120 154 200 248 300 352
#     4  12  24  39  62  88 120 161 207 246 295 364
#     4   9  17  35  60  93 120 152 196 251 301 352
#     4  11  23  39  59  89 129 154 197 249 301 359
#     4   9  19  34  63  89 120 154 199 253 297 351
#     4   9  18  34  62  91 121 152 199 253 299 345
#     4  10  21  37  59  88 121 152 200 247 291 352
#
# _framework density 20.080000999999999
#
# number of rings (size 3 to 8) (size 9 to 14) (size 15 to 20)
#    0.000    2.000    3.750    1.875    1.750    0.500 
#    0.000    7.500    0.000    0.000    0.000    0.000 
#    0.000    0.000    0.000    0.000    0.000    0.000 
#
# Total GULP energy -198348.167497 kJ/mol
# GULP energy per Si atom -12396.760469 kJ/mol
# Density = 2.003430 g / cm^3
# Si number density = 20.080001 Si / 1000 Ang^3
#
#
#
# Elastic Constant Matrix: (Units=GPa)
#
#
# Indices 1 2 3 4 5 6 
#
# 1 130.4331 43.0647 36.4481 -4.1067 -15.8563 27.3849
# 2 43.0647 98.0097 34.7741 2.5554 -11.6808 34.0579
# 3 36.4481 34.7741 95.1902 0.3594 -15.1544 18.9849
# 4 -4.1067 2.5554 0.3594 31.9111 7.8212 -2.6811
# 5 -15.8563 -11.6808 -15.1544 7.8212 21.6622 -3.2321
# 6 27.3849 34.0579 18.9849 -2.6811 -3.2321 36.6069
#
#
#
# Elastic Compliance Matrix: (Units=1/GPa)
#
#
# Indices 1 2 3 4 5 6 
#
# 1 0.010270 -0.001676 -0.001576 -0.000119 0.004824 -0.004888
# 2 -0.001676 0.017151 -0.001940 -0.004212 0.006176 -0.013460
# 3 -0.001576 -0.001940 0.013795 -0.002416 0.007777 -0.003660
# 4 -0.000119 -0.004212 -0.002416 0.036189 -0.016147 0.006486
# 5 0.004824 0.006176 0.007777 -0.016147 0.062951 -0.009013
# 6 -0.004888 -0.013460 -0.003660 0.006486 -0.009013 0.045074
#
#
# Mechanical properties :
#
#
# Convention : Reuss Voigt Hill
#
# Bulk Modulus (GPa) = 32.43593 61.35631 46.89612
# Shear Modulus (GPa) = 24.26101 31.99244 28.12672
#
# Velocity S-wave (km/s) = 3.47971 3.99588 3.74670
# Velocity P-wave (km/s) = 5.68621 7.20498 6.49017
#
# Compressibility (1/GPa) = 0.03083000
#
# Stress axis : x y z
#
# Youngs Moduli (GPa) = 97.37300 58.30506 72.49085
#
# Poissons Ratio (x) = 0.09775 0.11428
# Poissons Ratio (y) = 0.16324 0.14063
# Poissons Ratio (z) = 0.15351 0.11311
#
# Static dielectric constant tensor:
#      x y z
#    x 3.613570 0.295730 0.005070 
#    y 0.295730 3.606230 0.100890 
#    z 0.005070 0.100890 4.051110 
# 
# 
# High freq. dielectric constant tensor:
#      x y z
#    x 1.783190 0.017670 -0.007450 
#    y 0.017670 1.776390 0.003280 
#    z -0.007450 0.003280 1.763010 
# 
# From -- ./inp_files/277490.got.cif
#   From: 2010.06.25/outbox.cif.g09.slc.cpg/sg2_139_cif.got.tgz:277490.got - 2010.06.27 13:26:56.
