data_PCOD8009308
_publ_section_title
;
Structure prediction by ZEFSAII (Michael W. Deem and Ramdas Pophale) SiO2 
 PCOD8009308
Probable space group: P -1
;
_chemical_formula_sum "Si O2"
_cell_formula_units_Z 14
_cell_length_a 14.770266
_cell_length_b 9.256308
_cell_length_c 9.669702
_cell_angle_alpha 58.512624
_cell_angle_beta 70.893765
_cell_angle_gamma 42.340165
_cell_volume 755.330709
_symmetry_space_group_name_H-M "P -1"
_symmetry_group_IT_number 2
_symmetry_cell_setting 'triclinic'
loop_
_space_group_symop_operation_xyz
x,y,z
-x,-y,-z
loop_
_atom_site_type_symbol
_atom_site_label
_atom_site_fract_x
_atom_site_fract_y
_atom_site_fract_z
Si Si1 0.824657 0.801160 0.793511
Si Si2 0.610925 0.478918 0.894143
Si Si3 0.110934 0.978903 0.016016
Si Si4 0.123558 0.345744 0.847221
Si Si5 0.675339 0.698825 0.419331
Si Si6 0.250005 0.750002 0.326076
Si Si7 0.376449 0.154250 0.316524
O O1 0.742932 0.774503 0.751034
O O2 0.983166 0.623905 0.763175
O O3 0.750559 0.076309 0.671658
O O4 0.817730 0.737924 0.984754
O O5 0.618160 0.431689 0.748814
O O6 0.584020 0.708154 0.824956
O O7 0.500000 0.500000 0.000000
O O8 0.749998 0.250014 0.012487
O O9 0.084041 0.208123 0.882872
O O10 0.118170 0.931685 0.201332
O O11 0.000000 0.000000 0.000000
O O12 0.242927 0.274533 0.731513
O O13 0.749431 0.423677 0.498533
O O14 0.682254 0.762080 0.540409
O O15 0.516830 0.876084 0.370239
#
# Coordination Sequence:
#
# PCOD8009308 Si02
#       7
#     2   2   2   2   2   2   2
#     4  10  21  39  57  83 112 151 183 233 275 335
#     4   9  17  33  55  80 106 146 182 228 264 328
#     4   9  17  33  55  80 106 146 182 228 264 328
#     4  10  21  36  61  81 115 146 190 227 282 325
#     4  10  21  39  57  83 112 151 183 233 275 335
#     4   8  20  36  56  76 118 144 178 232 284 320
#     4  10  21  36  61  81 115 146 190 227 282 325
#
# _framework density 18.534925999999999
#
# number of rings (size 3 to 8) (size 9 to 14) (size 15 to 20)
#    0.857    1.714    0.000    1.714    0.000    2.286 
#    0.000    0.000    3.143    0.000    0.000    0.000 
#    0.000    0.000    0.000    0.000    0.000    0.000 
#
# Total GULP energy -173442.987372 kJ/mol
# GULP energy per Si atom -12388.784812 kJ/mol
# Density = 1.849274 g / cm^3
# Si number density = 18.534926 Si / 1000 Ang^3
#
#
#
# Elastic Constant Matrix: (Units=GPa)
#
#
# Indices 1 2 3 4 5 6 
#
# 1 106.0796 43.5577 46.1605 5.3010 1.6701 -6.9733
# 2 43.5577 82.8954 45.6855 -13.5067 -11.0112 -3.8417
# 3 46.1605 45.6855 72.9510 -5.1232 -11.7134 1.7503
# 4 5.3010 -13.5067 -5.1232 35.3810 1.5755 -8.8979
# 5 1.6701 -11.0112 -11.7134 1.5755 20.5235 -2.2828
# 6 -6.9733 -3.8417 1.7503 -8.8979 -2.2828 25.6012
#
#
#
# Elastic Compliance Matrix: (Units=1/GPa)
#
#
# Indices 1 2 3 4 5 6 
#
# 1 0.015789 -0.005628 -0.008205 -0.004937 -0.008436 0.001549
# 2 -0.005628 0.022859 -0.009025 0.009564 0.007562 0.006512
# 3 -0.008205 -0.009025 0.026321 0.000013 0.010351 -0.004461
# 4 -0.004937 0.009564 0.000013 0.035706 0.004231 0.012877
# 5 -0.008436 0.007562 0.010351 0.004231 0.059597 0.004914
# 6 0.001549 0.006512 -0.004461 0.012877 0.004914 0.045679
#
#
# Mechanical properties :
#
#
# Convention : Reuss Voigt Hill
#
# Bulk Modulus (GPa) = 51.93572 59.19260 55.56416
# Shear Modulus (GPa) = 19.37348 24.73596 22.05472
#
# Velocity S-wave (km/s) = 3.23653 3.65713 3.45324
# Velocity P-wave (km/s) = 6.48445 7.05959 6.77812
#
# Compressibility (1/GPa) = 0.01925457
#
# Stress axis : x y z
#
# Youngs Moduli (GPa) = 63.33334 43.74671 37.99224
#
# Poissons Ratio (x) = 0.24620 0.31172
# Poissons Ratio (y) = 0.35643 0.34287
# Poissons Ratio (z) = 0.51964 0.39480
#
# Static dielectric constant tensor:
#      x y z
#    x 3.110470 0.074330 -0.006230 
#    y 0.074330 3.417680 -0.189200 
#    z -0.006230 -0.189200 3.320410 
# 
# 
# High freq. dielectric constant tensor:
#      x y z
#    x 1.703880 0.000800 -0.009230 
#    y 0.000800 1.721510 -0.023000 
#    z -0.009230 -0.023000 1.707590 
# 
# From -- ./inp_files/411618.got.cif
#   From: 2010.06.25/outbox.cif.g09.slc.cpg/sg2_206_cif.got.tgz:411618.got - 2010.06.27 13:26:56.
