data_PCOD8009367
_publ_section_title
;
Structure prediction by ZEFSAII (Michael W. Deem and Ramdas Pophale) SiO2 
 PCOD8009367
Probable space group: P -1
;
_chemical_formula_sum "Si O2"
_cell_formula_units_Z 16
_cell_length_a 5.182289
_cell_length_b 13.439348
_cell_length_c 12.124455
_cell_angle_alpha 113.112712
_cell_angle_beta 114.583206
_cell_angle_gamma 99.628164
_cell_volume 648.750694
_symmetry_space_group_name_H-M "P -1"
_symmetry_group_IT_number 2
_symmetry_cell_setting 'triclinic'
loop_
_space_group_symop_operation_xyz
x,y,z
-x,-y,-z
loop_
_atom_site_type_symbol
_atom_site_label
_atom_site_fract_x
_atom_site_fract_y
_atom_site_fract_z
Si Si1 0.534797 0.453650 0.330188
Si Si2 0.423793 0.783442 0.143172
Si Si3 0.921259 0.027403 0.673755
Si Si4 0.804221 0.344867 0.154364
Si Si5 0.554031 0.679572 0.531344
Si Si6 0.562979 0.184722 0.607284
Si Si7 0.851573 0.132053 0.179555
Si Si8 0.769464 0.032869 0.892637
O O1 0.707887 0.435092 0.245903
O O2 0.656819 0.591666 0.438195
O O3 0.622599 0.387931 0.420063
O O4 0.168621 0.401051 0.223618
O O5 0.412730 0.735443 0.244775
O O6 0.168631 0.835239 0.085462
O O7 0.719649 0.905595 0.246707
O O8 0.385698 0.678140 0.005577
O O9 0.780420 0.117947 0.644839
O O10 0.867867 0.981926 0.774790
O O11 0.783307 0.911888 0.521399
O O12 0.698809 0.216938 0.136946
O O13 0.333506 0.725491 0.439232
O O14 0.860531 0.790762 0.662887
O O15 0.588286 0.043377 0.173242
O O16 0.949131 0.064823 0.061848
#
# Coordination Sequence:
#
# PCOD8009367 Si02
#       8
#     2   2   2   2   2   2   2   2
#     4  10  24  45  66  99 120 166 212 273 320 372
#     4  10  21  38  63  83 127 168 208 259 317 371
#     4  10  21  36  62  88 126 166 208 257 302 388
#     4  10  23  42  70  90 128 162 216 268 320 368
#     4  10  22  40  66  86 132 159 212 259 326 374
#     4  10  22  39  56  95 121 170 204 258 310 384
#     4   9  19  36  59  93 126 167 202 258 317 385
#     4   9  19  36  56  93 127 159 213 248 315 377
#
# _framework density 24.662785
#
# number of rings (size 3 to 8) (size 9 to 14) (size 15 to 20)
#    0.000    2.250    0.000    1.125    8.750    6.500 
#    4.500    3.750    0.000    0.000    0.000    0.000 
#    0.000    0.000    0.000    0.000    0.000    0.000 
#
# Total GULP energy -198224.429565 kJ/mol
# GULP energy per Si atom -12389.026848 kJ/mol
# Density = 2.460665 g / cm^3
# Si number density = 24.662785 Si / 1000 Ang^3
#
#
#
# Elastic Constant Matrix: (Units=GPa)
#
#
# Indices 1 2 3 4 5 6 
#
# 1 37.6269 6.7118 31.5612 -4.8917 -19.7518 -1.7814
# 2 6.7118 91.7080 61.1576 -18.9502 5.3615 -14.6492
# 3 31.5612 61.1576 177.8370 -19.9083 -24.7087 -23.8296
# 4 -4.8917 -18.9502 -19.9083 45.7363 -7.6357 -1.4630
# 5 -19.7518 5.3615 -24.7087 -7.6357 35.8908 1.9906
# 6 -1.7814 -14.6492 -23.8296 -1.4630 1.9906 17.9373
#
#
#
# Elastic Compliance Matrix: (Units=1/GPa)
#
#
# Indices 1 2 3 4 5 6 
#
# 1 0.042319 -0.001233 -0.003845 0.005941 0.022307 -0.003903
# 2 -0.001233 0.016682 -0.004854 0.003902 -0.006129 0.008052
# 3 -0.003845 -0.004854 0.010406 0.003398 0.005992 0.009090
# 4 0.005941 0.003902 0.003398 0.027630 0.010383 0.009392
# 5 0.022307 -0.006129 0.005992 0.010383 0.047346 0.000763
# 6 -0.003903 0.008052 0.009090 0.009392 0.000763 0.074695
#
#
# Mechanical properties :
#
#
# Convention : Reuss Voigt Hill
#
# Bulk Modulus (GPa) = 20.18449 56.22590 38.20520
# Shear Modulus (GPa) = 19.57281 33.76230 26.66756
#
# Velocity S-wave (km/s) = 2.82018 3.70396 3.29186
# Velocity P-wave (km/s) = 4.33665 6.41403 5.47477
#
# Compressibility (1/GPa) = 0.04954300
#
# Stress axis : x y z
#
# Youngs Moduli (GPa) = 23.62978 59.94473 96.10112
#
# Poissons Ratio (x) = 0.07392 0.36952
# Poissons Ratio (y) = 0.02914 0.46647
# Poissons Ratio (z) = 0.09086 0.29097
#
# Static dielectric constant tensor:
#      x y z
#    x 4.063520 -0.271020 -0.187730 
#    y -0.271020 4.440970 -0.301360 
#    z -0.187730 -0.301360 5.190230 
# 
# 
# High freq. dielectric constant tensor:
#      x y z
#    x 1.953500 -0.022110 -0.006080 
#    y -0.022110 1.969940 -0.016000 
#    z -0.006080 -0.016000 2.016950 
# 
# From -- ./inp_files/367030.got.cif
#   From: 2010.06.25/outbox.cif.g09.slc.cpg/sg2_184_cif.got.tgz:367030.got - 2010.06.27 13:26:56.
