data_PCOD8009397
_publ_section_title
;
Structure prediction by ZEFSAII (Michael W. Deem and Ramdas Pophale) SiO2 
 PCOD8009397
Probable space group: P -1
;
_chemical_formula_sum "Si O2"
_cell_formula_units_Z 14
_cell_length_a 17.961608
_cell_length_b 5.253175
_cell_length_c 9.538415
_cell_angle_alpha 106.542144
_cell_angle_beta 83.618992
_cell_angle_gamma 123.814795
_cell_volume 715.543034
_symmetry_space_group_name_H-M "P -1"
_symmetry_group_IT_number 2
_symmetry_cell_setting 'triclinic'
loop_
_space_group_symop_operation_xyz
x,y,z
-x,-y,-z
loop_
_atom_site_type_symbol
_atom_site_label
_atom_site_fract_x
_atom_site_fract_y
_atom_site_fract_z
Si Si1 0.532442 0.735895 0.204456
Si Si2 0.257642 0.274549 0.620139
Si Si3 0.100639 0.685543 0.456195
Si Si4 0.181403 0.287030 0.372522
Si Si5 0.649091 0.389982 0.786309
Si Si6 0.409004 0.172753 0.498170
Si Si7 0.621820 0.342398 0.099120
O O1 0.423685 0.514874 0.204069
O O2 0.578906 0.939699 0.368487
O O3 0.567189 0.510309 0.128476
O O4 0.556136 0.985263 0.113391
O O5 0.235964 0.455852 0.533647
O O6 0.330168 0.229929 0.524304
O O7 0.290901 0.463655 0.788050
O O8 0.166621 0.920038 0.603932
O O9 0.124969 0.434789 0.364415
O O10 0.000000 0.500000 0.500000
O O11 0.114535 0.906162 0.352615
O O12 0.252102 0.340257 0.245991
O O13 0.609485 0.067011 0.658328
O O14 0.658861 0.333608 0.938671
O O15 0.500000 0.500000 0.500000
#
# Coordination Sequence:
#
# PCOD8009397 Si02
#       7
#     2   2   2   2   2   2   2
#     4  11  24  39  54  81 121 167 203 231 286 338
#     4   9  21  37  59  85 118 150 202 225 298 347
#     4  10  21  38  65  89 113 143 194 247 297 356
#     4  10  21  36  63  88 113 144 197 242 297 340
#     4  12  21  38  58  87 120 156 204 249 285 333
#     4  11  21  38  60  86 119 161 201 249 283 333
#     4  11  25  37  57  83 123 163 197 239 284 346
#
# _framework density 19.565556999999998
#
# number of rings (size 3 to 8) (size 9 to 14) (size 15 to 20)
#    0.857    0.571    1.429    5.143    2.000    4.571 
#    0.000    0.000    0.000    1.714    0.000    0.000 
#    0.000    0.000    0.000    0.000    0.000    0.000 
#
# Total GULP energy -173520.395084 kJ/mol
# GULP energy per Si atom -12394.313935 kJ/mol
# Density = 1.952103 g / cm^3
# Si number density = 19.565557 Si / 1000 Ang^3
#
#
#
# Elastic Constant Matrix: (Units=GPa)
#
#
# Indices 1 2 3 4 5 6 
#
# 1 97.7226 54.1738 34.2368 -16.6807 -18.1270 5.8262
# 2 54.1738 104.7073 44.4468 -25.5742 -16.6560 -0.4223
# 3 34.2368 44.4468 135.4426 -8.6049 -7.2103 0.2413
# 4 -16.6807 -25.5742 -8.6049 27.8927 8.7701 -0.5961
# 5 -18.1270 -16.6560 -7.2103 8.7701 14.7862 -11.1063
# 6 5.8262 -0.4223 0.2413 -0.5961 -11.1063 43.4371
#
#
#
# Elastic Compliance Matrix: (Units=1/GPa)
#
#
# Indices 1 2 3 4 5 6 
#
# 1 0.016407 -0.005623 -0.001565 -0.000266 0.014215 0.001384
# 2 -0.005623 0.017357 -0.003276 0.009089 0.008008 0.003113
# 3 -0.001565 -0.003276 0.008747 -0.000981 -0.000835 -0.000097
# 4 -0.000266 0.009089 -0.000981 0.051596 -0.025422 -0.005663
# 5 0.014215 0.008008 -0.000835 -0.025422 0.132581 0.031726
# 6 0.001384 0.003113 -0.000097 -0.005663 0.031726 0.030901
#
#
# Mechanical properties :
#
#
# Convention : Reuss Voigt Hill
#
# Bulk Modulus (GPa) = 46.33150 67.06523 56.69836
# Shear Modulus (GPa) = 17.50016 30.89087 24.19552
#
# Velocity S-wave (km/s) = 2.99396 3.97777 3.52040
# Velocity P-wave (km/s) = 5.97355 7.44637 6.75025
#
# Compressibility (1/GPa) = 0.02158359
#
# Stress axis : x y z
#
# Youngs Moduli (GPa) = 60.94881 57.61457 114.32093
#
# Poissons Ratio (x) = 0.32395 0.17889
# Poissons Ratio (y) = 0.34270 0.37454
# Poissons Ratio (z) = 0.09537 0.18876
#
# Static dielectric constant tensor:
#      x y z
#    x 3.574110 -0.065680 0.152670 
#    y -0.065680 3.474970 -0.106390 
#    z 0.152670 -0.106390 3.687820 
# 
# 
# High freq. dielectric constant tensor:
#      x y z
#    x 1.754290 -0.013480 0.001760 
#    y -0.013480 1.758420 -0.010300 
#    z 0.001760 -0.010300 1.748170 
# 
# From -- ./inp_files/35501.got.cif
#   From: 2010.06.25/outbox.cif.g09.slc.cpg/sg2_18_cif.got.tgz:35501.got - 2010.06.27 13:26:56.
