data_PCOD8009116
_publ_section_title
;
Structure prediction by ZEFSAII (Michael W. Deem and Ramdas Pophale) SiO2 
 PCOD8009116
Probable space group: P -1
;
_chemical_formula_sum "Si O2"
_cell_formula_units_Z 16
_cell_length_a 16.299501
_cell_length_b 16.479516
_cell_length_c 9.662402
_cell_angle_alpha 103.980617
_cell_angle_beta 47.978834
_cell_angle_gamma 143.846178
_cell_volume 831.904626
_symmetry_space_group_name_H-M "P -1"
_symmetry_group_IT_number 2
_symmetry_cell_setting 'triclinic'
loop_
_space_group_symop_operation_xyz
x,y,z
-x,-y,-z
loop_
_atom_site_type_symbol
_atom_site_label
_atom_site_fract_x
_atom_site_fract_y
_atom_site_fract_z
Si Si1 0.568612 0.357021 0.433981
Si Si2 0.516324 0.887880 0.843726
Si Si3 0.759496 0.754134 0.744070
Si Si4 0.278217 0.140963 0.408453
Si Si5 0.382784 0.526950 0.294707
Si Si6 0.868573 0.233843 0.088153
Si Si7 0.474861 0.104844 0.481201
Si Si8 0.141150 0.767709 0.218960
O O1 0.350433 0.223856 0.513186
O O2 0.525378 0.395845 0.619763
O O3 0.546198 0.250037 0.485239
O O4 0.836590 0.550383 0.135280
O O5 0.511617 0.785442 0.840708
O O6 0.599045 0.958301 0.620956
O O7 0.716592 0.068186 0.785648
O O8 0.244855 0.744157 0.117175
O O9 0.762354 0.810098 0.626258
O O10 0.667812 0.604258 0.728525
O O11 0.587235 0.689045 0.017704
O O12 0.015751 0.914184 0.604316
O O13 0.146113 0.425915 0.494146
O O14 0.717120 0.214617 0.293972
O O15 0.764495 0.085844 0.236298
O O16 0.821837 0.178875 0.958913
#
# Coordination Sequence:
#
# PCOD8009116 Si02
#       8
#     2   2   2   2   2   2   2   2
#     4  10  21  36  56  88 114 146 191 246 284 334
#     4   9  17  32  56  83 113 146 182 229 285 339
#     4  10  22  40  60  76 112 156 194 234 284 342
#     4  10  21  39  58  84 111 150 193 236 287 340
#     4  10  21  39  58  84 111 150 193 236 287 340
#     4   9  18  33  54  83 119 155 186 226 286 346
#     4   9  18  33  54  83 119 155 186 226 286 346
#     4   9  17  32  56  83 113 146 182 229 285 339
#
# _framework density 19.232973999999999
#
# number of rings (size 3 to 8) (size 9 to 14) (size 15 to 20)
#    0.000    2.500    1.250    0.375    0.000    4.000 
#    4.500    0.625    0.000    0.000    0.000    0.000 
#    0.000    0.000    0.000    0.000    0.000    0.000 
#
# Total GULP energy -198278.420626 kJ/mol
# GULP energy per Si atom -12392.401289 kJ/mol
# Density = 1.918920 g / cm^3
# Si number density = 19.232974 Si / 1000 Ang^3
#
#
#
# Elastic Constant Matrix: (Units=GPa)
#
#
# Indices 1 2 3 4 5 6 
#
# 1 75.7399 38.0429 30.0238 -0.3441 -10.0681 14.9115
# 2 38.0429 102.6964 42.0833 11.1822 -1.6563 19.6935
# 3 30.0238 42.0833 88.6832 8.3425 -3.5664 -4.3531
# 4 -0.3441 11.1822 8.3425 25.8937 -6.5868 8.8642
# 5 -10.0681 -1.6563 -3.5664 -6.5868 18.2874 -1.4287
# 6 14.9115 19.6935 -4.3531 8.8642 -1.4287 28.6931
#
#
#
# Elastic Compliance Matrix: (Units=1/GPa)
#
#
# Indices 1 2 3 4 5 6 
#
# 1 0.022504 -0.004134 -0.006890 0.012347 0.014102 -0.013015
# 2 -0.004134 0.015911 -0.006499 -0.002670 -0.003777 -0.009121
# 3 -0.006890 -0.006499 0.018011 -0.008330 -0.002838 0.013206
# 4 0.012347 -0.002670 -0.008330 0.056116 0.023423 -0.022017
# 5 0.014102 -0.003777 -0.002838 0.023423 0.069287 -0.008953
# 6 -0.013015 -0.009121 0.013206 -0.022017 -0.008953 0.056235
#
#
# Mechanical properties :
#
#
# Convention : Reuss Voigt Hill
#
# Bulk Modulus (GPa) = 46.77543 54.15774 50.46659
# Shear Modulus (GPa) = 17.84202 25.03948 21.44075
#
# Velocity S-wave (km/s) = 3.04909 3.61211 3.34247
# Velocity P-wave (km/s) = 6.06376 6.75399 6.41816
#
# Compressibility (1/GPa) = 0.02137874
#
# Stress axis : x y z
#
# Youngs Moduli (GPa) = 44.43692 62.84928 55.52276
#
# Poissons Ratio (x) = 0.25982 0.38256
# Poissons Ratio (y) = 0.18370 0.36085
# Poissons Ratio (z) = 0.30618 0.40847
#
# Static dielectric constant tensor:
#      x y z
#    x 3.469900 0.133750 -0.145840 
#    y 0.133750 3.602790 0.053570 
#    z -0.145840 0.053570 3.652260 
# 
# 
# High freq. dielectric constant tensor:
#      x y z
#    x 1.741620 0.010690 -0.011370 
#    y 0.010690 1.754050 0.010550 
#    z -0.011370 0.010550 1.735960 
# 
# From -- ./inp_files/315381.got.cif
#   From: 2010.06.25/outbox.cif.g09.slc.cpg/sg2_158_cif.got.tgz:315381.got - 2010.06.27 13:26:56.
