data_PCOD8009969
_publ_section_title
;
Structure prediction by ZEFSAII (Michael W. Deem and Ramdas Pophale) SiO2 
 PCOD8009969
Probable space group: P -1
;
_chemical_formula_sum "Si O2"
_cell_formula_units_Z 14
_cell_length_a 15.363876
_cell_length_b 24.757958
_cell_length_c 8.982799
_cell_angle_alpha 138.582371
_cell_angle_beta 39.564329
_cell_angle_gamma 161.011662
_cell_volume 704.504993
_symmetry_space_group_name_H-M "P -1"
_symmetry_group_IT_number 2
_symmetry_cell_setting 'triclinic'
loop_
_space_group_symop_operation_xyz
x,y,z
-x,-y,-z
loop_
_atom_site_type_symbol
_atom_site_label
_atom_site_fract_x
_atom_site_fract_y
_atom_site_fract_z
Si Si1 0.384798 0.572271 0.809770
Si Si2 0.579983 0.966296 0.536666
Si Si3 0.865144 0.154879 0.255713
Si Si4 0.203480 0.496183 0.574364
Si Si5 0.881086 0.732593 0.381754
Si Si6 0.695438 0.667650 0.163734
Si Si7 0.818125 0.391230 0.661123
O O1 0.267511 0.554570 0.779596
O O2 0.707983 0.714405 0.655732
O O3 0.202326 0.397413 0.711987
O O4 0.349610 0.614685 0.083353
O O5 0.382122 0.942276 0.727444
O O6 0.403472 0.795187 0.458332
O O7 0.747389 0.042789 0.318766
O O8 0.791021 0.086610 0.644485
O O9 0.045032 0.326408 0.427676
O O10 0.049047 0.184979 0.982788
O O11 0.502028 0.645849 0.402841
O O12 0.026618 0.476061 0.694431
O O13 0.823865 0.701578 0.218060
O O14 0.500000 0.500000 0.000000
O O15 0.000000 0.500000 0.500000
#
# Coordination Sequence:
#
# PCOD8009969 Si02
#       7
#     2   2   2   2   2   2   2
#     4  10  21  38  61  87 118 156 197 241 290 358
#     4  10  21  38  56  87 122 153 200 239 297 348
#     4   9  18  35  59  87 117 154 195 241 291 342
#     4   9  18  38  59  85 116 156 196 235 292 350
#     4  10  21  37  63  92 114 153 203 244 289 343
#     4   9  19  33  60  91 116 148 194 251 288 338
#     4  11  25  39  58  87 121 160 194 240 301 352
#
# _framework density 19.872109999999999
#
# number of rings (size 3 to 8) (size 9 to 14) (size 15 to 20)
#    0.000    2.286    1.429    0.429    8.000    1.143 
#    0.000    0.000    0.000    3.429    0.000    0.000 
#    0.000    0.000    0.000    0.000    0.000    0.000 
#
# Total GULP energy -173540.037891 kJ/mol
# GULP energy per Si atom -12395.716992 kJ/mol
# Density = 1.982688 g / cm^3
# Si number density = 19.872110 Si / 1000 Ang^3
#
#
#
# Elastic Constant Matrix: (Units=GPa)
#
#
# Indices 1 2 3 4 5 6 
#
# 1 66.5931 43.4008 19.5010 12.0760 5.7182 10.1023
# 2 43.4008 104.9874 29.2568 -15.2037 10.0745 4.9284
# 3 19.5010 29.2568 72.3383 -13.2434 12.0037 -3.6940
# 4 12.0760 -15.2037 -13.2434 23.7898 -1.6053 8.7636
# 5 5.7182 10.0745 12.0037 -1.6053 23.1327 0.1995
# 6 10.1023 4.9284 -3.6940 8.7636 0.1995 41.5953
#
#
#
# Elastic Compliance Matrix: (Units=1/GPa)
#
#
# Indices 1 2 3 4 5 6 
#
# 1 0.034177 -0.016510 -0.008675 -0.032568 0.000986 -0.000258
# 2 -0.016510 0.019798 0.000974 0.022432 -0.003464 -0.002959
# 3 -0.008675 0.000974 0.019859 0.015370 -0.007523 0.000553
# 4 -0.032568 0.022432 0.015370 0.085395 -0.003670 -0.011357
# 5 0.000986 -0.003464 -0.007523 -0.003670 0.048143 0.000045
# 6 -0.000258 -0.002959 0.000553 -0.011357 0.000045 0.026896
#
#
# Mechanical properties :
#
#
# Convention : Reuss Voigt Hill
#
# Bulk Modulus (GPa) = 39.35094 47.58179 43.46636
# Shear Modulus (GPa) = 17.17257 27.82091 22.49674
#
# Velocity S-wave (km/s) = 2.94284 3.74571 3.36828
# Velocity P-wave (km/s) = 5.60287 6.53476 6.08668
#
# Compressibility (1/GPa) = 0.02541236
#
# Stress axis : x y z
#
# Youngs Moduli (GPa) = 29.25908 50.50916 50.35438
#
# Poissons Ratio (x) = 0.83390 0.43684
# Poissons Ratio (y) = 0.48306 -0.04904
# Poissons Ratio (z) = 0.25383 -0.04919
#
# Static dielectric constant tensor:
#      x y z
#    x 3.602860 0.206220 0.062210 
#    y 0.206220 3.744480 -0.497630 
#    z 0.062210 -0.497630 3.672110 
# 
# 
# High freq. dielectric constant tensor:
#      x y z
#    x 1.777390 0.017310 0.010150 
#    y 0.017310 1.765810 -0.028410 
#    z 0.010150 -0.028410 1.759860 
# 
# From -- ./inp_files/182642.got.cif
#   From: 2010.06.25/outbox.cif.g09.slc.cpg/sg2_92_cif.got.tgz:182642.got - 2010.06.27 13:26:56.
