data_PCOD8009022
_publ_section_title
;
Structure prediction by ZEFSAII (Michael W. Deem and Ramdas Pophale) SiO2 
 PCOD8009022
Probable space group: P -1
;
_chemical_formula_sum "Si O2"
_cell_formula_units_Z 16
_cell_length_a 12.995014
_cell_length_b 9.889218
_cell_length_c 15.058068
_cell_angle_alpha 56.398872
_cell_angle_beta 80.787610
_cell_angle_gamma 127.234566
_cell_volume 854.023707
_symmetry_space_group_name_H-M "P -1"
_symmetry_group_IT_number 2
_symmetry_cell_setting 'triclinic'
loop_
_space_group_symop_operation_xyz
x,y,z
-x,-y,-z
loop_
_atom_site_type_symbol
_atom_site_label
_atom_site_fract_x
_atom_site_fract_y
_atom_site_fract_z
Si Si1 0.713255 0.334065 0.332347
Si Si2 0.809749 0.356486 0.597922
Si Si3 0.585052 0.307702 0.182985
Si Si4 0.973284 0.727138 0.907299
Si Si5 0.981434 0.453932 0.874642
Si Si6 0.660861 0.092773 0.907624
Si Si7 0.928965 0.778010 0.300316
Si Si8 0.630617 0.708937 0.988420
O O1 0.702275 0.414383 0.214184
O O2 0.848740 0.355666 0.289432
O O3 0.792280 0.548988 0.321445
O O4 0.500000 0.000000 0.500000
O O5 0.767320 0.306384 0.727534
O O6 0.846836 0.587488 0.471593
O O7 0.000000 0.500000 0.500000
O O8 0.626289 0.041823 0.682674
O O9 0.577864 0.490184 0.138219
O O10 0.739934 0.455329 0.032170
O O11 0.033122 0.685865 0.835031
O O12 0.080809 0.039621 0.760796
O O13 0.044382 0.733686 0.986550
O O14 0.793099 0.232929 0.922703
O O15 0.563748 0.793043 0.005549
O O16 0.500000 0.000000 0.000000
O O17 0.142494 0.986680 0.177977
O O18 0.500000 0.500000 0.000000
#
# Coordination Sequence:
#
# PCOD8009022 Si02
#       8
#     2   2   2   2   2   2   2   2
#     4  11  21  37  63  94 122 158 203 265 308 371
#     4  12  21  40  62  92 128 170 201 256 314 374
#     4  10  21  35  64  90 122 158 212 255 315 363
#     4   9  22  40  67  88 122 162 204 264 313 374
#     4  10  21  42  61  89 125 164 206 253 318 366
#     4  12  25  39  64  93 129 167 210 255 314 375
#     4  11  22  39  66  94 122 159 217 254 316 366
#     4  11  21  39  62  93 121 164 214 256 301 380
#
# _framework density 18.734842
#
# number of rings (size 3 to 8) (size 9 to 14) (size 15 to 20)
#    0.000    1.250    5.000    0.750    3.500    1.500 
#    0.000    2.500    0.000    0.000    0.000    0.000 
#    0.000    0.000    0.000    0.000    0.000    0.000 
#
# Total GULP energy -198229.258958 kJ/mol
# GULP energy per Si atom -12389.328685 kJ/mol
# Density = 1.869220 g / cm^3
# Si number density = 18.734842 Si / 1000 Ang^3
#
#
#
# Elastic Constant Matrix: (Units=GPa)
#
#
# Indices 1 2 3 4 5 6 
#
# 1 136.7496 65.8122 58.1364 -6.0876 1.1328 -16.2909
# 2 65.8122 118.4824 44.0161 -9.5257 2.7682 -1.1018
# 3 58.1364 44.0161 90.6762 -11.7568 5.0575 -13.2320
# 4 -6.0876 -9.5257 -11.7568 31.8103 -0.7875 -3.9246
# 5 1.1328 2.7682 5.0575 -0.7875 29.8888 -8.5062
# 6 -16.2909 -1.1018 -13.2320 -3.9246 -8.5062 42.4917
#
#
#
# Elastic Compliance Matrix: (Units=1/GPa)
#
#
# Indices 1 2 3 4 5 6 
#
# 1 0.012221 -0.004938 -0.005139 -0.000593 0.001775 0.003258
# 2 -0.004938 0.012407 -0.003004 0.001308 -0.001165 -0.002619
# 3 -0.005139 -0.003004 0.016972 0.004779 -0.001300 0.003418
# 4 -0.000593 0.001308 0.004779 0.034095 0.001331 0.004710
# 5 0.001775 -0.001165 -0.001300 0.001331 0.035903 0.007556
# 6 0.003258 -0.002619 0.003418 0.004710 0.007556 0.027727
#
#
# Mechanical properties :
#
#
# Convention : Reuss Voigt Hill
#
# Bulk Modulus (GPa) = 64.77613 75.75975 70.26794
# Shear Modulus (GPa) = 29.30253 32.70104 31.00179
#
# Velocity S-wave (km/s) = 3.95912 4.18241 4.07230
# Velocity P-wave (km/s) = 7.45317 7.99056 7.72654
#
# Compressibility (1/GPa) = 0.01543779
#
# Stress axis : x y z
#
# Youngs Moduli (GPa) = 81.82844 80.59948 58.91929
#
# Poissons Ratio (x) = 0.39799 0.30278
# Poissons Ratio (y) = 0.40406 0.17702
# Poissons Ratio (z) = 0.42050 0.24215
#
# Static dielectric constant tensor:
#      x y z
#    x 3.737770 0.032330 0.176680 
#    y 0.032330 3.488440 -0.180700 
#    z 0.176680 -0.180700 3.839210 
# 
# 
# High freq. dielectric constant tensor:
#      x y z
#    x 1.748950 0.014850 0.003470 
#    y 0.014850 1.727970 -0.003890 
#    z 0.003470 -0.003890 1.714690 
# 
# From -- ./inp_files/205759.got.cif
#   From: 2010.06.25/outbox.cif.g09.slc.cpg/sg2_103_cif.got.tgz:205759.got - 2010.06.27 13:26:56.
