data_PCOD8009025
_publ_section_title
;
Structure prediction by ZEFSAII (Michael W. Deem and Ramdas Pophale) SiO2 
 PCOD8009025
Probable space group: P -1
;
_chemical_formula_sum "Si O2"
_cell_formula_units_Z 16
_cell_length_a 14.985882
_cell_length_b 22.353433
_cell_length_c 11.668438
_cell_angle_alpha 45.543083
_cell_angle_beta 29.407677
_cell_angle_gamma 25.781779
_cell_volume 767.401690
_symmetry_space_group_name_H-M "P -1"
_symmetry_group_IT_number 2
_symmetry_cell_setting 'triclinic'
loop_
_space_group_symop_operation_xyz
x,y,z
-x,-y,-z
loop_
_atom_site_type_symbol
_atom_site_label
_atom_site_fract_x
_atom_site_fract_y
_atom_site_fract_z
Si Si1 0.254716 0.973334 0.772157
Si Si2 0.367423 0.373157 0.424267
Si Si3 0.111499 0.727889 0.139553
Si Si4 0.500487 0.835253 0.076444
Si Si5 0.784798 0.830507 0.945880
Si Si6 0.158420 0.299850 0.367607
Si Si7 0.716577 0.782591 0.330052
Si Si8 0.810784 0.186371 0.401488
O O1 0.553438 0.813028 0.713156
O O2 0.392878 0.946580 0.529177
O O3 0.131146 0.099870 0.811770
O O4 0.000000 0.000000 0.000000
O O5 0.281810 0.319192 0.529668
O O6 0.619420 0.265349 0.391128
O O7 0.036528 0.539121 0.619267
O O8 0.527108 0.374729 0.148431
O O9 0.082926 0.685942 0.347120
O O10 0.023967 0.703896 0.159314
O O11 0.390011 0.788275 0.313696
O O12 0.789725 0.760261 0.933848
O O13 0.677838 0.763926 0.853219
O O14 0.170362 0.015368 0.197089
O O15 0.126671 0.747530 0.695578
O O16 0.690723 0.817492 0.181912
O O17 0.500000 0.000000 0.000000
#
# Coordination Sequence:
#
# PCOD8009025 Si02
#       8
#     2   2   2   2   2   2   2   2
#     4  11  24  42  68  96 125 168 215 276 317 379
#     4  12  23  43  65  95 136 173 212 264 328 389
#     4  11  24  45  68  92 131 169 218 269 320 384
#     4  10  22  42  62  94 128 162 221 266 312 380
#     4  10  21  35  64  96 119 165 214 267 317 372
#     4  11  26  42  64  98 134 172 214 267 324 387
#     4  11  22  40  67  94 130 168 216 265 324 381
#     4  10  21  39  66  92 123 170 212 266 323 373
#
# _framework density 20.849577
#
# number of rings (size 3 to 8) (size 9 to 14) (size 15 to 20)
#    0.000    1.250    3.750    2.625    5.250    2.500 
#    2.250    0.625    0.000    0.000    0.000    0.000 
#    0.000    0.000    0.000    0.000    0.000    0.000 
#
# Total GULP energy -198266.571355 kJ/mol
# GULP energy per Si atom -12391.660710 kJ/mol
# Density = 2.080212 g / cm^3
# Si number density = 20.849577 Si / 1000 Ang^3
#
#
#
# Elastic Constant Matrix: (Units=GPa)
#
#
# Indices 1 2 3 4 5 6 
#
# 1 85.9673 55.8363 42.9881 -7.7449 -7.0969 21.1280
# 2 55.8363 68.2170 51.2766 4.9211 -0.2905 12.9799
# 3 42.9881 51.2766 126.1462 -15.7531 12.1497 17.0212
# 4 -7.7449 4.9211 -15.7531 29.2145 3.9730 -4.2609
# 5 -7.0969 -0.2905 12.1497 3.9730 41.3400 -11.6679
# 6 21.1280 12.9799 17.0212 -4.2609 -11.6679 19.1665
#
#
#
# Elastic Compliance Matrix: (Units=1/GPa)
#
#
# Indices 1 2 3 4 5 6 
#
# 1 0.033705 -0.028176 0.004838 0.013618 -0.003142 -0.021255
# 2 -0.028176 0.048796 -0.014708 -0.022961 0.004492 0.008706
# 3 0.004838 -0.014708 0.016267 0.011897 -0.008720 -0.012483
# 4 0.013618 -0.022961 0.011897 0.048564 -0.006967 -0.003472
# 5 -0.003142 0.004492 -0.008720 -0.006967 0.034753 0.027772
# 6 -0.021255 0.008706 -0.012483 -0.003472 0.027772 0.096929
#
#
# Mechanical properties :
#
#
# Convention : Reuss Voigt Hill
#
# Bulk Modulus (GPa) = 44.09834 64.50362 54.30098
# Shear Modulus (GPa) = 13.78691 26.62616 20.20654
#
# Velocity S-wave (km/s) = 2.57428 3.57747 3.11651
# Velocity P-wave (km/s) = 5.48019 6.93320 6.24907
#
# Compressibility (1/GPa) = 0.02267659
#
# Stress axis : x y z
#
# Youngs Moduli (GPa) = 29.66958 20.49354 61.47430
#
# Poissons Ratio (x) = 0.57743 -0.29744
# Poissons Ratio (y) = 0.83597 0.90415
# Poissons Ratio (z) = -0.14355 0.30142
#
# Static dielectric constant tensor:
#      x y z
#    x 4.002660 0.204800 -0.138880 
#    y 0.204800 3.776040 -0.228080 
#    z -0.138880 -0.228080 3.983290 
# 
# 
# High freq. dielectric constant tensor:
#      x y z
#    x 1.820490 0.005580 -0.003020 
#    y 0.005580 1.799400 -0.018990 
#    z -0.003020 -0.018990 1.827200 
# 
# From -- ./inp_files/457687.got.cif
#   From: 2010.06.25/outbox.cif.g09.slc.cpg/sg2_229_cif.got.tgz:457687.got - 2010.06.27 13:26:56.
