data_PCOD8009136
_publ_section_title
;
Structure prediction by ZEFSAII (Michael W. Deem and Ramdas Pophale) SiO2 
 PCOD8009136
Probable space group: P -1
;
_chemical_formula_sum "Si O2"
_cell_formula_units_Z 16
_cell_length_a 6.541450
_cell_length_b 23.573620
_cell_length_c 10.842703
_cell_angle_alpha 150.122846
_cell_angle_beta 109.276372
_cell_angle_gamma 78.784247
_cell_volume 771.091489
_symmetry_space_group_name_H-M "P -1"
_symmetry_group_IT_number 2
_symmetry_cell_setting 'triclinic'
loop_
_space_group_symop_operation_xyz
x,y,z
-x,-y,-z
loop_
_atom_site_type_symbol
_atom_site_label
_atom_site_fract_x
_atom_site_fract_y
_atom_site_fract_z
Si Si1 0.446307 0.040479 0.854286
Si Si2 0.153372 0.700322 0.290278
Si Si3 0.434580 0.367431 0.619574
Si Si4 0.089324 0.165584 0.085041
Si Si5 0.428336 0.779101 0.273080
Si Si6 0.373499 0.874773 0.194131
Si Si7 0.699700 0.603760 0.086654
Si Si8 0.883364 0.107508 0.184593
O O1 0.516629 0.135707 0.937384
O O2 0.459653 0.912133 0.571465
O O3 0.208151 0.053846 0.884965
O O4 0.620014 0.068003 0.051141
O O5 0.359345 0.684928 0.387089
O O6 0.215944 0.710081 0.176359
O O7 0.069057 0.815706 0.538181
O O8 0.942688 0.595965 0.068707
O O9 0.282587 0.281433 0.330246
O O10 0.290743 0.392949 0.756440
O O11 0.527077 0.487707 0.792359
O O12 0.980947 0.181343 0.224400
O O13 0.894089 0.142977 0.902298
O O14 0.404898 0.776178 0.114022
O O15 0.632905 0.719761 0.236374
O O16 0.500000 0.000000 0.500000
O O17 0.000000 0.000000 0.000000
#
# Coordination Sequence:
#
# PCOD8009136 Si02
#       8
#     2   2   2   2   2   2   2   2
#     4  10  21  36  57  84 116 152 188 232 285 343
#     4  11  20  34  57  85 115 151 184 232 288 343
#     4  10  21  37  58  85 114 152 196 226 289 345
#     4  11  21  37  59  86 114 154 189 237 282 343
#     4  10  22  37  57  84 112 153 195 231 287 339
#     4   9  22  41  58  83 114 155 197 233 281 341
#     4  10  21  38  57  82 119 151 187 243 279 338
#     4  11  21  31  53  87 122 146 179 232 289 342
#
# _framework density 20.749804999999999
#
# number of rings (size 3 to 8) (size 9 to 14) (size 15 to 20)
#    0.000    1.750    2.500    1.875    1.750    6.000 
#    0.000    0.625    0.000    1.500    0.000    0.000 
#    0.000    0.000    0.000    0.000    0.000    0.000 
#
# Total GULP energy -198215.004338 kJ/mol
# GULP energy per Si atom -12388.437771 kJ/mol
# Density = 2.070258 g / cm^3
# Si number density = 20.749805 Si / 1000 Ang^3
#
#
#
# Elastic Constant Matrix: (Units=GPa)
#
#
# Indices 1 2 3 4 5 6 
#
# 1 100.1158 26.2697 19.8046 -0.7351 25.3769 1.3842
# 2 26.2697 68.5523 22.0971 2.8617 18.9858 6.7203
# 3 19.8046 22.0971 90.3436 1.9041 24.8477 -8.8012
# 4 -0.7351 2.8617 1.9041 21.9638 -6.3767 4.2258
# 5 25.3769 18.9858 24.8477 -6.3767 35.8877 -0.7430
# 6 1.3842 6.7203 -8.8012 4.2258 -0.7430 22.0341
#
#
#
# Elastic Compliance Matrix: (Units=1/GPa)
#
#
# Indices 1 2 3 4 5 6 
#
# 1 0.012648 -0.002633 0.000077 -0.001540 -0.007876 0.000069
# 2 -0.002633 0.019204 -0.002721 -0.003187 -0.007113 -0.006407
# 3 0.000077 -0.002721 0.015331 -0.005351 -0.010022 0.007637
# 4 -0.001540 -0.003187 -0.005351 0.052965 0.015670 -0.010698
# 5 -0.007876 -0.007113 -0.010022 0.015670 0.046864 -0.002764
# 6 0.000069 -0.006407 0.007637 -0.010698 -0.002764 0.052343
#
#
# Mechanical properties :
#
#
# Convention : Reuss Voigt Hill
#
# Bulk Modulus (GPa) = 27.29991 43.92828 35.61409
# Shear Modulus (GPa) = 22.51055 28.69981 25.60518
#
# Velocity S-wave (km/s) = 3.29729 3.72309 3.51664
# Velocity P-wave (km/s) = 5.26131 6.30066 5.80430
#
# Compressibility (1/GPa) = 0.03663016
#
# Stress axis : x y z
#
# Youngs Moduli (GPa) = 79.06214 52.07116 65.22859
#
# Poissons Ratio (x) = 0.13709 -0.00500
# Poissons Ratio (y) = 0.20814 0.17747
# Poissons Ratio (z) = -0.00607 0.14167
#
# Static dielectric constant tensor:
#      x y z
#    x 4.110790 0.223830 0.111290 
#    y 0.223830 3.893360 0.014430 
#    z 0.111290 0.014430 3.759140 
# 
# 
# High freq. dielectric constant tensor:
#      x y z
#    x 1.826620 0.002120 0.014710 
#    y 0.002120 1.784470 0.010450 
#    z 0.014710 0.010450 1.791540 
# 
# From -- ./inp_files/69787.got.cif
#   From: 2010.06.25/outbox.cif.g09.slc.cpg/sg2_35_cif.got.tgz:69787.got - 2010.06.27 13:26:56.
