data_PCOD8009797
_publ_section_title
;
Structure prediction by ZEFSAII (Michael W. Deem and Ramdas Pophale) SiO2 
 PCOD8009797
Probable space group: P -1
;
_chemical_formula_sum "Si O2"
_cell_formula_units_Z 16
_cell_length_a 8.764847
_cell_length_b 14.655789
_cell_length_c 15.366856
_cell_angle_alpha 148.685881
_cell_angle_beta 124.069484
_cell_angle_gamma 49.415665
_cell_volume 779.090345
_symmetry_space_group_name_H-M "P -1"
_symmetry_group_IT_number 2
_symmetry_cell_setting 'triclinic'
loop_
_space_group_symop_operation_xyz
x,y,z
-x,-y,-z
loop_
_atom_site_type_symbol
_atom_site_label
_atom_site_fract_x
_atom_site_fract_y
_atom_site_fract_z
Si Si1 0.441810 0.405350 0.032891
Si Si2 0.389176 0.873208 0.892171
Si Si3 0.072955 0.631591 0.412010
Si Si4 0.407917 0.524873 0.307776
Si Si5 0.010085 0.016523 0.226187
Si Si6 0.292595 0.993025 0.145524
Si Si7 0.810733 0.427645 0.072811
Si Si8 0.780810 0.583663 0.541095
O O1 0.355425 0.531048 0.194169
O O2 0.625769 0.454634 0.098656
O O3 0.265742 0.461699 0.951960
O O4 0.514044 0.178604 0.890368
O O5 0.571473 0.672102 0.801164
O O6 0.231106 0.876244 0.770365
O O7 0.500000 0.000000 0.000000
O O8 0.259846 0.939967 0.993853
O O9 0.217971 0.672744 0.420806
O O10 0.201524 0.497512 0.422203
O O11 0.930815 0.846990 0.577135
O O12 0.944470 0.524041 0.240556
O O13 0.625706 0.530225 0.391507
O O14 0.099494 0.021156 0.163778
O O15 0.071873 0.797396 0.097370
O O16 0.324945 0.187664 0.308692
O O17 0.000000 0.500000 0.500000
#
# Coordination Sequence:
#
# PCOD8009797 Si02
#       8
#     2   2   2   2   2   2   2   2
#     4   9  22  44  65  85 118 160 212 262 297 362
#     4  11  21  36  59  87 122 162 197 249 309 369
#     4  12  24  39  62  94 128 163 198 254 309 374
#     4  11  23  38  59  91 129 156 198 253 310 368
#     4  11  22  39  60  91 123 159 207 248 305 368
#     4  10  21  37  61  88 116 163 201 250 306 361
#     4  10  22  45  66  87 118 164 213 258 305 352
#     4  12  21  37  60  93 127 156 197 251 305 367
#
# _framework density 20.536771999999999
#
# number of rings (size 3 to 8) (size 9 to 14) (size 15 to 20)
#    0.000    1.250    2.500    3.750    1.750    2.500 
#    2.250    2.500    0.000    0.000    0.000    0.000 
#    0.000    0.000    0.000    0.000    0.000    0.000 
#
# Total GULP energy -198312.991893 kJ/mol
# GULP energy per Si atom -12394.561993 kJ/mol
# Density = 2.049003 g / cm^3
# Si number density = 20.536772 Si / 1000 Ang^3
#
#
#
# Elastic Constant Matrix: (Units=GPa)
#
#
# Indices 1 2 3 4 5 6 
#
# 1 72.0786 14.0295 25.5258 2.6442 -12.9417 -6.2265
# 2 14.0295 98.7737 52.5455 1.9307 -2.9744 11.3042
# 3 25.5258 52.5455 127.2886 8.7604 1.1527 0.1445
# 4 2.6442 1.9307 8.7604 24.9228 1.3514 6.3757
# 5 -12.9417 -2.9744 1.1527 1.3514 33.5037 -0.8936
# 6 -6.2265 11.3042 0.1445 6.3757 -0.8936 13.5677
#
#
#
# Elastic Compliance Matrix: (Units=1/GPa)
#
#
# Indices 1 2 3 4 5 6 
#
# 1 0.017746 -0.002451 -0.002314 -0.004554 0.007243 0.012827
# 2 -0.002451 0.015640 -0.006327 0.005544 -0.000009 -0.016694
# 3 -0.002314 -0.006327 0.011264 -0.004734 -0.001486 0.006217
# 4 -0.004554 0.005544 -0.004734 0.049812 -0.003922 -0.030324
# 5 0.007243 -0.000009 -0.001486 -0.003922 0.033050 0.007367
# 6 0.012827 -0.016694 0.006217 -0.030324 0.007367 0.108169
#
#
# Mechanical properties :
#
#
# Convention : Reuss Voigt Hill
#
# Bulk Modulus (GPa) = 44.51043 53.59361 49.05202
# Shear Modulus (GPa) = 18.84283 28.13483 23.48883
#
# Velocity S-wave (km/s) = 3.03234 3.70533 3.38560
# Velocity P-wave (km/s) = 5.82930 6.66776 6.26258
#
# Compressibility (1/GPa) = 0.02246664
#
# Stress axis : x y z
#
# Youngs Moduli (GPa) = 56.35192 63.93788 88.77577
#
# Poissons Ratio (x) = 0.15668 0.20541
# Poissons Ratio (y) = 0.13809 0.56172
# Poissons Ratio (z) = 0.13038 0.40456
#
# Static dielectric constant tensor:
#      x y z
#    x 3.440340 0.452250 -0.064620 
#    y 0.452250 3.419520 0.088570 
#    z -0.064620 0.088570 3.836460 
# 
# 
# High freq. dielectric constant tensor:
#      x y z
#    x 1.807640 0.008840 -0.006270 
#    y 0.008840 1.785970 0.007620 
#    z -0.006270 0.007620 1.808280 
# 
# From -- ./inp_files/208297.got.cif
#   From: 2010.06.25/outbox.cif.g09.slc.cpg/sg2_105_cif.got.tgz:208297.got - 2010.06.27 13:26:56.
