data_PCOD8009650
_publ_section_title
;
Structure prediction by ZEFSAII (Michael W. Deem and Ramdas Pophale) SiO2 
 PCOD8009650
Probable space group: P -1
;
_chemical_formula_sum "Si O2"
_cell_formula_units_Z 16
_cell_length_a 10.274238
_cell_length_b 18.078035
_cell_length_c 7.011007
_cell_angle_alpha 88.631478
_cell_angle_beta 67.146026
_cell_angle_gamma 42.618790
_cell_volume 737.477978
_symmetry_space_group_name_H-M "P -1"
_symmetry_group_IT_number 2
_symmetry_cell_setting 'triclinic'
loop_
_space_group_symop_operation_xyz
x,y,z
-x,-y,-z
loop_
_atom_site_type_symbol
_atom_site_label
_atom_site_fract_x
_atom_site_fract_y
_atom_site_fract_z
Si Si1 0.559320 0.158125 0.919791
Si Si2 0.260064 0.069777 0.201800
Si Si3 0.327383 0.499255 0.868950
Si Si4 0.640037 0.244364 0.580517
Si Si5 0.030478 0.812348 0.315877
Si Si6 0.818965 0.138962 0.070476
Si Si7 0.264606 0.570953 0.294318
Si Si8 0.945249 0.700642 0.804650
O O1 0.588866 0.183386 0.693699
O O2 0.746330 0.014337 0.847618
O O3 0.610228 0.197771 0.050822
O O4 0.301262 0.235248 0.076289
O O5 0.071689 0.202194 0.201646
O O6 0.226787 0.090298 0.452135
O O7 0.500000 0.000000 0.000000
O O8 0.414615 0.388658 0.724210
O O9 0.503944 0.494548 0.731550
O O10 0.074613 0.624186 0.928303
O O11 0.316290 0.488698 0.105851
O O12 0.850996 0.191654 0.578382
O O13 0.705551 0.212964 0.324525
O O14 0.149862 0.684364 0.228600
O O15 0.042197 0.850795 0.108147
O O16 0.000000 0.000000 0.000000
O O17 0.096839 0.607929 0.547106
#
# Coordination Sequence:
#
# PCOD8009650 Si02
#       8
#     2   2   2   2   2   2   2   2
#     4  10  22  39  56  83 117 149 191 235 280 337
#     4   9  18  36  59  82 113 148 183 231 285 333
#     4  10  21  37  59  84 114 150 190 231 282 338
#     4  10  22  38  57  83 115 150 189 234 280 333
#     4   9  19  36  57  85 114 143 187 236 282 334
#     4  11  22  36  60  85 111 152 195 234 279 333
#     4   9  20  37  58  86 115 144 187 236 280 337
#     4  10  21  37  60  84 114 152 185 232 289 336
#
# _framework density 21.695564000000001
#
# number of rings (size 3 to 8) (size 9 to 14) (size 15 to 20)
#    0.000    2.250    0.000    1.875    0.000   11.500 
#    0.000    1.250    0.000   10.500    0.000    0.000 
#    0.000    0.000    0.000    0.000    0.000    0.000 
#
# Total GULP energy -198296.002522 kJ/mol
# GULP energy per Si atom -12393.500158 kJ/mol
# Density = 2.164618 g / cm^3
# Si number density = 21.695564 Si / 1000 Ang^3
#
#
#
# Elastic Constant Matrix: (Units=GPa)
#
#
# Indices 1 2 3 4 5 6 
#
# 1 53.3100 22.5637 43.0998 -1.0497 -4.1219 2.2612
# 2 22.5637 81.5348 25.1993 1.4956 3.6959 0.7842
# 3 43.0998 25.1993 141.0569 1.2740 1.2087 0.9754
# 4 -1.0497 1.4956 1.2740 36.0284 4.1219 -3.0414
# 5 -4.1219 3.6959 1.2087 4.1219 34.9754 2.6077
# 6 2.2612 0.7842 0.9754 -3.0414 2.6077 26.7730
#
#
#
# Elastic Compliance Matrix: (Units=1/GPa)
#
#
# Indices 1 2 3 4 5 6 
#
# 1 0.027547 -0.005497 -0.007461 0.000628 0.004177 -0.002229
# 2 -0.005497 0.014142 -0.000826 -0.000461 -0.002076 0.000230
# 3 -0.007461 -0.000826 0.009527 -0.000362 -0.001106 0.000374
# 4 0.000628 -0.000461 -0.000362 0.028505 -0.003489 0.003552
# 5 0.004177 -0.002076 -0.001106 -0.003489 0.030019 -0.003572
# 6 -0.002229 0.000230 0.000374 0.003552 -0.003572 0.038270
#
#
# Mechanical properties :
#
#
# Convention : Reuss Voigt Hill
#
# Bulk Modulus (GPa) = 42.28896 50.84748 46.56822
# Shear Modulus (GPa) = 27.25392 31.89130 29.57261
#
# Velocity S-wave (km/s) = 3.54813 3.83815 3.69599
# Velocity P-wave (km/s) = 6.02660 6.56731 6.30276
#
# Compressibility (1/GPa) = 0.02364684
#
# Stress axis : x y z
#
# Youngs Moduli (GPa) = 36.30213 70.71310 104.96682
#
# Poissons Ratio (x) = 0.38869 0.78315
# Poissons Ratio (y) = 0.19954 0.08675
# Poissons Ratio (z) = 0.27085 0.05844
#
# Static dielectric constant tensor:
#      x y z
#    x 3.700370 0.222150 -0.130280 
#    y 0.222150 4.067480 0.165980 
#    z -0.130280 0.165980 4.136340 
# 
# 
# High freq. dielectric constant tensor:
#      x y z
#    x 1.819220 0.011150 -0.007560 
#    y 0.011150 1.852130 0.010800 
#    z -0.007560 0.010800 1.868490 
# 
# From -- ./inp_files/82630.got.cif
#   From: 2010.06.25/outbox.cif.g09.slc.cpg/sg2_42_cif.got.tgz:82630.got - 2010.06.27 13:26:56.
