data_PCOD8009266
_publ_section_title
;
Structure prediction by ZEFSAII (Michael W. Deem and Ramdas Pophale) SiO2 
 PCOD8009266
Probable space group: P -1
;
_chemical_formula_sum "Si O2"
_cell_formula_units_Z 16
_cell_length_a 9.716946
_cell_length_b 15.792175
_cell_length_c 8.921868
_cell_angle_alpha 119.310336
_cell_angle_beta 122.058677
_cell_angle_gamma 99.612558
_cell_volume 825.942428
_symmetry_space_group_name_H-M "P -1"
_symmetry_group_IT_number 2
_symmetry_cell_setting 'triclinic'
loop_
_space_group_symop_operation_xyz
x,y,z
-x,-y,-z
loop_
_atom_site_type_symbol
_atom_site_label
_atom_site_fract_x
_atom_site_fract_y
_atom_site_fract_z
Si Si1 0.563494 0.198084 0.083329
Si Si2 0.897402 0.737433 0.455454
Si Si3 0.469795 0.264476 0.797865
Si Si4 0.127264 0.632351 0.016761
Si Si5 0.308617 0.997952 0.419323
Si Si6 0.122779 0.801869 0.926975
Si Si7 0.153150 0.971401 0.616181
Si Si8 0.109893 0.639212 0.353974
O O1 0.683877 0.157102 0.025950
O O2 0.682320 0.273114 0.363263
O O3 0.530616 0.276475 0.018048
O O4 0.347791 0.083170 0.907882
O O5 0.670869 0.690645 0.258472
O O6 0.932280 0.746083 0.661781
O O7 0.053256 0.865395 0.583472
O O8 0.934004 0.644237 0.325689
O O9 0.663764 0.347794 0.881579
O O10 0.353787 0.127982 0.556073
O O11 0.138976 0.677277 0.230798
O O12 0.082842 0.704492 0.941160
O O13 0.950491 0.493741 0.777767
O O14 0.500000 0.000000 0.500000
O O15 0.221114 0.937108 0.477363
O O16 0.152213 0.914762 0.126963
O O17 0.000000 0.000000 0.500000
#
# Coordination Sequence:
#
# PCOD8009266 Si02
#       8
#     2   2   2   2   2   2   2   2
#     4   9  19  37  58  86 112 156 191 237 278 350
#     4  11  23  37  56  93 118 154 192 233 293 353
#     4  10  21  37  58  85 125 147 191 237 293 347
#     4  10  21  43  61  84 112 153 198 252 282 340
#     4  11  18  36  60  85 114 164 188 236 289 340
#     4  10  21  36  60  83 119 156 198 231 286 348
#     4  11  20  37  58  86 125 153 185 239 289 343
#     4  10  23  39  65  85 107 151 209 240 290 339
#
# _framework density 19.371808999999999
#
# number of rings (size 3 to 8) (size 9 to 14) (size 15 to 20)
#    0.000    1.750    6.250    0.750    0.000    8.500 
#    2.250    0.000    0.000    3.000    0.000    0.000 
#    0.000    0.000    0.000    0.000    0.000    0.000 
#
# Total GULP energy -198382.018457 kJ/mol
# GULP energy per Si atom -12398.876154 kJ/mol
# Density = 1.932772 g / cm^3
# Si number density = 19.371809 Si / 1000 Ang^3
#
#
#
# Elastic Constant Matrix: (Units=GPa)
#
#
# Indices 1 2 3 4 5 6 
#
# 1 69.1002 17.7694 37.3912 -17.5975 -4.6278 0.8397
# 2 17.7694 69.3255 36.6943 -13.4696 -9.9232 6.1561
# 3 37.3912 36.6943 114.7618 -17.1163 -17.8287 1.7785
# 4 -17.5975 -13.4696 -17.1163 32.0443 1.1810 4.3265
# 5 -4.6278 -9.9232 -17.8287 1.1810 29.3561 -5.2362
# 6 0.8397 6.1561 1.7785 4.3265 -5.2362 32.1001
#
#
#
# Elastic Compliance Matrix: (Units=1/GPa)
#
#
# Indices 1 2 3 4 5 6 
#
# 1 0.019324 -0.000801 -0.004977 0.007816 -0.000786 -0.001258
# 2 -0.000801 0.018747 -0.004454 0.005455 0.002639 -0.003632
# 3 -0.004977 -0.004454 0.012913 0.001960 0.005639 0.000924
# 4 0.007816 0.005455 0.001960 0.039654 0.001519 -0.006456
# 5 -0.000786 0.002639 0.005639 0.001519 0.039156 0.005385
# 6 -0.001258 -0.003632 0.000924 -0.006456 0.005385 0.033579
#
#
# Mechanical properties :
#
#
# Convention : Reuss Voigt Hill
#
# Bulk Modulus (GPa) = 32.76379 48.54416 40.65398
# Shear Modulus (GPa) = 25.77175 29.45560 27.61368
#
# Velocity S-wave (km/s) = 3.65139 3.90364 3.77962
# Velocity P-wave (km/s) = 5.89293 6.74029 6.33080
#
# Compressibility (1/GPa) = 0.03052150
#
# Stress axis : x y z
#
# Youngs Moduli (GPa) = 51.74973 53.34070 77.44043
#
# Poissons Ratio (x) = 0.04273 0.38540
# Poissons Ratio (y) = 0.04146 0.34489
# Poissons Ratio (z) = 0.25755 0.23756
#
# Static dielectric constant tensor:
#      x y z
#    x 3.724020 0.104440 -0.196140 
#    y 0.104440 3.602210 -0.154210 
#    z -0.196140 -0.154210 3.810900 
# 
# 
# High freq. dielectric constant tensor:
#      x y z
#    x 1.747340 0.006750 -0.003960 
#    y 0.006750 1.745960 -0.006950 
#    z -0.003960 -0.006950 1.752150 
# 
# From -- ./inp_files/176690.got.cif
#   From: 2010.06.25/outbox.cif.g09.slc.cpg/sg2_89_cif.got.tgz:176690.got - 2010.06.27 13:26:56.
