data_PCOD8009673
_publ_section_title
;
Structure prediction by ZEFSAII (Michael W. Deem and Ramdas Pophale) SiO2 
 PCOD8009673
Probable space group: P -1
;
_chemical_formula_sum "Si O2"
_cell_formula_units_Z 14
_cell_length_a 9.828294
_cell_length_b 6.552193
_cell_length_c 23.986785
_cell_angle_alpha 52.612088
_cell_angle_beta 145.597448
_cell_angle_gamma 128.502672
_cell_volume 667.532052
_symmetry_space_group_name_H-M "P -1"
_symmetry_group_IT_number 2
_symmetry_cell_setting 'triclinic'
loop_
_space_group_symop_operation_xyz
x,y,z
-x,-y,-z
loop_
_atom_site_type_symbol
_atom_site_label
_atom_site_fract_x
_atom_site_fract_y
_atom_site_fract_z
Si Si1 0.906130 0.610614 0.757611
Si Si2 0.849811 0.156994 0.301496
Si Si3 0.655128 0.533933 0.371583
Si Si4 0.007189 0.081657 0.897255
Si Si5 0.027197 0.704336 0.559856
Si Si6 0.352352 0.246601 0.082904
Si Si7 0.238448 0.783070 0.944674
O O1 0.639823 0.575955 0.702773
O O2 0.939702 0.320799 0.801606
O O3 0.927942 0.785278 0.679129
O O4 0.129860 0.752832 0.850910
O O5 0.945602 0.343720 0.357156
O O6 0.643843 0.277036 0.182609
O O7 0.747825 0.841971 0.331423
O O8 0.732016 0.338791 0.384682
O O9 0.784491 0.511267 0.479246
O O10 0.788280 0.982528 0.884410
O O11 0.025483 0.856780 0.897398
O O12 0.272812 0.172606 0.004388
O O13 0.000000 0.000000 0.500000
O O14 0.280444 0.515631 0.029216
O O15 0.500000 0.000000 0.000000
#
# Coordination Sequence:
#
# PCOD8009673 Si02
#       7
#     2   2   2   2   2   2   2
#     4  11  24  39  64  94 124 163 209 252 303 367
#     4  11  22  39  64  93 121 163 203 254 307 362
#     4  10  22  44  64  90 124 156 202 256 309 372
#     4  10  21  39  57  86 126 167 205 253 299 356
#     4   9  22  43  67  90 122 158 197 256 314 367
#     4  10  21  37  59  87 121 167 210 249 298 360
#     4  11  23  37  55  90 130 167 208 253 300 356
#
# _framework density 20.972774999999999
#
# number of rings (size 3 to 8) (size 9 to 14) (size 15 to 20)
#    0.000    1.714    1.429    2.143    2.000    6.286 
#    0.000    6.429    0.000    0.000    0.000    0.000 
#    0.000    0.000    0.000    0.000    0.000    0.000 
#
# Total GULP energy -173549.252986 kJ/mol
# GULP energy per Si atom -12396.375213 kJ/mol
# Density = 2.092504 g / cm^3
# Si number density = 20.972775 Si / 1000 Ang^3
#
#
#
# Elastic Constant Matrix: (Units=GPa)
#
#
# Indices 1 2 3 4 5 6 
#
# 1 115.1597 51.8908 52.6740 -4.5030 -3.7032 -6.6899
# 2 51.8908 86.8098 33.5054 1.6548 0.4945 -9.3435
# 3 52.6740 33.5054 95.0253 3.4075 -1.0634 0.7735
# 4 -4.5030 1.6548 3.4075 20.4852 -3.8519 6.8429
# 5 -3.7032 0.4945 -1.0634 -3.8519 29.5655 -2.7678
# 6 -6.6899 -9.3435 0.7735 6.8429 -2.7678 42.8229
#
#
#
# Elastic Compliance Matrix: (Units=1/GPa)
#
#
# Indices 1 2 3 4 5 6 
#
# 1 0.014657 -0.006530 -0.005980 0.005094 0.002423 0.000316
# 2 -0.006530 0.016680 -0.002169 -0.003737 -0.001365 0.003167
# 3 -0.005980 -0.002169 0.014724 -0.003328 -0.000728 -0.001189
# 4 0.005094 -0.003737 -0.003328 0.054864 0.006954 -0.008277
# 5 0.002423 -0.001365 -0.000728 0.006954 0.035147 0.001254
# 6 0.000316 0.003167 -0.001189 -0.008277 0.001254 0.025517
#
#
# Mechanical properties :
#
#
# Convention : Reuss Voigt Hill
#
# Bulk Modulus (GPa) = 59.86966 63.68168 61.77567
# Shear Modulus (GPa) = 25.44361 29.16969 27.30665
#
# Velocity S-wave (km/s) = 3.48684 3.73344 3.61224
# Velocity P-wave (km/s) = 6.69471 7.00104 6.84959
#
# Compressibility (1/GPa) = 0.01670295
#
# Stress axis : x y z
#
# Youngs Moduli (GPa) = 68.22796 59.95346 67.91677
#
# Poissons Ratio (x) = 0.39149 0.40615
# Poissons Ratio (y) = 0.44552 0.14728
# Poissons Ratio (z) = 0.40801 0.13001
#
# Static dielectric constant tensor:
#      x y z
#    x 3.801860 -0.221870 -0.103520 
#    y -0.221870 4.044930 0.104910 
#    z -0.103520 0.104910 4.020260 
# 
# 
# High freq. dielectric constant tensor:
#      x y z
#    x 1.822280 -0.012730 0.000660 
#    y -0.012730 1.813910 0.000050 
#    z 0.000660 0.000050 1.824830 
# 
# From -- ./inp_files/35438.got.cif
#   From: 2010.06.25/outbox.cif.g09.slc.cpg/sg2_18_cif.got.tgz:35438.got - 2010.06.27 13:26:56.
