data_PCOD8009123
_publ_section_title
;
Structure prediction by ZEFSAII (Michael W. Deem and Ramdas Pophale) SiO2 
 PCOD8009123
Probable space group: P -1
;
_chemical_formula_sum "Si O2"
_cell_formula_units_Z 16
_cell_length_a 12.599938
_cell_length_b 13.931364
_cell_length_c 10.836690
_cell_angle_alpha 31.337359
_cell_angle_beta 136.971057
_cell_angle_gamma 127.809179
_cell_volume 674.718206
_symmetry_space_group_name_H-M "P -1"
_symmetry_group_IT_number 2
_symmetry_cell_setting 'triclinic'
loop_
_space_group_symop_operation_xyz
x,y,z
-x,-y,-z
loop_
_atom_site_type_symbol
_atom_site_label
_atom_site_fract_x
_atom_site_fract_y
_atom_site_fract_z
Si Si1 0.439576 0.026009 0.284649
Si Si2 0.704967 0.606134 0.226036
Si Si3 0.359873 0.648546 0.225950
Si Si4 0.174221 0.848114 0.370371
Si Si5 0.935229 0.480596 0.750423
Si Si6 0.741514 0.380721 0.081228
Si Si7 0.933037 0.764886 0.074255
Si Si8 0.499493 0.291594 0.476437
O O1 0.267920 0.943236 0.234800
O O2 0.540811 0.900848 0.412408
O O3 0.500000 0.000000 0.500000
O O4 0.426386 0.243561 0.000552
O O5 0.848555 0.614666 0.432105
O O6 0.770557 0.665130 0.082224
O O7 0.624920 0.407912 0.375380
O O8 0.500000 0.500000 0.500000
O O9 0.191321 0.569070 0.200897
O O10 0.419235 0.773570 0.252489
O O11 0.327415 0.735868 0.966193
O O12 0.282933 0.732799 0.687756
O O13 0.058513 0.713526 0.346916
O O14 0.086959 0.012965 0.191984
O O15 0.073843 0.591537 0.808797
O O16 0.008639 0.302833 0.935022
O O17 0.657768 0.584127 0.784002
#
# Coordination Sequence:
#
# PCOD8009123 Si02
#       8
#     2   2   2   2   2   2   2   2
#     4  11  24  37  60  95 130 163 208 253 302 376
#     4  10  21  39  61  91 132 164 202 243 310 377
#     4   9  21  43  63  85 116 162 212 258 305 362
#     4  10  21  36  56  89 130 161 199 250 309 367
#     4  11  21  36  65  89 117 159 206 252 316 363
#     4  11  22  37  64  89 122 161 211 258 301 360
#     4  10  21  36  58  92 129 161 194 248 315 378
#     4  10  23  40  66  88 126 172 204 251 314 361
#
# _framework density 23.713602999999999
#
# number of rings (size 3 to 8) (size 9 to 14) (size 15 to 20)
#    0.000    1.750    1.250    3.000    5.250    1.000 
#    0.000    0.625    5.500    7.500    0.000    0.000 
#    0.000    0.000    0.000    0.000    0.000    0.000 
#
# Total GULP energy -198221.526765 kJ/mol
# GULP energy per Si atom -12388.845423 kJ/mol
# Density = 2.365963 g / cm^3
# Si number density = 23.713603 Si / 1000 Ang^3
#
#
#
# Elastic Constant Matrix: (Units=GPa)
#
#
# Indices 1 2 3 4 5 6 
#
# 1 73.9556 4.7516 -3.7480 -0.5622 9.4386 -2.8741
# 2 4.7516 75.5308 23.9507 7.5871 0.9079 -23.2165
# 3 -3.7480 23.9507 76.4362 9.6081 11.5841 -13.2643
# 4 -0.5622 7.5871 9.6081 37.5175 -3.5577 4.5830
# 5 9.4386 0.9079 11.5841 -3.5577 28.8762 3.9435
# 6 -2.8741 -23.2165 -13.2643 4.5830 3.9435 36.2468
#
#
#
# Elastic Compliance Matrix: (Units=1/GPa)
#
#
# Indices 1 2 3 4 5 6 
#
# 1 0.014568 -0.000777 0.002447 -0.001127 -0.006181 0.002368
# 2 -0.000777 0.018125 -0.003072 -0.004353 -0.001135 0.011097
# 3 0.002447 -0.003072 0.017319 -0.005410 -0.009171 0.006246
# 4 -0.001127 -0.004353 -0.005410 0.030814 0.007783 -0.009600
# 5 -0.006181 -0.001135 -0.009171 0.007783 0.042718 -0.010205
# 6 0.002368 0.011097 0.006246 -0.009600 -0.010205 0.039494
#
#
# Mechanical properties :
#
#
# Convention : Reuss Voigt Hill
#
# Bulk Modulus (GPa) = 21.18330 30.64791 25.91560
# Shear Modulus (GPa) = 27.53634 33.92599 30.73117
#
# Velocity S-wave (km/s) = 3.41134 3.78650 3.60381
# Velocity P-wave (km/s) = 4.94658 5.66296 5.31685
#
# Compressibility (1/GPa) = 0.04720700
#
# Stress axis : x y z
#
# Youngs Moduli (GPa) = 68.64411 55.17330 57.73929
#
# Poissons Ratio (x) = 0.04288 -0.14129
# Poissons Ratio (y) = 0.05335 0.17740
# Poissons Ratio (z) = -0.16798 0.16951
#
# Static dielectric constant tensor:
#      x y z
#    x 5.506820 0.603950 0.104410 
#    y 0.603950 4.687660 0.226930 
#    z 0.104410 0.226930 4.299630 
# 
# 
# High freq. dielectric constant tensor:
#      x y z
#    x 1.934740 0.007370 0.022700 
#    y 0.007370 1.934480 0.021540 
#    z 0.022700 0.021540 1.925340 
# 
# From -- ./inp_files/390213.got.cif
#   From: 2010.06.25/outbox.cif.g09.slc.cpg/sg2_196_cif.got.tgz:390213.got - 2010.06.27 13:26:56.
