data_PCOD8009180
_publ_section_title
;
Structure prediction by ZEFSAII (Michael W. Deem and Ramdas Pophale) SiO2 
 PCOD8009180
Probable space group: P -1
;
_chemical_formula_sum "Si O2"
_cell_formula_units_Z 14
_cell_length_a 17.366443
_cell_length_b 9.509443
_cell_length_c 11.194962
_cell_angle_alpha 75.323411
_cell_angle_beta 42.526914
_cell_angle_gamma 44.191587
_cell_volume 707.265932
_symmetry_space_group_name_H-M "P -1"
_symmetry_group_IT_number 2
_symmetry_cell_setting 'triclinic'
loop_
_space_group_symop_operation_xyz
x,y,z
-x,-y,-z
loop_
_atom_site_type_symbol
_atom_site_label
_atom_site_fract_x
_atom_site_fract_y
_atom_site_fract_z
Si Si1 0.906945 0.248646 0.764847
Si Si2 0.620725 0.282950 0.064382
Si Si3 0.981671 0.186883 0.953240
Si Si4 0.555376 0.810618 0.060133
Si Si5 0.304358 0.022789 0.757406
Si Si6 0.366856 0.254283 0.745592
Si Si7 0.289004 0.840839 0.277024
O O1 0.776251 0.241374 0.939150
O O2 0.027446 0.161844 0.765955
O O3 0.760180 0.531720 0.838738
O O4 0.061168 0.061937 0.523072
O O5 0.695408 0.138382 0.885463
O O6 0.600260 0.178401 0.207940
O O7 0.403982 0.572590 0.231997
O O8 0.113828 0.146631 0.895956
O O9 0.763117 0.466541 0.167319
O O10 0.000000 0.000000 0.000000
O O11 0.568954 0.851333 0.171195
O O12 0.382776 0.872436 0.239311
O O13 0.500000 0.000000 0.000000
O O14 0.448225 0.897737 0.510871
O O15 0.252806 0.231974 0.829275
#
# Coordination Sequence:
#
# PCOD8009180 Si02
#       7
#     2   2   2   2   2   2   2
#     4  10  21  38  57  88 116 149 199 245 288 352
#     4  10  21  36  58  85 117 156 192 245 293 346
#     4  11  22  38  60  88 119 154 195 244 293 349
#     4  10  21  40  60  83 117 153 197 244 291 347
#     4  11  22  40  61  85 122 159 195 242 300 348
#     4  10  24  40  59  90 120 155 200 242 293 359
#     4  10  21  37  57  86 117 150 201 244 288 350
#
# _framework density 19.794533999999999
#
# number of rings (size 3 to 8) (size 9 to 14) (size 15 to 20)
#    0.000    1.714    1.429    2.571    2.000    1.143 
#    0.000    4.286    0.000    0.000    0.000    0.000 
#    0.000    0.000    0.000    0.000    0.000    0.000 
#
# Total GULP energy -173622.214628 kJ/mol
# GULP energy per Si atom -12401.586759 kJ/mol
# Density = 1.974948 g / cm^3
# Si number density = 19.794534 Si / 1000 Ang^3
#
#
#
# Elastic Constant Matrix: (Units=GPa)
#
#
# Indices 1 2 3 4 5 6 
#
# 1 107.8490 35.2488 29.7728 2.5070 12.4712 -2.3599
# 2 35.2488 135.4492 50.1270 2.7167 11.8585 -4.9583
# 3 29.7728 50.1270 101.1054 6.3749 17.2977 -0.3450
# 4 2.5070 2.7167 6.3749 18.1487 2.5000 1.0728
# 5 12.4712 11.8585 17.2977 2.5000 28.1280 0.3246
# 6 -2.3599 -4.9583 -0.3450 1.0728 0.3246 31.2425
#
#
#
# Elastic Compliance Matrix: (Units=1/GPa)
#
#
# Indices 1 2 3 4 5 6 
#
# 1 0.010709 -0.001876 -0.001713 -0.000230 -0.002890 0.000530
# 2 -0.001876 0.009469 -0.004032 0.000280 -0.000721 0.001314
# 3 -0.001713 -0.004032 0.013545 -0.003121 -0.005588 -0.000454
# 4 -0.000230 0.000280 -0.003121 0.056730 -0.003116 -0.001923
# 5 -0.002890 -0.000721 -0.005588 -0.003116 0.040858 -0.000712
# 6 0.000530 0.001314 -0.000454 -0.001923 -0.000712 0.032325
#
#
# Mechanical properties :
#
#
# Convention : Reuss Voigt Hill
#
# Bulk Modulus (GPa) = 54.10701 63.85562 58.98132
# Shear Modulus (GPa) = 27.02142 30.78749 28.90446
#
# Velocity S-wave (km/s) = 3.69873 3.94808 3.82543
# Velocity P-wave (km/s) = 6.75533 7.28782 7.02662
#
# Compressibility (1/GPa) = 0.01848189
#
# Stress axis : x y z
#
# Youngs Moduli (GPa) = 93.37660 105.60993 73.82640
#
# Poissons Ratio (x) = 0.19813 0.12645
# Poissons Ratio (y) = 0.17518 0.29766
# Poissons Ratio (z) = 0.15993 0.42581
#
# Static dielectric constant tensor:
#      x y z
#    x 3.932980 0.054960 0.093850 
#    y 0.054960 3.593170 0.103310 
#    z 0.093850 0.103310 3.376020 
# 
# 
# High freq. dielectric constant tensor:
#      x y z
#    x 1.793960 -0.002140 0.007500 
#    y -0.002140 1.770300 0.006190 
#    z 0.007500 0.006190 1.758930 
# 
# From -- ./inp_files/40265.got.cif
#   From: 2010.06.25/outbox.cif.g09.slc.cpg/sg2_21_cif.got.tgz:40265.got - 2010.06.27 13:26:56.
