data_PCOD8009374
_publ_section_title
;
Structure prediction by ZEFSAII (Michael W. Deem and Ramdas Pophale) SiO2 
 PCOD8009374
Probable space group: P -1
;
_chemical_formula_sum "Si O2"
_cell_formula_units_Z 16
_cell_length_a 22.484688
_cell_length_b 11.373944
_cell_length_c 17.354049
_cell_angle_alpha 29.985314
_cell_angle_beta 158.236966
_cell_angle_gamma 149.740383
_cell_volume 779.095384
_symmetry_space_group_name_H-M "P -1"
_symmetry_group_IT_number 2
_symmetry_cell_setting 'triclinic'
loop_
_space_group_symop_operation_xyz
x,y,z
-x,-y,-z
loop_
_atom_site_type_symbol
_atom_site_label
_atom_site_fract_x
_atom_site_fract_y
_atom_site_fract_z
Si Si1 0.752436 0.685743 0.202230
Si Si2 0.051326 0.127943 0.257560
Si Si3 0.603228 0.977621 0.259511
Si Si4 0.835195 0.762682 0.433477
Si Si5 0.508806 0.327259 0.844838
Si Si6 0.494085 0.838301 0.509674
Si Si7 0.885875 0.434966 0.797492
Si Si8 0.439353 0.851903 0.728138
O O1 0.758569 0.710778 0.286920
O O2 0.719541 0.396590 0.305409
O O3 0.598482 0.771938 0.937467
O O4 0.922035 0.853499 0.270754
O O5 0.043898 0.306786 0.217653
O O6 0.229449 0.089218 0.482556
O O7 0.003242 0.259807 0.049053
O O8 0.516719 0.982582 0.235411
O O9 0.479934 0.768600 0.174396
O O10 0.632169 0.239545 0.100474
O O11 0.687440 0.790593 0.296357
O O12 0.885463 0.521537 0.659042
O O13 0.000000 0.000000 0.500000
O O14 0.572386 0.624768 0.750643
O O15 0.303825 0.716349 0.317667
O O16 0.500000 0.000000 0.500000
O O17 0.603042 0.995569 0.480945
#
# Coordination Sequence:
#
# PCOD8009374 Si02
#       8
#     2   2   2   2   2   2   2   2
#     4  11  22  39  61  92 121 163 217 254 300 368
#     4  11  21  40  61  89 127 162 203 258 312 367
#     4  11  22  40  62  91 132 163 205 251 322 377
#     4  11  18  36  62  88 119 158 211 262 294 357
#     4  10  22  39  59  94 128 168 202 251 320 377
#     4  11  22  41  65  90 124 162 211 262 307 364
#     4  10  21  36  62  91 117 162 212 251 310 359
#     4  11  24  38  62  94 123 163 208 261 306 369
#
# _framework density 20.536639999999998
#
# number of rings (size 3 to 8) (size 9 to 14) (size 15 to 20)
#    0.000    1.250    6.250    1.500    1.750    1.000 
#    0.000    2.500    0.000    2.250    0.000    0.000 
#    0.000    0.000    0.000    0.000    0.000    0.000 
#
# Total GULP energy -198357.919702 kJ/mol
# GULP energy per Si atom -12397.369981 kJ/mol
# Density = 2.048990 g / cm^3
# Si number density = 20.536640 Si / 1000 Ang^3
#
#
#
# Elastic Constant Matrix: (Units=GPa)
#
#
# Indices 1 2 3 4 5 6 
#
# 1 92.1381 29.0553 10.3446 -21.0057 -10.6117 -6.2920
# 2 29.0553 96.9683 22.6932 -21.6475 -5.7064 6.0094
# 3 10.3446 22.6932 111.6440 -32.0067 -17.2032 11.5690
# 4 -21.0057 -21.6475 -32.0067 38.4379 4.1290 -4.3970
# 5 -10.6117 -5.7064 -17.2032 4.1290 25.5306 -3.9075
# 6 -6.2920 6.0094 11.5690 -4.3970 -3.9075 29.3840
#
#
#
# Elastic Compliance Matrix: (Units=1/GPa)
#
#
# Indices 1 2 3 4 5 6 
#
# 1 0.014363 -0.002984 0.001904 0.007658 0.006096 0.004893
# 2 -0.002984 0.012535 -0.000734 0.004564 -0.000013 -0.002232
# 3 0.001904 -0.000734 0.013392 0.010722 0.007595 -0.002100
# 4 0.007658 0.004564 0.010722 0.041526 0.005232 0.003395
# 5 0.006096 -0.000013 0.007595 0.005232 0.046786 0.005322
# 6 0.004893 -0.002232 -0.002100 0.003395 0.005322 0.037579
#
#
# Mechanical properties :
#
#
# Convention : Reuss Voigt Hill
#
# Bulk Modulus (GPa) = 27.27673 47.21520 37.24596
# Shear Modulus (GPa) = 27.46827 34.58101 31.02464
#
# Velocity S-wave (km/s) = 3.66119 4.10795 3.89099
# Velocity P-wave (km/s) = 5.58419 6.74840 6.19371
#
# Compressibility (1/GPa) = 0.03666128
#
# Stress axis : x y z
#
# Youngs Moduli (GPa) = 69.62492 79.77746 74.67350
#
# Poissons Ratio (x) = 0.23805 -0.14215
# Poissons Ratio (y) = 0.20775 0.05478
# Poissons Ratio (z) = -0.13254 0.05853
#
# Static dielectric constant tensor:
#      x y z
#    x 3.591900 -0.040870 -0.342310 
#    y -0.040870 3.881020 -0.266420 
#    z -0.342310 -0.266420 3.895140 
# 
# 
# High freq. dielectric constant tensor:
#      x y z
#    x 1.785440 -0.002110 -0.032330 
#    y -0.002110 1.799280 -0.019310 
#    z -0.032330 -0.019310 1.798250 
# 
# From -- ./inp_files/464384.got.cif
#   From: 2010.06.25/outbox.cif.g09.slc.cpg/sg2_233_cif.got.tgz:464384.got - 2010.06.27 13:26:56.
