data_PCOD8009778
_publ_section_title
;
Structure prediction by ZEFSAII (Michael W. Deem and Ramdas Pophale) SiO2 
 PCOD8009778
Probable space group: P -1
;
_chemical_formula_sum "Si O2"
_cell_formula_units_Z 16
_cell_length_a 13.203022
_cell_length_b 10.055434
_cell_length_c 15.919924
_cell_angle_alpha 87.122402
_cell_angle_beta 157.416237
_cell_angle_gamma 90.274675
_cell_volume 805.883030
_symmetry_space_group_name_H-M "P -1"
_symmetry_group_IT_number 2
_symmetry_cell_setting 'triclinic'
loop_
_space_group_symop_operation_xyz
x,y,z
-x,-y,-z
loop_
_atom_site_type_symbol
_atom_site_label
_atom_site_fract_x
_atom_site_fract_y
_atom_site_fract_z
Si Si1 0.579153 0.568032 0.142899
Si Si2 0.511257 0.236913 0.321041
Si Si3 0.899406 0.390361 0.528507
Si Si4 0.838133 0.494994 0.960194
Si Si5 0.347761 0.869562 0.396487
Si Si6 0.007298 0.605954 0.744304
Si Si7 0.171570 0.006178 0.045220
Si Si8 0.537223 0.256453 0.688381
O O1 0.679111 0.459563 0.293585
O O2 0.824124 0.655511 0.308146
O O3 0.500000 0.500000 0.000000
O O4 0.305653 0.652005 0.962831
O O5 0.786471 0.258375 0.483922
O O6 0.296107 0.357627 0.126197
O O7 0.544566 0.234839 0.446945
O O8 0.414511 0.095381 0.229039
O O9 0.960742 0.489498 0.647078
O O10 0.611976 0.398172 0.772983
O O11 0.024746 0.446775 0.183277
O O12 0.000000 0.500000 0.000000
O O13 0.362213 0.780257 0.326944
O O14 0.500000 0.000000 0.500000
O O15 0.046315 0.928929 0.189480
O O16 0.784768 0.732446 0.555031
O O17 0.314558 0.859509 0.134692
O O18 0.000000 0.000000 0.000000
#
# Coordination Sequence:
#
# PCOD8009778 Si02
#       8
#     2   2   2   2   2   2   2   2
#     4   9  19  38  63  88 127 153 192 252 320 372
#     4  12  22  37  58  88 122 154 209 251 290 362
#     4  10  21  37  60  96 119 157 201 251 311 365
#     4  12  25  34  55  89 129 158 200 256 301 349
#     4  11  23  39  59  79 117 171 214 244 289 353
#     4  11  21  38  59  88 127 159 196 249 315 359
#     4  10  22  38  54  77 115 166 208 243 288 355
#     4  11  23  37  56  83 120 164 207 239 301 360
#
# _framework density 19.853998000000001
#
# number of rings (size 3 to 8) (size 9 to 14) (size 15 to 20)
#    0.000    1.250    5.000    2.250    5.250    1.000 
#    0.000    0.000    0.000    0.750    0.000   13.125 
#    0.000    0.000    0.000    0.000    0.000    0.000 
#
# Total GULP energy -198237.121828 kJ/mol
# GULP energy per Si atom -12389.820114 kJ/mol
# Density = 1.980881 g / cm^3
# Si number density = 19.853998 Si / 1000 Ang^3
#
#
#
# Elastic Constant Matrix: (Units=GPa)
#
#
# Indices 1 2 3 4 5 6 
#
# 1 83.7131 20.0986 35.8120 4.0448 6.6833 11.9882
# 2 20.0986 66.7380 27.6020 -4.0325 15.3777 11.4216
# 3 35.8120 27.6020 121.3661 -13.8491 19.2868 2.2116
# 4 4.0448 -4.0325 -13.8491 33.8846 -4.2284 10.7096
# 5 6.6833 15.3777 19.2868 -4.2284 47.3134 6.6558
# 6 11.9882 11.4216 2.2116 10.7096 6.6558 20.4585
#
#
#
# Elastic Compliance Matrix: (Units=1/GPa)
#
#
# Indices 1 2 3 4 5 6 
#
# 1 0.015217 -0.001971 -0.004252 -0.001462 0.001070 -0.006939
# 2 -0.001971 0.019503 -0.002657 0.004506 -0.003053 -0.010811
# 3 -0.004252 -0.002657 0.010957 0.003743 -0.002918 0.001781
# 4 -0.001462 0.004506 0.003743 0.039979 0.004217 -0.024363
# 5 0.001070 -0.003053 -0.002918 0.004217 0.024793 -0.008880
# 6 -0.006939 -0.010811 0.001781 -0.024363 -0.008880 0.074431
#
#
# Mechanical properties :
#
#
# Convention : Reuss Voigt Hill
#
# Bulk Modulus (GPa) = 35.82334 48.76027 42.29180
# Shear Modulus (GPa) = 23.59088 32.88494 28.23791
#
# Velocity S-wave (km/s) = 3.45079 4.07423 3.77540
# Velocity P-wave (km/s) = 5.82751 6.83705 6.35236
#
# Compressibility (1/GPa) = 0.02791476
#
# Stress axis : x y z
#
# Youngs Moduli (GPa) = 65.71650 51.27478 91.26619
#
# Poissons Ratio (x) = 0.10108 0.38809
# Poissons Ratio (y) = 0.12955 0.24252
# Poissons Ratio (z) = 0.27944 0.13625
#
# Static dielectric constant tensor:
#      x y z
#    x 3.887110 0.106530 0.124740 
#    y 0.106530 3.467270 -0.157610 
#    z 0.124740 -0.157610 4.388790 
# 
# 
# High freq. dielectric constant tensor:
#      x y z
#    x 1.758180 0.008880 -0.002550 
#    y 0.008880 1.736960 -0.003710 
#    z -0.002550 -0.003710 1.804360 
# 
# From -- ./inp_files/459028.got.cif
#   From: 2010.06.25/outbox.cif.g09.slc.cpg/sg2_230_cif.got.tgz:459028.got - 2010.06.27 13:26:56.
