data_PCOD8009234
_publ_section_title
;
Structure prediction by ZEFSAII (Michael W. Deem and Ramdas Pophale) SiO2 
 PCOD8009234
Probable space group: P -1
;
_chemical_formula_sum "Si O2"
_cell_formula_units_Z 16
_cell_length_a 6.416523
_cell_length_b 16.298127
_cell_length_c 18.519032
_cell_angle_alpha 34.726356
_cell_angle_beta 133.450956
_cell_angle_gamma 136.837031
_cell_volume 735.094892
_symmetry_space_group_name_H-M "P -1"
_symmetry_group_IT_number 2
_symmetry_cell_setting 'triclinic'
loop_
_space_group_symop_operation_xyz
x,y,z
-x,-y,-z
loop_
_atom_site_type_symbol
_atom_site_label
_atom_site_fract_x
_atom_site_fract_y
_atom_site_fract_z
Si Si1 0.344320 0.855657 0.234905
Si Si2 0.207834 0.239676 0.211726
Si Si3 0.639114 0.082534 0.399090
Si Si4 0.385405 0.790700 0.988544
Si Si5 0.214144 0.431418 0.642808
Si Si6 0.770306 0.930213 0.410971
Si Si7 0.382351 0.470946 0.807429
Si Si8 0.318959 0.688239 0.206208
O O1 0.558910 0.829257 0.368463
O O2 0.438310 0.805785 0.216956
O O3 0.987952 0.746090 0.248118
O O4 0.394515 0.036588 0.112884
O O5 0.484402 0.208134 0.257905
O O6 0.358971 0.395267 0.182225
O O7 0.977086 0.260152 0.082404
O O8 0.011230 0.099977 0.319122
O O9 0.019382 0.159991 0.442125
O O10 0.500000 0.000000 0.500000
O O11 0.555039 0.958737 0.401843
O O12 0.517395 0.675212 0.065641
O O13 0.402288 0.788532 0.080384
O O14 0.361006 0.533802 0.675621
O O15 0.489098 0.424326 0.663125
O O16 0.000000 0.500000 0.500000
O O17 0.046536 0.420771 0.801224
#
# Coordination Sequence:
#
# PCOD8009234 Si02
#       8
#     2   2   2   2   2   2   2   2
#     4  10  22  39  63  89 118 158 199 246 296 352
#     4  10  21  36  59  87 120 159 198 242 299 358
#     4   9  19  35  55  86 120 156 197 240 294 353
#     4  10  22  40  61  89 120 154 202 250 296 349
#     4  10  24  41  60  88 121 156 196 245 300 356
#     4   9  20  36  57  88 123 155 196 247 296 349
#     4  10  23  40  59  87 121 158 200 246 297 354
#     4  10  23  40  61  87 117 157 201 245 296 351
#
# _framework density 21.765895
#
# number of rings (size 3 to 8) (size 9 to 14) (size 15 to 20)
#    0.000    2.250    0.000    0.750    0.000   20.000 
#    0.000    0.000    0.000    0.000    0.000    0.000 
#    0.000    0.000    0.000    0.000    0.000    0.000 
#
# Total GULP energy -198353.208449 kJ/mol
# GULP energy per Si atom -12397.075528 kJ/mol
# Density = 2.171635 g / cm^3
# Si number density = 21.765895 Si / 1000 Ang^3
#
#
#
# Elastic Constant Matrix: (Units=GPa)
#
#
# Indices 1 2 3 4 5 6 
#
# 1 132.0353 44.5089 46.3422 6.8610 25.6884 -16.4524
# 2 44.5089 126.4045 29.0910 17.3714 5.6851 -16.8245
# 3 46.3422 29.0910 97.6683 24.2875 28.9196 -10.5471
# 4 6.8610 17.3714 24.2875 31.9694 -1.3865 -3.7242
# 5 25.6884 5.6851 28.9196 -1.3865 34.2206 2.2990
# 6 -16.4524 -16.8245 -10.5471 -3.7242 2.2990 24.5319
#
#
#
# Elastic Compliance Matrix: (Units=1/GPa)
#
#
# Indices 1 2 3 4 5 6 
#
# 1 0.011079 -0.002510 -0.002364 0.001147 -0.006222 0.005450
# 2 -0.002510 0.010024 -0.000266 -0.004190 -0.000025 0.004444
# 3 -0.002364 -0.000266 0.020948 -0.015239 -0.016939 0.006513
# 4 0.001147 -0.004190 -0.015239 0.045157 0.014757 -0.003184
# 5 -0.006222 -0.000025 -0.016939 0.014757 0.049744 -0.013895
# 6 0.005450 0.004444 0.006513 -0.003184 -0.013895 0.051085
#
#
# Mechanical properties :
#
#
# Convention : Reuss Voigt Hill
#
# Bulk Modulus (GPa) = 31.47265 66.22136 48.84700
# Shear Modulus (GPa) = 23.93415 33.88879 28.91147
#
# Velocity S-wave (km/s) = 3.31964 3.95012 3.64853
# Velocity P-wave (km/s) = 5.40226 7.16206 6.34348
#
# Compressibility (1/GPa) = 0.03177362
#
# Stress axis : x y z
#
# Youngs Moduli (GPa) = 90.25713 99.75699 47.73744
#
# Poissons Ratio (x) = 0.25034 0.11284
# Poissons Ratio (y) = 0.22650 0.01269
# Poissons Ratio (z) = 0.21334 0.02651
#
# Static dielectric constant tensor:
#      x y z
#    x 4.164380 -0.006600 0.288730 
#    y -0.006600 3.891730 0.335310 
#    z 0.288730 0.335310 4.119160 
# 
# 
# High freq. dielectric constant tensor:
#      x y z
#    x 1.859670 -0.004910 0.009580 
#    y -0.004910 1.852670 0.021990 
#    z 0.009580 0.021990 1.853130 
# 
# From -- ./inp_files/110672.got.cif
#   From: 2010.06.25/outbox.cif.g09.slc.cpg/sg2_56_cif.got.tgz:110672.got - 2010.06.27 13:26:56.
