data_PCOD8009297
_publ_section_title
;
Structure prediction by ZEFSAII (Michael W. Deem and Ramdas Pophale) SiO2 
 PCOD8009297
Probable space group: P -1
;
_chemical_formula_sum "Si O2"
_cell_formula_units_Z 12
_cell_length_a 11.845040
_cell_length_b 5.287398
_cell_length_c 13.222963
_cell_angle_alpha 121.559567
_cell_angle_beta 134.043512
_cell_angle_gamma 72.031727
_cell_volume 505.160790
_symmetry_space_group_name_H-M "P -1"
_symmetry_group_IT_number 2
_symmetry_cell_setting 'triclinic'
loop_
_space_group_symop_operation_xyz
x,y,z
-x,-y,-z
loop_
_atom_site_type_symbol
_atom_site_label
_atom_site_fract_x
_atom_site_fract_y
_atom_site_fract_z
Si Si1 0.986404 0.778772 0.792136
Si Si2 0.804656 0.758891 0.366895
Si Si3 0.133105 0.865584 0.695342
Si Si4 0.707861 0.332692 0.513592
Si Si5 0.862733 0.303974 0.930812
Si Si6 0.569191 0.332184 0.637270
O O1 0.879165 0.491667 0.620826
O O2 0.074413 0.954649 0.789618
O O3 0.869301 0.974099 0.820318
O O4 0.115538 0.680492 0.931565
O O5 0.752020 0.405945 0.277075
O O6 0.988105 0.773787 0.511894
O O7 0.777075 0.855839 0.252021
O O8 0.710380 0.975762 0.425586
O O9 0.679686 0.427926 0.630700
O O10 0.568427 0.451554 0.384457
O O11 0.684327 0.381350 0.815677
O O12 0.000000 0.500000 0.000000
O O13 0.500000 0.000000 0.500000
#
# Coordination Sequence:
#
# PCOD8009297 Si02
#       6
#     2   2   2   2   2   2
#     4  11  22  36  61  92 126 164 208 264 315 375
#     4  10  21  36  60  94 127 163 210 264 316 366
#     4  10  21  36  60  94 127 163 210 264 316 366
#     4  11  22  36  61  92 126 164 208 264 315 375
#     4  11  23  39  61  90 125 167 208 258 318 376
#     4  11  23  39  61  90 125 167 208 258 318 376
#
# _framework density 23.754812999999999
#
# number of rings (size 3 to 8) (size 9 to 14) (size 15 to 20)
#    0.000    1.333    3.333    4.000    4.667    0.000 
#    0.000    0.000    0.000    2.000    0.000    0.000 
#    0.000    0.000    0.000    0.000    0.000    0.000 
#
# Total GULP energy -148708.655378 kJ/mol
# GULP energy per Si atom -12392.387948 kJ/mol
# Density = 2.370075 g / cm^3
# Si number density = 23.754813 Si / 1000 Ang^3
#
#
#
# Elastic Constant Matrix: (Units=GPa)
#
#
# Indices 1 2 3 4 5 6 
#
# 1 59.6751 32.5063 47.4998 -15.0724 -21.5789 -2.8298
# 2 32.5063 158.8179 41.5033 -27.9102 1.2740 -11.5673
# 3 47.4998 41.5033 100.2836 -40.4092 4.3175 -3.4647
# 4 -15.0724 -27.9102 -40.4092 38.0690 3.5473 -8.0582
# 5 -21.5789 1.2740 4.3175 3.5473 38.4636 -5.5131
# 6 -2.8298 -11.5673 -3.4647 -8.0582 -5.5131 48.7130
#
#
#
# Elastic Compliance Matrix: (Units=1/GPa)
#
#
# Indices 1 2 3 4 5 6 
#
# 1 0.055370 -0.006735 -0.034325 -0.023006 0.037201 -0.000420
# 2 -0.006735 0.008464 0.003163 0.007893 -0.004768 0.002610
# 3 -0.034325 0.003163 0.040258 0.034857 -0.026466 0.004391
# 4 -0.023006 0.007893 0.034857 0.064318 -0.021403 0.011234
# 5 0.037201 -0.004768 -0.026466 -0.021403 0.052189 0.001513
# 6 -0.000420 0.002610 0.004391 0.011234 0.001513 0.023466
#
#
# Mechanical properties :
#
#
# Convention : Reuss Voigt Hill
#
# Bulk Modulus (GPa) = 35.33947 62.42171 48.88059
# Shear Modulus (GPa) = 15.18418 38.20025 26.69221
#
# Velocity S-wave (km/s) = 2.53099 4.01447 3.35573
# Velocity P-wave (km/s) = 4.84255 6.91538 5.96962
#
# Compressibility (1/GPa) = 0.02829697
#
# Stress axis : x y z
#
# Youngs Moduli (GPa) = 18.06048 118.15061 24.83985
#
# Poissons Ratio (x) = 0.79572 0.85264
# Poissons Ratio (y) = 0.12163 -0.07857
# Poissons Ratio (z) = 0.61993 -0.37371
#
# Static dielectric constant tensor:
#      x y z
#    x 4.007060 0.183400 -0.226650 
#    y 0.183400 5.009700 -0.362990 
#    z -0.226650 -0.362990 3.945270 
# 
# 
# High freq. dielectric constant tensor:
#      x y z
#    x 1.914380 0.004680 -0.027870 
#    y 0.004680 1.965780 -0.018120 
#    z -0.027870 -0.018120 1.895630 
# 
# From -- ./inp_files/409710.got.cif
#   From: 2010.06.25/outbox.cif.g09.slc.cpg/sg2_205_cif.got.tgz:409710.got - 2010.06.27 13:26:56.
