data_PCOD8009524
_publ_section_title
;
Structure prediction by ZEFSAII (Michael W. Deem and Ramdas Pophale) SiO2 
 PCOD8009524
Probable space group: P -1
;
_chemical_formula_sum "Si O2"
_cell_formula_units_Z 14
_cell_length_a 18.876974
_cell_length_b 9.492168
_cell_length_c 23.157593
_cell_angle_alpha 51.558563
_cell_angle_beta 165.267778
_cell_angle_gamma 121.394936
_cell_volume 756.273263
_symmetry_space_group_name_H-M "P -1"
_symmetry_group_IT_number 2
_symmetry_cell_setting 'triclinic'
loop_
_space_group_symop_operation_xyz
x,y,z
-x,-y,-z
loop_
_atom_site_type_symbol
_atom_site_label
_atom_site_fract_x
_atom_site_fract_y
_atom_site_fract_z
Si Si1 0.508816 0.786025 0.913179
Si Si2 0.969442 0.354131 0.372278
Si Si3 0.844799 0.884289 0.534043
Si Si4 0.905865 0.285366 0.849664
Si Si5 0.581729 0.053164 0.612031
Si Si6 0.637381 0.715834 0.516153
Si Si7 0.443102 0.916194 0.036305
O O1 0.260841 0.740742 0.765295
O O2 0.346045 0.898930 0.697764
O O3 0.621306 0.922765 0.005446
O O4 0.803825 0.589872 0.181086
O O5 0.072942 0.281400 0.407902
O O6 0.261676 0.281244 0.663864
O O7 0.632019 0.843426 0.423725
O O8 0.149478 0.867242 0.811290
O O9 0.801866 0.170646 0.746942
O O10 0.894691 0.495536 0.767720
O O11 0.687935 0.303390 0.729418
O O12 0.251245 0.154542 0.171182
O O13 0.307002 0.183584 0.405861
O O14 0.500000 0.000000 0.500000
O O15 0.500000 0.000000 0.000000
#
# Coordination Sequence:
#
# PCOD8009524 Si02
#       7
#     2   2   2   2   2   2   2
#     4  10  21  37  57  79 105 148 189 221 272 323
#     4  10  21  37  56  80 106 147 189 221 271 329
#     4  11  21  37  55  81 114 142 180 235 265 317
#     4   8  18  38  56  77 106 143 177 212 269 328
#     4   9  17  35  59  81 103 139 180 216 264 326
#     4   9  19  37  56  79 108 143 177 218 274 314
#     4  11  19  36  57  79 111 145 182 225 273 320
#
# _framework density 18.511827
#
# number of rings (size 3 to 8) (size 9 to 14) (size 15 to 20)
#    0.857    1.429    2.857    0.857    0.000    3.429 
#    5.143    0.000    0.000    0.000    0.000    0.000 
#    0.000    0.000    0.000    0.000    0.000    0.000 
#
# Total GULP energy -173473.509381 kJ/mol
# GULP energy per Si atom -12390.964956 kJ/mol
# Density = 1.846969 g / cm^3
# Si number density = 18.511827 Si / 1000 Ang^3
#
#
#
# Elastic Constant Matrix: (Units=GPa)
#
#
# Indices 1 2 3 4 5 6 
#
# 1 89.3890 34.3050 29.0368 -5.5524 -15.6252 -7.8817
# 2 34.3050 56.4472 53.5465 -16.4938 -7.3784 -16.2642
# 3 29.0368 53.5465 122.1002 -14.2804 -8.4537 -22.6421
# 4 -5.5524 -16.4938 -14.2804 36.8892 -7.6194 3.5506
# 5 -15.6252 -7.3784 -8.4537 -7.6194 18.9769 3.4758
# 6 -7.8817 -16.2642 -22.6421 3.5506 3.4758 31.8797
#
#
#
# Elastic Compliance Matrix: (Units=1/GPa)
#
#
# Indices 1 2 3 4 5 6 
#
# 1 0.016373 -0.009509 0.000859 0.000919 0.010806 -0.001474
# 2 -0.009509 0.043058 -0.013068 0.013431 0.007004 0.008075
# 3 0.000859 -0.013068 0.014471 -0.000196 0.001316 0.003702
# 4 0.000919 0.013431 -0.000196 0.037430 0.020828 0.000501
# 5 0.010806 0.007004 0.001316 0.020828 0.073850 -0.003192
# 6 -0.001474 0.008075 0.003702 0.000501 -0.003192 0.038045
#
#
# Mechanical properties :
#
#
# Convention : Reuss Voigt Hill
#
# Bulk Modulus (GPa) = 32.82364 55.74589 44.28476
# Shear Modulus (GPa) = 18.06228 27.61903 22.84065
#
# Velocity S-wave (km/s) = 3.12703 3.86679 3.51642
# Velocity P-wave (km/s) = 5.55045 7.07920 6.36092
#
# Compressibility (1/GPa) = 0.03046585
#
# Stress axis : x y z
#
# Youngs Moduli (GPa) = 61.07481 23.22434 69.10154
#
# Poissons Ratio (x) = 0.22084 -0.05933
# Poissons Ratio (y) = 0.58075 0.90305
# Poissons Ratio (z) = -0.05244 0.30351
#
# Static dielectric constant tensor:
#      x y z
#    x 3.199850 -0.228010 -0.137120 
#    y -0.228010 3.539450 0.226840 
#    z -0.137120 0.226840 4.302560 
# 
# 
# High freq. dielectric constant tensor:
#      x y z
#    x 1.701080 -0.013420 -0.001670 
#    y -0.013420 1.707780 -0.019000 
#    z -0.001670 -0.019000 1.715620 
# 
# From -- ./inp_files/135611.got.cif
#   From: 2010.06.25/outbox.cif.g09.slc.cpg/sg2_68_cif.got.tgz:135611.got - 2010.06.27 13:26:56.
