data_PCOD8009834
_publ_section_title
;
Structure prediction by ZEFSAII (Michael W. Deem and Ramdas Pophale) SiO2 
 PCOD8009834
Probable space group: P -1
;
_chemical_formula_sum "Si O2"
_cell_formula_units_Z 16
_cell_length_a 15.245972
_cell_length_b 5.515150
_cell_length_c 14.663446
_cell_angle_alpha 114.661672
_cell_angle_beta 137.660514
_cell_angle_gamma 85.364550
_cell_volume 700.562000
_symmetry_space_group_name_H-M "P -1"
_symmetry_group_IT_number 2
_symmetry_cell_setting 'triclinic'
loop_
_space_group_symop_operation_xyz
x,y,z
-x,-y,-z
loop_
_atom_site_type_symbol
_atom_site_label
_atom_site_fract_x
_atom_site_fract_y
_atom_site_fract_z
Si Si1 0.984998 0.057275 0.185602
Si Si2 0.194698 0.836624 0.242369
Si Si3 0.450638 0.379670 0.542548
Si Si4 0.651633 0.236303 0.356810
Si Si5 0.599816 0.334806 0.943965
Si Si6 0.902131 0.297638 0.665263
Si Si7 0.266605 0.470197 0.105748
Si Si8 0.400311 0.676564 0.859830
O O1 0.090582 0.013213 0.183346
O O2 0.015739 0.918796 0.283932
O O3 0.004894 0.392079 0.259519
O O4 0.821935 0.872109 0.006846
O O5 0.159227 0.641190 0.275686
O O6 0.173741 0.634292 0.106042
O O7 0.358553 0.043680 0.407998
O O8 0.500000 0.500000 0.500000
O O9 0.349705 0.513402 0.536822
O O10 0.584228 0.436099 0.717577
O O11 0.772122 0.130661 0.471165
O O12 0.700334 0.352544 0.309240
O O13 0.494205 0.000771 0.195797
O O14 0.717913 0.441626 0.974536
O O15 0.491510 0.491506 0.876203
O O16 0.676974 0.410050 0.114550
O O17 0.500000 0.000000 0.000000
#
# Coordination Sequence:
#
# PCOD8009834 Si02
#       8
#     2   2   2   2   2   2   2   2
#     4  10  25  42  63  90 134 180 221 254 307 388
#     4  10  23  42  59  91 133 176 217 254 306 386
#     4  12  23  37  62 100 135 166 216 270 317 377
#     4  11  19  37  64  91 123 172 208 262 325 376
#     4  10  21  37  61  94 126 153 214 269 327 383
#     4  10  22  41  64  88 128 176 225 249 301 392
#     4  12  23  39  62  95 128 173 211 272 323 363
#     4   9  20  38  59  93 121 159 202 267 332 395
#
# _framework density 22.838808
#
# number of rings (size 3 to 8) (size 9 to 14) (size 15 to 20)
#    0.750    0.750    2.500    3.000    1.750    2.500 
#    0.000    0.000    0.000    1.500    0.000    0.000 
#    0.000    0.000    0.000    0.000    0.000    0.000 
#
# Total GULP energy -198238.151808 kJ/mol
# GULP energy per Si atom -12389.884488 kJ/mol
# Density = 2.278683 g / cm^3
# Si number density = 22.838808 Si / 1000 Ang^3
#
#
#
# Elastic Constant Matrix: (Units=GPa)
#
#
# Indices 1 2 3 4 5 6 
#
# 1 51.6032 23.5316 28.4505 -13.4368 -22.2867 28.5412
# 2 23.5316 105.6144 21.6611 3.8083 -10.0614 24.3187
# 3 28.4505 21.6611 74.4823 5.7753 1.4392 25.2871
# 4 -13.4368 3.8083 5.7753 34.7348 8.7796 -2.3569
# 5 -22.2867 -10.0614 1.4392 8.7796 36.5417 -2.7519
# 6 28.5412 24.3187 25.2871 -2.3569 -2.7519 30.1225
#
#
#
# Elastic Compliance Matrix: (Units=1/GPa)
#
#
# Indices 1 2 3 4 5 6 
#
# 1 0.088614 0.002478 -0.013653 0.020176 0.045238 -0.068789
# 2 0.002478 0.012187 -0.000490 -0.002230 0.004553 -0.011533
# 3 -0.013653 -0.000490 0.021554 -0.007191 -0.008040 -0.006059
# 4 0.020176 -0.002230 -0.007191 0.036847 0.002507 -0.008168
# 5 0.045238 0.004553 -0.008040 0.002507 0.053310 -0.034723
# 6 -0.068789 -0.011533 -0.006059 -0.008168 -0.034723 0.108962
#
#
# Mechanical properties :
#
#
# Convention : Reuss Voigt Hill
#
# Bulk Modulus (GPa) = 10.09865 42.10960 26.10412
# Shear Modulus (GPa) = 13.23414 30.81691 22.02553
#
# Velocity S-wave (km/s) = 2.40981 3.67730 3.10883
# Velocity P-wave (km/s) = 3.48915 6.04217 4.93366
#
# Compressibility (1/GPa) = 0.09902313
#
# Stress axis : x y z
#
# Youngs Moduli (GPa) = 11.28493 82.05685 46.39600
#
# Poissons Ratio (x) = -0.20333 0.63346
# Poissons Ratio (y) = -0.02796 0.02274
# Poissons Ratio (z) = 0.15408 0.04021
#
# Static dielectric constant tensor:
#      x y z
#    x 4.053880 0.318170 -0.314400 
#    y 0.318170 4.180510 -0.202940 
#    z -0.314400 -0.202940 4.059450 
# 
# 
# High freq. dielectric constant tensor:
#      x y z
#    x 1.867060 0.012320 -0.009300 
#    y 0.012320 1.905430 -0.000630 
#    z -0.009300 -0.000630 1.895740 
# 
# From -- ./inp_files/525435.got.cif
#   From: 2010.06.25/outbox.cif.g09.slc.cpg/sg2_263_cif.got.tgz:525435.got - 2010.06.27 13:26:56.
