data_PCOD8009611
_publ_section_title
;
Structure prediction by ZEFSAII (Michael W. Deem and Ramdas Pophale) SiO2 
 PCOD8009611
Probable space group: P -1
;
_chemical_formula_sum "Si O2"
_cell_formula_units_Z 12
_cell_length_a 6.139666
_cell_length_b 16.799844
_cell_length_c 5.506918
_cell_angle_alpha 108.788917
_cell_angle_beta 124.170327
_cell_angle_gamma 74.794480
_cell_volume 442.506849
_symmetry_space_group_name_H-M "P -1"
_symmetry_group_IT_number 2
_symmetry_cell_setting 'triclinic'
loop_
_space_group_symop_operation_xyz
x,y,z
-x,-y,-z
loop_
_atom_site_type_symbol
_atom_site_label
_atom_site_fract_x
_atom_site_fract_y
_atom_site_fract_z
Si Si1 0.771567 0.941882 0.336689
Si Si2 0.562911 0.599330 0.266519
Si Si3 0.619862 0.900257 0.704662
Si Si4 0.012492 0.559702 0.837096
Si Si5 0.212906 0.286791 0.875943
Si Si6 0.334892 0.758253 0.562303
O O1 0.796255 0.889665 0.557771
O O2 0.497252 0.002133 0.247068
O O3 0.781493 0.881689 0.042649
O O4 0.000000 0.000000 0.500000
O O5 0.802326 0.535613 0.475090
O O6 0.721132 0.648866 0.223693
O O7 0.414431 0.662918 0.430260
O O8 0.326562 0.550726 0.951849
O O9 0.405424 0.831331 0.489980
O O10 0.000000 0.500000 0.000000
O O11 0.914903 0.658430 0.924349
O O12 0.983309 0.229415 0.580203
O O13 0.488671 0.231688 0.072571
#
# Coordination Sequence:
#
# PCOD8009611 Si02
#       6
#     2   2   2   2   2   2
#     4  10  22  42  61  91 124 161 209 264 311 383
#     4  10  21  38  57  86 118 157 199 251 300 369
#     4  10  23  39  61  92 122 162 213 257 319 376
#     4  10  21  37  58  87 120 154 200 249 302 366
#     4  10  22  40  58  87 121 153 207 248 305 370
#     4  10  23  38  59  88 117 159 200 256 304 371
#
# _framework density 27.118221999999999
#
# number of rings (size 3 to 8) (size 9 to 14) (size 15 to 20)
#    0.000    2.000    0.000    2.000    4.667    1.333 
#    0.000    0.000    0.000    0.000    0.000    0.000 
#    0.000    0.000    0.000    0.000    0.000    0.000 
#
# Total GULP energy -148680.339167 kJ/mol
# GULP energy per Si atom -12390.028264 kJ/mol
# Density = 2.705650 g / cm^3
# Si number density = 27.118222 Si / 1000 Ang^3
#
#
#
# Elastic Constant Matrix: (Units=GPa)
#
#
# Indices 1 2 3 4 5 6 
#
# 1 153.8765 34.6093 98.9817 -11.7205 25.2599 48.6141
# 2 34.6093 75.8778 52.3671 -8.1456 9.3503 17.6546
# 3 98.9817 52.3671 204.1676 -25.8778 25.9239 29.7548
# 4 -11.7205 -8.1456 -25.8778 39.3790 7.4711 0.9482
# 5 25.2599 9.3503 25.9239 7.4711 54.6846 3.5630
# 6 48.6141 17.6546 29.7548 0.9482 3.5630 74.0319
#
#
#
# Elastic Compliance Matrix: (Units=1/GPa)
#
#
# Indices 1 2 3 4 5 6 
#
# 1 0.011732 -0.000635 -0.004102 0.001408 -0.003183 -0.005769
# 2 -0.000635 0.016527 -0.003329 0.001281 -0.000989 -0.002155
# 3 -0.004102 -0.003329 0.008513 0.004088 -0.002138 0.000116
# 4 0.001408 0.001281 0.004088 0.030112 -0.006730 -0.002935
# 5 -0.003183 -0.000989 -0.002138 -0.006730 0.021714 0.002226
# 6 -0.005769 -0.002155 0.000116 -0.002935 0.002226 0.017694
#
#
# Mechanical properties :
#
#
# Convention : Reuss Voigt Hill
#
# Bulk Modulus (GPa) = 48.44744 89.53757 68.99251
# Shear Modulus (GPa) = 38.66863 50.15002 44.40932
#
# Velocity S-wave (km/s) = 3.78024 4.30503 4.05114
# Velocity P-wave (km/s) = 6.07928 7.60264 6.88324
#
# Compressibility (1/GPa) = 0.02064092
#
# Stress axis : x y z
#
# Youngs Moduli (GPa) = 85.23489 60.50630 117.46824
#
# Poissons Ratio (x) = 0.03841 0.48182
# Poissons Ratio (y) = 0.05411 0.39107
# Poissons Ratio (z) = 0.34961 0.20144
#
# Static dielectric constant tensor:
#      x y z
#    x 5.059810 -0.396840 0.161650 
#    y -0.396840 5.361820 0.052200 
#    z 0.161650 0.052200 5.476550 
# 
# 
# High freq. dielectric constant tensor:
#      x y z
#    x 2.085780 -0.010210 0.009730 
#    y -0.010210 2.103980 0.010240 
#    z 0.009730 0.010240 2.106880 
# 
# From -- ./inp_files/5140.got.cif
#   From: 2010.06.25/outbox.cif.g09.slc.cpg/sg2_3_cif.got.tgz:5140.got - 2010.06.27 13:26:56.
