data_PCOD8009972
_publ_section_title
;
Structure prediction by ZEFSAII (Michael W. Deem and Ramdas Pophale) SiO2 
 PCOD8009972
Probable space group: P -1
;
_chemical_formula_sum "Si O2"
_cell_formula_units_Z 12
_cell_length_a 14.605694
_cell_length_b 8.523437
_cell_length_c 9.812453
_cell_angle_alpha 135.992964
_cell_angle_beta 68.154204
_cell_angle_gamma 136.649973
_cell_volume 552.638676
_symmetry_space_group_name_H-M "P -1"
_symmetry_group_IT_number 2
_symmetry_cell_setting 'triclinic'
loop_
_space_group_symop_operation_xyz
x,y,z
-x,-y,-z
loop_
_atom_site_type_symbol
_atom_site_label
_atom_site_fract_x
_atom_site_fract_y
_atom_site_fract_z
Si Si1 0.005849 0.332113 0.012169
Si Si2 0.242886 0.339700 0.165930
Si Si3 0.516793 0.335118 0.561113
Si Si4 0.814235 0.801270 0.196483
Si Si5 0.187579 0.731755 0.412349
Si Si6 0.566386 0.322953 0.232620
O O1 0.104083 0.612179 0.242929
O O2 0.063867 0.182542 0.840775
O O3 0.000000 0.500000 0.000000
O O4 0.849853 0.025651 0.963994
O O5 0.395557 0.588510 0.305904
O O6 0.159631 0.438221 0.309875
O O7 0.266604 0.369459 0.008117
O O8 0.580810 0.308174 0.378011
O O9 0.537032 0.635066 0.711173
O O10 0.354750 0.010468 0.468356
O O11 0.716581 0.614789 0.265640
O O12 0.866011 0.148589 0.387936
O O13 0.500000 0.000000 0.000000
#
# Coordination Sequence:
#
# PCOD8009972 Si02
#       6
#     2   2   2   2   2   2
#     4  11  26  42  65  91 131 167 210 265 316 369
#     4  11  24  41  66  95 128 167 207 264 316 368
#     4  10  23  39  66  96 129 163 207 259 318 366
#     4  10  23  42  65  93 126 169 213 255 315 375
#     4  10  22  44  66  91 130 168 210 258 311 381
#     4  10  21  37  63  92 132 164 205 256 313 372
#
# _framework density 21.714005
#
# number of rings (size 3 to 8) (size 9 to 14) (size 15 to 20)
#    0.000    1.667    0.000    4.500    9.333    7.333 
#    0.000    0.000    0.000    0.000    0.000    0.000 
#    0.000    0.000    0.000    0.000    0.000    0.000 
#
# Total GULP energy -148773.709545 kJ/mol
# GULP energy per Si atom -12397.809129 kJ/mol
# Density = 2.166458 g / cm^3
# Si number density = 21.714005 Si / 1000 Ang^3
#
#
#
# Elastic Constant Matrix: (Units=GPa)
#
#
# Indices 1 2 3 4 5 6 
#
# 1 93.0487 16.3939 67.7675 4.2199 12.6740 -12.9703
# 2 16.3939 67.6974 25.6349 2.6557 9.1520 -7.5923
# 3 67.7675 25.6349 141.0677 7.4224 -5.4049 -3.4024
# 4 4.2199 2.6557 7.4224 33.2845 2.0262 -3.8113
# 5 12.6740 9.1520 -5.4049 2.0262 49.9472 1.4476
# 6 -12.9703 -7.5923 -3.4024 -3.8113 1.4476 32.0346
#
#
#
# Elastic Compliance Matrix: (Units=1/GPa)
#
#
# Indices 1 2 3 4 5 6 
#
# 1 0.019464 0.000556 -0.009560 0.000850 -0.006324 0.007384
# 2 0.000556 0.016871 -0.003379 0.000025 -0.003716 0.004036
# 3 -0.009560 -0.003379 0.012486 -0.002016 0.004588 -0.003793
# 4 0.000850 0.000025 -0.002016 0.030940 -0.001807 0.003899
# 5 -0.006324 -0.003716 0.004588 -0.001807 0.022998 -0.004208
# 6 0.007384 0.004036 -0.003793 0.003899 -0.004208 0.035414
#
#
# Mechanical properties :
#
#
# Convention : Reuss Voigt Hill
#
# Bulk Modulus (GPa) = 41.57345 57.93404 49.75374
# Shear Modulus (GPa) = 29.24707 35.85443 32.55075
#
# Velocity S-wave (km/s) = 3.67402 4.06792 3.87598
# Velocity P-wave (km/s) = 6.09799 6.98587 6.55697
#
# Compressibility (1/GPa) = 0.02405381
#
# Stress axis : x y z
#
# Youngs Moduli (GPa) = 51.37714 59.27498 80.08979
#
# Poissons Ratio (x) = -0.03298 0.76568
# Poissons Ratio (y) = -0.02859 0.27066
# Poissons Ratio (z) = 0.49118 0.20031
#
# Static dielectric constant tensor:
#      x y z
#    x 4.060650 -0.453890 -0.452240 
#    y -0.453890 4.852870 0.582260 
#    z -0.452240 0.582260 4.386450 
# 
# 
# High freq. dielectric constant tensor:
#      x y z
#    x 1.847860 -0.009650 -0.012460 
#    y -0.009650 1.851800 0.009140 
#    z -0.012460 0.009140 1.863650 
# 
# From -- ./inp_files/165880.got.cif
#   From: 2010.06.25/outbox.cif.g09.slc.cpg/sg2_83_cif.got.tgz:165880.got - 2010.06.27 13:26:56.
