data_PCOD8009603
_publ_section_title
;
Structure prediction by ZEFSAII (Michael W. Deem and Ramdas Pophale) SiO2 
 PCOD8009603
Probable space group: P -1
;
_chemical_formula_sum "Si O2"
_cell_formula_units_Z 16
_cell_length_a 10.856916
_cell_length_b 10.859745
_cell_length_c 11.155087
_cell_angle_alpha 114.277441
_cell_angle_beta 49.204906
_cell_angle_gamma 129.454102
_cell_volume 768.787856
_symmetry_space_group_name_H-M "P -1"
_symmetry_group_IT_number 2
_symmetry_cell_setting 'triclinic'
loop_
_space_group_symop_operation_xyz
x,y,z
-x,-y,-z
loop_
_atom_site_type_symbol
_atom_site_label
_atom_site_fract_x
_atom_site_fract_y
_atom_site_fract_z
Si Si1 0.434885 0.468047 0.689320
Si Si2 0.589695 0.912792 0.977150
Si Si3 0.110356 0.586220 0.345022
Si Si4 0.009218 0.958291 0.341048
Si Si5 0.509849 0.075274 0.702459
Si Si6 0.647167 0.875886 0.413895
Si Si7 0.190356 0.389803 0.604896
Si Si8 0.377157 0.541721 0.010461
O O1 0.427854 0.307781 0.590009
O O2 0.319137 0.506316 0.679698
O O3 0.662810 0.605840 0.588825
O O4 0.343468 0.447174 0.870141
O O5 0.456114 0.722396 0.993265
O O6 0.623748 0.979855 0.117281
O O7 0.779072 0.942067 0.805578
O O8 0.500000 0.000000 0.000000
O O9 0.280642 0.766254 0.341236
O O10 0.000000 0.500000 0.500000
O O11 0.952535 0.569072 0.346534
O O12 0.188613 0.486971 0.188300
O O13 0.871448 0.986701 0.353727
O O14 0.941028 0.775561 0.310434
O O15 0.000000 0.000000 0.500000
O O16 0.388400 0.104051 0.693620
O O17 0.530382 0.928945 0.592290
O O18 0.500000 0.500000 0.000000
#
# Coordination Sequence:
#
# PCOD8009603 Si02
#       8
#     2   2   2   2   2   2   2   2
#     4  10  21  39  60  88 124 158 198 246 310 362
#     4  11  23  40  63  90 123 161 203 252 303 359
#     4  11  22  39  63  88 117 157 207 252 301 362
#     4  11  21  36  61  89 118 155 203 248 298 360
#     4  10  22  40  60  86 121 160 204 248 304 360
#     4  10  21  39  61  85 120 160 199 251 302 362
#     4  10  21  37  58  85 119 158 198 247 297 361
#     4  11  23  40  64  90 123 161 200 252 305 360
#
# _framework density 20.811983999999999
#
# number of rings (size 3 to 8) (size 9 to 14) (size 15 to 20)
#    0.000    1.500    0.000    6.750    0.000    4.000 
#    0.000    7.500    0.000    0.000    0.000    0.000 
#    0.000    0.000    0.000    0.000    0.000    0.000 
#
# Total GULP energy -198261.183172 kJ/mol
# GULP energy per Si atom -12391.323948 kJ/mol
# Density = 2.076461 g / cm^3
# Si number density = 20.811984 Si / 1000 Ang^3
#
#
#
# Elastic Constant Matrix: (Units=GPa)
#
#
# Indices 1 2 3 4 5 6 
#
# 1 201.4579 26.0074 71.9876 3.8147 -3.0404 -4.6250
# 2 26.0074 57.4762 27.8942 3.5545 1.8830 -9.2040
# 3 71.9876 27.8942 172.2035 -4.6922 16.7387 3.8543
# 4 3.8147 3.5545 -4.6922 31.2243 2.8655 0.2695
# 5 -3.0404 1.8830 16.7387 2.8655 37.7165 1.5215
# 6 -4.6250 -9.2040 3.8543 0.2695 1.5215 28.2965
#
#
#
# Elastic Compliance Matrix: (Units=1/GPa)
#
#
# Indices 1 2 3 4 5 6 
#
# 1 0.006122 -0.001387 -0.002554 -0.001142 0.001750 0.000814
# 2 -0.001387 0.020774 -0.003027 -0.002721 0.000120 0.006962
# 3 -0.002554 -0.003027 0.007826 0.002183 -0.003601 -0.002295
# 4 -0.001142 -0.002721 0.002183 0.033127 -0.003381 -0.001503
# 5 0.001750 0.000120 -0.003601 -0.003381 0.028532 -0.000686
# 6 0.000814 0.006962 -0.002295 -0.001503 -0.000686 0.038102
#
#
# Mechanical properties :
#
#
# Convention : Reuss Voigt Hill
#
# Bulk Modulus (GPa) = 48.10825 75.87956 61.99391
# Shear Modulus (GPa) = 32.18583 39.79735 35.99159
#
# Velocity S-wave (km/s) = 3.93683 4.37765 4.16308
# Velocity P-wave (km/s) = 6.62047 7.87975 7.27740
#
# Compressibility (1/GPa) = 0.02078646
#
# Stress axis : x y z
#
# Youngs Moduli (GPa) = 163.33814 48.13605 127.77885
#
# Poissons Ratio (x) = 0.06677 0.32636
# Poissons Ratio (y) = 0.22656 0.38678
# Poissons Ratio (z) = 0.41718 0.14571
#
# Static dielectric constant tensor:
#      x y z
#    x 4.041210 -0.429450 0.426390 
#    y -0.429450 3.474200 0.227500 
#    z 0.426390 0.227500 3.832560 
# 
# 
# High freq. dielectric constant tensor:
#      x y z
#    x 1.834770 -0.008310 0.006430 
#    y -0.008310 1.797440 0.000490 
#    z 0.006430 0.000490 1.821330 
# 
# From -- ./inp_files/426450.got.cif
#   From: 2010.06.25/outbox.cif.g09.slc.cpg/sg2_214_cif.got.tgz:426450.got - 2010.06.27 13:26:56.
