data_PCOD8009287
_publ_section_title
;
Structure prediction by ZEFSAII (Michael W. Deem and Ramdas Pophale) SiO2 
 PCOD8009287
Probable space group: P -1
;
_chemical_formula_sum "Si O2"
_cell_formula_units_Z 16
_cell_length_a 23.520028
_cell_length_b 11.192292
_cell_length_c 9.860377
_cell_angle_alpha 48.182851
_cell_angle_beta 38.128589
_cell_angle_gamma 29.404901
_cell_volume 785.391655
_symmetry_space_group_name_H-M "P -1"
_symmetry_group_IT_number 2
_symmetry_cell_setting 'triclinic'
loop_
_space_group_symop_operation_xyz
x,y,z
-x,-y,-z
loop_
_atom_site_type_symbol
_atom_site_label
_atom_site_fract_x
_atom_site_fract_y
_atom_site_fract_z
Si Si1 0.506527 0.340151 0.512303
Si Si2 0.934159 0.223263 0.636372
Si Si3 0.602132 0.412217 0.755528
Si Si4 0.799251 0.950634 0.356635
Si Si5 0.175919 0.138829 0.322685
Si Si6 0.156755 0.666752 0.570440
Si Si7 0.099269 0.553288 0.010688
Si Si8 0.778374 0.354927 0.094999
O O1 0.500000 0.500000 0.500000
O O2 0.488054 0.413578 0.335488
O O3 0.662636 0.063156 0.447866
O O4 0.382283 0.383881 0.763224
O O5 0.857804 0.370859 0.528407
O O6 0.028731 0.246417 0.488284
O O7 0.813669 0.345978 0.879758
O O8 0.024591 0.945200 0.655637
O O9 0.698761 0.429727 0.611200
O O10 0.693087 0.138104 0.757942
O O11 0.500000 0.500000 0.000000
O O12 0.792297 0.148289 0.258091
O O13 0.814809 0.833438 0.556553
O O14 0.933491 0.735428 0.175394
O O15 0.184710 0.293049 0.108247
O O16 0.157806 0.508754 0.783883
O O17 0.117967 0.686917 0.967883
#
# Coordination Sequence:
#
# PCOD8009287 Si02
#       8
#     2   2   2   2   2   2   2   2
#     4  10  21  37  64  91 121 154 210 252 297 355
#     4  10  21  36  60  90 120 157 213 254 297 352
#     4  11  23  41  66  88 121 163 207 255 304 363
#     4  11  21  36  64  94 124 159 204 253 300 359
#     4  11  23  39  60  95 127 155 204 257 309 366
#     4  10  22  38  60  89 119 163 209 253 292 364
#     4  12  22  38  66  89 128 164 197 255 317 353
#     4  11  19  37  66  91 116 160 211 253 292 358
#
# _framework density 20.372001000000001
#
# number of rings (size 3 to 8) (size 9 to 14) (size 15 to 20)
#    0.000    1.250    6.250    1.500    3.500    1.500 
#    0.000    1.250    2.750    0.000    0.000    0.000 
#    0.000    0.000    0.000    0.000    0.000    0.000 
#
# Total GULP energy -198432.086739 kJ/mol
# GULP energy per Si atom -12402.005421 kJ/mol
# Density = 2.032563 g / cm^3
# Si number density = 20.372001 Si / 1000 Ang^3
#
#
#
# Elastic Constant Matrix: (Units=GPa)
#
#
# Indices 1 2 3 4 5 6 
#
# 1 88.8354 36.2893 56.6921 2.1367 23.3418 -41.2378
# 2 36.2893 62.0806 51.0464 -6.1950 -1.4821 -26.9869
# 3 56.6921 51.0464 184.6423 1.9083 27.3547 -28.0200
# 4 2.1367 -6.1950 1.9083 40.7569 -7.1872 -1.1716
# 5 23.3418 -1.4821 27.3547 -7.1872 33.5727 -4.4853
# 6 -41.2378 -26.9869 -28.0200 -1.1716 -4.4853 30.7283
#
#
#
# Elastic Compliance Matrix: (Units=1/GPa)
#
#
# Indices 1 2 3 4 5 6 
#
# 1 0.042760 -0.003750 -0.001023 -0.005507 -0.023627 0.049499
# 2 -0.003750 0.035256 -0.007692 0.009228 0.015279 0.021499
# 3 -0.001023 -0.007692 0.008815 -0.002908 -0.007608 -0.001312
# 4 -0.005507 0.009228 -0.002908 0.028664 0.012880 0.001035
# 5 -0.023627 0.015279 -0.007608 0.012880 0.053584 -0.016914
# 6 0.049499 0.021499 -0.001312 0.001035 -0.016914 0.114227
#
#
# Mechanical properties :
#
#
# Convention : Reuss Voigt Hill
#
# Bulk Modulus (GPa) = 16.15502 69.29042 42.72272
# Shear Modulus (GPa) = 15.20358 33.78030 24.49194
#
# Velocity S-wave (km/s) = 2.73481 4.07648 3.47109
# Velocity P-wave (km/s) = 4.23314 7.49956 6.08945
#
# Compressibility (1/GPa) = 0.06190028
#
# Stress axis : x y z
#
# Youngs Moduli (GPa) = 23.38641 28.36362 113.44797
#
# Poissons Ratio (x) = 0.10636 0.11609
# Poissons Ratio (y) = 0.08770 0.87264
# Poissons Ratio (z) = 0.02393 0.21817
#
# Static dielectric constant tensor:
#      x y z
#    x 3.811080 -0.465190 -0.127390 
#    y -0.465190 3.708860 0.235130 
#    z -0.127390 0.235130 3.991820 
# 
# 
# High freq. dielectric constant tensor:
#      x y z
#    x 1.789290 -0.024610 0.004360 
#    y -0.024610 1.769600 0.004230 
#    z 0.004360 0.004230 1.809820 
# 
# From -- ./inp_files/200236.got.cif
#   From: 2010.06.25/outbox.cif.g09.slc.cpg/sg2_101_cif.got.tgz:200236.got - 2010.06.27 13:26:56.
