data_PCOD8009818
_publ_section_title
;
Structure prediction by ZEFSAII (Michael W. Deem and Ramdas Pophale) SiO2 
 PCOD8009818
Probable space group: P -1
;
_chemical_formula_sum "Si O2"
_cell_formula_units_Z 14
_cell_length_a 17.937977
_cell_length_b 7.277720
_cell_length_c 15.294497
_cell_angle_alpha 133.710513
_cell_angle_beta 22.624798
_cell_angle_gamma 130.503450
_cell_volume 554.728996
_symmetry_space_group_name_H-M "P -1"
_symmetry_group_IT_number 2
_symmetry_cell_setting 'triclinic'
loop_
_space_group_symop_operation_xyz
x,y,z
-x,-y,-z
loop_
_atom_site_type_symbol
_atom_site_label
_atom_site_fract_x
_atom_site_fract_y
_atom_site_fract_z
Si Si1 0.721021 0.993366 0.171996
Si Si2 0.265783 0.900417 0.011486
Si Si3 0.443370 0.401771 0.623133
Si Si4 0.825498 0.839826 0.450832
Si Si5 0.473582 0.820726 0.051409
Si Si6 0.840464 0.955969 0.276983
Si Si7 0.581373 0.410726 0.677736
O O1 0.593019 0.725463 0.239313
O O2 0.707737 0.020515 0.091264
O O3 0.625655 0.232602 0.402064
O O4 0.938147 0.973874 0.964818
O O5 0.390919 0.653482 0.818201
O O6 0.348672 0.129189 0.057314
O O7 0.040501 0.844020 0.259316
O O8 0.500000 0.500000 0.500000
O O9 0.252060 0.211534 0.757208
O O10 0.698356 0.609048 0.554434
O O11 0.732407 0.113314 0.660609
O O12 0.829609 0.797682 0.327691
O O13 0.483192 0.533789 0.910251
O O14 0.500000 0.000000 0.000000
O O15 0.723476 0.209576 0.497702
#
# Coordination Sequence:
#
# PCOD8009818 Si02
#       7
#     2   2   2   2   2   2   2
#     4   9  20  37  60  90 121 155 196 244 298 354
#     4  10  21  37  61  91 117 155 205 243 291 357
#     4   9  18  35  62  90 119 153 197 245 290 355
#     4  10  22  38  61  89 118 158 200 240 296 353
#     4  10  22  38  59  86 121 158 196 247 299 345
#     4  10  21  39  63  90 120 157 196 241 299 352
#     4  10  22  39  59  88 122 155 200 250 289 348
#
# _framework density 25.237549000000001
#
# number of rings (size 3 to 8) (size 9 to 14) (size 15 to 20)
#    0.000    2.286    0.000    2.571    0.000   14.286 
#    0.000    5.714    0.000   45.429    0.000    0.000 
#    0.000    0.000    0.000    0.000    0.000    0.000 
#
# Total GULP energy -173594.129867 kJ/mol
# GULP energy per Si atom -12399.580705 kJ/mol
# Density = 2.518011 g / cm^3
# Si number density = 25.237549 Si / 1000 Ang^3
#
#
#
# Elastic Constant Matrix: (Units=GPa)
#
#
# Indices 1 2 3 4 5 6 
#
# 1 69.6642 15.8898 29.8403 5.1209 -6.6657 25.6000
# 2 15.8898 109.8458 61.9101 12.0316 -1.0222 13.0612
# 3 29.8403 61.9101 144.6932 -6.2687 -18.0821 32.4102
# 4 5.1209 12.0316 -6.2687 42.2195 -2.4729 11.2083
# 5 -6.6657 -1.0222 -18.0821 -2.4729 40.8146 -5.9952
# 6 25.6000 13.0612 32.4102 11.2083 -5.9952 48.8039
#
#
#
# Elastic Compliance Matrix: (Units=1/GPa)
#
#
# Indices 1 2 3 4 5 6 
#
# 1 0.018313 -0.000876 -0.001389 0.000101 0.001136 -0.008333
# 2 -0.000876 0.013215 -0.006528 -0.005360 -0.002712 0.002155
# 3 -0.001389 -0.006528 0.012241 0.005817 0.004439 -0.006444
# 4 0.000101 -0.005360 0.005817 0.028539 0.002914 -0.008678
# 5 0.001136 -0.002712 0.004439 0.002914 0.026732 -0.000203
# 6 -0.008333 0.002155 -0.006444 -0.008678 -0.000203 0.030532
#
#
# Mechanical properties :
#
#
# Convention : Reuss Voigt Hill
#
# Bulk Modulus (GPa) = 38.19251 59.94261 49.06756
# Shear Modulus (GPa) = 32.07518 40.80514 36.44016
#
# Velocity S-wave (km/s) = 3.56888 4.02536 3.80397
# Velocity P-wave (km/s) = 5.66997 6.73852 6.22721
#
# Compressibility (1/GPa) = 0.02618314
#
# Stress axis : x y z
#
# Youngs Moduli (GPa) = 54.60700 75.67181 81.69412
#
# Poissons Ratio (x) = 0.06627 0.11349
# Poissons Ratio (y) = 0.04782 0.53327
# Poissons Ratio (z) = 0.07586 0.49396
#
# Static dielectric constant tensor:
#      x y z
#    x 4.844500 -0.073950 0.215070 
#    y -0.073950 4.954450 0.244240 
#    z 0.215070 0.244240 5.255680 
# 
# 
# High freq. dielectric constant tensor:
#      x y z
#    x 2.036240 -0.012410 0.008380 
#    y -0.012410 2.006040 -0.002550 
#    z 0.008380 -0.002550 2.016570 
# 
# From -- ./inp_files/504448.got.cif
#   From: 2010.06.25/outbox.cif.g09.slc.cpg/sg2_253_cif.got.tgz:504448.got - 2010.06.27 13:26:56.
