data_PCOD8009174
_publ_section_title
;
Structure prediction by ZEFSAII (Michael W. Deem and Ramdas Pophale) SiO2 
 PCOD8009174
Probable space group: P -1
;
_chemical_formula_sum "Si O2"
_cell_formula_units_Z 16
_cell_length_a 24.004584
_cell_length_b 8.359405
_cell_length_c 5.361589
_cell_angle_alpha 99.355718
_cell_angle_beta 97.836896
_cell_angle_gamma 41.672821
_cell_volume 705.627739
_symmetry_space_group_name_H-M "P -1"
_symmetry_group_IT_number 2
_symmetry_cell_setting 'triclinic'
loop_
_space_group_symop_operation_xyz
x,y,z
-x,-y,-z
loop_
_atom_site_type_symbol
_atom_site_label
_atom_site_fract_x
_atom_site_fract_y
_atom_site_fract_z
Si Si1 0.318922 0.833659 0.272311
Si Si2 0.041450 0.604139 0.825363
Si Si3 0.612608 0.706743 0.419804
Si Si4 0.449497 0.313193 0.103807
Si Si5 0.379465 0.969700 0.663653
Si Si6 0.768944 0.162465 0.386024
Si Si7 0.769904 0.808638 0.074004
Si Si8 0.956293 0.785137 0.319586
O O1 0.382176 0.599646 0.072358
O O2 0.251207 0.852036 0.348385
O O3 0.380242 0.788502 0.499399
O O4 0.265317 0.103042 0.205985
O O5 0.136461 0.456326 0.901963
O O6 0.034242 0.427369 0.751263
O O7 0.011030 0.739284 0.573413
O O8 0.986915 0.790296 0.071989
O O9 0.573448 0.714972 0.647059
O O10 0.617331 0.890544 0.499249
O O11 0.703695 0.440846 0.341257
O O12 0.554063 0.803241 0.161376
O O13 0.542204 0.190247 0.140045
O O14 0.291415 0.177375 0.808904
O O15 0.761007 0.019906 0.177838
O O16 0.861357 0.040318 0.384819
#
# Coordination Sequence:
#
# PCOD8009174 Si02
#       8
#     2   2   2   2   2   2   2   2
#     4  10  22  38  59  88 121 158 194 246 294 349
#     4   9  19  30  51  84 115 144 186 241 285 338
#     4  11  24  42  62  88 118 157 199 247 290 347
#     4  11  24  43  62  86 119 157 202 246 289 346
#     4  11  25  38  61  88 118 160 198 243 296 352
#     4   9  20  37  58  86 117 155 194 241 291 348
#     4  10  21  36  58  84 122 153 192 241 298 347
#     4   9  18  30  54  83 112 145 190 236 287 337
#
# _framework density 22.674845000000001
#
# number of rings (size 3 to 8) (size 9 to 14) (size 15 to 20)
#    0.000    2.000    1.250    1.125   14.000    0.500 
#    0.000    0.000    0.000    1.500    0.000    0.000 
#    0.000    0.000    0.000    0.000    0.000    0.000 
#
# Total GULP energy -198257.988643 kJ/mol
# GULP energy per Si atom -12391.124290 kJ/mol
# Density = 2.262324 g / cm^3
# Si number density = 22.674845 Si / 1000 Ang^3
#
#
#
# Elastic Constant Matrix: (Units=GPa)
#
#
# Indices 1 2 3 4 5 6 
#
# 1 80.2052 45.7835 30.9742 -2.5176 -5.3825 -34.3455
# 2 45.7835 82.0565 22.3818 1.6302 -1.3945 -35.2085
# 3 30.9742 22.3818 105.5345 -12.1815 -8.5007 -16.3365
# 4 -2.5176 1.6302 -12.1815 32.3838 -1.1043 0.1693
# 5 -5.3825 -1.3945 -8.5007 -1.1043 14.0088 -1.7170
# 6 -34.3455 -35.2085 -16.3365 0.1693 -1.7170 38.7267
#
#
#
# Elastic Compliance Matrix: (Units=1/GPa)
#
#
# Indices 1 2 3 4 5 6 
#
# 1 0.024063 -0.006136 -0.002526 0.001460 0.009067 0.015092
# 2 -0.006136 0.022012 -0.000803 -0.001930 0.000944 0.014281
# 3 -0.002526 -0.000803 0.011805 0.004503 0.006748 0.002289
# 4 0.001460 -0.001930 0.004503 0.032977 0.005891 0.001557
# 5 0.009067 0.000944 0.006748 0.005891 0.081400 0.015329
# 6 0.015092 0.014281 0.002289 0.001557 0.015329 0.053829
#
#
# Mechanical properties :
#
#
# Convention : Reuss Voigt Hill
#
# Bulk Modulus (GPa) = 25.67477 51.78611 38.73044
# Shear Modulus (GPa) = 19.37984 28.26763 23.82373
#
# Velocity S-wave (km/s) = 2.92667 3.53463 3.24492
# Velocity P-wave (km/s) = 4.77160 6.28858 5.58186
#
# Compressibility (1/GPa) = 0.03894875
#
# Stress axis : x y z
#
# Youngs Moduli (GPa) = 41.55672 45.43012 84.71046
#
# Poissons Ratio (x) = 0.27878 0.21399
# Poissons Ratio (y) = 0.25501 0.06804
# Poissons Ratio (z) = 0.10498 0.03649
#
# Static dielectric constant tensor:
#      x y z
#    x 3.767150 -0.299370 -0.042720 
#    y -0.299370 4.030800 -0.038090 
#    z -0.042720 -0.038090 4.147860 
# 
# 
# High freq. dielectric constant tensor:
#      x y z
#    x 1.868530 -0.026220 -0.004620 
#    y -0.026220 1.886170 -0.007610 
#    z -0.004620 -0.007610 1.895860 
# 
# From -- ./inp_files/51335.got.cif
#   From: 2010.06.25/outbox.cif.g09.slc.cpg/sg2_26_cif.got.tgz:51335.got - 2010.06.27 13:26:56.
