data_PCOD8009490
_publ_section_title
;
Structure prediction by ZEFSAII (Michael W. Deem and Ramdas Pophale) SiO2 
 PCOD8009490
Probable space group: P -1
;
_chemical_formula_sum "Si O2"
_cell_formula_units_Z 16
_cell_length_a 14.310339
_cell_length_b 11.866728
_cell_length_c 11.230945
_cell_angle_alpha 121.299126
_cell_angle_beta 99.423099
_cell_angle_gamma 33.281919
_cell_volume 730.371776
_symmetry_space_group_name_H-M "P -1"
_symmetry_group_IT_number 2
_symmetry_cell_setting 'triclinic'
loop_
_space_group_symop_operation_xyz
x,y,z
-x,-y,-z
loop_
_atom_site_type_symbol
_atom_site_label
_atom_site_fract_x
_atom_site_fract_y
_atom_site_fract_z
Si Si1 0.388984 0.842521 0.484284
Si Si2 0.940803 0.820405 0.213656
Si Si3 0.873193 0.819345 0.939597
Si Si4 0.033808 0.968130 0.188610
Si Si5 0.259784 0.262269 0.584867
Si Si6 0.700816 0.302024 0.108671
Si Si7 0.268981 0.288008 0.153610
Si Si8 0.771523 0.521507 0.509247
O O1 0.475931 0.631219 0.288273
O O2 0.568799 0.696085 0.513407
O O3 0.251083 0.930950 0.597583
O O4 0.238873 0.132936 0.542090
O O5 0.860076 0.845712 0.093582
O O6 0.028191 0.856988 0.221157
O O7 0.125931 0.505460 0.132765
O O8 0.725372 0.113547 0.011944
O O9 0.790521 0.783553 0.853476
O O10 0.116822 0.528441 0.790318
O O11 0.257091 0.700553 0.019927
O O12 0.865448 0.158557 0.155010
O O13 0.976915 0.174965 0.355680
O O14 0.189673 0.390408 0.507406
O O15 0.500000 0.000000 0.500000
O O16 0.254308 0.412723 0.322950
O O17 0.500000 0.000000 0.000000
#
# Coordination Sequence:
#
# PCOD8009490 Si02
#       8
#     2   2   2   2   2   2   2   2
#     4  10  21  39  65  98 122 161 208 261 307 372
#     4  11  24  39  65  92 124 165 210 257 310 372
#     4  11  22  42  67  91 125 163 217 255 305 371
#     4   9  19  37  64  90 123 161 204 260 308 367
#     4  10  21  36  67  95 119 163 210 264 302 360
#     4   9  19  37  65  95 119 155 215 262 305 352
#     4  12  27  40  59  91 130 170 204 256 319 375
#     4  10  22  40  63  91 129 162 207 254 316 363
#
# _framework density 21.906651
#
# number of rings (size 3 to 8) (size 9 to 14) (size 15 to 20)
#    0.000    1.750    2.500    1.125    8.750    6.500 
#    0.000    0.000    0.000    2.250    0.000    0.000 
#    0.000    0.000    0.000    0.000    0.000    0.000 
#
# Total GULP energy -198358.012984 kJ/mol
# GULP energy per Si atom -12397.375811 kJ/mol
# Density = 2.185679 g / cm^3
# Si number density = 21.906651 Si / 1000 Ang^3
#
#
#
# Elastic Constant Matrix: (Units=GPa)
#
#
# Indices 1 2 3 4 5 6 
#
# 1 96.7867 39.9820 58.0619 0.8507 -4.5783 32.5373
# 2 39.9820 44.1375 29.4196 4.1506 -2.4077 27.4742
# 3 58.0619 29.4196 160.8729 11.8209 -14.4071 22.6715
# 4 0.8507 4.1506 11.8209 28.2254 8.0549 -1.0803
# 5 -4.5783 -2.4077 -14.4071 8.0549 42.8351 0.0168
# 6 32.5373 27.4742 22.6715 -1.0803 0.0168 34.9933
#
#
#
# Elastic Compliance Matrix: (Units=1/GPa)
#
#
# Indices 1 2 3 4 5 6 
#
# 1 0.019764 -0.011039 -0.004409 0.002760 -0.000507 -0.006768
# 2 -0.011039 0.054084 -0.000316 -0.009752 0.003600 -0.032296
# 3 -0.004409 -0.000316 0.008684 -0.004444 0.003268 -0.001418
# 4 0.002760 -0.009752 -0.004444 0.041735 -0.009600 0.009263
# 5 -0.000507 0.003600 0.003268 -0.009600 0.026400 -0.004781
# 6 -0.006768 -0.032296 -0.001418 0.009263 -0.004781 0.061434
#
#
# Mechanical properties :
#
#
# Convention : Reuss Voigt Hill
#
# Bulk Modulus (GPa) = 19.60612 61.85824 40.73218
# Shear Modulus (GPa) = 19.18437 32.83299 26.00868
#
# Velocity S-wave (km/s) = 2.96249 3.87559 3.44939
# Velocity P-wave (km/s) = 4.54654 6.95165 5.87352
#
# Compressibility (1/GPa) = 0.05100449
#
# Stress axis : x y z
#
# Youngs Moduli (GPa) = 50.59727 18.48993 115.15255
#
# Poissons Ratio (x) = 0.20410 0.50769
# Poissons Ratio (y) = 0.55853 0.03639
# Poissons Ratio (z) = 0.22307 0.00584
#
# Static dielectric constant tensor:
#      x y z
#    x 3.958220 0.392740 -0.066980 
#    y 0.392740 3.778730 0.157870 
#    z -0.066980 0.157870 4.317730 
# 
# 
# High freq. dielectric constant tensor:
#      x y z
#    x 1.849930 0.027610 -0.008330 
#    y 0.027610 1.838160 0.007860 
#    z -0.008330 0.007860 1.881300 
# 
# From -- ./inp_files/452563.got.cif
#   From: 2010.06.25/outbox.cif.g09.slc.cpg/sg2_227_cif.got.tgz:452563.got - 2010.06.27 13:26:56.
