data_PCOD8009613
_publ_section_title
;
Structure prediction by ZEFSAII (Michael W. Deem and Ramdas Pophale) SiO2 
 PCOD8009613
Probable space group: P -1
;
_chemical_formula_sum "Si O2"
_cell_formula_units_Z 12
_cell_length_a 13.148362
_cell_length_b 20.370526
_cell_length_c 23.765908
_cell_angle_alpha 162.367539
_cell_angle_beta 17.418709
_cell_angle_gamma 154.102099
_cell_volume 573.856315
_symmetry_space_group_name_H-M "P -1"
_symmetry_group_IT_number 2
_symmetry_cell_setting 'triclinic'
loop_
_space_group_symop_operation_xyz
x,y,z
-x,-y,-z
loop_
_atom_site_type_symbol
_atom_site_label
_atom_site_fract_x
_atom_site_fract_y
_atom_site_fract_z
Si Si1 0.598678 0.481006 0.130017
Si Si2 0.587430 0.582945 0.343238
Si Si3 0.747951 0.159386 0.474090
Si Si4 0.761905 0.600728 0.520436
Si Si5 0.389454 0.991341 0.270042
Si Si6 0.683292 0.161850 0.145345
O O1 0.456327 0.535100 0.311620
O O2 0.475644 0.667094 0.303971
O O3 0.446213 0.256658 0.009005
O O4 0.006548 0.451127 0.891978
O O5 0.437778 0.421000 0.333574
O O6 0.440441 0.834860 0.639120
O O7 0.901209 0.286994 0.549445
O O8 0.500000 0.000000 0.500000
O O9 0.024276 0.024648 0.178783
O O10 0.850181 0.367823 0.252684
O O11 0.531653 0.764892 0.736283
O O12 0.428267 0.061816 0.242025
O O13 0.000000 0.000000 0.500000
#
# Coordination Sequence:
#
# PCOD8009613 Si02
#       6
#     2   2   2   2   2   2
#     4  10  21  37  58  87 121 152 195 244 294 351
#     4   9  19  38  62  85 113 158 200 239 289 350
#     4  12  26  39  58  90 124 158 196 246 301 350
#     4  10  22  41  63  85 118 158 203 246 289 351
#     4   9  19  36  62  88 111 149 197 242 288 344
#     4  10  22  41  64  89 117 158 202 241 294 354
#
# _framework density 20.911156999999999
#
# number of rings (size 3 to 8) (size 9 to 14) (size 15 to 20)
#    0.000    2.000    0.000    2.500    0.000   10.000 
#    0.000    3.333    0.000    0.000    0.000    0.000 
#    0.000    0.000    0.000    0.000    0.000    0.000 
#
# Total GULP energy -148775.368710 kJ/mol
# GULP energy per Si atom -12397.947392 kJ/mol
# Density = 2.086356 g / cm^3
# Si number density = 20.911157 Si / 1000 Ang^3
#
#
#
# Elastic Constant Matrix: (Units=GPa)
#
#
# Indices 1 2 3 4 5 6 
#
# 1 129.2483 68.7327 59.3225 17.0026 5.5248 -5.1913
# 2 68.7327 143.9679 53.8138 16.7478 4.4502 -16.5579
# 3 59.3225 53.8138 96.9489 32.2345 8.1308 -5.3183
# 4 17.0026 16.7478 32.2345 35.0459 -9.6254 -2.1652
# 5 5.5248 4.4502 8.1308 -9.6254 25.6744 2.8643
# 6 -5.1913 -16.5579 -5.3183 -2.1652 2.8643 35.5267
#
#
#
# Elastic Compliance Matrix: (Units=1/GPa)
#
#
# Indices 1 2 3 4 5 6 
#
# 1 0.012301 -0.003951 -0.005914 0.001457 0.000556 -0.000885
# 2 -0.003951 0.010464 -0.003101 -0.000118 -0.000457 0.003865
# 3 -0.005914 -0.003101 0.024059 -0.021559 -0.014015 0.001108
# 4 0.001457 -0.000118 -0.021559 0.055123 0.027414 -0.001920
# 5 0.000556 -0.000457 -0.014015 0.027414 0.054175 -0.004927
# 6 -0.000885 0.003865 0.001108 -0.001920 -0.004927 0.030266
#
#
# Mechanical properties :
#
#
# Convention : Reuss Voigt Hill
#
# Bulk Modulus (GPa) = 47.86405 81.54479 64.70442
# Shear Modulus (GPa) = 22.80154 31.80249 27.30201
#
# Velocity S-wave (km/s) = 3.30570 3.90402 3.61726
# Velocity P-wave (km/s) = 6.12447 7.70729 6.96102
#
# Compressibility (1/GPa) = 0.02089251
#
# Stress axis : x y z
#
# Youngs Moduli (GPa) = 81.29174 95.56852 41.56480
#
# Poissons Ratio (x) = 0.37758 0.24581
# Poissons Ratio (y) = 0.32117 0.12889
# Poissons Ratio (z) = 0.48074 0.29636
#
# Static dielectric constant tensor:
#      x y z
#    x 3.811890 0.066060 0.412900 
#    y 0.066060 4.094320 0.364620 
#    z 0.412900 0.364620 4.016840 
# 
# 
# High freq. dielectric constant tensor:
#      x y z
#    x 1.813790 -0.007730 0.020970 
#    y -0.007730 1.835040 0.018140 
#    z 0.020970 0.018140 1.819570 
# 
# From -- ./inp_files/150811.got.cif
#   From: 2010.06.25/outbox.cif.g09.slc.cpg/sg2_76_cif.got.tgz:150811.got - 2010.06.27 13:26:56.
