data_PCOD8009520
_publ_section_title
;
Structure prediction by ZEFSAII (Michael W. Deem and Ramdas Pophale) SiO2 
 PCOD8009520
Probable space group: P -1
;
_chemical_formula_sum "Si O2"
_cell_formula_units_Z 16
_cell_length_a 19.966042
_cell_length_b 20.033307
_cell_length_c 8.080754
_cell_angle_alpha 134.818464
_cell_angle_beta 145.603180
_cell_angle_gamma 22.180447
_cell_volume 662.225674
_symmetry_space_group_name_H-M "P -1"
_symmetry_group_IT_number 2
_symmetry_cell_setting 'triclinic'
loop_
_space_group_symop_operation_xyz
x,y,z
-x,-y,-z
loop_
_atom_site_type_symbol
_atom_site_label
_atom_site_fract_x
_atom_site_fract_y
_atom_site_fract_z
Si Si1 0.260530 0.061907 0.816977
Si Si2 0.074410 0.561019 0.783758
Si Si3 0.117473 0.052959 0.227510
Si Si4 0.668013 0.439092 0.857642
Si Si5 0.557824 0.806282 0.281342
Si Si6 0.091738 0.532845 0.157257
Si Si7 0.471896 0.706533 0.169552
Si Si8 0.622145 0.946848 0.387418
O O1 0.169987 0.026428 0.484421
O O2 0.050094 0.277981 0.755301
O O3 0.351414 0.974306 0.030408
O O4 0.483528 0.965766 0.023226
O O5 0.183169 0.397069 0.617147
O O6 0.800884 0.763542 0.543759
O O7 0.210484 0.560534 0.996493
O O8 0.121276 0.506393 0.974736
O O9 0.245065 0.063770 0.457192
O O10 0.226861 0.882757 0.077141
O O11 0.853474 0.237525 0.954052
O O12 0.500000 0.500000 0.500000
O O13 0.528364 0.566357 0.961565
O O14 0.449795 0.786983 0.105656
O O15 0.575463 0.874281 0.578811
O O16 0.343076 0.379782 0.476528
O O17 0.000000 0.500000 0.000000
#
# Coordination Sequence:
#
# PCOD8009520 Si02
#       8
#     2   2   2   2   2   2   2   2
#     4  12  22  37  59  88 132 173 210 255 308 375
#     4  10  23  41  62  92 130 169 215 261 315 375
#     4  10  21  39  61  90 126 163 202 267 319 374
#     4  10  22  45  71  94 123 162 215 276 327 370
#     4  10  21  38  59  86 126 171 211 259 303 370
#     4  12  24  39  63  95 138 175 210 254 310 382
#     4  10  22  42  62  95 131 162 214 262 314 387
#     4  10  21  37  55  88 128 170 213 248 307 378
#
# _framework density 24.160948000000001
#
# number of rings (size 3 to 8) (size 9 to 14) (size 15 to 20)
#    0.000    1.500    2.500    3.000    1.750    2.000 
#    2.250    0.625    0.000    3.750    0.000    0.000 
#    0.000    0.000    0.000    0.000    0.000    0.000 
#
# Total GULP energy -198228.286073 kJ/mol
# GULP energy per Si atom -12389.267880 kJ/mol
# Density = 2.410596 g / cm^3
# Si number density = 24.160948 Si / 1000 Ang^3
#
#
#
# Elastic Constant Matrix: (Units=GPa)
#
#
# Indices 1 2 3 4 5 6 
#
# 1 30.9850 6.7380 -6.1348 2.3333 -12.2141 5.1193
# 2 6.7380 168.0653 54.8320 -2.3165 -1.7986 -17.6170
# 3 -6.1348 54.8320 131.3219 -6.4098 -14.3095 -16.7618
# 4 2.3333 -2.3165 -6.4098 31.8190 1.4681 -13.7532
# 5 -12.2141 -1.7986 -14.3095 1.4681 21.4219 0.0566
# 6 5.1193 -17.6170 -16.7618 -13.7532 0.0566 28.1720
#
#
#
# Elastic Compliance Matrix: (Units=1/GPa)
#
#
# Indices 1 2 3 4 5 6 
#
# 1 0.050814 -0.005229 0.005830 -0.010644 0.033195 -0.014298
# 2 -0.005229 0.007737 -0.003171 0.002805 -0.004657 0.005280
# 3 0.005830 -0.003171 0.011162 0.003375 0.010269 0.005226
# 4 -0.010644 0.002805 0.003375 0.045467 -0.006768 0.027906
# 5 0.033195 -0.004657 0.010269 -0.006768 0.072557 -0.006284
# 6 -0.014298 0.005280 0.005226 0.027906 -0.006284 0.058142
#
#
# Mechanical properties :
#
#
# Convention : Reuss Voigt Hill
#
# Bulk Modulus (GPa) = 15.48671 49.02694 32.25682
# Shear Modulus (GPa) = 18.34569 34.61172 26.47870
#
# Velocity S-wave (km/s) = 2.75855 3.78901 3.31407
# Velocity P-wave (km/s) = 4.07061 6.28315 5.29376
#
# Compressibility (1/GPa) = 0.06457151
#
# Stress axis : x y z
#
# Youngs Moduli (GPa) = 19.67946 129.25487 89.58962
#
# Poissons Ratio (x) = 0.67594 -0.52230
# Poissons Ratio (y) = 0.10291 0.28411
# Poissons Ratio (z) = -0.11473 0.40989
#
# Static dielectric constant tensor:
#      x y z
#    x 4.373970 -0.116070 -0.405750 
#    y -0.116070 5.071340 0.052820 
#    z -0.405750 0.052820 4.162420 
# 
# 
# High freq. dielectric constant tensor:
#      x y z
#    x 1.947950 0.006310 -0.028690 
#    y 0.006310 1.984980 -0.004800 
#    z -0.028690 -0.004800 1.946980 
# 
# From -- ./inp_files/343862.got.cif
#   From: 2010.06.25/outbox.cif.g09.slc.cpg/sg2_172_cif.got.tgz:343862.got - 2010.06.27 13:26:56.
