data_PCOD8009580
_publ_section_title
;
Structure prediction by ZEFSAII (Michael W. Deem and Ramdas Pophale) SiO2 
 PCOD8009580
Probable space group: P -1
;
_chemical_formula_sum "Si O2"
_cell_formula_units_Z 16
_cell_length_a 9.197971
_cell_length_b 11.460870
_cell_length_c 16.491957
_cell_angle_alpha 130.027822
_cell_angle_beta 134.127688
_cell_angle_gamma 38.858416
_cell_volume 762.991341
_symmetry_space_group_name_H-M "P -1"
_symmetry_group_IT_number 2
_symmetry_cell_setting 'triclinic'
loop_
_space_group_symop_operation_xyz
x,y,z
-x,-y,-z
loop_
_atom_site_type_symbol
_atom_site_label
_atom_site_fract_x
_atom_site_fract_y
_atom_site_fract_z
Si Si1 0.575193 0.542541 0.243594
Si Si2 0.771801 0.516461 0.017162
Si Si3 0.135124 0.397045 0.738452
Si Si4 0.592303 0.007095 0.406870
Si Si5 0.771810 0.032633 0.658992
Si Si6 0.545588 0.651780 0.607737
Si Si7 0.710718 0.774139 0.977818
Si Si8 0.324230 0.749320 0.732983
O O1 0.796841 0.540483 0.287973
O O2 0.359055 0.746894 0.286398
O O3 0.693470 0.415409 0.314088
O O4 0.465647 0.473469 0.103389
O O5 0.734234 0.574429 0.122708
O O6 0.032019 0.302092 0.005677
O O7 0.788203 0.676267 0.052652
O O8 0.834926 0.536908 0.697223
O O9 0.241173 0.176276 0.670102
O O10 0.749916 0.969557 0.532843
O O11 0.522295 0.196683 0.420645
O O12 0.333873 0.036544 0.345105
O O13 0.064344 0.943706 0.749209
O O14 0.500000 0.500000 0.500000
O O15 0.348031 0.766199 0.654619
O O16 0.580009 0.693542 0.846581
O O17 0.500000 0.000000 0.000000
#
# Coordination Sequence:
#
# PCOD8009580 Si02
#       8
#     2   2   2   2   2   2   2   2
#     4  10  22  40  64  90 120 162 204 248 300 358
#     4  10  21  38  61  91 122 157 203 244 299 365
#     4  11  23  41  63  90 126 159 200 255 302 359
#     4  10  24  41  62  89 120 162 205 255 303 355
#     4  10  21  42  63  86 120 161 209 249 299 359
#     4  12  25  40  60  91 124 158 203 253 306 357
#     4  10  21  37  57  89 123 158 195 244 301 357
#     4  11  22  37  60  88 118 158 199 246 302 359
#
# _framework density 20.970094
#
# number of rings (size 3 to 8) (size 9 to 14) (size 15 to 20)
#    0.000    1.500    1.250    3.375    1.750    3.000 
#    0.000    5.000    0.000    8.250    0.000    0.000 
#    0.000    0.000    0.000    0.000    0.000    0.000 
#
# Total GULP energy -198326.699755 kJ/mol
# GULP energy per Si atom -12395.418735 kJ/mol
# Density = 2.092236 g / cm^3
# Si number density = 20.970094 Si / 1000 Ang^3
#
#
#
# Elastic Constant Matrix: (Units=GPa)
#
#
# Indices 1 2 3 4 5 6 
#
# 1 85.4869 41.6177 7.6169 5.5063 -13.9060 2.9056
# 2 41.6177 106.9081 3.3815 14.4817 -8.6830 -0.3446
# 3 7.6169 3.3815 50.7686 10.1461 -5.8742 1.1231
# 4 5.5063 14.4817 10.1461 32.7010 -3.4266 6.2061
# 5 -13.9060 -8.6830 -5.8742 -3.4266 26.8093 -3.2979
# 6 2.9056 -0.3446 1.1231 6.2061 -3.2979 35.2104
#
#
#
# Elastic Compliance Matrix: (Units=1/GPa)
#
#
# Indices 1 2 3 4 5 6 
#
# 1 0.015509 -0.005670 -0.001475 0.001155 0.005918 -0.000938
# 2 -0.005670 0.012279 0.001099 -0.005025 0.000821 0.001516
# 3 -0.001475 0.001099 0.021586 -0.006744 0.003578 0.000968
# 4 0.001155 -0.005025 -0.006744 0.036011 0.001340 -0.006151
# 5 0.005918 0.000821 0.003578 0.001340 0.041972 0.003101
# 6 -0.000938 0.001516 0.000968 -0.006151 0.003101 0.029837
#
#
# Mechanical properties :
#
#
# Convention : Reuss Voigt Hill
#
# Bulk Modulus (GPa) = 26.82269 38.71067 32.76668
# Shear Modulus (GPa) = 27.51594 31.64730 29.58162
#
# Velocity S-wave (km/s) = 3.62629 3.88901 3.75995
# Velocity P-wave (km/s) = 5.50927 6.21819 5.87443
#
# Compressibility (1/GPa) = 0.03728187
#
# Stress axis : x y z
#
# Youngs Moduli (GPa) = 64.47708 81.44313 46.32707
#
# Poissons Ratio (x) = 0.46176 0.06832
# Poissons Ratio (y) = 0.36557 -0.05089
# Poissons Ratio (z) = 0.09508 -0.08947
#
# Static dielectric constant tensor:
#      x y z
#    x 3.362350 0.029820 0.333640 
#    y 0.029820 3.691670 -0.027530 
#    z 0.333640 -0.027530 3.618470 
# 
# 
# High freq. dielectric constant tensor:
#      x y z
#    x 1.828760 -0.004890 0.002950 
#    y -0.004890 1.823830 0.000940 
#    z 0.002950 0.000940 1.815390 
# 
# From -- ./inp_files/81535.got.cif
#   From: 2010.06.25/outbox.cif.g09.slc.cpg/sg2_41_cif.got.tgz:81535.got - 2010.06.27 13:26:56.
