data_PCOD8009704
_publ_section_title
;
Structure prediction by ZEFSAII (Michael W. Deem and Ramdas Pophale) SiO2 
 PCOD8009704
Probable space group: P -1
;
_chemical_formula_sum "Si O2"
_cell_formula_units_Z 16
_cell_length_a 12.441930
_cell_length_b 9.345820
_cell_length_c 18.699956
_cell_angle_alpha 133.256056
_cell_angle_beta 144.046341
_cell_angle_gamma 72.886184
_cell_volume 737.441301
_symmetry_space_group_name_H-M "P -1"
_symmetry_group_IT_number 2
_symmetry_cell_setting 'triclinic'
loop_
_space_group_symop_operation_xyz
x,y,z
-x,-y,-z
loop_
_atom_site_type_symbol
_atom_site_label
_atom_site_fract_x
_atom_site_fract_y
_atom_site_fract_z
Si Si1 0.012669 0.923650 0.335061
Si Si2 0.593804 0.970369 0.885168
Si Si3 0.788705 0.776598 0.012417
Si Si4 0.466426 0.694610 0.579183
Si Si5 0.523175 0.758812 0.377750
Si Si6 0.922073 0.303421 0.453583
Si Si7 0.258397 0.956432 0.273511
Si Si8 0.966694 0.527024 0.269581
O O1 0.846846 0.804357 0.136390
O O2 0.927013 0.715606 0.277786
O O3 0.020983 0.150441 0.445081
O O4 0.270917 0.028800 0.488830
O O5 0.540718 0.771492 0.727910
O O6 0.354331 0.896491 0.761239
O O7 0.738989 0.966381 0.026341
O O8 0.748038 0.250823 0.034634
O O9 0.985820 0.814112 0.080492
O O10 0.553649 0.504502 0.779574
O O11 0.500000 0.500000 0.500000
O O12 0.201148 0.582248 0.385367
O O13 0.641939 0.952046 0.720264
O O14 0.308843 0.768535 0.262561
O O15 0.616778 0.804594 0.524910
O O16 0.026149 0.452515 0.634229
O O17 0.000000 0.500000 0.500000
#
# Coordination Sequence:
#
# PCOD8009704 Si02
#       8
#     2   2   2   2   2   2   2   2
#     4  11  24  42  68  96 127 170 213 267 324 373
#     4  11  26  43  63  98 129 168 217 261 319 387
#     4  11  23  38  63  95 128 166 216 259 313 382
#     4  11  23  41  65  91 134 175 213 259 320 378
#     4  10  21  39  61  91 130 163 212 263 314 372
#     4  11  25  46  70  93 126 169 213 266 326 382
#     4  10  21  37  59  92 124 171 210 255 316 372
#     4  11  25  44  66  96 131 163 217 268 317 385
#
# _framework density 21.696643000000002
#
# number of rings (size 3 to 8) (size 9 to 14) (size 15 to 20)
#    0.000    1.250    1.250    3.750    1.750   10.500 
#    0.000    0.000    0.000    0.000    0.000    0.000 
#    0.000    0.000    0.000    0.000    0.000    0.000 
#
# Total GULP energy -198457.973044 kJ/mol
# GULP energy per Si atom -12403.623315 kJ/mol
# Density = 2.164726 g / cm^3
# Si number density = 21.696643 Si / 1000 Ang^3
#
#
#
# Elastic Constant Matrix: (Units=GPa)
#
#
# Indices 1 2 3 4 5 6 
#
# 1 92.9061 34.5573 23.2108 -0.5945 -3.5410 2.3034
# 2 34.5573 121.5666 37.2963 6.2120 -2.0711 3.0146
# 3 23.2108 37.2963 90.2102 8.0264 1.8464 1.7027
# 4 -0.5945 6.2120 8.0264 35.0876 -5.7395 0.6158
# 5 -3.5410 -2.0711 1.8464 -5.7395 25.7044 5.0417
# 6 2.3034 3.0146 1.7027 0.6158 5.0417 40.4234
#
#
#
# Elastic Compliance Matrix: (Units=1/GPa)
#
#
# Indices 1 2 3 4 5 6 
#
# 1 0.012501 -0.002911 -0.002185 0.001588 0.002135 -0.000694
# 2 -0.002911 0.010157 -0.003365 -0.000981 0.000539 -0.000502
# 3 -0.002185 -0.003365 0.013335 -0.002853 -0.002193 0.000131
# 4 0.001588 -0.000981 -0.002853 0.030591 0.007428 -0.001290
# 5 0.002135 0.000539 -0.002193 0.007428 0.042124 -0.005436
# 6 -0.000694 -0.000502 0.000131 -0.001290 -0.005436 0.025507
#
#
# Mechanical properties :
#
#
# Convention : Reuss Voigt Hill
#
# Bulk Modulus (GPa) = 52.43294 54.97908 53.70601
# Shear Modulus (GPa) = 31.74732 34.21765 32.98248
#
# Velocity S-wave (km/s) = 3.82938 3.97557 3.90316
# Velocity P-wave (km/s) = 6.61597 6.81678 6.71712
#
# Compressibility (1/GPa) = 0.01907198
#
# Stress axis : x y z
#
# Youngs Moduli (GPa) = 79.99440 98.44981 74.99200
#
# Poissons Ratio (x) = 0.28657 0.16385
# Poissons Ratio (y) = 0.23285 0.25233
# Poissons Ratio (z) = 0.17478 0.33126
#
# Static dielectric constant tensor:
#      x y z
#    x 3.946520 0.047640 0.062550 
#    y 0.047640 3.833450 -0.048320 
#    z 0.062550 -0.048320 3.782620 
# 
# 
# High freq. dielectric constant tensor:
#      x y z
#    x 1.854960 -0.000040 0.003560 
#    y -0.000040 1.856160 0.000860 
#    z 0.003560 0.000860 1.853180 
# 
# From -- ./inp_files/81404.got.cif
#   From: 2010.06.25/outbox.cif.g09.slc.cpg/sg2_41_cif.got.tgz:81404.got - 2010.06.27 13:26:56.
