data_PCOD8009672
_publ_section_title
;
Structure prediction by ZEFSAII (Michael W. Deem and Ramdas Pophale) SiO2 
 PCOD8009672
Probable space group: P -1
;
_chemical_formula_sum "Si O2"
_cell_formula_units_Z 14
_cell_length_a 7.625400
_cell_length_b 21.615776
_cell_length_c 8.569404
_cell_angle_alpha 49.430624
_cell_angle_beta 36.085862
_cell_angle_gamma 62.328040
_cell_volume 626.029331
_symmetry_space_group_name_H-M "P -1"
_symmetry_group_IT_number 2
_symmetry_cell_setting 'triclinic'
loop_
_space_group_symop_operation_xyz
x,y,z
-x,-y,-z
loop_
_atom_site_type_symbol
_atom_site_label
_atom_site_fract_x
_atom_site_fract_y
_atom_site_fract_z
Si Si1 0.009368 0.689678 0.667711
Si Si2 0.536445 0.405875 0.647668
Si Si3 0.130138 0.594144 0.271595
Si Si4 0.320102 0.310291 0.425973
Si Si5 0.149354 0.000013 0.726904
Si Si6 0.758699 0.856489 0.067759
Si Si7 0.902244 0.143532 0.493619
O O1 0.848655 0.697737 0.604782
O O2 0.277486 0.633253 0.556619
O O3 0.126299 0.779609 0.499277
O O4 0.791709 0.645264 0.028321
O O5 0.500000 0.500000 0.500000
O O6 0.696925 0.393623 0.712629
O O7 0.000000 0.500000 0.500000
O O8 0.852779 0.645149 0.391647
O O9 0.355083 0.633434 0.910746
O O10 0.346513 0.220342 0.617797
O O11 0.093456 0.080380 0.541078
O O12 0.500000 0.000000 0.500000
O O13 0.000000 0.000000 0.000000
O O14 0.013038 0.919679 0.862469
O O15 0.448272 0.896618 0.206800
O O16 0.915299 0.830628 0.838778
#
# Coordination Sequence:
#
# PCOD8009672 Si02
#       7
#     2   2   2   2   2   2   2
#     4  10  22  40  61  88 124 168 213 259 321 392
#     4  10  21  37  59  87 121 162 211 265 318 382
#     4  10  21  37  59  87 121 162 211 265 318 382
#     4  10  22  40  61  88 124 168 213 259 321 392
#     4  12  26  46  72  98 132 182 220 262 328 404
#     4  12  25  43  67 100 134 168 218 281 329 381
#     4  12  25  43  67 100 134 168 218 281 329 381
#
# _framework density 22.363171000000001
#
# number of rings (size 3 to 8) (size 9 to 14) (size 15 to 20)
#    0.000    1.143    0.000    6.000    0.000    6.857 
#    0.000    0.000    0.000    0.000    0.000    0.000 
#    0.000    0.000    0.000    0.000    0.000    0.000 
#
# Total GULP energy -173593.817557 kJ/mol
# GULP energy per Si atom -12399.558397 kJ/mol
# Density = 2.231227 g / cm^3
# Si number density = 22.363171 Si / 1000 Ang^3
#
#
#
# Elastic Constant Matrix: (Units=GPa)
#
#
# Indices 1 2 3 4 5 6 
#
# 1 76.0425 53.2167 58.8397 4.2903 -19.5658 -11.7393
# 2 53.2167 156.4609 74.1877 -3.0142 -11.4226 -12.4482
# 3 58.8397 74.1877 171.0697 13.5330 -22.2795 -7.2510
# 4 4.2903 -3.0142 13.5330 53.3038 -3.7341 -4.9779
# 5 -19.5658 -11.4226 -22.2795 -3.7341 38.4938 3.1544
# 6 -11.7393 -12.4482 -7.2510 -4.9779 3.1544 34.3817
#
#
#
# Elastic Compliance Matrix: (Units=1/GPa)
#
#
# Indices 1 2 3 4 5 6 
#
# 1 0.022403 -0.004565 -0.004630 0.000013 0.006995 0.004380
# 2 -0.004565 0.009283 -0.002658 0.001639 -0.001075 0.001578
# 3 -0.004630 -0.002658 0.008956 -0.002021 0.001937 -0.001125
# 4 0.000013 0.001639 -0.002021 0.019709 0.000995 0.002934
# 5 0.006995 -0.001075 0.001937 0.000995 0.030452 -0.000242
# 6 0.004380 0.001578 -0.001125 0.002934 -0.000242 0.031362
#
#
# Mechanical properties :
#
#
# Convention : Reuss Voigt Hill
#
# Bulk Modulus (GPa) = 59.05119 86.22906 72.64012
# Shear Modulus (GPa) = 32.99944 39.72447 36.36195
#
# Velocity S-wave (km/s) = 3.84554 4.21923 4.03671
# Velocity P-wave (km/s) = 6.79562 7.89798 7.36745
#
# Compressibility (1/GPa) = 0.01693446
#
# Stress axis : x y z
#
# Youngs Moduli (GPa) = 44.63599 107.72064 111.66286
#
# Poissons Ratio (x) = 0.49175 0.51704
# Poissons Ratio (y) = 0.20377 0.29685
# Poissons Ratio (z) = 0.20668 0.28637
#
# Static dielectric constant tensor:
#      x y z
#    x 4.147120 -0.055960 -0.106760 
#    y -0.055960 4.064900 0.262770 
#    z -0.106760 0.262770 4.387410 
# 
# 
# High freq. dielectric constant tensor:
#      x y z
#    x 1.885460 -0.003220 -0.005710 
#    y -0.003220 1.890160 0.007130 
#    z -0.005710 0.007130 1.899100 
# 
# From -- ./inp_files/223129.got.cif
#   From: 2010.06.25/outbox.cif.g09.slc.cpg/sg2_112_cif.got.tgz:223129.got - 2010.06.27 13:26:56.
