data_PCOD8009667
_publ_section_title
;
Structure prediction by ZEFSAII (Michael W. Deem and Ramdas Pophale) SiO2 
 PCOD8009667
Probable space group: P -1
;
_chemical_formula_sum "Si O2"
_cell_formula_units_Z 16
_cell_length_a 10.445710
_cell_length_b 12.105398
_cell_length_c 13.978018
_cell_angle_alpha 106.173475
_cell_angle_beta 126.156714
_cell_angle_gamma 117.674927
_cell_volume 802.109411
_symmetry_space_group_name_H-M "P -1"
_symmetry_group_IT_number 2
_symmetry_cell_setting 'triclinic'
loop_
_space_group_symop_operation_xyz
x,y,z
-x,-y,-z
loop_
_atom_site_type_symbol
_atom_site_label
_atom_site_fract_x
_atom_site_fract_y
_atom_site_fract_z
Si Si1 0.857725 0.849450 0.315906
Si Si2 0.418174 0.200554 0.996829
Si Si3 0.601399 0.458372 0.657329
Si Si4 0.931563 0.752181 0.705182
Si Si5 0.990288 0.450991 0.375680
Si Si6 0.413100 0.446145 0.120577
Si Si7 0.116439 0.842598 0.288741
Si Si8 0.363376 0.762006 0.460244
O O1 0.669509 0.818303 0.155659
O O2 0.687451 0.648136 0.240919
O O3 0.098913 0.931184 0.383170
O O4 0.000000 0.000000 0.500000
O O5 0.720817 0.326813 0.167346
O O6 0.409919 0.305986 0.088499
O O7 0.211094 0.985270 0.896033
O O8 0.821180 0.652536 0.736061
O O9 0.290310 0.295921 0.451945
O O10 0.641566 0.531106 0.796619
O O11 0.660637 0.357533 0.653914
O O12 0.981591 0.670345 0.640774
O O13 0.000000 0.500000 0.500000
O O14 0.254692 0.660527 0.491496
O O15 0.174888 0.352906 0.928271
O O16 0.191623 0.765319 0.346165
O O17 0.325735 0.011604 0.341210
#
# Coordination Sequence:
#
# PCOD8009667 Si02
#       8
#     2   2   2   2   2   2   2   2
#     4  11  22  38  63  89 117 151 188 235 292 349
#     4  11  22  38  59  85 118 149 193 244 285 341
#     4  10  21  38  58  82 114 154 193 235 287 340
#     4  10  22  39  58  82 116 155 196 238 283 338
#     4  11  23  39  60  84 117 156 196 240 287 337
#     4  11  21  36  60  87 114 146 190 238 291 346
#     4  10  21  37  59  87 116 149 188 236 291 346
#     4  10  21  39  57  80 117 152 190 236 286 345
#
# _framework density 19.947405
#
# number of rings (size 3 to 8) (size 9 to 14) (size 15 to 20)
#    0.000    1.500    0.000    7.125    0.000    3.000 
#    0.000    5.000    0.000    0.000    0.000    0.000 
#    0.000    0.000    0.000    0.000    0.000    0.000 
#
# Total GULP energy -198387.501477 kJ/mol
# GULP energy per Si atom -12399.218842 kJ/mol
# Density = 1.990200 g / cm^3
# Si number density = 19.947405 Si / 1000 Ang^3
#
#
#
# Elastic Constant Matrix: (Units=GPa)
#
#
# Indices 1 2 3 4 5 6 
#
# 1 265.5570 66.8423 80.2733 3.4512 -56.8323 -44.5353
# 2 66.8423 91.5745 43.0028 16.0054 -9.3985 -12.2488
# 3 80.2733 43.0028 93.2477 14.7696 -13.0319 -9.3845
# 4 3.4512 16.0054 14.7696 33.7243 0.7718 0.9351
# 5 -56.8323 -9.3985 -13.0319 0.7718 50.4614 11.1587
# 6 -44.5353 -12.2488 -9.3845 0.9351 11.1587 46.3901
#
#
#
# Elastic Compliance Matrix: (Units=1/GPa)
#
#
# Indices 1 2 3 4 5 6 
#
# 1 0.007859 -0.002781 -0.004537 0.002241 0.006162 0.004365
# 2 -0.002781 0.015847 -0.004140 -0.005422 -0.001416 0.001127
# 3 -0.004537 -0.004140 0.017010 -0.004951 -0.001046 -0.001656
# 4 0.002241 -0.005422 -0.004951 0.034193 -0.000077 -0.000953
# 5 0.006162 -0.001416 -0.001046 -0.000077 0.026452 -0.001031
# 6 0.004365 0.001127 -0.001656 -0.000953 -0.001031 0.025977
#
#
# Mechanical properties :
#
#
# Convention : Reuss Voigt Hill
#
# Bulk Modulus (GPa) = 56.17884 92.29067 74.23475
# Shear Modulus (GPa) = 32.01279 43.46588 37.73934
#
# Velocity S-wave (km/s) = 4.01042 4.67307 4.35436
# Velocity P-wave (km/s) = 7.04764 8.68816 7.91054
#
# Compressibility (1/GPa) = 0.01780030
#
# Stress axis : x y z
#
# Youngs Moduli (GPa) = 127.24529 63.10300 58.78723
#
# Poissons Ratio (x) = 0.17549 0.26674
# Poissons Ratio (y) = 0.35387 0.24336
# Poissons Ratio (z) = 0.57735 0.26123
#
# Static dielectric constant tensor:
#      x y z
#    x 4.508380 0.319810 0.341680 
#    y 0.319810 3.898970 0.241060 
#    z 0.341680 0.241060 3.658180 
# 
# 
# High freq. dielectric constant tensor:
#      x y z
#    x 1.790920 -0.005590 0.010640 
#    y -0.005590 1.786320 0.017210 
#    z 0.010640 0.017210 1.773290 
# 
# From -- ./inp_files/329391.got.cif
#   From: 2010.06.25/outbox.cif.g09.slc.cpg/sg2_165_cif.got.tgz:329391.got - 2010.06.27 13:26:56.
