data_PCOD8009823
_publ_section_title
;
Structure prediction by ZEFSAII (Michael W. Deem and Ramdas Pophale) SiO2 
 PCOD8009823
Probable space group: P -1
;
_chemical_formula_sum "Si O2"
_cell_formula_units_Z 16
_cell_length_a 22.250084
_cell_length_b 29.063020
_cell_length_c 9.766490
_cell_angle_alpha 153.648295
_cell_angle_beta 146.898569
_cell_angle_gamma 17.153309
_cell_volume 818.471760
_symmetry_space_group_name_H-M "P -1"
_symmetry_group_IT_number 2
_symmetry_cell_setting 'triclinic'
loop_
_space_group_symop_operation_xyz
x,y,z
-x,-y,-z
loop_
_atom_site_type_symbol
_atom_site_label
_atom_site_fract_x
_atom_site_fract_y
_atom_site_fract_z
Si Si1 0.188183 0.897582 0.168815
Si Si2 0.623594 0.755424 0.180967
Si Si3 0.738899 0.185269 0.397754
Si Si4 0.039645 0.664468 0.425680
Si Si5 0.943117 0.908457 0.292913
Si Si6 0.306924 0.926880 0.227776
Si Si7 0.639539 0.424941 0.191479
Si Si8 0.222031 0.148499 0.318418
O O1 0.337506 0.838773 0.190837
O O2 0.116771 0.037107 0.517376
O O3 0.309308 0.711044 0.977011
O O4 0.000000 0.000000 0.000000
O O5 0.532129 0.787093 0.235523
O O6 0.713934 0.797801 0.492986
O O7 0.427086 0.919420 0.140078
O O8 0.807838 0.538183 0.895309
O O9 0.492117 0.390711 0.474658
O O10 0.826114 0.231525 0.658576
O O11 0.806209 0.094112 0.433489
O O12 0.800947 0.057410 0.054940
O O13 0.162443 0.667623 0.725657
O O14 0.918156 0.709043 0.439001
O O15 0.860720 0.847150 0.466831
O O16 0.916099 0.810733 0.937919
O O17 0.500000 0.500000 0.000000
#
# Coordination Sequence:
#
# PCOD8009823 Si02
#       8
#     2   2   2   2   2   2   2   2
#     4  12  24  39  58  90 129 168 196 242 320 373
#     4  10  21  38  61  89 122 156 214 253 300 354
#     4  11  20  36  61  88 125 159 193 255 308 360
#     4  11  19  36  63  88 121 156 203 250 310 351
#     4  11  20  38  60  87 128 159 198 250 313 357
#     4  11  22  41  58  88 126 163 199 249 309 364
#     4  12  22  34  60  95 124 155 206 247 297 379
#     4  10  21  37  61  92 119 159 204 264 299 352
#
# _framework density 19.548628000000001
#
# number of rings (size 3 to 8) (size 9 to 14) (size 15 to 20)
#    0.000    1.000    7.500    1.125    0.000    0.500 
#    2.250    0.625    0.000    0.750    0.000    0.000 
#    0.000    0.000    0.000    0.000    0.000    0.000 
#
# Total GULP energy -198317.394561 kJ/mol
# GULP energy per Si atom -12394.837160 kJ/mol
# Density = 1.950413 g / cm^3
# Si number density = 19.548628 Si / 1000 Ang^3
#
#
#
# Elastic Constant Matrix: (Units=GPa)
#
#
# Indices 1 2 3 4 5 6 
#
# 1 148.5179 40.8745 42.2221 -8.3961 1.6922 -7.4037
# 2 40.8745 63.9015 32.2441 13.8258 -2.3228 -7.2983
# 3 42.2221 32.2441 81.2221 9.5278 -4.1417 -5.7068
# 4 -8.3961 13.8258 9.5278 36.7049 -8.5909 0.2602
# 5 1.6922 -2.3228 -4.1417 -8.5909 28.9476 -5.1725
# 6 -7.4037 -7.2983 -5.7068 0.2602 -5.1725 36.0183
#
#
#
# Elastic Compliance Matrix: (Units=1/GPa)
#
#
# Indices 1 2 3 4 5 6 
#
# 1 0.009485 -0.005450 -0.003341 0.005111 0.000099 0.000293
# 2 -0.005450 0.024205 -0.005542 -0.009116 -0.000725 0.002868
# 3 -0.003341 -0.005542 0.016716 -0.002662 0.001545 0.001080
# 4 0.005111 -0.009116 -0.002662 0.034604 0.008823 -0.000201
# 5 0.000099 -0.000725 0.001545 0.008823 0.038313 0.005557
# 6 0.000293 0.002868 0.001080 -0.000201 0.005557 0.029376
#
#
# Mechanical properties :
#
#
# Convention : Reuss Voigt Hill
#
# Bulk Modulus (GPa) = 45.99880 58.25809 52.12844
# Shear Modulus (GPa) = 26.50925 32.22088 29.36507
#
# Velocity S-wave (km/s) = 3.68648 4.06426 3.87997
# Velocity P-wave (km/s) = 6.45768 7.20351 6.84077
#
# Compressibility (1/GPa) = 0.02173970
#
# Stress axis : x y z
#
# Youngs Moduli (GPa) = 105.42447 41.31335 59.82373
#
# Poissons Ratio (x) = 0.22517 0.19988
# Poissons Ratio (y) = 0.57459 0.33155
# Poissons Ratio (z) = 0.35223 0.22896
#
# Static dielectric constant tensor:
#      x y z
#    x 3.555900 -0.451360 0.136650 
#    y -0.451360 3.316690 0.202340 
#    z 0.136650 0.202340 3.487820 
# 
# 
# High freq. dielectric constant tensor:
#      x y z
#    x 1.763080 -0.026880 0.002840 
#    y -0.026880 1.741720 0.012280 
#    z 0.002840 0.012280 1.754680 
# 
# From -- ./inp_files/350268.got.cif
#   From: 2010.06.25/outbox.cif.g09.slc.cpg/sg2_176_cif.got.tgz:350268.got - 2010.06.27 13:26:56.
