data_PCOD8009244
_publ_section_title
;
Structure prediction by ZEFSAII (Michael W. Deem and Ramdas Pophale) SiO2 
 PCOD8009244
Probable space group: P -1
;
_chemical_formula_sum "Si O2"
_cell_formula_units_Z 16
_cell_length_a 8.478304
_cell_length_b 11.130066
_cell_length_c 16.120971
_cell_angle_alpha 81.396425
_cell_angle_beta 31.290185
_cell_angle_gamma 82.519792
_cell_volume 781.191905
_symmetry_space_group_name_H-M "P -1"
_symmetry_group_IT_number 2
_symmetry_cell_setting 'triclinic'
loop_
_space_group_symop_operation_xyz
x,y,z
-x,-y,-z
loop_
_atom_site_type_symbol
_atom_site_label
_atom_site_fract_x
_atom_site_fract_y
_atom_site_fract_z
Si Si1 0.181909 0.545358 0.106614
Si Si2 0.801342 0.871386 0.228356
Si Si3 0.959358 0.706294 0.853717
Si Si4 0.911846 0.074251 0.643186
Si Si5 0.103407 0.720900 0.978410
Si Si6 0.474221 0.076596 0.280186
Si Si7 0.300217 0.888109 0.572205
Si Si8 0.261389 0.770117 0.145775
O O1 0.974464 0.425106 0.205221
O O2 0.082470 0.646677 0.209408
O O3 0.201676 0.602630 0.999120
O O4 0.500000 0.500000 0.000000
O O5 0.828626 0.789151 0.142241
O O6 0.512283 0.819386 0.416060
O O7 0.120987 0.871304 0.135799
O O8 0.743684 0.014318 0.219687
O O9 0.212687 0.796671 0.694695
O O10 0.997103 0.689101 0.936987
O O11 0.623146 0.755696 0.976737
O O12 0.826210 0.188961 0.726880
O O13 0.191148 0.121493 0.457553
O O14 0.623280 0.035894 0.722885
O O15 0.997876 0.947542 0.663367
O O16 0.397669 0.807900 0.837167
O O17 0.500000 0.000000 0.500000
#
# Coordination Sequence:
#
# PCOD8009244 Si02
#       8
#     2   2   2   2   2   2   2   2
#     4   9  22  42  62  89 117 159 215 257 297 358
#     4  10  21  38  57  90 131 156 198 249 301 365
#     4  11  23  40  67  88 120 168 207 250 309 357
#     4  10  21  36  59  89 132 159 200 242 318 365
#     4  11  22  38  63  88 123 160 208 256 300 362
#     4  10  22  36  57  94 127 167 193 251 310 370
#     4  11  22  38  61  92 127 161 197 251 309 369
#     4  10  21  38  64  88 125 159 210 248 295 365
#
# _framework density 20.481522999999999
#
# number of rings (size 3 to 8) (size 9 to 14) (size 15 to 20)
#    0.000    1.750    1.250    3.000    5.250    1.500 
#    0.000    2.500    2.750    1.500    0.000    0.000 
#    0.000    0.000    0.000    0.000    0.000    0.000 
#
# Total GULP energy -198243.503182 kJ/mol
# GULP energy per Si atom -12390.218949 kJ/mol
# Density = 2.043491 g / cm^3
# Si number density = 20.481523 Si / 1000 Ang^3
#
#
#
# Elastic Constant Matrix: (Units=GPa)
#
#
# Indices 1 2 3 4 5 6 
#
# 1 89.2672 47.7715 41.1301 -4.2008 5.4488 3.2266
# 2 47.7715 117.4369 63.4297 -13.1509 9.7537 12.9533
# 3 41.1301 63.4297 86.3228 -3.4645 10.6237 8.4496
# 4 -4.2008 -13.1509 -3.4645 22.6221 1.1677 7.1719
# 5 5.4488 9.7537 10.6237 1.1677 34.4891 10.3360
# 6 3.2266 12.9533 8.4496 7.1719 10.3360 45.6145
#
#
#
# Elastic Compliance Matrix: (Units=1/GPa)
#
#
# Indices 1 2 3 4 5 6 
#
# 1 0.015346 -0.003957 -0.004494 -0.000441 -0.000202 0.000986
# 2 -0.003957 0.016815 -0.009691 0.008848 -0.000234 -0.004038
# 3 -0.004494 -0.009691 0.021056 -0.003201 -0.003035 0.000360
# 4 -0.000441 0.008848 -0.003201 0.051961 -0.000206 -0.010012
# 5 -0.000202 -0.000234 -0.003035 -0.000206 0.032006 -0.006577
# 6 0.000986 -0.004038 0.000360 -0.010012 -0.006577 0.025997
#
#
# Mechanical properties :
#
#
# Convention : Reuss Voigt Hill
#
# Bulk Modulus (GPa) = 59.05242 66.40994 62.73118
# Shear Modulus (GPa) = 24.37725 29.92485 27.15105
#
# Velocity S-wave (km/s) = 3.45368 3.82654 3.64488
# Velocity P-wave (km/s) = 6.69317 7.21234 6.95760
#
# Compressibility (1/GPa) = 0.01693411
#
# Stress axis : x y z
#
# Youngs Moduli (GPa) = 65.16225 59.47193 47.49166
#
# Poissons Ratio (x) = 0.23531 0.21343
# Poissons Ratio (y) = 0.25782 0.46024
# Poissons Ratio (z) = 0.29284 0.57634
#
# Static dielectric constant tensor:
#      x y z
#    x 4.261700 -0.087700 -0.028750 
#    y -0.087700 4.182740 0.433140 
#    z -0.028750 0.433140 3.789500 
# 
# 
# High freq. dielectric constant tensor:
#      x y z
#    x 1.822920 0.003170 0.002480 
#    y 0.003170 1.784710 0.017240 
#    z 0.002480 0.017240 1.780540 
# 
# From -- ./inp_files/527237.got.cif
#   From: 2010.06.25/outbox.cif.g09.slc.cpg/sg2_264_cif.got.tgz:527237.got - 2010.06.27 13:26:56.
