data_PCOD8009497
_publ_section_title
;
Structure prediction by ZEFSAII (Michael W. Deem and Ramdas Pophale) SiO2 
 PCOD8009497
Probable space group: P -1
;
_chemical_formula_sum "Si O2"
_cell_formula_units_Z 14
_cell_length_a 15.584241
_cell_length_b 9.343384
_cell_length_c 9.248148
_cell_angle_alpha 110.257593
_cell_angle_beta 127.283854
_cell_angle_gamma 39.276697
_cell_volume 657.859819
_symmetry_space_group_name_H-M "P -1"
_symmetry_group_IT_number 2
_symmetry_cell_setting 'triclinic'
loop_
_space_group_symop_operation_xyz
x,y,z
-x,-y,-z
loop_
_atom_site_type_symbol
_atom_site_label
_atom_site_fract_x
_atom_site_fract_y
_atom_site_fract_z
Si Si1 0.908326 0.722054 0.383562
Si Si2 0.397539 0.238520 0.402816
Si Si3 0.952308 0.906550 0.010984
Si Si4 0.618125 0.288289 0.684888
Si Si5 0.886927 0.282764 0.584423
Si Si6 0.694409 0.211159 0.425676
Si Si7 0.871562 0.572484 0.011023
O O1 0.850651 0.706747 0.171240
O O2 0.000000 0.500000 0.500000
O O3 0.024693 0.742639 0.475121
O O4 0.746916 0.976624 0.379527
O O5 0.515493 0.256366 0.502264
O O6 0.252625 0.443380 0.432745
O O7 0.500000 0.000000 0.500000
O O8 0.312547 0.261756 0.179581
O O9 0.047267 0.671863 0.939474
O O10 0.753815 0.093497 0.872130
O O11 0.994541 0.863166 0.207611
O O12 0.000000 0.000000 0.000000
O O13 0.715386 0.245700 0.626554
O O14 0.498745 0.545999 0.723288
O O15 0.808476 0.200978 0.439569
O O16 0.000000 0.500000 0.000000
#
# Coordination Sequence:
#
# PCOD8009497 Si02
#       7
#     2   2   2   2   2   2   2
#     4  12  25  41  68  96 135 172 216 274 324 380
#     4  10  21  36  69  95 128 170 216 268 327 379
#     4  11  20  37  71  96 122 168 224 263 314 392
#     4  10  21  38  68  94 127 172 214 263 329 389
#     4  10  22  41  63  98 126 171 218 266 318 392
#     4  10  22  41  63  93 131 168 213 266 327 389
#     4  11  22  42  66  96 127 169 225 265 316 392
#
# _framework density 21.281129
#
# number of rings (size 3 to 8) (size 9 to 14) (size 15 to 20)
#    0.000    1.429    4.286    2.143    4.000    0.000 
#    0.000    1.429    3.143    0.000    0.000    0.000 
#    0.000    0.000    0.000    0.000    0.000    0.000 
#
# Total GULP energy -173477.454095 kJ/mol
# GULP energy per Si atom -12391.246721 kJ/mol
# Density = 2.123269 g / cm^3
# Si number density = 21.281129 Si / 1000 Ang^3
#
#
#
# Elastic Constant Matrix: (Units=GPa)
#
#
# Indices 1 2 3 4 5 6 
#
# 1 97.9488 33.2931 30.4806 -9.7487 -4.6119 12.3581
# 2 33.2931 182.1263 74.8458 -20.0904 -3.9684 13.5997
# 3 30.4806 74.8458 107.3809 -29.8461 10.6871 -3.5214
# 4 -9.7487 -20.0904 -29.8461 43.2822 -0.4988 -3.1923
# 5 -4.6119 -3.9684 10.6871 -0.4988 26.2838 -4.2783
# 6 12.3581 13.5997 -3.5214 -3.1923 -4.2783 28.1711
#
#
#
# Elastic Compliance Matrix: (Units=1/GPa)
#
#
# Indices 1 2 3 4 5 6 
#
# 1 0.012269 -0.000223 -0.003892 -0.000388 0.002819 -0.005377
# 2 -0.000223 0.008555 -0.006627 -0.000943 0.003200 -0.004481
# 3 -0.003892 -0.006627 0.018656 0.009344 -0.007937 0.007092
# 4 -0.000388 -0.000943 0.009344 0.029339 -0.002686 0.004710
# 5 0.002819 0.003200 -0.007937 -0.002686 0.042589 0.002390
# 6 -0.005377 -0.004481 0.007092 0.004710 0.002390 0.041803
#
#
# Mechanical properties :
#
#
# Convention : Reuss Voigt Hill
#
# Bulk Modulus (GPa) = 55.56805 73.85500 64.71153
# Shear Modulus (GPa) = 27.67109 36.13653 31.90381
#
# Velocity S-wave (km/s) = 3.60983 4.12522 3.87610
# Velocity P-wave (km/s) = 6.59868 7.58088 7.10677
#
# Compressibility (1/GPa) = 0.01799595
#
# Stress axis : x y z
#
# Youngs Moduli (GPa) = 81.50736 116.88516 53.60176
#
# Poissons Ratio (x) = 0.02611 0.20859
# Poissons Ratio (y) = 0.01821 0.35523
# Poissons Ratio (z) = 0.31719 0.77463
#
# Static dielectric constant tensor:
#      x y z
#    x 3.972610 0.206280 0.203530 
#    y 0.206280 3.611560 0.061120 
#    z 0.203530 0.061120 3.743510 
# 
# 
# High freq. dielectric constant tensor:
#      x y z
#    x 1.832430 0.015740 0.009920 
#    y 0.015740 1.850880 -0.020200 
#    z 0.009920 -0.020200 1.812370 
# 
# From -- ./inp_files/298911.got.cif
#   From: 2010.06.25/outbox.cif.g09.slc.cpg/sg2_150_cif.got.tgz:298911.got - 2010.06.27 13:26:56.
