data_PCOD8009982
_publ_section_title
;
Structure prediction by ZEFSAII (Michael W. Deem and Ramdas Pophale) SiO2 
 PCOD8009982
Probable space group: P -1
;
_chemical_formula_sum "Si O2"
_cell_formula_units_Z 16
_cell_length_a 14.116183
_cell_length_b 14.559098
_cell_length_c 9.021558
_cell_angle_alpha 116.859719
_cell_angle_beta 55.506504
_cell_angle_gamma 150.381527
_cell_volume 751.492927
_symmetry_space_group_name_H-M "P -1"
_symmetry_group_IT_number 2
_symmetry_cell_setting 'triclinic'
loop_
_space_group_symop_operation_xyz
x,y,z
-x,-y,-z
loop_
_atom_site_type_symbol
_atom_site_label
_atom_site_fract_x
_atom_site_fract_y
_atom_site_fract_z
Si Si1 0.568559 0.010606 0.289647
Si Si2 0.255963 0.150806 0.717177
Si Si3 0.290211 0.483996 0.720215
Si Si4 0.788045 0.399611 0.645076
Si Si5 0.185958 0.213422 0.097225
Si Si6 0.036614 0.288664 0.089195
Si Si7 0.581511 0.246125 0.403797
Si Si8 0.581084 0.558165 0.660772
O O1 0.584005 0.127719 0.265037
O O2 0.788286 0.117135 0.185458
O O3 0.500000 0.000000 0.500000
O O4 0.382946 0.794237 0.249160
O O5 0.347570 0.109569 0.551855
O O6 0.379168 0.333379 0.658364
O O7 0.278905 0.186486 0.902369
O O8 0.010454 0.969061 0.761113
O O9 0.318297 0.618253 0.723997
O O10 0.505516 0.612623 0.708358
O O11 0.244907 0.366000 0.542630
O O12 0.099735 0.342886 0.900455
O O13 0.837144 0.534394 0.798559
O O14 0.707584 0.368797 0.530716
O O15 0.000000 0.500000 0.500000
O O16 0.101279 0.228673 0.058605
O O17 0.355899 0.387940 0.184001
#
# Coordination Sequence:
#
# PCOD8009982 Si02
#       8
#     2   2   2   2   2   2   2   2
#     4  10  21  41  63  92 124 154 202 264 307 355
#     4  10  21  37  63  95 123 154 213 260 307 357
#     4  10  23  39  63  88 131 173 201 248 313 379
#     4  11  22  40  68  93 113 161 215 256 308 364
#     4  11  22  36  67  95 120 160 213 264 302 361
#     4  12  22  39  65  94 124 161 208 258 306 365
#     4  10  21  42  62  86 131 165 195 260 311 367
#     4  10  21  44  59  87 131 171 205 249 311 366
#
# _framework density 21.290952000000001
#
# number of rings (size 3 to 8) (size 9 to 14) (size 15 to 20)
#    0.000    1.500    3.750    3.375    1.750    0.500 
#    0.000    8.750    0.000    0.000    0.000    0.000 
#    0.000    0.000    0.000    0.000    0.000    0.000 
#
# Total GULP energy -198254.090753 kJ/mol
# GULP energy per Si atom -12390.880672 kJ/mol
# Density = 2.124249 g / cm^3
# Si number density = 21.290952 Si / 1000 Ang^3
#
#
#
# Elastic Constant Matrix: (Units=GPa)
#
#
# Indices 1 2 3 4 5 6 
#
# 1 90.8128 24.3815 18.2250 -12.9607 8.5817 -13.8186
# 2 24.3815 97.1194 14.5940 -9.1427 3.7592 -8.4207
# 3 18.2250 14.5940 89.8094 -17.8915 5.6154 0.1099
# 4 -12.9607 -9.1427 -17.8915 28.4597 -1.4378 -3.0969
# 5 8.5817 3.7592 5.6154 -1.4378 26.4450 -6.8032
# 6 -13.8186 -8.4207 0.1099 -3.0969 -6.8032 22.1032
#
#
#
# Elastic Compliance Matrix: (Units=1/GPa)
#
#
# Indices 1 2 3 4 5 6 
#
# 1 0.014051 -0.002005 -0.001289 0.005777 -0.001535 0.008364
# 2 -0.002005 0.011487 -0.000970 0.002571 0.000283 0.003575
# 3 -0.001289 -0.000970 0.013107 0.007142 -0.002064 -0.000875
# 4 0.005777 0.002571 0.007142 0.044387 0.001551 0.011252
# 5 -0.001535 0.000283 -0.002064 0.001551 0.041956 0.012290
# 6 0.008364 0.003575 -0.000875 0.011252 0.012290 0.057197
#
#
# Mechanical properties :
#
#
# Convention : Reuss Voigt Hill
#
# Bulk Modulus (GPa) = 33.20419 43.57140 38.38779
# Shear Modulus (GPa) = 24.90654 30.10431 27.50543
#
# Velocity S-wave (km/s) = 3.42397 3.76433 3.59818
# Velocity P-wave (km/s) = 5.59113 6.27716 5.94405
#
# Compressibility (1/GPa) = 0.03011668
#
# Stress axis : x y z
#
# Youngs Moduli (GPa) = 71.16956 87.05715 76.29700
#
# Poissons Ratio (x) = 0.17458 0.09834
# Poissons Ratio (y) = 0.14272 0.07398
# Poissons Ratio (z) = 0.09173 0.08441
#
# Static dielectric constant tensor:
#      x y z
#    x 4.124130 -0.622030 -0.225080 
#    y -0.622030 4.016450 -0.144550 
#    z -0.225080 -0.144550 3.940080 
# 
# 
# High freq. dielectric constant tensor:
#      x y z
#    x 1.826030 -0.015560 -0.016620 
#    y -0.015560 1.826150 -0.013280 
#    z -0.016620 -0.013280 1.835820 
# 
# From -- ./inp_files/313675.got.cif
#   From: 2010.06.25/outbox.cif.g09.slc.cpg/sg2_157_cif.got.tgz:313675.got - 2010.06.27 13:26:56.
