data_PCOD8009505
_publ_section_title
;
Structure prediction by ZEFSAII (Michael W. Deem and Ramdas Pophale) SiO2 
 PCOD8009505
Probable space group: P -1
;
_chemical_formula_sum "Si O2"
_cell_formula_units_Z 14
_cell_length_a 14.990520
_cell_length_b 15.010881
_cell_length_c 11.580775
_cell_angle_alpha 52.630477
_cell_angle_beta 52.585216
_cell_angle_gamma 19.884180
_cell_volume 697.832078
_symmetry_space_group_name_H-M "P -1"
_symmetry_group_IT_number 2
_symmetry_cell_setting 'triclinic'
loop_
_space_group_symop_operation_xyz
x,y,z
-x,-y,-z
loop_
_atom_site_type_symbol
_atom_site_label
_atom_site_fract_x
_atom_site_fract_y
_atom_site_fract_z
Si Si1 0.790513 0.870245 0.582734
Si Si2 0.341563 0.391296 0.069989
Si Si3 0.823653 0.871826 0.243531
Si Si4 0.776923 0.676875 0.382464
Si Si5 0.068478 0.055051 0.697700
Si Si6 0.495802 0.494522 0.868538
Si Si7 0.915538 0.570816 0.879707
O O1 0.874163 0.927211 0.481300
O O2 0.010889 0.612091 0.529530
O O3 0.780203 0.813246 0.758542
O O4 0.512028 0.114122 0.544210
O O5 0.074644 0.671619 0.123355
O O6 0.279051 0.360167 0.040127
O O7 0.541234 0.148142 0.188796
O O8 0.476446 0.384233 0.925897
O O9 0.820047 0.743122 0.381993
O O10 0.835435 0.941958 0.287054
O O11 0.830401 0.675356 0.210189
O O12 0.762349 0.302571 0.755695
O O13 0.245091 0.785067 0.783267
O O14 0.500000 0.500000 0.000000
O O15 0.000000 0.500000 0.000000
#
# Coordination Sequence:
#
# PCOD8009505 Si02
#       7
#     2   2   2   2   2   2   2
#     4  10  21  37  53  86 113 148 185 226 285 339
#     4  11  21  36  56  85 113 142 195 234 268 330
#     4  11  18  34  52  82 116 145 183 227 273 328
#     4   9  19  35  53  82 115 140 180 233 276 341
#     4  12  23  34  58  81 118 162 179 224 275 332
#     4  12  22  37  56  81 117 157 196 220 264 325
#     4   9  21  40  63  84 107 143 188 242 293 329
#
# _framework density 20.062134
#
# number of rings (size 3 to 8) (size 9 to 14) (size 15 to 20)
#    0.857    0.571    4.286    2.143    0.000    1.714 
#    0.000    0.000    0.000    1.714    0.000    0.000 
#    0.000    0.000    0.000    0.000    0.000    0.000 
#
# Total GULP energy -173448.663638 kJ/mol
# GULP energy per Si atom -12389.190260 kJ/mol
# Density = 2.001647 g / cm^3
# Si number density = 20.062134 Si / 1000 Ang^3
#
#
#
# Elastic Constant Matrix: (Units=GPa)
#
#
# Indices 1 2 3 4 5 6 
#
# 1 67.5278 5.8263 27.8108 5.1210 -4.2137 -11.0798
# 2 5.8263 94.5948 6.7507 2.4262 -6.1417 -15.7106
# 3 27.8108 6.7507 84.9785 0.0460 -26.7871 -2.9209
# 4 5.1210 2.4262 0.0460 35.8188 -5.5289 -12.6666
# 5 -4.2137 -6.1417 -26.7871 -5.5289 30.4219 2.0567
# 6 -11.0798 -15.7106 -2.9209 -12.6666 2.0567 19.6386
#
#
#
# Elastic Compliance Matrix: (Units=1/GPa)
#
#
# Indices 1 2 3 4 5 6 
#
# 1 0.019309 0.000926 -0.007354 0.000533 -0.004283 0.011333
# 2 0.000926 0.012740 -0.000094 0.003987 0.002463 0.013014
# 3 -0.007354 -0.000094 0.019417 0.003267 0.016719 -0.000980
# 4 0.000533 0.003987 0.003267 0.038891 0.008922 0.028126
# 5 -0.004283 0.002463 0.016719 0.008922 0.048938 0.002670
# 6 0.011333 0.013014 -0.000980 0.028126 0.002670 0.085440
#
#
# Mechanical properties :
#
#
# Convention : Reuss Voigt Hill
#
# Bulk Modulus (GPa) = 26.02602 36.43074 31.22838
# Shear Modulus (GPa) = 19.95325 30.95675 25.45500
#
# Velocity S-wave (km/s) = 3.15711 3.93242 3.56590
# Velocity P-wave (km/s) = 5.12744 6.23033 5.70559
#
# Compressibility (1/GPa) = 0.03842309
#
# Stress axis : x y z
#
# Youngs Moduli (GPa) = 51.78858 78.49238 51.50227
#
# Poissons Ratio (x) = -0.07268 0.37873
# Poissons Ratio (y) = -0.04796 0.00483
# Poissons Ratio (z) = 0.38084 0.00736
#
# Static dielectric constant tensor:
#      x y z
#    x 3.215480 -0.110950 -0.364950 
#    y -0.110950 3.732780 -0.125800 
#    z -0.364950 -0.125800 3.857820 
# 
# 
# High freq. dielectric constant tensor:
#      x y z
#    x 1.730850 -0.020210 -0.033770 
#    y -0.020210 1.796900 -0.007470 
#    z -0.033770 -0.007470 1.787780 
# 
# From -- ./inp_files/74165.got.cif
#   From: 2010.06.25/outbox.cif.g09.slc.cpg/sg2_38_cif.got.tgz:74165.got - 2010.06.27 13:26:56.
