data_PCOD8009935
_publ_section_title
;
Structure prediction by ZEFSAII (Michael W. Deem and Ramdas Pophale) SiO2 
 PCOD8009935
Probable space group: P -1
;
_chemical_formula_sum "Si O2"
_cell_formula_units_Z 10
_cell_length_a 8.212359
_cell_length_b 9.711495
_cell_length_c 12.956730
_cell_angle_alpha 34.543491
_cell_angle_beta 117.121681
_cell_angle_gamma 96.772766
_cell_volume 448.477806
_symmetry_space_group_name_H-M "P -1"
_symmetry_group_IT_number 2
_symmetry_cell_setting 'triclinic'
loop_
_space_group_symop_operation_xyz
x,y,z
-x,-y,-z
loop_
_atom_site_type_symbol
_atom_site_label
_atom_site_fract_x
_atom_site_fract_y
_atom_site_fract_z
Si Si1 0.627587 0.328106 0.042922
Si Si2 0.826230 0.204037 0.743521
Si Si3 0.589364 0.808727 0.361717
Si Si4 0.708321 0.675936 0.709086
Si Si5 0.063273 0.128337 0.217562
O O1 0.887747 0.161902 0.232169
O O2 0.571148 0.093148 0.136449
O O3 0.500000 0.500000 0.000000
O O4 0.564351 0.557832 0.790701
O O5 0.783272 0.521786 0.546874
O O6 0.624442 0.184568 0.732236
O O7 0.880523 0.127222 0.686282
O O8 0.000000 0.000000 0.000000
O O9 0.618366 0.814825 0.488650
O O10 0.722266 0.908400 0.643315
O O11 0.954592 0.413441 0.938276
#
# Coordination Sequence:
#
# PCOD8009935 Si02
#       5
#     2   2   2   2   2
#     4  10  21  37  62  98 124 156 213 258 296 370
#     4  11  22  43  63  90 130 162 208 256 307 374
#     4  11  24  39  70  91 117 178 201 245 328 359
#     4   9  20  42  60  95 124 154 209 252 303 368
#     4   9  20  40  63  88 131 159 191 271 300 348
#
# _framework density 22.297647000000001
#
# number of rings (size 3 to 8) (size 9 to 14) (size 15 to 20)
#    1.200    0.800    2.000    1.200    0.000    4.800 
#    0.000   11.000    0.000    0.000    0.000    0.000 
#    0.000    0.000    0.000    0.000    0.000    0.000 
#
# Total GULP energy -123890.026401 kJ/mol
# GULP energy per Si atom -12389.002640 kJ/mol
# Density = 2.224690 g / cm^3
# Si number density = 22.297647 Si / 1000 Ang^3
#
#
#
# Elastic Constant Matrix: (Units=GPa)
#
#
# Indices 1 2 3 4 5 6 
#
# 1 94.6482 51.9726 25.5818 -15.9451 -13.6606 -4.1631
# 2 51.9726 169.3470 51.7769 -23.1056 0.9367 -11.1154
# 3 25.5818 51.7769 71.7410 -5.0648 4.9676 3.5323
# 4 -15.9451 -23.1056 -5.0648 45.8659 1.0948 3.6561
# 5 -13.6606 0.9367 4.9676 1.0948 16.5045 -3.4293
# 6 -4.1631 -11.1154 3.5323 3.6561 -3.4293 40.1418
#
#
#
# Elastic Compliance Matrix: (Units=1/GPa)
#
#
# Indices 1 2 3 4 5 6 
#
# 1 0.016342 -0.003160 -0.004504 0.003047 0.015326 0.002248
# 2 -0.003160 0.008987 -0.005191 0.002705 -0.001272 0.002262
# 3 -0.004504 -0.005191 0.020129 -0.001358 -0.010323 -0.004434
# 4 0.003047 0.002705 -0.001358 0.024125 0.000984 -0.000929
# 5 0.015326 -0.001272 -0.010323 0.000984 0.078204 0.008737
# 6 0.002248 0.002262 -0.004434 -0.000929 0.008737 0.026992
#
#
# Mechanical properties :
#
#
# Convention : Reuss Voigt Hill
#
# Bulk Modulus (GPa) = 50.63836 66.04430 58.34133
# Shear Modulus (GPa) = 24.14621 34.26276 29.20448
#
# Velocity S-wave (km/s) = 3.29432 3.92421 3.62298
# Velocity P-wave (km/s) = 6.10160 7.08635 6.61233
#
# Compressibility (1/GPa) = 0.01974788
#
# Stress axis : x y z
#
# Youngs Moduli (GPa) = 61.19188 111.27526 49.67988
#
# Poissons Ratio (x) = 0.35162 0.22374
# Poissons Ratio (y) = 0.19336 0.25791
# Poissons Ratio (z) = 0.27558 0.57768
#
# Static dielectric constant tensor:
#      x y z
#    x 3.908640 0.039740 0.148960 
#    y 0.039740 4.152300 -0.350350 
#    z 0.148960 -0.350350 3.816750 
# 
# 
# High freq. dielectric constant tensor:
#      x y z
#    x 1.862780 -0.001270 0.020400 
#    y -0.001270 1.886790 -0.022360 
#    z 0.020400 -0.022360 1.864270 
# 
# From -- ./inp_files/380906.got.cif
#   From: 2010.06.25/outbox.cif.g09.slc.cpg/sg2_191_cif.got.tgz:380906.got - 2010.06.27 13:26:56.
