data_PCOD8009264
_publ_section_title
;
Structure prediction by ZEFSAII (Michael W. Deem and Ramdas Pophale) SiO2 
 PCOD8009264
Probable space group: P -1
;
_chemical_formula_sum "Si O2"
_cell_formula_units_Z 16
_cell_length_a 13.005357
_cell_length_b 11.707030
_cell_length_c 15.791501
_cell_angle_alpha 118.681484
_cell_angle_beta 27.750157
_cell_angle_gamma 128.105887
_cell_volume 866.398066
_symmetry_space_group_name_H-M "P -1"
_symmetry_group_IT_number 2
_symmetry_cell_setting 'triclinic'
loop_
_space_group_symop_operation_xyz
x,y,z
-x,-y,-z
loop_
_atom_site_type_symbol
_atom_site_label
_atom_site_fract_x
_atom_site_fract_y
_atom_site_fract_z
Si Si1 0.061157 0.205877 0.360620
Si Si2 0.467529 0.662657 0.813516
Si Si3 0.667136 0.583749 0.486609
Si Si4 0.285146 0.345867 0.071870
Si Si5 0.064093 0.918424 0.289991
Si Si6 0.496251 0.041021 0.140338
Si Si7 0.639820 0.231817 0.764279
Si Si8 0.117537 0.541136 0.177912
O O1 0.302317 0.285833 0.271911
O O2 0.127025 0.244055 0.228271
O O3 0.869800 0.269167 0.546765
O O4 0.949668 0.029702 0.392978
O O5 0.486078 0.560976 0.690315
O O6 0.456966 0.795162 0.816310
O O7 0.222725 0.580818 0.020034
O O8 0.500000 0.500000 0.500000
O O9 0.838892 0.754123 0.396395
O O10 0.832835 0.507811 0.367991
O O11 0.110879 0.386237 0.153202
O O12 0.500000 0.500000 0.000000
O O13 0.428444 0.268014 0.890197
O O14 0.208397 0.950889 0.285386
O O15 0.283951 0.948711 0.075371
O O16 0.495982 0.945073 0.186388
O O17 0.728692 0.322838 0.820867
#
# Coordination Sequence:
#
# PCOD8009264 Si02
#       8
#     2   2   2   2   2   2   2   2
#     4  11  19  31  59  87 115 143 175 226 285 337
#     4  11  20  34  57  82 111 149 176 224 285 325
#     4  12  25  39  56  81 112 150 191 227 267 325
#     4  10  21  32  50  83 120 148 174 216 281 344
#     4  10  18  34  55  83 111 143 179 227 283 328
#     4  10  16  31  59  81 113 139 171 229 290 335
#     4  11  18  31  52  85 114 144 173 219 281 335
#     4  11  21  37  51  76 119 148 181 222 263 336
#
# _framework density 18.467261000000001
#
# number of rings (size 3 to 8) (size 9 to 14) (size 15 to 20)
#    0.000    1.250    7.500    1.500    0.000    5.500 
#    0.000    0.000    0.000    0.750    0.000    2.625 
#    0.000    0.000    0.000    0.000    0.000    0.000 
#
# Total GULP energy -198272.754139 kJ/mol
# GULP energy per Si atom -12392.047134 kJ/mol
# Density = 1.842523 g / cm^3
# Si number density = 18.467261 Si / 1000 Ang^3
#
#
#
# Elastic Constant Matrix: (Units=GPa)
#
#
# Indices 1 2 3 4 5 6 
#
# 1 50.1500 38.6159 19.8341 13.4777 -12.6605 -8.9380
# 2 38.6159 66.5726 37.0926 15.1656 -9.3109 -19.7777
# 3 19.8341 37.0926 97.6281 32.4439 -3.9310 -5.7032
# 4 13.4777 15.1656 32.4439 30.0625 -11.2258 -5.7324
# 5 -12.6605 -9.3109 -3.9310 -11.2258 17.9288 9.0670
# 6 -8.9380 -19.7777 -5.7032 -5.7324 9.0670 30.8710
#
#
#
# Elastic Compliance Matrix: (Units=1/GPa)
#
#
# Indices 1 2 3 4 5 6 
#
# 1 0.043071 -0.025674 0.002200 -0.002861 0.020961 -0.010259
# 2 -0.025674 0.039243 -0.010017 0.003365 -0.007252 0.018612
# 3 0.002200 -0.010017 0.020751 -0.023487 -0.012467 -0.002647
# 4 -0.002861 0.003365 -0.023487 0.073309 0.041244 -0.001512
# 5 0.020961 -0.007252 -0.012467 0.041244 0.101559 -0.023050
# 6 -0.010259 0.018612 -0.002647 -0.001512 -0.023050 0.047347
#
#
# Mechanical properties :
#
#
# Convention : Reuss Voigt Hill
#
# Bulk Modulus (GPa) = 27.71404 45.04843 36.38124
# Shear Modulus (GPa) = 12.36734 23.69301 18.03017
#
# Velocity S-wave (km/s) = 2.59064 3.58575 3.12802
# Velocity P-wave (km/s) = 4.89778 6.44904 5.72618
#
# Compressibility (1/GPa) = 0.03608280
#
# Stress axis : x y z
#
# Youngs Moduli (GPa) = 23.21729 25.48204 48.19134
#
# Poissons Ratio (x) = 0.65422 -0.10600
# Poissons Ratio (y) = 0.59607 0.48273
# Poissons Ratio (z) = -0.05107 0.25525
#
# Static dielectric constant tensor:
#      x y z
#    x 3.172540 -0.540160 -0.067570 
#    y -0.540160 3.418160 0.348380 
#    z -0.067570 0.348380 3.697210 
# 
# 
# High freq. dielectric constant tensor:
#      x y z
#    x 1.667580 -0.048120 0.005490 
#    y -0.048120 1.692510 0.022510 
#    z 0.005490 0.022510 1.739880 
# 
# From -- ./inp_files/431215.got.cif
#   From: 2010.06.25/outbox.cif.g09.slc.cpg/sg2_216_cif.got.tgz:431215.got - 2010.06.27 13:26:56.
