data_PCOD8009721
_publ_section_title
;
Structure prediction by ZEFSAII (Michael W. Deem and Ramdas Pophale) SiO2 
 PCOD8009721
Probable space group: P -1
;
_chemical_formula_sum "Si O2"
_cell_formula_units_Z 16
_cell_length_a 17.786810
_cell_length_b 9.065945
_cell_length_c 20.691022
_cell_angle_alpha 125.654342
_cell_angle_beta 19.760881
_cell_angle_gamma 130.400581
_cell_volume 854.293874
_symmetry_space_group_name_H-M "P -1"
_symmetry_group_IT_number 2
_symmetry_cell_setting 'triclinic'
loop_
_space_group_symop_operation_xyz
x,y,z
-x,-y,-z
loop_
_atom_site_type_symbol
_atom_site_label
_atom_site_fract_x
_atom_site_fract_y
_atom_site_fract_z
Si Si1 0.794931 0.355029 0.437277
Si Si2 0.843391 0.205638 0.221763
Si Si3 0.862949 0.222199 0.695068
Si Si4 0.397476 0.300579 0.569695
Si Si5 0.016793 0.098465 0.410307
Si Si6 0.600230 0.706726 0.937796
Si Si7 0.930104 0.049778 0.330414
Si Si8 0.267581 0.243749 0.800660
O O1 0.885323 0.323630 0.284914
O O2 0.515584 0.320167 0.657876
O O3 0.932402 0.574470 0.403053
O O4 0.839630 0.210276 0.414917
O O5 0.601831 0.207054 0.384756
O O6 0.815891 0.986232 0.203545
O O7 0.070166 0.299354 0.014572
O O8 0.878312 0.161322 0.593484
O O9 0.881307 0.063506 0.689431
O O10 0.604247 0.231054 0.910841
O O11 0.500000 0.500000 0.500000
O O12 0.170875 0.152619 0.677510
O O13 0.307303 0.343297 0.723381
O O14 0.236256 0.290836 0.256726
O O15 0.843999 0.012704 0.465980
O O16 0.500000 0.500000 0.000000
O O17 0.777170 0.865859 0.885601
#
# Coordination Sequence:
#
# PCOD8009721 Si02
#       8
#     2   2   2   2   2   2   2   2
#     4  11  20  37  63  87 120 156 204 242 301 345
#     4  10  21  39  61  88 118 158 200 242 297 357
#     4  11  21  42  61  85 122 162 190 254 296 361
#     4  11  22  40  63  87 130 156 191 250 301 352
#     4   9  24  39  58  87 122 154 202 238 306 354
#     4  10  21  37  60  86 118 154 200 242 293 347
#     4  10  21  40  56  91 121 152 202 246 290 353
#     4  10  21  39  61  89 117 157 199 243 295 357
#
# _framework density 18.728919000000001
#
# number of rings (size 3 to 8) (size 9 to 14) (size 15 to 20)
#    0.750    1.000    3.750    1.125    3.500    3.500 
#    4.500    2.500    0.000    0.000    0.000    0.000 
#    0.000    0.000    0.000    0.000    0.000    0.000 
#
# Total GULP energy -198304.389808 kJ/mol
# GULP energy per Si atom -12394.024363 kJ/mol
# Density = 1.868629 g / cm^3
# Si number density = 18.728919 Si / 1000 Ang^3
#
#
#
# Elastic Constant Matrix: (Units=GPa)
#
#
# Indices 1 2 3 4 5 6 
#
# 1 105.1162 19.4177 26.1750 -10.1991 7.1927 -2.8652
# 2 19.4177 70.6496 -3.9989 -16.3144 1.3697 -3.5225
# 3 26.1750 -3.9989 78.0547 -14.0917 6.2910 1.7418
# 4 -10.1991 -16.3144 -14.0917 26.4604 4.3543 0.5826
# 5 7.1927 1.3697 6.2910 4.3543 20.6852 -17.7502
# 6 -2.8652 -3.5225 1.7418 0.5826 -17.7502 31.9580
#
#
#
# Elastic Compliance Matrix: (Units=1/GPa)
#
#
# Indices 1 2 3 4 5 6 
#
# 1 0.011276 -0.002907 -0.003238 0.001610 -0.004516 -0.001670
# 2 -0.002907 0.018543 0.005135 0.014275 -0.007102 -0.002701
# 3 -0.003238 0.005135 0.018390 0.014689 -0.016722 -0.010282
# 4 0.001610 0.014275 0.014689 0.061490 -0.036476 -0.020463
# 5 -0.004516 -0.007102 -0.016722 -0.036476 0.121291 0.067756
# 6 -0.001670 -0.002701 -0.010282 -0.020463 0.067756 0.069410
#
#
# Mechanical properties :
#
#
# Convention : Reuss Voigt Hill
#
# Bulk Modulus (GPa) = 21.65054 37.44535 29.54795
# Shear Modulus (GPa) = 15.73227 29.96916 22.85071
#
# Velocity S-wave (km/s) = 2.90142 4.00453 3.49675
# Velocity P-wave (km/s) = 4.77591 6.43572 5.66691
#
# Compressibility (1/GPa) = 0.04618823
#
# Stress axis : x y z
#
# Youngs Moduli (GPa) = 88.68181 53.92786 54.37808
#
# Poissons Ratio (x) = 0.15675 0.17610
# Poissons Ratio (y) = 0.25776 -0.27921
# Poissons Ratio (z) = 0.28720 -0.27689
#
# Static dielectric constant tensor:
#      x y z
#    x 3.624030 -0.019150 -0.060530 
#    y -0.019150 3.364430 -0.180170 
#    z -0.060530 -0.180170 3.427870 
# 
# 
# High freq. dielectric constant tensor:
#      x y z
#    x 1.741270 -0.008110 -0.005070 
#    y -0.008110 1.720050 -0.013000 
#    z -0.005070 -0.013000 1.716260 
# 
# From -- ./inp_files/599745.got.cif
#   From: 2010.06.25/outbox.cif.g09.slc.cpg/sg2_300_cif.got.tgz:599745.got - 2010.06.27 13:26:56.
