data_PCOD8009964
_publ_section_title
;
Structure prediction by ZEFSAII (Michael W. Deem and Ramdas Pophale) SiO2 
 PCOD8009964
Probable space group: P -1
;
_chemical_formula_sum "Si O2"
_cell_formula_units_Z 16
_cell_length_a 12.293047
_cell_length_b 15.026748
_cell_length_c 20.186400
_cell_angle_alpha 150.712834
_cell_angle_beta 29.040748
_cell_angle_gamma 153.708101
_cell_volume 730.980745
_symmetry_space_group_name_H-M "P -1"
_symmetry_group_IT_number 2
_symmetry_cell_setting 'triclinic'
loop_
_space_group_symop_operation_xyz
x,y,z
-x,-y,-z
loop_
_atom_site_type_symbol
_atom_site_label
_atom_site_fract_x
_atom_site_fract_y
_atom_site_fract_z
Si Si1 0.891863 0.710410 0.304389
Si Si2 0.129389 0.340937 0.264759
Si Si3 0.873583 0.060553 0.944354
Si Si4 0.033937 0.085550 0.733208
Si Si5 0.480484 0.773817 0.773924
Si Si6 0.578185 0.181608 0.522018
Si Si7 0.953856 0.182188 0.121515
Si Si8 0.393033 0.105931 0.358193
O O1 0.984509 0.758541 0.209004
O O2 0.770013 0.457473 0.216788
O O3 0.674476 0.772282 0.472429
O O4 0.142665 0.854414 0.314461
O O5 0.325232 0.580678 0.346102
O O6 0.812826 0.214078 0.371161
O O7 0.141541 0.375715 0.200502
O O8 0.221444 0.184339 0.140851
O O9 0.069665 0.154374 0.836495
O O10 0.603719 0.051421 0.063334
O O11 0.026094 0.232120 0.036899
O O12 0.293098 0.083431 0.572151
O O13 0.745359 0.848596 0.726211
O O14 0.542927 0.752011 0.650682
O O15 0.500000 0.000000 0.500000
O O16 0.643447 0.099883 0.245078
O O17 0.000000 0.000000 0.000000
#
# Coordination Sequence:
#
# PCOD8009964 Si02
#       8
#     2   2   2   2   2   2   2   2
#     4  10  21  37  63  91 120 162 202 257 309 356
#     4  10  22  42  66  88 123 165 200 256 312 348
#     4  10  21  42  61  88 128 159 204 252 301 371
#     4  11  23  38  59  92 121 158 204 251 301 368
#     4  10  22  39  62  88 125 164 200 251 311 363
#     4  11  23  41  64  92 123 156 206 257 300 365
#     4   9  19  39  65  84 121 168 199 249 308 360
#     4   9  19  39  60  90 121 153 213 254 299 369
#
# _framework density 21.888401000000002
#
# number of rings (size 3 to 8) (size 9 to 14) (size 15 to 20)
#    0.000    2.000    1.250    1.500    1.750    1.500 
#    9.000    5.625    0.000    0.000    0.000    0.000 
#    0.000    0.000    0.000    0.000    0.000    0.000 
#
# Total GULP energy -198226.252052 kJ/mol
# GULP energy per Si atom -12389.140753 kJ/mol
# Density = 2.183858 g / cm^3
# Si number density = 21.888401 Si / 1000 Ang^3
#
#
#
# Elastic Constant Matrix: (Units=GPa)
#
#
# Indices 1 2 3 4 5 6 
#
# 1 110.5215 28.4050 41.1494 2.7919 0.9739 -5.0647
# 2 28.4050 87.8855 23.6779 12.7590 -6.5757 -12.5489
# 3 41.1494 23.6779 83.7553 6.4302 -12.4171 0.9461
# 4 2.7919 12.7590 6.4302 25.7554 1.0786 -0.9226
# 5 0.9739 -6.5757 -12.4171 1.0786 39.2329 -16.0636
# 6 -5.0647 -12.5489 0.9461 -0.9226 -16.0636 22.8718
#
#
#
# Elastic Compliance Matrix: (Units=1/GPa)
#
#
# Indices 1 2 3 4 5 6 
#
# 1 0.011794 -0.002864 -0.005521 0.001614 -0.002834 -0.000657
# 2 -0.002864 0.016386 -0.001611 -0.007251 0.008192 0.013884
# 3 -0.005521 -0.001611 0.016118 -0.002822 0.005423 0.000922
# 4 0.001614 -0.007251 -0.002822 0.042980 -0.005692 -0.005768
# 5 -0.002834 0.008192 0.005423 -0.005692 0.042393 0.033187
# 6 -0.000657 0.013884 0.000922 -0.005768 0.033187 0.074232
#
#
# Mechanical properties :
#
#
# Convention : Reuss Voigt Hill
#
# Bulk Modulus (GPa) = 41.14396 52.06967 46.60682
# Shear Modulus (GPa) = 21.55193 30.16734 25.85964
#
# Velocity S-wave (km/s) = 3.14128 3.71649 3.44092
# Velocity P-wave (km/s) = 5.65640 6.50052 6.09309
#
# Compressibility (1/GPa) = 0.02430490
#
# Stress axis : x y z
#
# Youngs Moduli (GPa) = 84.78905 61.02715 62.04316
#
# Poissons Ratio (x) = 0.17481 0.34256
# Poissons Ratio (y) = 0.24287 0.09994
# Poissons Ratio (z) = 0.46814 0.09830
#
# Static dielectric constant tensor:
#      x y z
#    x 4.459140 0.011460 0.174880 
#    y 0.011460 3.658160 -0.287090 
#    z 0.174880 -0.287090 4.145550 
# 
# 
# High freq. dielectric constant tensor:
#      x y z
#    x 1.877610 -0.002810 -0.000120 
#    y -0.002810 1.826460 -0.019190 
#    z -0.000120 -0.019190 1.862290 
# 
# From -- ./inp_files/595648.got.cif
#   From: 2010.06.25/outbox.cif.g09.slc.cpg/sg2_298_cif.got.tgz:595648.got - 2010.06.27 13:26:56.
