data_PCOD8009073
_publ_section_title
;
Structure prediction by ZEFSAII (Michael W. Deem and Ramdas Pophale) SiO2 
 PCOD8009073
Probable space group: P -1
;
_chemical_formula_sum "Si O2"
_cell_formula_units_Z 10
_cell_length_a 5.095105
_cell_length_b 14.391206
_cell_length_c 10.386658
_cell_angle_alpha 141.438241
_cell_angle_beta 93.074223
_cell_angle_gamma 95.595866
_cell_volume 462.016280
_symmetry_space_group_name_H-M "P -1"
_symmetry_group_IT_number 2
_symmetry_cell_setting 'triclinic'
loop_
_space_group_symop_operation_xyz
x,y,z
-x,-y,-z
loop_
_atom_site_type_symbol
_atom_site_label
_atom_site_fract_x
_atom_site_fract_y
_atom_site_fract_z
Si Si1 0.224170 0.481528 0.811756
Si Si2 0.677082 0.324681 0.720118
Si Si3 0.810672 0.007336 0.382390
Si Si4 0.009140 0.093592 0.972379
Si Si5 0.461042 0.757670 0.956908
O O1 0.393076 0.350996 0.690712
O O2 0.910483 0.397824 0.702293
O O3 0.255068 0.596396 0.055954
O O4 0.326647 0.582358 0.797504
O O5 0.660672 0.145606 0.540915
O O6 0.574060 0.851928 0.193759
O O7 0.992497 0.022281 0.273564
O O8 0.000000 0.000000 0.500000
O O9 0.283894 0.228758 0.118480
O O10 0.753339 0.167772 0.041103
O O11 0.000000 0.000000 0.000000
#
# Coordination Sequence:
#
# PCOD8009073 Si02
#       5
#     2   2   2   2   2
#     4  10  21  36  54  83 120 160 185 234 294 353
#     4  10  22  34  54  83 125 153 188 234 297 344
#     4  10  24  36  62  92 119 149 196 250 286 342
#     4  10  22  39  63  88 115 154 198 244 291 343
#     4  10  22  38  63  84 116 156 199 238 288 348
#
# _framework density 21.644259000000002
#
# number of rings (size 3 to 8) (size 9 to 14) (size 15 to 20)
#    1.200    0.800    0.000    3.000   11.200    1.600 
#    0.000    0.000    0.000    7.200    0.000    0.000 
#    0.000    0.000    0.000    0.000    0.000    0.000 
#
# Total GULP energy -123935.045009 kJ/mol
# GULP energy per Si atom -12393.504501 kJ/mol
# Density = 2.159500 g / cm^3
# Si number density = 21.644259 Si / 1000 Ang^3
#
#
#
# Elastic Constant Matrix: (Units=GPa)
#
#
# Indices 1 2 3 4 5 6 
#
# 1 88.8402 8.5192 1.8520 -9.7775 -7.2440 4.7919
# 2 8.5192 100.4462 9.9504 -8.7013 1.2854 -2.5545
# 3 1.8520 9.9504 48.4156 10.1504 -14.3611 -9.5691
# 4 -9.7775 -8.7013 10.1504 27.8216 -1.2492 -0.5620
# 5 -7.2440 1.2854 -14.3611 -1.2492 19.0608 6.2177
# 6 4.7919 -2.5545 -9.5691 -0.5620 6.2177 42.0689
#
#
#
# Elastic Compliance Matrix: (Units=1/GPa)
#
#
# Indices 1 2 3 4 5 6 
#
# 1 0.012403 -0.000821 0.000085 0.004288 0.005849 -0.002250
# 2 -0.000821 0.010906 -0.004293 0.004512 -0.004133 0.000450
# 3 0.000085 -0.004293 0.031145 -0.011623 0.021911 0.003420
# 4 0.004288 0.004512 -0.011623 0.042885 -0.004072 -0.001684
# 5 0.005849 -0.004133 0.021911 -0.004072 0.073438 -0.006842
# 6 -0.002250 0.000450 0.003420 -0.001684 -0.006842 0.025821
#
#
# Mechanical properties :
#
#
# Convention : Reuss Voigt Hill
#
# Bulk Modulus (GPa) = 22.52387 30.92725 26.72556
# Shear Modulus (GPa) = 22.57794 32.28229 27.43012
#
# Velocity S-wave (km/s) = 3.23327 3.86618 3.56380
# Velocity P-wave (km/s) = 4.93636 5.85232 5.41375
#
# Compressibility (1/GPa) = 0.04439734
#
# Stress axis : x y z
#
# Youngs Moduli (GPa) = 80.62344 91.69548 32.10741
#
# Poissons Ratio (x) = 0.07528 -0.00274
# Poissons Ratio (y) = 0.06619 0.13783
# Poissons Ratio (z) = -0.00688 0.39363
#
# Static dielectric constant tensor:
#      x y z
#    x 4.091220 0.209960 -0.214320 
#    y 0.209960 3.744690 0.205270 
#    z -0.214320 0.205270 3.687810 
# 
# 
# High freq. dielectric constant tensor:
#      x y z
#    x 1.863820 0.013460 -0.018760 
#    y 0.013460 1.842800 0.020470 
#    z -0.018760 0.020470 1.811990 
# 
# From -- ./inp_files/359811.got.cif
#   From: 2010.06.25/outbox.cif.g09.slc.cpg/sg2_180_cif.got.tgz:359811.got - 2010.06.27 13:26:56.
