data_PCOD8009589
_publ_section_title
;
Structure prediction by ZEFSAII (Michael W. Deem and Ramdas Pophale) SiO2 
 PCOD8009589
Probable space group: P -1
;
_chemical_formula_sum "Si O2"
_cell_formula_units_Z 16
_cell_length_a 5.073684
_cell_length_b 17.088010
_cell_length_c 9.660886
_cell_angle_alpha 102.864663
_cell_angle_beta 109.057189
_cell_angle_gamma 103.626034
_cell_volume 727.338041
_symmetry_space_group_name_H-M "P -1"
_symmetry_group_IT_number 2
_symmetry_cell_setting 'triclinic'
loop_
_space_group_symop_operation_xyz
x,y,z
-x,-y,-z
loop_
_atom_site_type_symbol
_atom_site_label
_atom_site_fract_x
_atom_site_fract_y
_atom_site_fract_z
Si Si1 0.404918 0.376461 0.317817
Si Si2 0.751275 0.558869 0.418205
Si Si3 0.745695 0.808580 0.797292
Si Si4 0.115244 0.562005 0.231676
Si Si5 0.922870 0.377774 0.041558
Si Si6 0.812244 0.948714 0.640718
Si Si7 0.627167 0.197347 0.016014
Si Si8 0.432862 0.058152 0.700163
O O1 0.707676 0.458624 0.405701
O O2 0.185914 0.388039 0.407406
O O3 0.466253 0.287930 0.314650
O O4 0.238090 0.371983 0.141241
O O5 0.448044 0.563029 0.301798
O O6 0.014172 0.596963 0.368720
O O7 0.716850 0.868009 0.691935
O O8 0.636170 0.838109 0.932689
O O9 0.080650 0.811830 0.870098
O O10 0.889812 0.465873 0.126419
O O11 0.090392 0.623583 0.127780
O O12 0.666210 0.295399 0.024774
O O13 0.669327 0.916767 0.454804
O O14 0.700192 0.021889 0.712470
O O15 0.165858 0.986836 0.703570
O O16 0.545593 0.143589 0.841285
#
# Coordination Sequence:
#
# PCOD8009589 Si02
#       8
#     2   2   2   2   2   2   2   2
#     4   9  21  38  57  83 118 151 188 236 285 329
#     4  10  21  37  58  82 112 153 196 234 277 332
#     4  11  23  38  59  87 117 149 187 233 283 336
#     4  10  21  37  58  82 112 153 196 234 277 332
#     4   9  21  38  57  83 118 151 188 236 285 329
#     4  10  22  41  62  85 115 149 185 230 283 337
#     4  11  23  38  59  87 117 149 187 233 283 336
#     4  10  22  41  62  85 115 149 185 230 283 337
#
# _framework density 21.998027
#
# number of rings (size 3 to 8) (size 9 to 14) (size 15 to 20)
#    0.000    2.000    0.000    2.250    0.000   17.000 
#    0.000    3.750    0.000    0.000    0.000    0.000 
#    0.000    0.000    0.000    0.000    0.000    0.000 
#
# Total GULP energy -198432.614937 kJ/mol
# GULP energy per Si atom -12402.038434 kJ/mol
# Density = 2.194796 g / cm^3
# Si number density = 21.998027 Si / 1000 Ang^3
#
#
#
# Elastic Constant Matrix: (Units=GPa)
#
#
# Indices 1 2 3 4 5 6 
#
# 1 61.2061 12.2252 13.2070 -7.8957 -18.0356 3.7210
# 2 12.2252 110.8177 46.1762 -18.5296 3.0144 8.2948
# 3 13.2070 46.1762 86.2660 -6.7940 -7.8187 0.2388
# 4 -7.8957 -18.5296 -6.7940 37.0043 4.7832 -5.7827
# 5 -18.0356 3.0144 -7.8187 4.7832 31.8397 -2.1405
# 6 3.7210 8.2948 0.2388 -5.7827 -2.1405 19.8169
#
#
#
# Elastic Compliance Matrix: (Units=1/GPa)
#
#
# Indices 1 2 3 4 5 6 
#
# 1 0.020508 -0.001744 -0.001060 0.001641 0.011179 -0.001422
# 2 -0.001744 0.013416 -0.006959 0.005049 -0.005013 -0.004273
# 3 -0.001060 -0.006959 0.015790 -0.000876 0.004278 0.003128
# 4 0.001641 0.005049 -0.000876 0.031243 -0.004036 0.006270
# 5 0.011179 -0.005013 0.004278 -0.004036 0.040080 0.003099
# 6 -0.001422 -0.004273 0.003128 0.006270 0.003099 0.054644
#
#
# Mechanical properties :
#
#
# Convention : Reuss Voigt Hill
#
# Bulk Modulus (GPa) = 33.12667 44.61185 38.86926
# Shear Modulus (GPa) = 24.35834 30.17762 27.26798
#
# Velocity S-wave (km/s) = 3.33122 3.70784 3.52456
# Velocity P-wave (km/s) = 5.46696 6.21730 5.85416
#
# Compressibility (1/GPa) = 0.03018715
#
# Stress axis : x y z
#
# Youngs Moduli (GPa) = 48.76246 74.53536 63.33300
#
# Poissons Ratio (x) = 0.13001 0.06711
# Poissons Ratio (y) = 0.08505 0.44076
# Poissons Ratio (z) = 0.05167 0.51872
#
# Static dielectric constant tensor:
#      x y z
#    x 3.789740 0.012730 -0.081890 
#    y 0.012730 3.911240 -0.067060 
#    z -0.081890 -0.067060 4.070790 
# 
# 
# High freq. dielectric constant tensor:
#      x y z
#    x 1.861220 -0.002420 -0.006210 
#    y -0.002420 1.851010 -0.010850 
#    z -0.006210 -0.010850 1.873320 
# 
# From -- ./inp_files/135767.got.cif
#   From: 2010.06.25/outbox.cif.g09.slc.cpg/sg2_68_cif.got.tgz:135767.got - 2010.06.27 13:26:56.
