data_PCOD8009446
_publ_section_title
;
Structure prediction by ZEFSAII (Michael W. Deem and Ramdas Pophale) SiO2 
 PCOD8009446
Probable space group: P -1
;
_chemical_formula_sum "Si O2"
_cell_formula_units_Z 16
_cell_length_a 21.045785
_cell_length_b 9.071970
_cell_length_c 17.287349
_cell_angle_alpha 148.638178
_cell_angle_beta 30.288537
_cell_angle_gamma 151.557494
_cell_volume 728.736578
_symmetry_space_group_name_H-M "P -1"
_symmetry_group_IT_number 2
_symmetry_cell_setting 'triclinic'
loop_
_space_group_symop_operation_xyz
x,y,z
-x,-y,-z
loop_
_atom_site_type_symbol
_atom_site_label
_atom_site_fract_x
_atom_site_fract_y
_atom_site_fract_z
Si Si1 0.334463 0.181435 0.954207
Si Si2 0.807209 0.055188 0.738544
Si Si3 0.364104 0.199352 0.351858
Si Si4 0.991121 0.186770 0.831511
Si Si5 0.136377 0.532167 0.578195
Si Si6 0.745187 0.337133 0.329735
Si Si7 0.130356 0.809126 0.549490
Si Si8 0.436970 0.051283 0.938951
O O1 0.419052 0.071962 0.874729
O O2 0.297430 0.967876 0.818995
O O3 0.435572 0.571046 0.997637
O O4 0.183928 0.109584 0.124475
O O5 0.964848 0.406032 0.720046
O O6 0.713336 0.990784 0.730936
O O7 0.838007 0.767198 0.594908
O O8 0.720230 0.082172 0.914235
O O9 0.378585 0.560592 0.499568
O O10 0.275254 0.982958 0.422364
O O11 0.520568 0.220647 0.205462
O O12 0.088770 0.320419 0.709094
O O13 0.074054 0.057786 0.740282
O O14 0.000000 0.500000 0.000000
O O15 0.242458 0.767869 0.642982
O O16 0.182586 0.731357 0.538950
O O17 0.000000 0.500000 0.500000
#
# Coordination Sequence:
#
# PCOD8009446 Si02
#       8
#     2   2   2   2   2   2   2   2
#     4  10  22  37  59  90 119 159 200 244 296 353
#     4  10  21  38  60  92 123 153 197 250 304 347
#     4  10  21  38  60  88 121 157 197 244 295 357
#     4   9  19  38  61  85 122 157 190 248 304 344
#     4  10  21  36  64  93 116 156 200 249 303 349
#     4   9  20  41  62  84 124 158 196 247 300 353
#     4  11  20  33  64  93 116 150 203 253 287 352
#     4  11  23  36  63  88 120 160 201 242 294 356
#
# _framework density 21.955805999999999
#
# number of rings (size 3 to 8) (size 9 to 14) (size 15 to 20)
#    0.000    2.000    1.250    1.875    7.000    0.500 
#    0.000    5.000   16.500    0.000    0.000    0.000 
#    0.000    0.000    0.000    0.000    0.000    0.000 
#
# Total GULP energy -198337.192796 kJ/mol
# GULP energy per Si atom -12396.074550 kJ/mol
# Density = 2.190583 g / cm^3
# Si number density = 21.955806 Si / 1000 Ang^3
#
#
#
# Elastic Constant Matrix: (Units=GPa)
#
#
# Indices 1 2 3 4 5 6 
#
# 1 130.4740 7.7020 26.6007 4.2849 6.2416 -25.8934
# 2 7.7020 35.7781 5.8348 -8.4464 5.6468 -6.3732
# 3 26.6007 5.8348 96.1281 -10.1361 -5.6033 -2.4665
# 4 4.2849 -8.4464 -10.1361 24.7311 5.4256 -1.3330
# 5 6.2416 5.6468 -5.6033 5.4256 34.9719 1.8908
# 6 -25.8934 -6.3732 -2.4665 -1.3330 1.8908 28.8082
#
#
#
# Elastic Compliance Matrix: (Units=1/GPa)
#
#
# Indices 1 2 3 4 5 6 
#
# 1 0.010242 -0.000225 -0.002947 -0.002042 -0.002432 0.008969
# 2 -0.000225 0.034141 -0.000835 0.013605 -0.008174 0.008445
# 3 -0.002947 -0.000835 0.011817 0.004549 0.001943 -0.001739
# 4 -0.002042 0.013605 0.004549 0.049520 -0.009027 0.004448
# 5 -0.002432 -0.008174 0.001943 -0.009027 0.032404 -0.006372
# 6 0.008969 0.008445 -0.001739 0.004448 -0.006372 0.045117
#
#
# Mechanical properties :
#
#
# Convention : Reuss Voigt Hill
#
# Bulk Modulus (GPa) = 20.75329 38.07278 29.41304
# Shear Modulus (GPa) = 24.11751 32.51841 28.31796
#
# Velocity S-wave (km/s) = 3.31789 3.85266 3.59523
# Velocity P-wave (km/s) = 4.91434 6.09663 5.53713
#
# Compressibility (1/GPa) = 0.04818513
#
# Stress axis : x y z
#
# Youngs Moduli (GPa) = 97.63873 29.29028 84.62112
#
# Poissons Ratio (x) = 0.00659 0.24942
# Poissons Ratio (y) = 0.02195 0.07068
# Poissons Ratio (z) = 0.28779 0.02446
#
# Static dielectric constant tensor:
#      x y z
#    x 4.354840 -0.086990 -0.337530 
#    y -0.086990 3.973830 -0.322170 
#    z -0.337530 -0.322170 4.163960 
# 
# 
# High freq. dielectric constant tensor:
#      x y z
#    x 1.866500 -0.010270 -0.008150 
#    y -0.010270 1.838230 -0.015190 
#    z -0.008150 -0.015190 1.867180 
# 
# From -- ./inp_files/206439.got.cif
#   From: 2010.06.25/outbox.cif.g09.slc.cpg/sg2_104_cif.got.tgz:206439.got - 2010.06.27 13:26:56.
