data_PCOD8009177
_publ_section_title
;
Structure prediction by ZEFSAII (Michael W. Deem and Ramdas Pophale) SiO2 
 PCOD8009177
Probable space group: P -1
;
_chemical_formula_sum "Si O2"
_cell_formula_units_Z 16
_cell_length_a 11.633970
_cell_length_b 11.274146
_cell_length_c 9.917146
_cell_angle_alpha 143.110219
_cell_angle_beta 76.782649
_cell_angle_gamma 101.376619
_cell_volume 759.904532
_symmetry_space_group_name_H-M "P -1"
_symmetry_group_IT_number 2
_symmetry_cell_setting 'triclinic'
loop_
_space_group_symop_operation_xyz
x,y,z
-x,-y,-z
loop_
_atom_site_type_symbol
_atom_site_label
_atom_site_fract_x
_atom_site_fract_y
_atom_site_fract_z
Si Si1 0.495428 0.809176 0.183718
Si Si2 0.124787 0.939946 0.166581
Si Si3 0.152256 0.674343 0.699705
Si Si4 0.105940 0.242845 0.220284
Si Si5 0.858523 0.924194 0.230583
Si Si6 0.287410 0.090353 0.494574
Si Si7 0.332086 0.847682 0.626983
Si Si8 0.537217 0.605915 0.260538
O O1 0.559039 0.693680 0.182981
O O2 0.386863 0.938146 0.385552
O O3 0.588259 0.949291 0.204310
O O4 0.448068 0.628882 0.937503
O O5 0.155948 0.075291 0.151166
O O6 0.213126 0.977487 0.298403
O O7 0.992106 0.978601 0.286574
O O8 0.137713 0.714451 0.901645
O O9 0.157529 0.446612 0.451960
O O10 0.275230 0.785967 0.728921
O O11 0.036982 0.768862 0.744513
O O12 0.149767 0.212731 0.026497
O O13 0.796441 0.825440 0.288804
O O14 0.782912 0.122433 0.409926
O O15 0.358410 0.278526 0.579286
O O16 0.406369 0.662126 0.391233
#
# Coordination Sequence:
#
# PCOD8009177 Si02
#       8
#     2   2   2   2   2   2   2   2
#     4  10  21  37  58  83 117 155 202 244 288 342
#     4  11  22  38  59  88 128 158 184 236 303 358
#     4  10  21  37  61  86 116 158 203 239 282 345
#     4  10  21  37  61  87 118 157 203 238 280 349
#     4  11  19  38  61  92 117 153 198 237 289 351
#     4  11  22  39  59  88 127 154 188 242 299 356
#     4  11  18  34  62  87 111 142 203 251 280 334
#     4  10  21  36  58  85 112 160 201 242 290 339
#
# _framework density 21.055275999999999
#
# number of rings (size 3 to 8) (size 9 to 14) (size 15 to 20)
#    0.000    1.500    5.000    1.875    1.750    1.000 
#    0.000    2.500    0.000    9.000    0.000    0.000 
#    0.000    0.000    0.000    0.000    0.000    0.000 
#
# Total GULP energy -198232.540944 kJ/mol
# GULP energy per Si atom -12389.533809 kJ/mol
# Density = 2.100735 g / cm^3
# Si number density = 21.055276 Si / 1000 Ang^3
#
#
#
# Elastic Constant Matrix: (Units=GPa)
#
#
# Indices 1 2 3 4 5 6 
#
# 1 93.3244 30.7239 40.0212 -5.8090 1.2446 31.5631
# 2 30.7239 58.8346 38.2365 4.1479 -3.8103 24.0668
# 3 40.0212 38.2365 116.0770 6.4209 -4.7938 22.6464
# 4 -5.8090 4.1479 6.4209 30.2374 -0.9503 1.0638
# 5 1.2446 -3.8103 -4.7938 -0.9503 29.9509 -6.7610
# 6 31.5631 24.0668 22.6464 1.0638 -6.7610 29.1006
#
#
#
# Elastic Compliance Matrix: (Units=1/GPa)
#
#
# Indices 1 2 3 4 5 6 
#
# 1 0.019196 -0.000890 -0.003093 0.004965 -0.005572 -0.019153
# 2 -0.000890 0.028775 -0.005421 -0.002350 -0.001506 -0.018877
# 3 -0.003093 -0.005421 0.011842 -0.002296 0.001023 -0.001056
# 4 0.004965 -0.002350 -0.002296 0.034928 -0.000450 -0.003037
# 5 -0.005572 -0.001506 0.001023 -0.000450 0.036987 0.015102
# 6 -0.019153 -0.018877 -0.001056 -0.003037 0.015102 0.075191
#
#
# Mechanical properties :
#
#
# Convention : Reuss Voigt Hill
#
# Bulk Modulus (GPa) = 24.38764 54.02214 39.20489
# Shear Modulus (GPa) = 20.88591 28.47472 24.68032
#
# Velocity S-wave (km/s) = 3.15295 3.68146 3.42741
# Velocity P-wave (km/s) = 4.98624 6.61694 5.85860
#
# Compressibility (1/GPa) = 0.04100438
#
# Stress axis : x y z
#
# Youngs Moduli (GPa) = 52.09419 34.75262 84.44195
#
# Poissons Ratio (x) = 0.03094 0.26120
# Poissons Ratio (y) = 0.04638 0.45776
# Poissons Ratio (z) = 0.16114 0.18839
#
# Static dielectric constant tensor:
#      x y z
#    x 3.887110 0.313850 -0.073320 
#    y 0.313850 3.502640 0.167440 
#    z -0.073320 0.167440 4.061850 
# 
# 
# High freq. dielectric constant tensor:
#      x y z
#    x 1.823440 0.027430 -0.014990 
#    y 0.027430 1.787950 0.008740 
#    z -0.014990 0.008740 1.827650 
# 
# From -- ./inp_files/260977.got.cif
#   From: 2010.06.25/outbox.cif.g09.slc.cpg/sg2_131_cif.got.tgz:260977.got - 2010.06.27 13:26:56.
