data_PCOD8009084
_publ_section_title
;
Structure prediction by ZEFSAII (Michael W. Deem and Ramdas Pophale) SiO2 
 PCOD8009084
Probable space group: P -1
;
_chemical_formula_sum "Si O2"
_cell_formula_units_Z 14
_cell_length_a 18.423613
_cell_length_b 7.935629
_cell_length_c 9.439562
_cell_angle_alpha 57.651020
_cell_angle_beta 39.625978
_cell_angle_gamma 57.506214
_cell_volume 723.270428
_symmetry_space_group_name_H-M "P -1"
_symmetry_group_IT_number 2
_symmetry_cell_setting 'triclinic'
loop_
_space_group_symop_operation_xyz
x,y,z
-x,-y,-z
loop_
_atom_site_type_symbol
_atom_site_label
_atom_site_fract_x
_atom_site_fract_y
_atom_site_fract_z
Si Si1 0.265993 0.712295 0.646489
Si Si2 0.172477 0.501351 0.134674
Si Si3 0.319498 0.090843 0.021202
Si Si4 0.433826 0.963012 0.405936
Si Si5 0.964818 0.311735 0.491256
Si Si6 0.868064 0.103145 0.493471
Si Si7 0.377250 0.268682 0.586959
O O1 0.345500 0.873514 0.483230
O O2 0.158261 0.825327 0.660143
O O3 0.338295 0.514862 0.539716
O O4 0.217339 0.655646 0.894087
O O5 0.270973 0.290938 0.101666
O O6 0.148265 0.597063 0.283742
O O7 0.050168 0.465150 0.273231
O O8 0.251348 0.916863 0.238819
O O9 0.459413 0.004810 0.870489
O O10 0.293678 0.169941 0.860880
O O11 0.489261 0.801078 0.520911
O O12 0.371241 0.179899 0.476980
O O13 0.919207 0.272280 0.422823
O O14 0.035741 0.108411 0.555306
#
# Coordination Sequence:
#
# PCOD8009084 Si02
#       7
#     2   2   2   2   2   2   2
#     4  11  21  34  57  91 108 139 184 232 266 318
#     4   9  19  35  60  79  99 145 193 216 275 326
#     4   8  17  35  55  78 109 147 176 213 273 333
#     4   9  18  35  59  79 118 143 180 219 264 334
#     4   9  20  40  55  74 108 149 181 226 272 337
#     4  10  21  36  55  80 113 139 182 228 281 315
#     4   8  18  35  54  80 112 148 182 210 263 329
#
# _framework density 19.356524
#
# number of rings (size 3 to 8) (size 9 to 14) (size 15 to 20)
#    0.857    2.000    0.000    0.429    2.000    1.714 
#    7.714    0.714    0.000    0.000    0.000    0.000 
#    0.000    0.000    0.000    0.000    0.000    0.000 
#
# Total GULP energy -173504.005652 kJ/mol
# GULP energy per Si atom -12393.143261 kJ/mol
# Density = 1.931247 g / cm^3
# Si number density = 19.356524 Si / 1000 Ang^3
#
#
#
# Elastic Constant Matrix: (Units=GPa)
#
#
# Indices 1 2 3 4 5 6 
#
# 1 64.4224 20.5219 -7.3594 2.5194 -2.6730 9.8219
# 2 20.5219 60.7550 13.5504 22.1249 1.0643 18.9116
# 3 -7.3594 13.5504 58.7983 18.9133 -8.7172 10.1313
# 4 2.5194 22.1249 18.9133 30.8859 3.4805 4.2194
# 5 -2.6730 1.0643 -8.7172 3.4805 15.8355 -3.0068
# 6 9.8219 18.9116 10.1313 4.2194 -3.0068 24.0397
#
#
#
# Elastic Compliance Matrix: (Units=1/GPa)
#
#
# Indices 1 2 3 4 5 6 
#
# 1 0.019109 -0.006193 0.005716 -0.000701 0.006096 -0.004459
# 2 -0.006193 0.031804 0.001637 -0.020401 -0.001556 -0.019793
# 3 0.005716 0.001637 0.028128 -0.019664 0.018824 -0.009672
# 4 -0.000701 -0.020401 -0.019664 0.059824 -0.020526 0.011555
# 5 0.006096 -0.001556 0.018824 -0.020526 0.079994 0.004408
# 6 -0.004459 -0.019793 -0.009672 0.011555 0.004408 0.061590
#
#
# Mechanical properties :
#
#
# Convention : Reuss Voigt Hill
#
# Bulk Modulus (GPa) = 12.29084 26.37792 19.33438
# Shear Modulus (GPa) = 16.38015 24.63641 20.50828
#
# Velocity S-wave (km/s) = 2.91217 3.57146 3.25853
# Velocity P-wave (km/s) = 4.20370 5.53752 4.91606
#
# Compressibility (1/GPa) = 0.08136137
#
# Stress axis : x y z
#
# Youngs Moduli (GPa) = 52.33262 31.44268 35.55202
#
# Poissons Ratio (x) = 0.19473 -0.20323
# Poissons Ratio (y) = 0.32410 -0.05821
# Poissons Ratio (z) = -0.29915 -0.05148
#
# Static dielectric constant tensor:
#      x y z
#    x 3.193160 0.127260 -0.114750 
#    y 0.127260 3.448040 0.196120 
#    z -0.114750 0.196120 3.419540 
# 
# 
# High freq. dielectric constant tensor:
#      x y z
#    x 1.724480 0.016350 -0.008010 
#    y 0.016350 1.746620 0.015410 
#    z -0.008010 0.015410 1.744460 
# 
# From -- ./inp_files/325703.got.cif
#   From: 2010.06.25/outbox.cif.g09.slc.cpg/sg2_163_cif.got.tgz:325703.got - 2010.06.27 13:26:56.
