data_PCOD8009171
_publ_section_title
;
Structure prediction by ZEFSAII (Michael W. Deem and Ramdas Pophale) SiO2 
 PCOD8009171
Probable space group: P -1
;
_chemical_formula_sum "Si O2"
_cell_formula_units_Z 16
_cell_length_a 11.268821
_cell_length_b 7.954074
_cell_length_c 18.509578
_cell_angle_alpha 135.438168
_cell_angle_beta 49.745556
_cell_angle_gamma 139.896760
_cell_volume 730.856113
_symmetry_space_group_name_H-M "P -1"
_symmetry_group_IT_number 2
_symmetry_cell_setting 'triclinic'
loop_
_space_group_symop_operation_xyz
x,y,z
-x,-y,-z
loop_
_atom_site_type_symbol
_atom_site_label
_atom_site_fract_x
_atom_site_fract_y
_atom_site_fract_z
Si Si1 0.475997 0.141875 0.743124
Si Si2 0.718600 0.659377 0.540594
Si Si3 0.823199 0.261697 0.368234
Si Si4 0.703759 0.099315 0.864370
Si Si5 0.651420 0.460412 0.108478
Si Si6 0.662449 0.450467 0.334744
Si Si7 0.836692 0.271273 0.705197
Si Si8 0.936248 0.866338 0.239526
O O1 0.438929 0.388318 0.850469
O O2 0.698779 0.275792 0.701407
O O3 0.385007 0.007065 0.658708
O O4 0.377284 0.869402 0.754361
O O5 0.800991 0.488469 0.493566
O O6 0.690543 0.558049 0.438239
O O7 0.521228 0.565184 0.627256
O O8 0.860169 0.007513 0.598879
O O9 0.957328 0.431342 0.296718
O O10 0.918444 0.137253 0.340199
O O11 0.754882 0.239883 0.807856
O O12 0.846343 0.020128 0.812829
O O13 0.496654 0.797506 0.857804
O O14 0.718987 0.341619 0.983713
O O15 0.835147 0.697807 0.153926
O O16 0.847945 0.663239 0.281636
#
# Coordination Sequence:
#
# PCOD8009171 Si02
#       8
#     2   2   2   2   2   2   2   2
#     4   9  19  37  57  81 111 145 185 231 280 326
#     4   9  18  35  56  82 113 150 187 227 276 330
#     4  10  21  36  58  84 114 150 190 230 274 334
#     4  11  23  38  60  86 112 149 190 227 284 340
#     4  10  22  40  60  84 114 146 185 237 283 332
#     4   9  18  35  60  83 111 150 187 226 280 336
#     4  11  21  37  59  83 116 151 186 232 278 330
#     4  11  22  40  59  83 117 148 186 236 281 329
#
# _framework density 21.892133999999999
#
# number of rings (size 3 to 8) (size 9 to 14) (size 15 to 20)
#    0.000    2.000    0.000    5.250    0.000    1.000 
#    0.000   13.125    0.000    0.000    0.000    0.000 
#    0.000    0.000    0.000    0.000    0.000    0.000 
#
# Total GULP energy -198309.076249 kJ/mol
# GULP energy per Si atom -12394.317266 kJ/mol
# Density = 2.184231 g / cm^3
# Si number density = 21.892134 Si / 1000 Ang^3
#
#
#
# Elastic Constant Matrix: (Units=GPa)
#
#
# Indices 1 2 3 4 5 6 
#
# 1 50.2136 -0.5564 16.0749 3.3264 -19.6377 8.4566
# 2 -0.5564 45.2845 1.7009 -4.5610 0.8693 -3.6461
# 3 16.0749 1.7009 70.5775 5.8899 -19.0291 -14.5253
# 4 3.3264 -4.5610 5.8899 30.2489 -8.8202 -5.7816
# 5 -19.6377 0.8693 -19.0291 -8.8202 34.5438 4.8667
# 6 8.4566 -3.6461 -14.5253 -5.7816 4.8667 36.2731
#
#
#
# Elastic Compliance Matrix: (Units=1/GPa)
#
#
# Indices 1 2 3 4 5 6 
#
# 1 0.029370 -0.000632 -0.004692 0.000081 0.015681 -0.010881
# 2 -0.000632 0.022739 -0.000240 0.003987 -0.000473 0.003036
# 3 -0.004692 -0.000240 0.018566 0.000239 0.006547 0.007664
# 4 0.000081 0.003987 0.000239 0.037178 0.008835 0.005218
# 5 0.015681 -0.000473 0.006547 0.008835 0.044533 -0.005648
# 6 -0.010881 0.003036 0.007664 0.005218 -0.005648 0.035069
#
#
# Mechanical properties :
#
#
# Convention : Reuss Voigt Hill
#
# Bulk Modulus (GPa) = 16.79334 22.27938 19.53636
# Shear Modulus (GPa) = 22.89044 30.13690 26.51367
#
# Velocity S-wave (km/s) = 3.23708 3.71429 3.48387
# Velocity P-wave (km/s) = 4.65395 5.34730 5.01263
#
# Compressibility (1/GPa) = 0.05954742
#
# Stress axis : x y z
#
# Youngs Moduli (GPa) = 34.04874 43.97745 53.86203
#
# Poissons Ratio (x) = 0.02778 0.25273
# Poissons Ratio (y) = 0.02151 0.01290
# Poissons Ratio (z) = 0.15977 0.01054
#
# Static dielectric constant tensor:
#      x y z
#    x 4.078720 0.105450 -0.473600 
#    y 0.105450 3.928260 0.219830 
#    z -0.473600 0.219830 3.936870 
# 
# 
# High freq. dielectric constant tensor:
#      x y z
#    x 1.861480 0.011640 -0.027780 
#    y 0.011640 1.860230 0.013230 
#    z -0.027780 0.013230 1.843670 
# 
# From -- ./inp_files/594249.got.cif
#   From: 2010.06.25/outbox.cif.g09.slc.cpg/sg2_298_cif.got.tgz:594249.got - 2010.06.27 13:26:56.
