data_PCOD8009623
_publ_section_title
;
Structure prediction by ZEFSAII (Michael W. Deem and Ramdas Pophale) SiO2 
 PCOD8009623
Probable space group: P -1
;
_chemical_formula_sum "Si O2"
_cell_formula_units_Z 16
_cell_length_a 14.479630
_cell_length_b 11.924291
_cell_length_c 6.170419
_cell_angle_alpha 113.985357
_cell_angle_beta 95.357654
_cell_angle_gamma 126.749647
_cell_volume 692.604128
_symmetry_space_group_name_H-M "P -1"
_symmetry_group_IT_number 2
_symmetry_cell_setting 'triclinic'
loop_
_space_group_symop_operation_xyz
x,y,z
-x,-y,-z
loop_
_atom_site_type_symbol
_atom_site_label
_atom_site_fract_x
_atom_site_fract_y
_atom_site_fract_z
Si Si1 0.653655 0.914562 0.782235
Si Si2 0.877187 0.242521 0.846406
Si Si3 0.793603 0.797510 0.683231
Si Si4 0.419125 0.990348 0.790890
Si Si5 0.039181 0.451300 0.666474
Si Si6 0.213194 0.410273 0.780516
Si Si7 0.036599 0.170321 0.906141
Si Si8 0.408976 0.750137 0.342796
O O1 0.695939 0.813251 0.750586
O O2 0.504780 0.778023 0.563326
O O3 0.734140 0.055585 0.716162
O O4 0.674485 0.003380 0.089371
O O5 0.914466 0.274149 0.622172
O O6 0.979686 0.254187 0.018814
O O7 0.882682 0.389187 0.026240
O O8 0.716267 0.629677 0.378212
O O9 0.847244 0.767139 0.868134
O O10 0.915948 0.966577 0.716187
O O11 0.348165 0.819435 0.492220
O O12 0.517061 0.154925 0.789707
O O13 0.500000 0.000000 0.000000
O O14 0.147224 0.448445 0.631908
O O15 0.000000 0.500000 0.500000
O O16 0.093579 0.230445 0.726318
O O17 0.300019 0.551067 0.098713
#
# Coordination Sequence:
#
# PCOD8009623 Si02
#       8
#     2   2   2   2   2   2   2   2
#     4  10  22  41  63  91 123 168 213 257 306 373
#     4   9  20  38  58  91 121 156 210 255 310 367
#     4  10  21  39  67  91 122 165 211 249 313 379
#     4   9  21  41  62  84 123 167 214 254 306 371
#     4  10  21  37  58  89 127 160 201 258 314 374
#     4  11  23  38  63  93 127 166 201 261 319 365
#     4   9  20  41  63  88 125 164 209 258 304 372
#     4  10  23  41  61  93 125 163 210 263 313 374
#
# _framework density 23.101219
#
# number of rings (size 3 to 8) (size 9 to 14) (size 15 to 20)
#    0.000    2.250    0.000    1.125    5.250    4.500 
#    4.500    3.750    0.000    0.000    0.000    0.000 
#    0.000    0.000    0.000    0.000    0.000    0.000 
#
# Total GULP energy -198222.881564 kJ/mol
# GULP energy per Si atom -12388.930098 kJ/mol
# Density = 2.304864 g / cm^3
# Si number density = 23.101219 Si / 1000 Ang^3
#
#
#
# Elastic Constant Matrix: (Units=GPa)
#
#
# Indices 1 2 3 4 5 6 
#
# 1 139.3623 35.3235 62.1389 -1.1439 -29.5798 -17.2148
# 2 35.3235 72.5558 29.9232 -14.1910 -4.6209 -14.2954
# 3 62.1389 29.9232 114.0669 8.6611 -20.0541 -7.5262
# 4 -1.1439 -14.1910 8.6611 24.6898 -7.2527 -0.2154
# 5 -29.5798 -4.6209 -20.0541 -7.2527 44.0303 0.2876
# 6 -17.2148 -14.2954 -7.5262 -0.2154 0.2876 28.3299
#
#
#
# Elastic Compliance Matrix: (Units=1/GPa)
#
#
# Indices 1 2 3 4 5 6 
#
# 1 0.011616 -0.001800 -0.004718 0.002939 0.005918 0.004859
# 2 -0.001800 0.021183 -0.004915 0.014201 0.001059 0.008387
# 3 -0.004718 -0.004915 0.013264 -0.007374 0.001154 -0.001891
# 4 0.002939 0.014201 -0.007374 0.054086 0.008968 0.007313
# 5 0.005918 0.001059 0.001154 0.008968 0.028774 0.004214
# 6 0.004859 0.008387 -0.001891 0.007313 0.004214 0.041993
#
#
# Mechanical properties :
#
#
# Convention : Reuss Voigt Hill
#
# Bulk Modulus (GPa) = 43.10809 64.52846 53.81828
# Shear Modulus (GPa) = 24.81210 32.64995 28.73103
#
# Velocity S-wave (km/s) = 3.28084 3.76352 3.53044
# Velocity P-wave (km/s) = 5.74917 6.84683 6.32187
#
# Compressibility (1/GPa) = 0.02319750
#
# Stress axis : x y z
#
# Youngs Moduli (GPa) = 86.08901 47.20696 75.39150
#
# Poissons Ratio (x) = 0.08499 0.35567
# Poissons Ratio (y) = 0.15499 0.37054
# Poissons Ratio (z) = 0.40614 0.23202
#
# Static dielectric constant tensor:
#      x y z
#    x 4.391120 -0.149320 -0.417500 
#    y -0.149320 4.113100 -0.157020 
#    z -0.417500 -0.157020 4.218530 
# 
# 
# High freq. dielectric constant tensor:
#      x y z
#    x 1.913970 -0.018300 -0.008790 
#    y -0.018300 1.903460 -0.008430 
#    z -0.008790 -0.008430 1.899580 
# 
# From -- ./inp_files/95344.got.cif
#   From: 2010.06.25/outbox.cif.g09.slc.cpg/sg2_48_cif.got.tgz:95344.got - 2010.06.27 13:26:56.
