data_PCOD8009056
_publ_section_title
;
Structure prediction by ZEFSAII (Michael W. Deem and Ramdas Pophale) SiO2 
 PCOD8009056
Probable space group: P -1
;
_chemical_formula_sum "Si O2"
_cell_formula_units_Z 16
_cell_length_a 5.253707
_cell_length_b 5.172367
_cell_length_c 29.682652
_cell_angle_alpha 77.146620
_cell_angle_beta 102.161214
_cell_angle_gamma 60.663113
_cell_volume 635.203101
_symmetry_space_group_name_H-M "P -1"
_symmetry_group_IT_number 2
_symmetry_cell_setting 'triclinic'
loop_
_space_group_symop_operation_xyz
x,y,z
-x,-y,-z
loop_
_atom_site_type_symbol
_atom_site_label
_atom_site_fract_x
_atom_site_fract_y
_atom_site_fract_z
Si Si1 0.958073 0.103712 0.139316
Si Si2 0.110861 0.115177 0.405159
Si Si3 0.049251 0.529774 0.067460
Si Si4 0.214416 0.605373 0.711129
Si Si5 0.137822 0.307443 0.558239
Si Si6 0.451212 0.813751 0.962223
Si Si7 0.358094 0.146926 0.252793
Si Si8 0.416931 0.437307 0.163076
O O1 0.962206 0.396855 0.110879
O O2 0.782639 0.040946 0.095058
O O3 0.793183 0.189614 0.179489
O O4 0.301327 0.767349 0.172506
O O5 0.981770 0.193529 0.347045
O O6 0.962771 0.445073 0.414199
O O7 0.486669 0.927908 0.423546
O O8 0.009624 0.898528 0.432706
O O9 0.205675 0.295033 0.039445
O O10 0.313701 0.552423 0.102010
O O11 0.731952 0.864635 0.024850
O O12 0.420618 0.734181 0.729749
O O13 0.964470 0.668353 0.738075
O O14 0.446218 0.234205 0.720172
O O15 0.000000 0.500000 0.500000
O O16 0.500000 0.500000 0.000000
O O17 0.285068 0.252465 0.192707
#
# Coordination Sequence:
#
# PCOD8009056 Si02
#       8
#     2   2   2   2   2   2   2   2
#     4  10  21  38  58  84 114 153 201 247 329 379
#     4  12  24  44  69  98 146 183 227 295 344 409
#     4  10  21  36  58  81 112 154 194 246 321 373
#     4  12  26  45  68 103 136 188 230 280 354 411
#     4  12  25  44  72 106 138 187 238 287 345 409
#     4  10  21  36  53  84 115 148 196 245 300 391
#     4  12  27  45  71 101 138 178 241 284 341 427
#     4  10  23  38  60  85 117 155 200 272 314 383
#
# _framework density 25.188791999999999
#
# number of rings (size 3 to 8) (size 9 to 14) (size 15 to 20)
#    0.000    1.000    0.000    6.750    3.500    1.000 
#    0.000    0.000    0.000    0.000    0.000    0.000 
#    0.000    0.000    0.000    0.000    0.000    0.000 
#
# Total GULP energy -198250.021201 kJ/mol
# GULP energy per Si atom -12390.626325 kJ/mol
# Density = 2.513146 g / cm^3
# Si number density = 25.188792 Si / 1000 Ang^3
#
#
#
# Elastic Constant Matrix: (Units=GPa)
#
#
# Indices 1 2 3 4 5 6 
#
# 1 84.1982 44.7695 -8.3074 16.3442 -6.8408 -10.2472
# 2 44.7695 178.7936 19.7780 -7.1371 -12.7496 -25.1288
# 3 -8.3074 19.7780 84.6934 8.7500 1.1105 -1.4544
# 4 16.3442 -7.1371 8.7500 36.4320 -3.6188 -13.7173
# 5 -6.8408 -12.7496 1.1105 -3.6188 38.4088 -1.7762
# 6 -10.2472 -25.1288 -1.4544 -13.7173 -1.7762 39.2960
#
#
#
# Elastic Compliance Matrix: (Units=1/GPa)
#
#
# Indices 1 2 3 4 5 6 
#
# 1 0.016920 -0.005479 0.003992 -0.010627 -0.000045 -0.002655
# 2 -0.005479 0.008867 -0.003351 0.007962 0.003140 0.007038
# 3 0.003992 -0.003351 0.013679 -0.007074 -0.001608 -0.003138
# 4 -0.010627 0.007962 -0.007074 0.042505 0.005753 0.017156
# 5 -0.000045 0.003140 -0.001608 0.005753 0.027899 0.005206
# 6 -0.002655 0.007038 -0.003138 0.017156 0.005206 0.035364
#
#
# Mechanical properties :
#
#
# Convention : Reuss Voigt Hill
#
# Bulk Modulus (GPa) = 33.56784 51.12948 42.34866
# Shear Modulus (GPa) = 30.33238 42.25701 36.29470
#
# Velocity S-wave (km/s) = 3.47393 4.10031 3.80005
# Velocity P-wave (km/s) = 5.42644 6.53906 6.00856
#
# Compressibility (1/GPa) = 0.02979042
#
# Stress axis : x y z
#
# Youngs Moduli (GPa) = 59.10208 112.78381 73.10260
#
# Poissons Ratio (x) = 0.61793 -0.29183
# Poissons Ratio (y) = 0.32381 0.24495
# Poissons Ratio (z) = -0.23594 0.37792
#
# Static dielectric constant tensor:
#      x y z
#    x 4.755670 -0.173990 0.157830 
#    y -0.173990 5.102930 0.245290 
#    z 0.157830 0.245290 5.282560 
# 
# 
# High freq. dielectric constant tensor:
#      x y z
#    x 2.016060 -0.014960 0.011760 
#    y -0.014960 2.036310 0.005970 
#    z 0.011760 0.005970 2.022390 
# 
# From -- ./inp_files/14521.got.cif
#   From: 2010.06.25/outbox.cif.g09.slc.cpg/sg2_8_cif.got.tgz:14521.got - 2010.06.27 13:26:56.
