data_PCOD8009899
_publ_section_title
;
Structure prediction by ZEFSAII (Michael W. Deem and Ramdas Pophale) SiO2 
 PCOD8009899
Probable space group: P -1
;
_chemical_formula_sum "Si O2"
_cell_formula_units_Z 16
_cell_length_a 8.099167
_cell_length_b 8.535164
_cell_length_c 16.646126
_cell_angle_alpha 102.264622
_cell_angle_beta 67.481857
_cell_angle_gamma 136.906072
_cell_volume 722.088886
_symmetry_space_group_name_H-M "P -1"
_symmetry_group_IT_number 2
_symmetry_cell_setting 'triclinic'
loop_
_space_group_symop_operation_xyz
x,y,z
-x,-y,-z
loop_
_atom_site_type_symbol
_atom_site_label
_atom_site_fract_x
_atom_site_fract_y
_atom_site_fract_z
Si Si1 0.670795 0.149872 0.717384
Si Si2 0.089999 0.393976 0.341859
Si Si3 0.679340 0.742418 0.951468
Si Si4 0.112094 0.995454 0.559130
Si Si5 0.433771 0.778702 0.600727
Si Si6 0.487162 0.511823 0.810451
Si Si7 0.181296 0.345857 0.687713
Si Si8 0.252837 0.057555 0.883376
O O1 0.430754 0.040276 0.806129
O O2 0.745906 0.334448 0.656077
O O3 0.912470 0.266254 0.742574
O O4 0.616226 0.951574 0.658491
O O5 0.793987 0.238256 0.359883
O O6 0.230600 0.379811 0.246793
O O7 0.075446 0.275589 0.412592
O O8 0.552446 0.698287 0.882031
O O9 0.500000 0.500000 0.000000
O O10 0.699217 0.909969 0.024699
O O11 0.954544 0.831945 0.898010
O O12 0.401068 0.118515 0.500736
O O13 0.135856 0.133401 0.645026
O O14 0.000000 0.000000 0.500000
O O15 0.334866 0.535266 0.608927
O O16 0.342986 0.472291 0.752664
O O17 0.307168 0.267327 0.860324
#
# Coordination Sequence:
#
# PCOD8009899 Si02
#       8
#     2   2   2   2   2   2   2   2
#     4  10  22  42  62  91 127 165 207 254 315 368
#     4  10  24  39  63  92 119 163 215 261 309 369
#     4   9  18  35  63  97 124 157 201 250 304 366
#     4  12  24  43  62  88 125 167 214 267 314 364
#     4  11  23  43  61  88 126 168 208 268 311 371
#     4  10  21  37  62  92 123 161 208 254 307 373
#     4  11  25  41  61  91 124 170 211 256 317 369
#     4   9  19  37  65  93 125 159 205 250 302 372
#
# _framework density 22.157935999999999
#
# number of rings (size 3 to 8) (size 9 to 14) (size 15 to 20)
#    0.000    1.750    1.250    2.250    5.250    1.500 
#    0.000    0.625    0.000    7.500    0.000    0.000 
#    0.000    0.000    0.000    0.000    0.000    0.000 
#
# Total GULP energy -198233.437423 kJ/mol
# GULP energy per Si atom -12389.589839 kJ/mol
# Density = 2.210750 g / cm^3
# Si number density = 22.157936 Si / 1000 Ang^3
#
#
#
# Elastic Constant Matrix: (Units=GPa)
#
#
# Indices 1 2 3 4 5 6 
#
# 1 91.3707 40.3400 51.6360 -5.2565 -3.6624 12.2025
# 2 40.3400 76.7396 44.7012 -7.2675 -10.8905 14.8183
# 3 51.6360 44.7012 109.0038 -1.9788 -9.4015 15.6860
# 4 -5.2565 -7.2675 -1.9788 39.6800 16.0015 -3.1400
# 5 -3.6624 -10.8905 -9.4015 16.0015 34.6212 0.2145
# 6 12.2025 14.8183 15.6860 -3.1400 0.2145 28.9097
#
#
#
# Elastic Compliance Matrix: (Units=1/GPa)
#
#
# Indices 1 2 3 4 5 6 
#
# 1 0.016711 -0.005427 -0.005720 0.001793 -0.002315 -0.000956
# 2 -0.005427 0.020293 -0.004560 0.000577 0.004339 -0.005607
# 3 -0.005720 -0.004560 0.014454 -0.002344 0.002990 -0.003367
# 4 0.001793 0.000577 -0.002344 0.031764 -0.014970 0.003781
# 5 -0.002315 0.004339 0.002990 -0.014970 0.037764 -0.004775
# 6 -0.000956 -0.005607 -0.003367 0.003781 -0.004775 0.040141
#
#
# Mechanical properties :
#
#
# Convention : Reuss Voigt Hill
#
# Bulk Modulus (GPa) = 49.88969 61.16315 55.52642
# Shear Modulus (GPa) = 25.09776 30.00464 27.55120
#
# Velocity S-wave (km/s) = 3.36918 3.68384 3.53001
# Velocity P-wave (km/s) = 6.13999 6.76442 6.45976
#
# Compressibility (1/GPa) = 0.02004422
#
# Stress axis : x y z
#
# Youngs Moduli (GPa) = 59.84096 49.27867 69.18732
#
# Poissons Ratio (x) = 0.26741 0.39577
# Poissons Ratio (y) = 0.32473 0.31547
# Poissons Ratio (z) = 0.34231 0.22470
#
# Static dielectric constant tensor:
#      x y z
#    x 3.839350 0.193890 -0.091800 
#    y 0.193890 4.098170 -0.081770 
#    z -0.091800 -0.081770 4.318170 
# 
# 
# High freq. dielectric constant tensor:
#      x y z
#    x 1.851300 0.022240 -0.012260 
#    y 0.022240 1.876350 -0.012050 
#    z -0.012260 -0.012050 1.873070 
# 
# From -- ./inp_files/122637.got.cif
#   From: 2010.06.25/outbox.cif.g09.slc.cpg/sg2_62_cif.got.tgz:122637.got - 2010.06.27 13:26:56.
