data_PCOD8009973
_publ_section_title
;
Structure prediction by ZEFSAII (Michael W. Deem and Ramdas Pophale) SiO2 
 PCOD8009973
Probable space group: P -1
;
_chemical_formula_sum "Si O2"
_cell_formula_units_Z 16
_cell_length_a 8.731921
_cell_length_b 12.252511
_cell_length_c 15.147219
_cell_angle_alpha 33.166661
_cell_angle_beta 69.011758
_cell_angle_gamma 84.454335
_cell_volume 759.444619
_symmetry_space_group_name_H-M "P -1"
_symmetry_group_IT_number 2
_symmetry_cell_setting 'triclinic'
loop_
_space_group_symop_operation_xyz
x,y,z
-x,-y,-z
loop_
_atom_site_type_symbol
_atom_site_label
_atom_site_fract_x
_atom_site_fract_y
_atom_site_fract_z
Si Si1 0.476033 0.183429 0.315751
Si Si2 0.627024 0.081903 0.657869
Si Si3 0.269740 0.084592 0.683428
Si Si4 0.591604 0.898021 0.977899
Si Si5 0.317069 0.427499 0.303605
Si Si6 0.010079 0.542181 0.724692
Si Si7 0.947939 0.904856 0.981102
Si Si8 0.843292 0.392071 0.039101
O O1 0.348526 0.292963 0.306272
O O2 0.664059 0.391094 0.121647
O O3 0.500000 0.000000 0.500000
O O4 0.403401 0.096910 0.291233
O O5 0.440321 0.109547 0.691390
O O6 0.789486 0.286361 0.445309
O O7 0.675165 0.038894 0.776915
O O8 0.343341 0.306075 0.465163
O O9 0.202723 0.864737 0.788635
O O10 0.098182 0.084092 0.769964
O O11 0.452845 0.675543 0.115864
O O12 0.749989 0.864029 0.019407
O O13 0.500000 0.000000 0.000000
O O14 0.117468 0.422749 0.346500
O O15 0.020607 0.312792 0.877489
O O16 0.905799 0.542016 0.837598
O O17 0.000000 0.000000 0.000000
O O18 0.000000 0.500000 0.000000
#
# Coordination Sequence:
#
# PCOD8009973 Si02
#       8
#     2   2   2   2   2   2   2   2
#     4  11  22  41  69 100 141 183 221 279 334 405
#     4  11  23  45  68  99 142 175 233 274 342 400
#     4  10  22  40  67  98 131 177 217 279 330 403
#     4  12  27  46  72 101 133 176 231 286 341 404
#     4  12  24  43  68 101 139 178 229 275 338 402
#     4  11  25  41  64  98 134 179 225 275 332 402
#     4  11  24  46  70  95 133 174 225 285 342 398
#     4  10  21  37  63  92 136 174 225 268 333 395
#
# _framework density 21.068026
#
# number of rings (size 3 to 8) (size 9 to 14) (size 15 to 20)
#    0.000    1.000    2.500    6.000    3.500    3.500 
#    0.000    5.000    0.000    0.000    0.000    0.000 
#    0.000    0.000    0.000    0.000    0.000    0.000 
#
# Total GULP energy -198214.884173 kJ/mol
# GULP energy per Si atom -12388.430261 kJ/mol
# Density = 2.102007 g / cm^3
# Si number density = 21.068026 Si / 1000 Ang^3
#
#
#
# Elastic Constant Matrix: (Units=GPa)
#
#
# Indices 1 2 3 4 5 6 
#
# 1 123.3717 38.3321 11.9686 -3.9521 -6.4456 -3.9445
# 2 38.3321 90.3592 26.3401 16.9254 6.1528 -4.1574
# 3 11.9686 26.3401 91.6865 9.6368 -12.7959 -1.6865
# 4 -3.9521 16.9254 9.6368 17.4445 -3.6067 0.4771
# 5 -6.4456 6.1528 -12.7959 -3.6067 45.1729 3.2262
# 6 -3.9445 -4.1574 -1.6865 0.4771 3.2262 37.8628
#
#
#
# Elastic Compliance Matrix: (Units=1/GPa)
#
#
# Indices 1 2 3 4 5 6 
#
# 1 0.010565 -0.006410 -0.000082 0.009299 0.003099 0.000012
# 2 -0.006410 0.018884 -0.003385 -0.019226 -0.006125 0.002019
# 3 -0.000082 -0.003385 0.012735 -0.002975 0.003826 -0.000102
# 4 0.009299 -0.019226 -0.002975 0.081854 0.009863 -0.003147
# 5 0.003099 -0.006125 0.003826 0.009863 0.025462 -0.002473
# 6 0.000012 0.002019 -0.000102 -0.003147 -0.002473 0.026880
#
#
# Mechanical properties :
#
#
# Convention : Reuss Voigt Hill
#
# Bulk Modulus (GPa) = 44.58533 50.96656 47.77595
# Shear Modulus (GPa) = 24.55640 35.34783 29.95212
#
# Velocity S-wave (km/s) = 3.41776 4.10053 3.77462
# Velocity P-wave (km/s) = 6.06492 6.83104 6.45935
#
# Compressibility (1/GPa) = 0.02242890
#
# Stress axis : x y z
#
# Youngs Moduli (GPa) = 94.64773 52.95357 78.52449
#
# Poissons Ratio (x) = 0.33945 0.00646
# Poissons Ratio (y) = 0.60673 0.26583
# Poissons Ratio (z) = 0.00779 0.17926
#
# Static dielectric constant tensor:
#      x y z
#    x 3.987740 -0.199200 -0.144340 
#    y -0.199200 3.895670 0.268400 
#    z -0.144340 0.268400 4.167040 
# 
# 
# High freq. dielectric constant tensor:
#      x y z
#    x 1.838020 -0.004230 -0.009640 
#    y -0.004230 1.820490 0.014660 
#    z -0.009640 0.014660 1.833700 
# 
# From -- ./inp_files/499660.got.cif
#   From: 2010.06.25/outbox.cif.g09.slc.cpg/sg2_250_cif.got.tgz:499660.got - 2010.06.27 13:26:56.
