data_PCOD8009316
_publ_section_title
;
Structure prediction by ZEFSAII (Michael W. Deem and Ramdas Pophale) SiO2 
 PCOD8009316
Probable space group: P -1
;
_chemical_formula_sum "Si O2"
_cell_formula_units_Z 16
_cell_length_a 11.518650
_cell_length_b 10.956673
_cell_length_c 15.697160
_cell_angle_alpha 55.519366
_cell_angle_beta 37.744082
_cell_angle_gamma 82.226294
_cell_volume 785.010769
_symmetry_space_group_name_H-M "P -1"
_symmetry_group_IT_number 2
_symmetry_cell_setting 'triclinic'
loop_
_space_group_symop_operation_xyz
x,y,z
-x,-y,-z
loop_
_atom_site_type_symbol
_atom_site_label
_atom_site_fract_x
_atom_site_fract_y
_atom_site_fract_z
Si Si1 0.192467 0.763754 0.698004
Si Si2 0.887541 0.543594 0.441302
Si Si3 0.601775 0.191349 0.256951
Si Si4 0.001546 0.535074 0.203008
Si Si5 0.844350 0.832780 0.824998
Si Si6 0.782125 0.648716 0.768840
Si Si7 0.622059 0.220706 0.843093
Si Si8 0.774999 0.745271 0.548718
O O1 0.246514 0.744066 0.770228
O O2 0.176733 0.608146 0.711332
O O3 0.932916 0.722570 0.862282
O O4 0.403180 0.967004 0.455179
O O5 0.751425 0.326382 0.636638
O O6 0.758210 0.616252 0.535755
O O7 0.859588 0.558595 0.349476
O O8 0.173385 0.676434 0.243819
O O9 0.479723 0.293808 0.281711
O O10 0.783892 0.264185 0.042807
O O11 0.098937 0.446478 0.236626
O O12 0.874797 0.824615 0.708556
O O13 0.568504 0.740352 0.041843
O O14 0.012167 0.040509 0.684443
O O15 0.854917 0.714428 0.603962
O O16 0.500000 0.500000 0.000000
O O17 0.500000 0.000000 0.000000
#
# Coordination Sequence:
#
# PCOD8009316 Si02
#       8
#     2   2   2   2   2   2   2   2
#     4   9  22  41  63  90 110 151 206 253 284 348
#     4  11  24  38  56  87 128 155 197 232 296 363
#     4  10  21  41  67  83 118 152 200 249 298 334
#     4  11  22  37  60  88 116 157 194 246 293 353
#     4  10  21  36  61  87 114 155 203 244 295 339
#     4  11  19  33  55  87 120 146 195 244 292 348
#     4  11  22  39  57  83 126 169 190 234 295 362
#     4  11  21  38  57  90 121 159 190 240 295 361
#
# _framework density 20.381885
#
# number of rings (size 3 to 8) (size 9 to 14) (size 15 to 20)
#    0.000    1.500    2.500    3.750    1.750    1.000 
#    0.000    0.625    0.000    2.250    0.000    0.000 
#    0.000    0.000    0.000    0.000    0.000    0.000 
#
# Total GULP energy -198350.277127 kJ/mol
# GULP energy per Si atom -12396.892320 kJ/mol
# Density = 2.033550 g / cm^3
# Si number density = 20.381885 Si / 1000 Ang^3
#
#
#
# Elastic Constant Matrix: (Units=GPa)
#
#
# Indices 1 2 3 4 5 6 
#
# 1 73.5521 24.6027 25.3262 8.9779 12.9367 3.9207
# 2 24.6027 88.0934 43.5181 4.2194 9.7976 16.2368
# 3 25.3262 43.5181 95.8395 0.8089 17.6090 11.7602
# 4 8.9779 4.2194 0.8089 29.6651 6.0487 3.7144
# 5 12.9367 9.7976 17.6090 6.0487 30.1368 2.7508
# 6 3.9207 16.2368 11.7602 3.7144 2.7508 16.5030
#
#
#
# Elastic Compliance Matrix: (Units=1/GPa)
#
#
# Indices 1 2 3 4 5 6 
#
# 1 0.016591 -0.003261 -0.002438 -0.003983 -0.004073 0.002579
# 2 -0.003261 0.017212 -0.005456 0.000217 0.000074 -0.012333
# 3 -0.002438 -0.005456 0.015237 0.002942 -0.006260 -0.004529
# 4 -0.003983 0.000217 0.002942 0.037265 -0.006772 -0.008622
# 5 -0.004073 0.000074 -0.006260 -0.006772 0.039902 0.000228
# 6 0.002579 -0.012333 -0.004529 -0.008622 0.000228 0.077247
#
#
# Mechanical properties :
#
#
# Convention : Reuss Voigt Hill
#
# Bulk Modulus (GPa) = 37.41080 49.37546 43.39313
# Shear Modulus (GPa) = 21.30623 26.19683 23.75153
#
# Velocity S-wave (km/s) = 3.23670 3.58900 3.41739
# Velocity P-wave (km/s) = 5.68885 6.43835 6.07517
#
# Compressibility (1/GPa) = 0.02673025
#
# Stress axis : x y z
#
# Youngs Moduli (GPa) = 60.27291 58.09905 65.63013
#
# Poissons Ratio (x) = 0.18944 0.16002
# Poissons Ratio (y) = 0.19653 0.35808
# Poissons Ratio (z) = 0.14696 0.31699
#
# Static dielectric constant tensor:
#      x y z
#    x 3.770930 0.099460 0.045040 
#    y 0.099460 3.742410 -0.038600 
#    z 0.045040 -0.038600 3.726260 
# 
# 
# High freq. dielectric constant tensor:
#      x y z
#    x 1.780720 0.007100 -0.001680 
#    y 0.007100 1.792750 -0.008880 
#    z -0.001680 -0.008880 1.801270 
# 
# From -- ./inp_files/256035.got.cif
#   From: 2010.06.25/outbox.cif.g09.slc.cpg/sg2_129_cif.got.tgz:256035.got - 2010.06.27 13:26:56.
