data_PCOD8009642
_publ_section_title
;
Structure prediction by ZEFSAII (Michael W. Deem and Ramdas Pophale) SiO2 
 PCOD8009642
Probable space group: P -1
;
_chemical_formula_sum "Si O2"
_cell_formula_units_Z 14
_cell_length_a 19.595857
_cell_length_b 11.545052
_cell_length_c 4.892472
_cell_angle_alpha 68.264770
_cell_angle_beta 110.398046
_cell_angle_gamma 134.936405
_cell_volume 721.428991
_symmetry_space_group_name_H-M "P -1"
_symmetry_group_IT_number 2
_symmetry_cell_setting 'triclinic'
loop_
_space_group_symop_operation_xyz
x,y,z
-x,-y,-z
loop_
_atom_site_type_symbol
_atom_site_label
_atom_site_fract_x
_atom_site_fract_y
_atom_site_fract_z
Si Si1 0.894469 0.939342 0.899294
Si Si2 0.799927 0.325675 0.256852
Si Si3 0.395173 0.824007 0.048028
Si Si4 0.937450 0.266851 0.658886
Si Si5 0.174602 0.270445 0.517219
Si Si6 0.310745 0.615953 0.629766
Si Si7 0.066161 0.397257 0.230966
O O1 0.821832 0.780330 0.737687
O O2 0.898773 0.086803 0.680957
O O3 0.849962 0.873093 0.195721
O O4 0.000000 0.000000 0.000000
O O5 0.847977 0.257891 0.504439
O O6 0.791087 0.423555 0.400102
O O7 0.687533 0.167314 0.156201
O O8 0.846957 0.431592 0.950251
O O9 0.381498 0.767659 0.388564
O O10 0.374600 0.680918 0.941498
O O11 0.500000 0.000000 0.000000
O O12 0.029289 0.411482 0.462397
O O13 0.971503 0.305682 0.984915
O O14 0.277681 0.447656 0.598997
O O15 0.089747 0.278186 0.400300
#
# Coordination Sequence:
#
# PCOD8009642 Si02
#       7
#     2   2   2   2   2   2   2
#     4  12  22  35  52  76 109 154 203 229 257 302
#     4  10  24  36  57  82 119 142 187 218 294 336
#     4  10  21  37  61  88 110 133 175 231 297 343
#     4  12  25  34  52  81 117 159 186 228 262 324
#     4  12  20  38  54  77 108 153 192 233 258 315
#     4  10  21  37  59  82 111 137 179 232 282 335
#     4  12  21  35  54  77 116 153 193 221 270 318
#
# _framework density 19.405930999999999
#
# number of rings (size 3 to 8) (size 9 to 14) (size 15 to 20)
#    0.857    0.000    4.286    5.143    2.000    0.000 
#    0.000    0.000    0.000    0.000    0.000    6.000 
#    0.000    0.000    0.000    0.000    0.000    0.000 
#
# Total GULP energy -173514.626306 kJ/mol
# GULP energy per Si atom -12393.901879 kJ/mol
# Density = 1.936176 g / cm^3
# Si number density = 19.405931 Si / 1000 Ang^3
#
#
#
# Elastic Constant Matrix: (Units=GPa)
#
#
# Indices 1 2 3 4 5 6 
#
# 1 44.1774 26.8749 21.2402 -8.8414 1.1802 5.4127
# 2 26.8749 93.8164 18.3577 -4.5737 5.0699 7.4749
# 3 21.2402 18.3577 93.1942 -4.2562 -12.0521 -0.6027
# 4 -8.8414 -4.5737 -4.2562 30.7870 -5.0656 -8.1062
# 5 1.1802 5.0699 -12.0521 -5.0656 27.4316 -1.0571
# 6 5.4127 7.4749 -0.6027 -8.1062 -1.0571 26.0378
#
#
#
# Elastic Compliance Matrix: (Units=1/GPa)
#
#
# Indices 1 2 3 4 5 6 
#
# 1 0.031395 -0.007296 -0.005638 0.006209 -0.001436 -0.002688
# 2 -0.007296 0.013373 -0.001483 -0.001633 -0.003226 -0.002996
# 3 -0.005638 -0.001483 0.013289 0.001842 0.006801 0.002755
# 4 0.006209 -0.001633 0.001842 0.038725 0.008443 0.011620
# 5 -0.001436 -0.003226 0.006801 0.008443 0.041880 0.005711
# 6 -0.002688 -0.002996 0.002755 0.011620 0.005711 0.043738
#
#
# Mechanical properties :
#
#
# Convention : Reuss Voigt Hill
#
# Bulk Modulus (GPa) = 34.21819 40.45928 37.33873
# Shear Modulus (GPa) = 22.62716 27.83228 25.22972
#
# Velocity S-wave (km/s) = 3.41837 3.79121 3.60961
# Velocity P-wave (km/s) = 5.76641 6.32918 6.05434
#
# Compressibility (1/GPa) = 0.02922423
#
# Stress axis : x y z
#
# Youngs Moduli (GPa) = 31.85183 74.77947 75.25157
#
# Poissons Ratio (x) = 0.54559 0.42426
# Poissons Ratio (y) = 0.23239 0.11156
# Poissons Ratio (z) = 0.17957 0.11086
#
# Static dielectric constant tensor:
#      x y z
#    x 3.199620 -0.156700 -0.205740 
#    y -0.156700 3.474320 0.162480 
#    z -0.205740 0.162480 3.853000 
# 
# 
# High freq. dielectric constant tensor:
#      x y z
#    x 1.702090 -0.011780 -0.025190 
#    y -0.011780 1.750810 0.015200 
#    z -0.025190 0.015200 1.777320 
# 
# From -- ./inp_files/118074.got.cif
#   From: 2010.06.25/outbox.cif.g09.slc.cpg/sg2_60_cif.got.tgz:118074.got - 2010.06.27 13:26:56.
