data_PCOD8009746
_publ_section_title
;
Structure prediction by ZEFSAII (Michael W. Deem and Ramdas Pophale) SiO2 
 PCOD8009746
Probable space group: P -1
;
_chemical_formula_sum "Si O2"
_cell_formula_units_Z 16
_cell_length_a 8.513599
_cell_length_b 7.776882
_cell_length_c 19.872444
_cell_angle_alpha 110.448552
_cell_angle_beta 47.540624
_cell_angle_gamma 125.388923
_cell_volume 789.455773
_symmetry_space_group_name_H-M "P -1"
_symmetry_group_IT_number 2
_symmetry_cell_setting 'triclinic'
loop_
_space_group_symop_operation_xyz
x,y,z
-x,-y,-z
loop_
_atom_site_type_symbol
_atom_site_label
_atom_site_fract_x
_atom_site_fract_y
_atom_site_fract_z
Si Si1 0.591460 0.774135 0.979718
Si Si2 0.800902 0.456599 0.155293
Si Si3 0.016060 0.035503 0.579129
Si Si4 0.948668 0.440370 0.654273
Si Si5 0.534600 0.342980 0.514391
Si Si6 0.812087 0.503920 0.847554
Si Si7 0.779170 0.242835 0.012905
Si Si8 0.660425 0.551896 0.652385
O O1 0.801336 0.713036 0.898720
O O2 0.729680 0.021456 0.970841
O O3 0.448894 0.691791 0.080732
O O4 0.392979 0.681601 0.964512
O O5 0.574045 0.483978 0.243649
O O6 0.960699 0.494954 0.180717
O O7 0.941485 0.610689 0.072634
O O8 0.730182 0.235542 0.107169
O O9 0.939036 0.215414 0.638498
O O10 0.288973 0.113856 0.542927
O O11 0.836049 0.806469 0.631871
O O12 0.000000 0.000000 0.500000
O O13 0.851868 0.497787 0.756437
O O14 0.778040 0.429917 0.640455
O O15 0.215774 0.639117 0.584413
O O16 0.500000 0.500000 0.500000
O O17 0.573961 0.429871 0.590407
#
# Coordination Sequence:
#
# PCOD8009746 Si02
#       8
#     2   2   2   2   2   2   2   2
#     4   9  19  38  61  85 120 163 207 253 315 376
#     4  10  21  37  60  89 126 161 204 263 313 367
#     4  11  24  43  70  93 125 173 207 258 329 371
#     4  11  24  43  64  95 130 164 214 263 309 383
#     4  10  21  43  66  92 130 161 209 265 306 377
#     4  10  21  38  60  89 125 163 204 261 313 366
#     4   9  19  38  60  87 120 161 208 256 312 375
#     4  12  24  44  65  95 132 168 210 264 315 375
#
# _framework density 20.267125
#
# number of rings (size 3 to 8) (size 9 to 14) (size 15 to 20)
#    0.000    1.750    2.500    2.625    1.750    2.000 
#    9.000    0.000    0.000    0.000    0.000    0.000 
#    0.000    0.000    0.000    0.000    0.000    0.000 
#
# Total GULP energy -198236.674874 kJ/mol
# GULP energy per Si atom -12389.792180 kJ/mol
# Density = 2.022100 g / cm^3
# Si number density = 20.267125 Si / 1000 Ang^3
#
#
#
# Elastic Constant Matrix: (Units=GPa)
#
#
# Indices 1 2 3 4 5 6 
#
# 1 99.2969 30.5154 47.5344 0.3378 5.8193 12.5809
# 2 30.5154 67.3090 29.8523 0.9242 -2.6772 11.7664
# 3 47.5344 29.8523 145.1797 -2.3752 4.3508 14.6660
# 4 0.3378 0.9242 -2.3752 12.6296 2.3042 -0.0731
# 5 5.8193 -2.6772 4.3508 2.3042 38.0288 4.8680
# 6 12.5809 11.7664 14.6660 -0.0731 4.8680 32.8354
#
#
#
# Elastic Compliance Matrix: (Units=1/GPa)
#
#
# Indices 1 2 3 4 5 6 
#
# 1 0.013281 -0.004332 -0.003226 -0.000343 -0.001712 -0.001843
# 2 -0.004332 0.018689 -0.002090 -0.002206 0.002933 -0.004544
# 3 -0.003226 -0.002090 0.008601 0.001943 -0.000528 -0.001774
# 4 -0.000343 -0.002206 0.001943 0.080696 -0.005346 0.001027
# 5 -0.001712 0.002933 -0.000528 -0.005346 0.027696 -0.004277
# 6 -0.001843 -0.004544 -0.001774 0.001027 -0.004277 0.034218
#
#
# Mechanical properties :
#
#
# Convention : Reuss Voigt Hill
#
# Bulk Modulus (GPa) = 47.00089 58.62108 52.81099
# Shear Modulus (GPa) = 23.85868 30.29100 27.07484
#
# Velocity S-wave (km/s) = 3.43477 3.87018 3.65896
# Velocity P-wave (km/s) = 6.24270 6.99701 6.63059
#
# Compressibility (1/GPa) = 0.02127619
#
# Stress axis : x y z
#
# Youngs Moduli (GPa) = 75.29403 53.50840 116.26887
#
# Poissons Ratio (x) = 0.23178 0.37508
# Poissons Ratio (y) = 0.32615 0.24295
# Poissons Ratio (z) = 0.24290 0.11181
#
# Static dielectric constant tensor:
#      x y z
#    x 4.566730 0.672570 -0.597280 
#    y 0.672570 4.210290 -0.535690 
#    z -0.597280 -0.535690 4.087930 
# 
# 
# High freq. dielectric constant tensor:
#      x y z
#    x 1.799940 0.009530 0.001010 
#    y 0.009530 1.780900 0.001140 
#    z 0.001010 0.001140 1.799300 
# 
# From -- ./inp_files/297550.got.cif
#   From: 2010.06.25/outbox.cif.g09.slc.cpg/sg2_149_cif.got.tgz:297550.got - 2010.06.27 13:26:56.
