data_PCOD8009885
_publ_section_title
;
Structure prediction by ZEFSAII (Michael W. Deem and Ramdas Pophale) SiO2 
 PCOD8009885
Probable space group: P -1
;
_chemical_formula_sum "Si O2"
_cell_formula_units_Z 16
_cell_length_a 12.343933
_cell_length_b 15.643122
_cell_length_c 9.420495
_cell_angle_alpha 97.277864
_cell_angle_beta 88.266560
_cell_angle_gamma 26.356845
_cell_volume 757.203598
_symmetry_space_group_name_H-M "P -1"
_symmetry_group_IT_number 2
_symmetry_cell_setting 'triclinic'
loop_
_space_group_symop_operation_xyz
x,y,z
-x,-y,-z
loop_
_atom_site_type_symbol
_atom_site_label
_atom_site_fract_x
_atom_site_fract_y
_atom_site_fract_z
Si Si1 0.129232 0.098891 0.497131
Si Si2 0.295222 0.955002 0.161283
Si Si3 0.206368 0.294743 0.869360
Si Si4 0.903239 0.679257 0.435538
Si Si5 0.422130 0.228966 0.391384
Si Si6 0.269268 0.788449 0.022841
Si Si7 0.807368 0.884370 0.084368
Si Si8 0.755701 0.350685 0.804072
O O1 0.187847 0.157779 0.517472
O O2 0.861964 0.267048 0.621646
O O3 0.106956 0.082846 0.332561
O O4 0.376444 0.879439 0.522777
O O5 0.535526 0.836606 0.179151
O O6 0.381929 0.797592 0.075459
O O7 0.147840 0.111493 0.074366
O O8 0.104858 0.349772 0.728827
O O9 0.253729 0.172973 0.929867
O O10 0.000000 0.500000 0.000000
O O11 0.709407 0.766560 0.561142
O O12 0.199069 0.460783 0.431193
O O13 0.569457 0.107568 0.211344
O O14 0.468968 0.598587 0.866364
O O15 0.233732 0.751989 0.151338
O O16 0.000000 0.000000 0.000000
O O17 0.066850 0.711912 0.126801
#
# Coordination Sequence:
#
# PCOD8009885 Si02
#       8
#     2   2   2   2   2   2   2   2
#     4  11  23  42  64  97 133 170 214 277 318 387
#     4  12  25  40  67  99 134 172 218 277 322 375
#     4  12  23  37  62 100 140 172 220 268 315 390
#     4  11  21  38  61  90 138 182 212 251 331 385
#     4  10  21  37  62  90 129 184 215 250 314 399
#     4  11  24  47  72  94 125 169 222 271 331 390
#     4  11  22  41  65  96 131 171 221 260 323 392
#     4  10  23  44  74  92 122 175 219 266 330 397
#
# _framework density 21.130379999999999
#
# number of rings (size 3 to 8) (size 9 to 14) (size 15 to 20)
#    0.000    1.000    5.000    3.000    1.750    2.500 
#    2.250    0.625    0.000    0.000    0.000    0.000 
#    0.000    0.000    0.000    0.000    0.000    0.000 
#
# Total GULP energy -198458.932250 kJ/mol
# GULP energy per Si atom -12403.683266 kJ/mol
# Density = 2.108229 g / cm^3
# Si number density = 21.130380 Si / 1000 Ang^3
#
#
#
# Elastic Constant Matrix: (Units=GPa)
#
#
# Indices 1 2 3 4 5 6 
#
# 1 85.6747 22.2602 20.6674 -1.2791 -8.0913 16.2475
# 2 22.2602 110.1543 49.0107 4.7038 -9.2282 -0.9042
# 3 20.6674 49.0107 142.9981 -3.9480 -16.4810 4.9876
# 4 -1.2791 4.7038 -3.9480 25.3802 -2.4349 -6.0793
# 5 -8.0913 -9.2282 -16.4810 -2.4349 28.7891 6.1916
# 6 16.2475 -0.9042 4.9876 -6.0793 6.1916 24.5224
#
#
#
# Elastic Compliance Matrix: (Units=1/GPa)
#
#
# Indices 1 2 3 4 5 6 
#
# 1 0.015154 -0.002503 -0.000290 -0.001092 0.005734 -0.011792
# 2 -0.002503 0.011333 -0.003641 -0.002245 0.000178 0.002215
# 3 -0.000290 -0.003641 0.008946 0.001905 0.004559 -0.002440
# 4 -0.001092 -0.002245 0.001905 0.042705 0.001421 0.010481
# 5 0.005734 0.000178 0.004559 0.001421 0.042375 -0.015067
# 6 -0.011792 0.002215 -0.002440 0.010481 -0.015067 0.055572
#
#
# Mechanical properties :
#
#
# Convention : Reuss Voigt Hill
#
# Bulk Modulus (GPa) = 44.31785 58.07818 51.19801
# Shear Modulus (GPa) = 25.44846 32.19759 28.82303
#
# Velocity S-wave (km/s) = 3.47415 3.90777 3.69732
# Velocity P-wave (km/s) = 6.09196 6.92143 6.51990
#
# Compressibility (1/GPa) = 0.02256427
#
# Stress axis : x y z
#
# Youngs Moduli (GPa) = 65.98939 88.23749 111.78044
#
# Poissons Ratio (x) = 0.22085 0.03245
# Poissons Ratio (y) = 0.16517 0.40701
# Poissons Ratio (z) = 0.01916 0.32129
#
# Static dielectric constant tensor:
#      x y z
#    x 3.864620 -0.005210 -0.239840 
#    y -0.005210 4.023250 -0.065540 
#    z -0.239840 -0.065540 3.919400 
# 
# 
# High freq. dielectric constant tensor:
#      x y z
#    x 1.818830 0.005160 -0.018980 
#    y 0.005160 1.830200 0.003060 
#    z -0.018980 0.003060 1.829480 
# 
# From -- ./inp_files/246002.got.cif
#   From: 2010.06.25/outbox.cif.g09.slc.cpg/sg2_124_cif.got.tgz:246002.got - 2010.06.27 13:26:56.
