data_PCOD8009377
_publ_section_title
;
Structure prediction by ZEFSAII (Michael W. Deem and Ramdas Pophale) SiO2 
 PCOD8009377
Probable space group: P -1
;
_chemical_formula_sum "Si O2"
_cell_formula_units_Z 14
_cell_length_a 10.805193
_cell_length_b 11.762701
_cell_length_c 11.662174
_cell_angle_alpha 89.399929
_cell_angle_beta 58.743833
_cell_angle_gamma 42.793248
_cell_volume 663.155963
_symmetry_space_group_name_H-M "P -1"
_symmetry_group_IT_number 2
_symmetry_cell_setting 'triclinic'
loop_
_space_group_symop_operation_xyz
x,y,z
-x,-y,-z
loop_
_atom_site_type_symbol
_atom_site_label
_atom_site_fract_x
_atom_site_fract_y
_atom_site_fract_z
Si Si1 0.324905 0.105735 0.275784
Si Si2 0.219655 0.786849 0.234763
Si Si3 0.276589 0.228212 0.543140
Si Si4 0.092781 0.796339 0.538414
Si Si5 0.833070 0.397824 0.881889
Si Si6 0.954331 0.661342 0.989222
Si Si7 0.846147 0.450410 0.346516
O O1 0.282250 0.213363 0.405021
O O2 0.199116 0.064294 0.363882
O O3 0.153884 0.273771 0.250022
O O4 0.643228 0.885015 0.093164
O O5 0.269950 0.706426 0.340879
O O6 0.116596 0.758582 0.198042
O O7 0.508644 0.643368 0.049890
O O8 0.981998 0.042325 0.351988
O O9 0.347949 0.311648 0.536173
O O10 0.971212 0.401336 0.735571
O O11 0.500000 0.000000 0.500000
O O12 0.262836 0.592285 0.538253
O O13 0.983077 0.298927 0.934230
O O14 0.149482 0.569910 0.791954
O O15 0.000000 0.500000 0.000000
#
# Coordination Sequence:
#
# PCOD8009377 Si02
#       7
#     2   2   2   2   2   2   2
#     4  10  21  36  62  91 122 157 198 257 313 358
#     4  10  21  41  62  88 122 173 210 238 293 379
#     4  12  21  39  63  97 122 154 201 263 325 361
#     4   9  21  39  64  86 118 165 210 245 293 367
#     4  11  22  36  63  88 123 161 206 248 300 368
#     4  12  21  37  59  97 125 155 199 263 318 360
#     4  10  23  38  62  93 125 156 202 259 319 361
#
# _framework density 21.111170000000001
#
# number of rings (size 3 to 8) (size 9 to 14) (size 15 to 20)
#    0.857    0.571    4.286    1.714    0.000    0.000 
#    0.000    2.857    0.000    0.000    0.000    0.000 
#    0.000    0.000    0.000    0.000    0.000    0.000 
#
# Total GULP energy -173535.529418 kJ/mol
# GULP energy per Si atom -12395.394958 kJ/mol
# Density = 2.106312 g / cm^3
# Si number density = 21.111170 Si / 1000 Ang^3
#
#
#
# Elastic Constant Matrix: (Units=GPa)
#
#
# Indices 1 2 3 4 5 6 
#
# 1 72.3232 20.7269 29.7117 2.9181 24.7269 6.9898
# 2 20.7269 110.2220 30.9925 -3.4608 14.9309 20.8186
# 3 29.7117 30.9925 90.1522 -10.5089 26.8848 16.2018
# 4 2.9181 -3.4608 -10.5089 32.1155 -0.4098 0.7103
# 5 24.7269 14.9309 26.8848 -0.4098 37.5937 -1.0197
# 6 6.9898 20.8186 16.2018 0.7103 -1.0197 35.7253
#
#
#
# Elastic Compliance Matrix: (Units=1/GPa)
#
#
# Indices 1 2 3 4 5 6 
#
# 1 0.019108 -0.001122 -0.002850 -0.002875 -0.010171 -0.002026
# 2 -0.001122 0.011193 -0.001523 0.000901 -0.002763 -0.005709
# 3 -0.002850 -0.001523 0.017508 0.005847 -0.010165 -0.006902
# 4 -0.002875 0.000901 0.005847 0.033453 -0.002374 -0.003347
# 5 -0.010171 -0.002763 -0.010165 -0.002374 0.041888 0.009453
# 6 -0.002026 -0.005709 -0.006902 -0.003347 0.009453 0.035181
#
#
# Mechanical properties :
#
#
# Convention : Reuss Voigt Hill
#
# Bulk Modulus (GPa) = 27.15912 48.39550 37.77731
# Shear Modulus (GPa) = 27.53405 33.83798 30.68601
#
# Velocity S-wave (km/s) = 3.61535 4.00790 3.81667
# Velocity P-wave (km/s) = 5.50639 6.66270 6.11195
#
# Compressibility (1/GPa) = 0.03682004
#
# Stress axis : x y z
#
# Youngs Moduli (GPa) = 52.33349 89.34366 57.11534
#
# Poissons Ratio (x) = 0.10023 0.16277
# Poissons Ratio (y) = 0.05871 0.08699
# Poissons Ratio (z) = 0.14914 0.13607
#
# Static dielectric constant tensor:
#      x y z
#    x 3.831400 0.074280 0.141800 
#    y 0.074280 3.609400 -0.096760 
#    z 0.141800 -0.096760 3.827460 
# 
# 
# High freq. dielectric constant tensor:
#      x y z
#    x 1.824230 0.004210 0.019140 
#    y 0.004210 1.806300 -0.006100 
#    z 0.019140 -0.006100 1.831650 
# 
# From -- ./inp_files/390979.got.cif
#   From: 2010.06.25/outbox.cif.g09.slc.cpg/sg2_196_cif.got.tgz:390979.got - 2010.06.27 13:26:56.
