data_PCOD8009100
_publ_section_title
;
Structure prediction by ZEFSAII (Michael W. Deem and Ramdas Pophale) SiO2 
 PCOD8009100
Probable space group: P -1
;
_chemical_formula_sum "Si O2"
_cell_formula_units_Z 16
_cell_length_a 27.153008
_cell_length_b 11.014672
_cell_length_c 6.385613
_cell_angle_alpha 140.369190
_cell_angle_beta 40.648577
_cell_angle_gamma 149.317071
_cell_volume 593.736775
_symmetry_space_group_name_H-M "P -1"
_symmetry_group_IT_number 2
_symmetry_cell_setting 'triclinic'
loop_
_space_group_symop_operation_xyz
x,y,z
-x,-y,-z
loop_
_atom_site_type_symbol
_atom_site_label
_atom_site_fract_x
_atom_site_fract_y
_atom_site_fract_z
Si Si1 0.520196 0.229614 0.353708
Si Si2 0.963958 0.568232 0.896500
Si Si3 0.174864 0.044625 0.899008
Si Si4 0.643543 0.034522 0.164402
Si Si5 0.731851 0.464073 0.913824
Si Si6 0.345432 0.057720 0.472512
Si Si7 0.194897 0.403480 0.696383
Si Si8 0.198252 0.987143 0.255975
O O1 0.641092 0.462810 0.273163
O O2 0.457633 0.292333 0.514675
O O3 0.473224 0.137600 0.617011
O O4 0.500000 0.000000 0.000000
O O5 0.888770 0.308256 0.927995
O O6 0.000000 0.500000 0.500000
O O7 0.062768 0.803526 0.019150
O O8 0.907805 0.665878 0.133769
O O9 0.183758 0.018889 0.588027
O O10 0.201236 0.317966 0.195206
O O11 0.258037 0.068128 0.799154
O O12 0.706169 0.336960 0.387205
O O13 0.694051 0.944046 0.016342
O O14 0.643096 0.977503 0.850137
O O15 0.800871 0.545676 0.001302
O O16 0.689186 0.189811 0.610416
O O17 0.190156 0.162709 0.364385
#
# Coordination Sequence:
#
# PCOD8009100 Si02
#       8
#     2   2   2   2   2   2   2   2
#     4  10  21  36  56  81 107 143 185 221 268 324
#     4   9  16  26  48  81 112 141 179 224 269 322
#     4   9  17  30  49  77 109 141 180 221 264 319
#     4   9  18  36  55  76 112 143 177 225 266 318
#     4   9  18  31  47  74 107 138 181 220 258 321
#     4   9  19  35  53  76 110 145 176 222 270 309
#     4   9  17  30  51  77 109 145 177 221 273 317
#     4   8  16  30  49  78 107 140 182 217 267 328
#
# _framework density 26.947970000000002
#
# number of rings (size 3 to 8) (size 9 to 14) (size 15 to 20)
#    0.000    3.000    0.000    2.250    0.000   10.500 
#    0.000   10.625    0.000    3.000    0.000   15.750 
#    0.000    0.000    0.000    0.000    0.000    0.500 
#
# Total GULP energy -198319.851059 kJ/mol
# GULP energy per Si atom -12394.990691 kJ/mol
# Density = 2.688663 g / cm^3
# Si number density = 26.947970 Si / 1000 Ang^3
#
#
#
# Elastic Constant Matrix: (Units=GPa)
#
#
# Indices 1 2 3 4 5 6 
#
# 1 135.4198 31.1701 21.9763 1.9884 -35.4547 -17.8266
# 2 31.1701 55.8526 19.6999 -2.7950 -11.2452 -22.1475
# 3 21.9763 19.6999 111.1042 -0.4977 -20.6080 -0.2689
# 4 1.9884 -2.7950 -0.4977 42.0654 0.6477 -11.9993
# 5 -35.4547 -11.2452 -20.6080 0.6477 31.5731 5.5775
# 6 -17.8266 -22.1475 -0.2689 -11.9993 5.5775 43.3505
#
#
#
# Elastic Compliance Matrix: (Units=1/GPa)
#
#
# Indices 1 2 3 4 5 6 
#
# 1 0.011354 -0.003828 0.000584 -0.000666 0.011597 0.001040
# 2 -0.003828 0.027334 -0.003983 0.005933 0.000246 0.013977
# 3 0.000584 -0.003983 0.010851 -0.001101 0.006857 -0.002915
# 4 -0.000666 0.005933 -0.001101 0.027210 -0.001768 0.010510
# 5 0.011597 0.000246 0.006857 -0.001768 0.049637 -0.001938
# 6 0.001040 0.013977 -0.002915 0.010510 -0.001938 0.033777
#
#
# Mechanical properties :
#
#
# Convention : Reuss Voigt Hill
#
# Bulk Modulus (GPa) = 28.50325 49.78544 39.14435
# Shear Modulus (GPa) = 26.83644 38.69982 32.76813
#
# Velocity S-wave (km/s) = 3.15915 3.79369 3.49087
# Velocity P-wave (km/s) = 4.88949 6.14038 5.55029
#
# Compressibility (1/GPa) = 0.03508371
#
# Stress axis : x y z
#
# Youngs Moduli (GPa) = 88.07584 36.58404 92.15518
#
# Poissons Ratio (x) = 0.14004 -0.05378
# Poissons Ratio (y) = 0.33715 0.36709
# Poissons Ratio (z) = -0.05140 0.14573
#
# Static dielectric constant tensor:
#      x y z
#    x 5.273260 0.177590 -0.232280 
#    y 0.177590 5.660660 0.020990 
#    z -0.232280 0.020990 4.960270 
# 
# 
# High freq. dielectric constant tensor:
#      x y z
#    x 2.112050 -0.012250 0.016090 
#    y -0.012250 2.074590 -0.005360 
#    z 0.016090 -0.005360 2.098150 
# 
# From -- ./inp_files/358603.got.cif
#   From: 2010.06.25/outbox.cif.g09.slc.cpg/sg2_180_cif.got.tgz:358603.got - 2010.06.27 13:26:56.
