data_PCOD8009737
_publ_section_title
;
Structure prediction by ZEFSAII (Michael W. Deem and Ramdas Pophale) SiO2 
 PCOD8009737
Probable space group: P -1
;
_chemical_formula_sum "Si O2"
_cell_formula_units_Z 14
_cell_length_a 14.710468
_cell_length_b 27.521069
_cell_length_c 14.682564
_cell_angle_alpha 21.056265
_cell_angle_beta 159.666327
_cell_angle_gamma 158.948369
_cell_volume 656.596168
_symmetry_space_group_name_H-M "P -1"
_symmetry_group_IT_number 2
_symmetry_cell_setting 'triclinic'
loop_
_space_group_symop_operation_xyz
x,y,z
-x,-y,-z
loop_
_atom_site_type_symbol
_atom_site_label
_atom_site_fract_x
_atom_site_fract_y
_atom_site_fract_z
Si Si1 0.967706 0.609376 0.974737
Si Si2 0.866022 0.661423 0.136048
Si Si3 0.842975 0.846313 0.180363
Si Si4 0.175273 0.643222 0.847256
Si Si5 0.344296 0.203979 0.711173
Si Si6 0.767763 0.459219 0.228070
Si Si7 0.202782 0.980842 0.799379
O O1 0.306676 0.719284 0.076230
O O2 0.861702 0.434667 0.149985
O O3 0.924087 0.601068 0.057281
O O4 0.759438 0.668155 0.627254
O O5 0.771978 0.519770 0.227275
O O6 0.067442 0.645811 0.432202
O O7 0.572746 0.649730 0.929040
O O8 0.036527 0.814649 0.973927
O O9 0.815759 0.889831 0.183853
O O10 0.040290 0.759599 0.514923
O O11 0.519498 0.734377 0.034869
O O12 0.000000 0.000000 0.000000
O O13 0.000000 0.500000 0.000000
O O14 0.262219 0.097986 0.731700
O O15 0.000000 0.000000 0.500000
O O16 0.500000 0.000000 0.000000
#
# Coordination Sequence:
#
# PCOD8009737 Si02
#       7
#     2   2   2   2   2   2   2
#     4  12  24  40  70  96 124 168 231 266 327 392
#     4  10  21  39  58  84 126 159 203 260 320 372
#     4  12  26  45  69 103 141 178 221 287 350 397
#     4  12  23  45  71  96 134 176 225 279 332 405
#     4  12  24  42  66  95 131 172 220 276 325 405
#     4  10  21  37  60  88 118 160 206 264 311 380
#     4  12  25  41  64  93 130 172 213 264 329 400
#
# _framework density 21.322085000000001
#
# number of rings (size 3 to 8) (size 9 to 14) (size 15 to 20)
#    0.000    0.571    2.857    6.000    0.000    4.571 
#    0.000    0.000    0.000    0.000    0.000    0.000 
#    0.000    0.000    0.000    0.000    0.000    0.000 
#
# Total GULP energy -173611.567340 kJ/mol
# GULP energy per Si atom -12400.826239 kJ/mol
# Density = 2.127356 g / cm^3
# Si number density = 21.322085 Si / 1000 Ang^3
#
#
#
# Elastic Constant Matrix: (Units=GPa)
#
#
# Indices 1 2 3 4 5 6 
#
# 1 118.3970 36.6436 43.1841 2.8564 -6.4165 10.2173
# 2 36.6436 101.3566 45.7166 4.4998 1.3279 10.9186
# 3 43.1841 45.7166 125.6368 5.9978 -3.2086 16.1192
# 4 2.8564 4.4998 5.9978 34.1200 9.6369 -5.0963
# 5 -6.4165 1.3279 -3.2086 9.6369 37.3214 -7.4117
# 6 10.2173 10.9186 16.1192 -5.0963 -7.4117 50.5876
#
#
#
# Elastic Compliance Matrix: (Units=1/GPa)
#
#
# Indices 1 2 3 4 5 6 
#
# 1 0.010288 -0.002540 -0.002465 -0.000659 0.001706 -0.000561
# 2 -0.002540 0.012566 -0.003530 -0.000661 -0.001281 -0.001328
# 3 -0.002465 -0.003530 0.010462 -0.001659 0.000602 -0.002153
# 4 -0.000659 -0.000661 -0.001659 0.032444 -0.008035 0.002895
# 5 0.001706 -0.001281 0.000602 -0.008035 0.029918 0.003314
# 6 -0.000561 -0.001328 -0.002153 0.002895 0.003314 0.021631
#
#
# Mechanical properties :
#
#
# Convention : Reuss Voigt Hill
#
# Bulk Modulus (GPa) = 61.55587 66.27543 63.91565
# Shear Modulus (GPa) = 35.76674 39.06220 37.41447
#
# Velocity S-wave (km/s) = 4.10011 4.28484 4.19349
# Velocity P-wave (km/s) = 7.16567 7.45857 7.31358
#
# Compressibility (1/GPa) = 0.01624540
#
# Stress axis : x y z
#
# Youngs Moduli (GPa) = 97.19884 79.57956 95.58437
#
# Poissons Ratio (x) = 0.20217 0.23561
# Poissons Ratio (y) = 0.24693 0.33742
# Poissons Ratio (z) = 0.23959 0.28092
#
# Static dielectric constant tensor:
#      x y z
#    x 4.328920 -0.182780 0.187110 
#    y -0.182780 4.026400 0.165900 
#    z 0.187110 0.165900 4.296170 
# 
# 
# High freq. dielectric constant tensor:
#      x y z
#    x 1.846160 0.007580 0.000840 
#    y 0.007580 1.831600 0.016930 
#    z 0.000840 0.016930 1.855710 
# 
# From -- ./inp_files/488246.got.cif
#   From: 2010.06.25/outbox.cif.g09.slc.cpg/sg2_245_cif.got.tgz:488246.got - 2010.06.27 13:26:56.
