data_PCOD8009088
_publ_section_title
;
Structure prediction by ZEFSAII (Michael W. Deem and Ramdas Pophale) SiO2 
 PCOD8009088
Probable space group: P -1
;
_chemical_formula_sum "Si O2"
_cell_formula_units_Z 12
_cell_length_a 5.177066
_cell_length_b 15.763544
_cell_length_c 13.326995
_cell_angle_alpha 41.952528
_cell_angle_beta 59.221700
_cell_angle_gamma 60.615837
_cell_volume 613.087058
_symmetry_space_group_name_H-M "P -1"
_symmetry_group_IT_number 2
_symmetry_cell_setting 'triclinic'
loop_
_space_group_symop_operation_xyz
x,y,z
-x,-y,-z
loop_
_atom_site_type_symbol
_atom_site_label
_atom_site_fract_x
_atom_site_fract_y
_atom_site_fract_z
Si Si1 0.021183 0.084684 0.565521
Si Si2 0.289680 0.557070 0.365308
Si Si3 0.602727 0.916926 0.698260
Si Si4 0.708100 0.860280 0.085723
Si Si5 0.359127 0.703988 0.412951
Si Si6 0.606841 0.226888 0.963943
O O1 0.565999 0.434214 0.424245
O O2 0.160498 0.133688 0.393245
O O3 0.912982 0.208562 0.548327
O O4 0.275749 0.983941 0.661036
O O5 0.267605 0.674229 0.344972
O O6 0.314667 0.627508 0.190928
O O7 0.000000 0.500000 0.500000
O O8 0.734942 0.017965 0.653876
O O9 0.557574 0.792196 0.881300
O O10 0.634681 0.782187 0.269279
O O11 0.634372 0.791939 0.057646
O O12 0.064234 0.872071 0.013717
O O13 0.500000 0.000000 0.000000
#
# Coordination Sequence:
#
# PCOD8009088 Si02
#       6
#     2   2   2   2   2   2
#     4  10  22  38  61  82 114 145 181 230 279 334
#     4  10  21  37  54  79 114 152 185 227 273 324
#     4  10  21  39  58  86 111 145 183 227 282 328
#     4  11  21  32  54  83 110 139 178 229 281 331
#     4  10  21  36  55  82 111 150 187 222 280 329
#     4  11  21  35  55  78 112 144 180 228 272 324
#
# _framework density 19.573077000000001
#
# number of rings (size 3 to 8) (size 9 to 14) (size 15 to 20)
#    0.000    1.667    1.667    3.500    2.333    1.333 
#    0.000    0.833    0.000    1.000    0.000    0.000 
#    0.000    0.000    0.000    0.000    0.000    0.000 
#
# Total GULP energy -148678.149783 kJ/mol
# GULP energy per Si atom -12389.845815 kJ/mol
# Density = 1.952853 g / cm^3
# Si number density = 19.573077 Si / 1000 Ang^3
#
#
#
# Elastic Constant Matrix: (Units=GPa)
#
#
# Indices 1 2 3 4 5 6 
#
# 1 67.6822 1.4140 17.2116 9.6454 3.6921 2.9585
# 2 1.4140 77.5680 42.0949 5.7555 -2.5399 -9.6328
# 3 17.2116 42.0949 189.3656 11.7516 -3.6897 -5.2037
# 4 9.6454 5.7555 11.7516 19.0360 -2.1002 -5.3329
# 5 3.6921 -2.5399 -3.6897 -2.1002 25.2747 0.9209
# 6 2.9585 -9.6328 -5.2037 -5.3329 0.9209 14.5739
#
#
#
# Elastic Compliance Matrix: (Units=1/GPa)
#
#
# Indices 1 2 3 4 5 6 
#
# 1 0.017056 0.000076 -0.001191 -0.010368 -0.003249 -0.007426
# 2 0.000076 0.015831 -0.003249 -0.000164 0.000757 0.009180
# 3 -0.001191 -0.003249 0.006254 -0.002372 0.000584 -0.000578
# 4 -0.010368 -0.000164 -0.002372 0.067030 0.005800 0.025310
# 5 -0.003249 0.000757 0.000584 0.005800 0.040650 0.000922
# 6 -0.007426 0.009180 -0.000578 0.025310 0.000922 0.085188
#
#
# Mechanical properties :
#
#
# Convention : Reuss Voigt Hill
#
# Bulk Modulus (GPa) = 32.88070 50.67299 41.77684
# Shear Modulus (GPa) = 19.93042 30.03661 24.98351
#
# Velocity S-wave (km/s) = 3.19448 3.92163 3.57658
# Velocity P-wave (km/s) = 5.51739 6.81549 6.20051
#
# Compressibility (1/GPa) = 0.03041298
#
# Stress axis : x y z
#
# Youngs Moduli (GPa) = 58.63154 63.16893 159.89845
#
# Poissons Ratio (x) = -0.00481 0.19045
# Poissons Ratio (y) = -0.00447 0.51947
# Poissons Ratio (z) = 0.06983 0.20522
#
# Static dielectric constant tensor:
#      x y z
#    x 3.867100 -0.126470 0.245820 
#    y -0.126470 2.321750 3.052180 
#    z 0.245820 3.052180 -4.808230 
# 
# 
# High freq. dielectric constant tensor:
#      x y z
#    x 1.770370 0.002340 -0.001740 
#    y 0.002340 1.719430 0.001010 
#    z -0.001740 0.001010 1.781150 
# 
# From -- ./inp_files/362726.got.cif
#   From: 2010.06.25/outbox.cif.g09.slc.cpg/sg2_182_cif.got.tgz:362726.got - 2010.06.27 13:26:56.
