data_PCOD8009155
_publ_section_title
;
Structure prediction by ZEFSAII (Michael W. Deem and Ramdas Pophale) SiO2 
 PCOD8009155
Probable space group: P -1
;
_chemical_formula_sum "Si O2"
_cell_formula_units_Z 16
_cell_length_a 15.199269
_cell_length_b 8.349482
_cell_length_c 15.283701
_cell_angle_alpha 93.776828
_cell_angle_beta 38.636482
_cell_angle_gamma 123.295920
_cell_volume 727.382809
_symmetry_space_group_name_H-M "P -1"
_symmetry_group_IT_number 2
_symmetry_cell_setting 'triclinic'
loop_
_space_group_symop_operation_xyz
x,y,z
-x,-y,-z
loop_
_atom_site_type_symbol
_atom_site_label
_atom_site_fract_x
_atom_site_fract_y
_atom_site_fract_z
Si Si1 0.311759 0.197073 0.115777
Si Si2 0.541372 0.103671 0.876394
Si Si3 0.209683 0.569872 0.669922
Si Si4 0.064472 0.758241 0.435633
Si Si5 0.673659 0.468306 0.600517
Si Si6 0.300667 0.872294 0.887675
Si Si7 0.145112 0.040937 0.550113
Si Si8 0.433772 0.090373 0.454544
O O1 0.227052 0.025169 0.261561
O O2 0.500000 0.500000 0.000000
O O3 0.451096 0.204763 0.942608
O O4 0.086718 0.075570 0.240800
O O5 0.818441 0.315349 0.654220
O O6 0.394910 0.880198 0.906117
O O7 0.500000 0.000000 0.000000
O O8 0.186943 0.444952 0.594857
O O9 0.423681 0.699391 0.568452
O O10 0.254320 0.795304 0.619184
O O11 0.974146 0.346983 0.901843
O O12 0.809249 0.514349 0.580136
O O13 0.059827 0.832442 0.538075
O O14 0.671701 0.659621 0.620066
O O15 0.421171 0.154688 0.782940
O O16 0.369983 0.809024 0.757178
O O17 0.273808 0.077022 0.532511
#
# Coordination Sequence:
#
# PCOD8009155 Si02
#       8
#     2   2   2   2   2   2   2   2
#     4  10  22  34  57  87 126 165 201 257 311 366
#     4  10  21  36  57  89 122 165 211 251 301 377
#     4  10  22  44  65  93 122 162 217 266 315 372
#     4  10  21  40  58  85 132 165 209 251 308 383
#     4  10  23  39  62  92 129 173 203 258 324 373
#     4  11  21  39  64  90 124 166 211 260 314 377
#     4  11  22  42  59  93 129 167 205 259 323 374
#     4  10  23  42  68  91 123 165 212 266 317 374
#
# _framework density 21.996670000000002
#
# number of rings (size 3 to 8) (size 9 to 14) (size 15 to 20)
#    0.000    1.750    1.250    4.125    3.500    5.000 
#    0.000    0.625    0.000    0.000    0.000    0.000 
#    0.000    0.000    0.000    0.000    0.000    0.000 
#
# Total GULP energy -198323.860396 kJ/mol
# GULP energy per Si atom -12395.241275 kJ/mol
# Density = 2.194660 g / cm^3
# Si number density = 21.996670 Si / 1000 Ang^3
#
#
#
# Elastic Constant Matrix: (Units=GPa)
#
#
# Indices 1 2 3 4 5 6 
#
# 1 146.7930 44.1017 41.8318 2.6694 -28.0071 2.9961
# 2 44.1017 78.7627 37.9818 9.1250 -17.0209 0.2159
# 3 41.8318 37.9818 131.3082 -1.2351 -14.8326 -12.4192
# 4 2.6694 9.1250 -1.2351 32.3734 -2.3016 -2.2513
# 5 -28.0071 -17.0209 -14.8326 -2.3016 35.1183 2.1758
# 6 2.9961 0.2159 -12.4192 -2.2513 2.1758 29.0909
#
#
#
# Elastic Compliance Matrix: (Units=1/GPa)
#
#
# Indices 1 2 3 4 5 6 
#
# 1 0.009310 -0.003342 -0.001587 0.000352 0.005281 -0.001979
# 2 -0.003342 0.017907 -0.003888 -0.004770 0.004191 -0.002131
# 3 -0.001587 -0.003888 0.009780 0.001969 0.000834 0.004458
# 4 0.000352 -0.004770 0.001969 0.032562 0.000729 0.003305
# 5 0.005281 0.004191 0.000834 0.000729 0.035291 -0.002802
# 6 -0.001979 -0.002131 0.004458 0.003305 -0.002802 0.036963
#
#
# Mechanical properties :
#
#
# Convention : Reuss Voigt Hill
#
# Bulk Modulus (GPa) = 51.64348 67.18828 59.41588
# Shear Modulus (GPa) = 30.13850 34.84644 32.49247
#
# Velocity S-wave (km/s) = 3.70555 3.98448 3.84755
# Velocity P-wave (km/s) = 6.46815 7.19577 6.84164
#
# Compressibility (1/GPa) = 0.01936353
#
# Stress axis : x y z
#
# Youngs Moduli (GPa) = 107.41132 55.84487 102.24860
#
# Poissons Ratio (x) = 0.18663 0.16223
# Poissons Ratio (y) = 0.35897 0.39754
# Poissons Ratio (z) = 0.17042 0.21713
#
# Static dielectric constant tensor:
#      x y z
#    x 4.201420 0.136490 0.156260 
#    y 0.136490 4.281260 0.424090 
#    z 0.156260 0.424090 4.521050 
# 
# 
# High freq. dielectric constant tensor:
#      x y z
#    x 1.862450 0.002090 0.008760 
#    y 0.002090 1.864700 -0.005210 
#    z 0.008760 -0.005210 1.875290 
# 
# From -- ./inp_files/529888.got.cif
#   From: 2010.06.25/outbox.cif.g09.slc.cpg/sg2_265_cif.got.tgz:529888.got - 2010.06.27 13:26:56.
