data_PCOD8009029
_publ_section_title
;
Structure prediction by ZEFSAII (Michael W. Deem and Ramdas Pophale) SiO2 
 PCOD8009029
Probable space group: P -1
;
_chemical_formula_sum "Si O2"
_cell_formula_units_Z 14
_cell_length_a 11.459550
_cell_length_b 12.588882
_cell_length_c 8.657052
_cell_angle_alpha 57.426529
_cell_angle_beta 140.503862
_cell_angle_gamma 130.101104
_cell_volume 605.393062
_symmetry_space_group_name_H-M "P -1"
_symmetry_group_IT_number 2
_symmetry_cell_setting 'triclinic'
loop_
_space_group_symop_operation_xyz
x,y,z
-x,-y,-z
loop_
_atom_site_type_symbol
_atom_site_label
_atom_site_fract_x
_atom_site_fract_y
_atom_site_fract_z
Si Si1 0.698013 0.334954 0.470585
Si Si2 0.649958 0.604647 0.938973
Si Si3 0.344414 0.655755 0.941421
Si Si4 0.079135 0.010030 0.327030
Si Si5 0.227138 0.207339 0.586681
Si Si6 0.084104 0.844703 0.188754
Si Si7 0.957602 0.581719 0.754280
O O1 0.474027 0.311112 0.322137
O O2 0.700247 0.334070 0.289897
O O3 0.760100 0.211925 0.677931
O O4 0.858025 0.481328 0.585993
O O5 0.500000 0.500000 0.000000
O O6 0.684198 0.503511 0.928550
O O7 0.869777 0.720212 0.126000
O O8 0.181872 0.690464 0.843422
O O9 0.567199 0.760226 0.138099
O O10 0.240862 0.138700 0.490126
O O11 0.180726 0.943469 0.359778
O O12 0.950284 0.893985 0.407765
O O13 0.939123 0.065048 0.045161
O O14 0.182088 0.341372 0.400320
O O15 0.000000 0.500000 0.000000
#
# Coordination Sequence:
#
# PCOD8009029 Si02
#       7
#     2   2   2   2   2   2   2
#     4  11  22  39  67 100 126 162 211 269 324 382
#     4  10  21  35  65 102 127 158 207 268 330 372
#     4  11  23  39  67  99 127 167 207 265 336 382
#     4  10  24  44  67  85 129 193 205 261 305 386
#     4  11  24  46  63  91 137 168 221 253 326 385
#     4  11  22  43  66  95 131 164 229 255 315 378
#     4  12  25  39  65 102 132 162 207 274 336 380
#
# _framework density 23.125473
#
# number of rings (size 3 to 8) (size 9 to 14) (size 15 to 20)
#    0.000    1.143    2.857    3.857    4.000    1.714 
#    0.000   15.714    0.000    0.000    0.000    0.000 
#    0.000    0.000    0.000    0.000    0.000    0.000 
#
# Total GULP energy -173489.505204 kJ/mol
# GULP energy per Si atom -12392.107515 kJ/mol
# Density = 2.307284 g / cm^3
# Si number density = 23.125473 Si / 1000 Ang^3
#
#
#
# Elastic Constant Matrix: (Units=GPa)
#
#
# Indices 1 2 3 4 5 6 
#
# 1 33.0494 14.3739 21.7193 8.7364 2.8784 -12.5216
# 2 14.3739 86.4905 33.6094 2.6136 -5.7738 -33.8838
# 3 21.7193 33.6094 98.6826 11.7338 -1.0374 -7.6902
# 4 8.7364 2.6136 11.7338 36.6088 -9.1023 -6.2986
# 5 2.8784 -5.7738 -1.0374 -9.1023 44.8124 -7.6610
# 6 -12.5216 -33.8838 -7.6902 -6.2986 -7.6610 27.3883
#
#
#
# Elastic Compliance Matrix: (Units=1/GPa)
#
#
# Indices 1 2 3 4 5 6 
#
# 1 0.043896 0.006299 -0.009467 -0.003284 0.001350 0.024826
# 2 0.006299 0.034647 -0.010548 0.011565 0.014633 0.049536
# 3 -0.009467 -0.010548 0.015217 -0.005585 -0.004194 -0.015562
# 4 -0.003284 0.011565 -0.005585 0.036261 0.012901 0.023186
# 5 0.001350 0.014633 -0.004194 0.012901 0.031657 0.029365
# 6 0.024826 0.049536 -0.015562 0.023186 0.029365 0.118322
#
#
# Mechanical properties :
#
#
# Convention : Reuss Voigt Hill
#
# Bulk Modulus (GPa) = 15.07644 39.73641 27.40643
# Shear Modulus (GPa) = 15.17256 31.66322 23.41789
#
# Velocity S-wave (km/s) = 2.56422 3.70427 3.18566
# Velocity P-wave (km/s) = 3.91159 5.95951 5.04065
#
# Compressibility (1/GPa) = 0.06632864
#
# Stress axis : x y z
#
# Youngs Moduli (GPa) = 22.78098 28.86216 65.71687
#
# Poissons Ratio (x) = -0.18180 0.62216
# Poissons Ratio (y) = -0.14350 0.69316
# Poissons Ratio (z) = 0.21567 0.30443
#
# Static dielectric constant tensor:
#      x y z
#    x 4.361720 -0.574550 0.345870 
#    y -0.574550 4.509900 -0.197490 
#    z 0.345870 -0.197490 4.558890 
# 
# 
# High freq. dielectric constant tensor:
#      x y z
#    x 1.901930 -0.021680 0.002750 
#    y -0.021680 1.909240 -0.004860 
#    z 0.002750 -0.004860 1.919790 
# 
# From -- ./inp_files/262234.got.cif
#   From: 2010.06.25/outbox.cif.g09.slc.cpg/sg2_132_cif.got.tgz:262234.got - 2010.06.27 13:26:56.
