data_PCOD8009992
_publ_section_title
;
Structure prediction by ZEFSAII (Michael W. Deem and Ramdas Pophale) SiO2 
 PCOD8009992
Probable space group: P -1
;
_chemical_formula_sum "Si O2"
_cell_formula_units_Z 14
_cell_length_a 5.117707
_cell_length_b 9.662824
_cell_length_c 20.669440
_cell_angle_alpha 124.614312
_cell_angle_beta 62.121552
_cell_angle_gamma 87.398936
_cell_volume 672.208012
_symmetry_space_group_name_H-M "P -1"
_symmetry_group_IT_number 2
_symmetry_cell_setting 'triclinic'
loop_
_space_group_symop_operation_xyz
x,y,z
-x,-y,-z
loop_
_atom_site_type_symbol
_atom_site_label
_atom_site_fract_x
_atom_site_fract_y
_atom_site_fract_z
Si Si1 0.358085 0.093971 0.330056
Si Si2 0.575589 0.131065 0.978078
Si Si3 0.225320 0.303429 0.629318
Si Si4 0.605784 0.292537 0.455060
Si Si5 0.627679 0.243340 0.689950
Si Si6 0.596587 0.612978 0.823269
Si Si7 0.329722 0.967203 0.858353
O O1 0.569564 0.173036 0.368219
O O2 0.434732 0.104675 0.249173
O O3 0.974169 0.214386 0.417607
O O4 0.458130 0.881163 0.282454
O O5 0.402776 0.126100 0.928956
O O6 0.431450 0.333113 0.082869
O O7 0.040456 0.942676 0.098864
O O8 0.500000 0.000000 0.000000
O O9 0.369165 0.290529 0.538686
O O10 0.019875 0.178692 0.622867
O O11 0.977884 0.519057 0.731787
O O12 0.511552 0.221015 0.626255
O O13 0.500000 0.500000 0.500000
O O14 0.451164 0.459581 0.790921
O O15 0.390369 0.793063 0.851729
#
# Coordination Sequence:
#
# PCOD8009992 Si02
#       7
#     2   2   2   2   2   2   2
#     4  12  26  44  63  92 135 159 209 258 305 377
#     4  10  21  37  63  97 120 159 212 257 309 365
#     4  10  23  39  65  89 124 164 213 244 320 357
#     4  12  26  42  67  95 125 163 209 258 314 365
#     4  10  24  40  64  90 128 169 205 249 315 364
#     4   9  22  38  65  88 127 154 212 259 300 368
#     4  11  23  38  65  92 124 165 205 259 316 353
#
# _framework density 20.826885999999998
#
# number of rings (size 3 to 8) (size 9 to 14) (size 15 to 20)
#    0.857    0.571    0.000    5.571    8.000    3.429 
#    0.000    1.429    0.000    0.000    0.000    0.000 
#    0.000    0.000    0.000    0.000    0.000    0.000 
#
# Total GULP energy -173571.421330 kJ/mol
# GULP energy per Si atom -12397.958666 kJ/mol
# Density = 2.077948 g / cm^3
# Si number density = 20.826886 Si / 1000 Ang^3
#
#
#
# Elastic Constant Matrix: (Units=GPa)
#
#
# Indices 1 2 3 4 5 6 
#
# 1 106.7164 20.8981 18.9007 3.7552 19.1273 18.2615
# 2 20.8981 95.1260 29.3072 13.4727 18.0153 6.4764
# 3 18.9007 29.3072 97.6607 -1.6592 9.7447 2.6698
# 4 3.7552 13.4727 -1.6592 16.1652 9.4057 -1.9490
# 5 19.1273 18.0153 9.7447 9.4057 32.3272 -3.7755
# 6 18.2615 6.4764 2.6698 -1.9490 -3.7755 26.8666
#
#
#
# Elastic Compliance Matrix: (Units=1/GPa)
#
#
# Indices 1 2 3 4 5 6 
#
# 1 0.012767 -0.000297 -0.001268 0.000871 -0.008380 -0.009594
# 2 -0.000297 0.014306 -0.003889 -0.010376 -0.004095 -0.004188
# 3 -0.001268 -0.003889 0.011982 0.006269 -0.002434 0.000722
# 4 0.000871 -0.010376 0.006269 0.083326 -0.020344 0.004472
# 5 -0.008380 -0.004095 -0.002434 -0.020344 0.046221 0.011944
# 6 -0.009594 -0.004188 0.000722 0.004472 0.011944 0.046683
#
#
# Mechanical properties :
#
#
# Convention : Reuss Voigt Hill
#
# Bulk Modulus (GPa) = 35.52969 48.63502 42.08235
# Shear Modulus (GPa) = 21.22466 30.43161 25.82813
#
# Velocity S-wave (km/s) = 3.19580 3.82667 3.52537
# Velocity P-wave (km/s) = 5.54203 6.55189 6.06800
#
# Compressibility (1/GPa) = 0.02814548
#
# Stress axis : x y z
#
# Youngs Moduli (GPa) = 78.32988 69.90156 83.46114
#
# Poissons Ratio (x) = 0.02076 0.10587
# Poissons Ratio (y) = 0.02327 0.32456
# Poissons Ratio (z) = 0.09936 0.27183
#
# Static dielectric constant tensor:
#      x y z
#    x 3.923840 0.167050 0.233600 
#    y 0.167050 3.735390 0.043830 
#    z 0.233600 0.043830 4.096130 
# 
# 
# High freq. dielectric constant tensor:
#      x y z
#    x 1.825530 0.012660 0.008800 
#    y 0.012660 1.794260 0.003710 
#    z 0.008800 0.003710 1.820340 
# 
# From -- ./inp_files/604236.got.cif
#   From: 2010.06.25/outbox.cif.g09.slc.cpg/sg2_303_cif.got.tgz:604236.got - 2010.06.27 13:26:56.
