data_PCOD8009829
_publ_section_title
;
Structure prediction by ZEFSAII (Michael W. Deem and Ramdas Pophale) SiO2 
 PCOD8009829
Probable space group: P -1
;
_chemical_formula_sum "Si O2"
_cell_formula_units_Z 14
_cell_length_a 8.901848
_cell_length_b 12.674592
_cell_length_c 14.190426
_cell_angle_alpha 128.503242
_cell_angle_beta 32.188388
_cell_angle_gamma 126.688355
_cell_volume 657.815195
_symmetry_space_group_name_H-M "P -1"
_symmetry_group_IT_number 2
_symmetry_cell_setting 'triclinic'
loop_
_space_group_symop_operation_xyz
x,y,z
-x,-y,-z
loop_
_atom_site_type_symbol
_atom_site_label
_atom_site_fract_x
_atom_site_fract_y
_atom_site_fract_z
Si Si1 0.727889 0.451938 0.051487
Si Si2 0.290390 0.157292 0.513231
Si Si3 0.237776 0.048025 0.276831
Si Si4 0.383277 0.166761 0.071548
Si Si5 0.912008 0.137449 0.158686
Si Si6 0.906649 0.405640 0.214028
Si Si7 0.482325 0.537577 0.398333
O O1 0.651203 0.289707 0.989076
O O2 0.465620 0.505728 0.276619
O O3 0.000000 0.500000 0.000000
O O4 0.797591 0.517231 0.946655
O O5 0.213896 0.135590 0.431441
O O6 0.589710 0.109365 0.354017
O O7 0.307692 0.317233 0.615708
O O8 0.045969 0.065020 0.652731
O O9 0.271690 0.151865 0.229384
O O10 0.512240 0.971456 0.095832
O O11 0.125890 0.200182 0.162610
O O12 0.929960 0.246215 0.123451
O O13 0.000000 0.000000 0.000000
O O14 0.631784 0.420421 0.303860
O O15 0.833046 0.461508 0.388749
#
# Coordination Sequence:
#
# PCOD8009829 Si02
#       7
#     2   2   2   2   2   2   2
#     4  10  21  37  61  93 121 165 215 260 306 372
#     4  10  21  41  66  93 123 169 211 260 323 374
#     4  10  22  39  66  93 124 166 219 264 302 386
#     4  11  24  39  62  97 128 163 218 261 317 381
#     4  11  23  41  62  93 134 167 202 264 333 376
#     4   9  20  36  62  86 125 169 205 256 315 368
#     4   9  19  36  64  92 117 164 219 254 305 377
#
# _framework density 21.282571999999998
#
# number of rings (size 3 to 8) (size 9 to 14) (size 15 to 20)
#    0.000    2.000    1.429    1.714   10.000    2.286 
#    0.000    4.286    0.000    0.000    0.000    0.000 
#    0.000    0.000    0.000    0.000    0.000    0.000 
#
# Total GULP energy -173532.867619 kJ/mol
# GULP energy per Si atom -12395.204830 kJ/mol
# Density = 2.123413 g / cm^3
# Si number density = 21.282572 Si / 1000 Ang^3
#
#
#
# Elastic Constant Matrix: (Units=GPa)
#
#
# Indices 1 2 3 4 5 6 
#
# 1 57.9644 39.2445 28.3762 -3.1658 -9.6324 0.0884
# 2 39.2445 128.4125 41.5458 -5.1953 3.2875 -19.7434
# 3 28.3762 41.5458 97.8975 -16.5204 17.9717 -22.0066
# 4 -3.1658 -5.1953 -16.5204 44.7578 -4.0594 2.7464
# 5 -9.6324 3.2875 17.9717 -4.0594 42.4604 -1.6795
# 6 0.0884 -19.7434 -22.0066 2.7464 -1.6795 25.7852
#
#
#
# Elastic Compliance Matrix: (Units=1/GPa)
#
#
# Indices 1 2 3 4 5 6 
#
# 1 0.029953 -0.008284 -0.010703 -0.000863 0.011301 -0.014752
# 2 -0.008284 0.011788 -0.000216 -0.000046 -0.002360 0.008722
# 3 -0.010703 -0.000216 0.019374 0.004562 -0.009570 0.015297
# 4 -0.000863 -0.000046 0.004562 0.023898 0.000214 0.001330
# 5 0.011301 -0.002360 -0.009570 0.000214 0.030049 -0.008079
# 6 -0.014752 0.008722 0.015297 0.001330 -0.008079 0.057898
#
#
# Mechanical properties :
#
#
# Convention : Reuss Voigt Hill
#
# Bulk Modulus (GPa) = 44.03157 55.84525 49.93841
# Shear Modulus (GPa) = 22.83771 34.27453 28.55612
#
# Velocity S-wave (km/s) = 3.27933 4.01740 3.66698
# Velocity P-wave (km/s) = 5.92221 6.91492 6.43773
#
# Compressibility (1/GPa) = 0.02271098
#
# Stress axis : x y z
#
# Youngs Moduli (GPa) = 33.38539 84.83020 51.61519
#
# Poissons Ratio (x) = 0.70270 0.55244
# Poissons Ratio (y) = 0.27655 0.01113
# Poissons Ratio (z) = 0.35733 0.01829
#
# Static dielectric constant tensor:
#      x y z
#    x 3.662920 -0.090100 0.347290 
#    y -0.090100 3.881330 -0.215080 
#    z 0.347290 -0.215080 4.385950 
# 
# 
# High freq. dielectric constant tensor:
#      x y z
#    x 1.795160 0.001290 0.018440 
#    y 0.001290 1.841310 -0.005600 
#    z 0.018440 -0.005600 1.841940 
# 
# From -- ./inp_files/198973.got.cif
#   From: 2010.06.25/outbox.cif.g09.slc.cpg/sg2_100_cif.got.tgz:198973.got - 2010.06.27 13:26:56.
