data_PCOD8009130
_publ_section_title
;
Structure prediction by ZEFSAII (Michael W. Deem and Ramdas Pophale) SiO2 
 PCOD8009130
Probable space group: P -1
;
_chemical_formula_sum "Si O2"
_cell_formula_units_Z 16
_cell_length_a 5.038478
_cell_length_b 7.922053
_cell_length_c 28.738161
_cell_angle_alpha 114.424553
_cell_angle_beta 125.984430
_cell_angle_gamma 90.000000
_cell_volume 797.855278
_symmetry_space_group_name_H-M "P -1"
_symmetry_group_IT_number 2
_symmetry_cell_setting 'triclinic'
loop_
_space_group_symop_operation_xyz
x,y,z
-x,-y,-z
loop_
_atom_site_type_symbol
_atom_site_label
_atom_site_fract_x
_atom_site_fract_y
_atom_site_fract_z
Si Si1 0.238954 0.221269 0.052511
Si Si2 0.494837 0.226024 0.577541
Si Si3 0.563867 0.108666 0.314663
Si Si4 0.063868 0.335324 0.314663
Si Si5 0.005161 0.993401 0.422459
Si Si6 0.189632 0.667500 0.203673
Si Si7 0.689634 0.443520 0.203673
Si Si8 0.261046 0.563735 0.947489
O O1 0.455873 0.262906 0.127593
O O2 0.501837 0.263093 0.041134
O O3 0.001836 0.360308 0.041133
O O4 0.000000 0.000000 0.000000
O O5 0.671872 0.457547 0.617916
O O6 0.776511 0.114709 0.596620
O O7 0.276514 0.175151 0.596621
O O8 0.249996 0.159774 0.500000
O O9 0.263181 0.178660 0.313408
O O10 0.763179 0.261565 0.313408
O O11 0.397018 0.896731 0.250197
O O12 0.828128 0.103798 0.382084
O O13 0.897022 0.353861 0.250197
O O14 0.451231 0.542869 0.218502
O O15 0.951232 0.612639 0.218503
O O16 0.955872 0.619874 0.127593
O O17 0.500000 0.500000 0.000000
#
# Coordination Sequence:
#
# PCOD8009130 Si02
#       8
#     2   2   2   2   2   2   2   2
#     4  10  21  36  57  82 109 143 181 225 273 321
#     4  10  21  39  61  81 107 148 187 217 263 331
#     4  12  24  36  56  86 114 141 178 231 280 311
#     4  12  24  36  56  86 114 141 178 231 280 311
#     4  10  21  39  61  81 107 148 187 217 263 331
#     4  10  21  39  58  77 108 150 187 217 263 331
#     4  10  21  39  58  77 108 150 187 217 263 331
#     4  10  21  36  57  82 109 143 181 225 273 321
#
# _framework density 20.053758999999999
#
# number of rings (size 3 to 8) (size 9 to 14) (size 15 to 20)
#    0.000    1.500    0.000    5.250    0.000    3.000 
#    0.000    0.000    0.000    0.000    0.000    0.000 
#    0.000    0.000    0.000    0.000    0.000    0.000 
#
# Total GULP energy -198514.776732 kJ/mol
# GULP energy per Si atom -12407.173546 kJ/mol
# Density = 2.000812 g / cm^3
# Si number density = 20.053759 Si / 1000 Ang^3
#
#
#
# Elastic Constant Matrix: (Units=GPa)
#
#
# Indices 1 2 3 4 5 6 
#
# 1 78.2763 6.9747 24.7533 -0.6226 9.2541 -0.3279
# 2 6.9747 82.3519 65.9554 -2.3860 8.0052 -1.4389
# 3 24.7533 65.9554 118.2232 1.1041 14.1497 0.6707
# 4 -0.6226 -2.3860 1.1041 41.6773 0.3683 16.3888
# 5 9.2541 8.0052 14.1497 0.3683 25.5096 0.2374
# 6 -0.3279 -1.4389 0.6707 16.3888 0.2374 32.1149
#
#
#
# Elastic Compliance Matrix: (Units=1/GPa)
#
#
# Indices 1 2 3 4 5 6 
#
# 1 0.014215 0.002175 -0.003743 0.000416 -0.003770 0.000137
# 2 0.002175 0.022396 -0.012883 0.001440 -0.000697 0.000565
# 3 -0.003743 -0.012883 0.016916 -0.001047 -0.003963 -0.000405
# 4 0.000416 0.001440 -0.001047 0.030121 -0.000314 -0.015278
# 5 -0.003770 -0.000697 -0.003963 -0.000314 0.042992 -0.000144
# 6 0.000137 0.000565 -0.000405 -0.015278 -0.000144 0.038971
#
#
# Mechanical properties :
#
#
# Convention : Reuss Voigt Hill
#
# Bulk Modulus (GPa) = 40.61028 52.69091 46.65059
# Shear Modulus (GPa) = 24.66437 31.93825 28.30131
#
# Velocity S-wave (km/s) = 3.51082 3.99511 3.76077
# Velocity P-wave (km/s) = 6.06045 6.90022 6.49393
#
# Compressibility (1/GPa) = 0.02462431
#
# Stress axis : x y z
#
# Youngs Moduli (GPa) = 70.34973 44.65032 59.11540
#
# Poissons Ratio (x) = -0.09710 0.22126
# Poissons Ratio (y) = -0.15299 0.76159
# Poissons Ratio (z) = 0.26331 0.57524
#
# Static dielectric constant tensor:
#      x y z
#    x 3.970080 -0.002980 0.079770 
#    y -0.002980 3.324270 -0.017660 
#    z 0.079770 -0.017660 3.823290 
# 
# 
# High freq. dielectric constant tensor:
#      x y z
#    x 1.805140 -0.000250 0.006750 
#    y -0.000250 1.767530 -0.001020 
#    z 0.006750 -0.001020 1.796480 
# 
# From -- ./inp_files/14556.got.cif
#   From: 2010.06.25/outbox.cif.g09.slc.cpg/sg2_8_cif.got.tgz:14556.got - 2010.06.27 13:26:56.
