data_PCOD8009666
_publ_section_title
;
Structure prediction by ZEFSAII (Michael W. Deem and Ramdas Pophale) SiO2 
 PCOD8009666
Probable space group: P -1
;
_chemical_formula_sum "Si O2"
_cell_formula_units_Z 16
_cell_length_a 12.213645
_cell_length_b 15.655599
_cell_length_c 11.708595
_cell_angle_alpha 63.129582
_cell_angle_beta 32.757719
_cell_angle_gamma 47.739297
_cell_volume 859.730930
_symmetry_space_group_name_H-M "P -1"
_symmetry_group_IT_number 2
_symmetry_cell_setting 'triclinic'
loop_
_space_group_symop_operation_xyz
x,y,z
-x,-y,-z
loop_
_atom_site_type_symbol
_atom_site_label
_atom_site_fract_x
_atom_site_fract_y
_atom_site_fract_z
Si Si1 0.420416 0.154982 0.250234
Si Si2 0.656196 0.715508 0.195743
Si Si3 0.864500 0.765600 0.321055
Si Si4 0.901020 0.674375 0.769623
Si Si5 0.946240 0.085049 0.891484
Si Si6 0.560848 0.067442 0.587209
Si Si7 0.081256 0.548840 0.104300
Si Si8 0.454050 0.577238 0.383672
O O1 0.221936 0.238141 0.474067
O O2 0.289027 0.210982 0.210978
O O3 0.507248 0.019929 0.261322
O O4 0.667734 0.150366 0.045050
O O5 0.485883 0.848482 0.317162
O O6 0.470708 0.684160 0.337176
O O7 0.850547 0.616769 0.176452
O O8 0.815643 0.711512 0.952912
O O9 0.036159 0.811272 0.142570
O O10 0.611071 0.856230 0.415935
O O11 0.032626 0.631959 0.203450
O O12 0.894254 0.565852 0.801755
O O13 0.181236 0.636868 0.531545
O O14 0.146903 0.007976 0.660972
O O15 0.000000 0.000000 0.000000
O O16 0.337454 0.509976 0.841293
O O17 0.500000 0.500000 0.500000
#
# Coordination Sequence:
#
# PCOD8009666 Si02
#       8
#     2   2   2   2   2   2   2   2
#     4  11  23  39  57  83 119 149 181 233 286 328
#     4  10  21  37  59  87 113 143 191 236 271 330
#     4  10  21  37  59  87 113 143 191 236 271 330
#     4  11  23  39  57  83 119 149 181 233 286 328
#     4  11  19  37  61  84 109 151 191 224 277 335
#     4  10  21  37  59  87 113 143 191 236 271 330
#     4  10  21  37  59  87 113 143 191 236 271 330
#     4  11  19  37  61  84 109 151 191 224 277 335
#
# _framework density 18.610474
#
# number of rings (size 3 to 8) (size 9 to 14) (size 15 to 20)
#    0.000    1.500    5.000    1.500    0.000    8.000 
#    0.000    2.500    0.000    0.000    0.000    0.000 
#    0.000    0.000    0.000    0.000    0.000    0.000 
#
# Total GULP energy -198484.122357 kJ/mol
# GULP energy per Si atom -12405.257647 kJ/mol
# Density = 1.856812 g / cm^3
# Si number density = 18.610474 Si / 1000 Ang^3
#
#
#
# Elastic Constant Matrix: (Units=GPa)
#
#
# Indices 1 2 3 4 5 6 
#
# 1 52.2949 28.7180 27.0192 8.7505 -6.2718 8.2710
# 2 28.7180 65.1615 26.7176 7.3213 10.7425 26.0715
# 3 27.0192 26.7176 101.7887 0.6995 -16.5849 20.5693
# 4 8.7505 7.3213 0.6995 21.4245 2.1423 5.9139
# 5 -6.2718 10.7425 -16.5849 2.1423 33.6463 8.1780
# 6 8.2710 26.0715 20.5693 5.9139 8.1780 40.7067
#
#
#
# Elastic Compliance Matrix: (Units=1/GPa)
#
#
# Indices 1 2 3 4 5 6 
#
# 1 0.030648 -0.013810 -0.004136 -0.009689 0.007584 0.004592
# 2 -0.013810 0.029434 -0.003319 0.000136 -0.010639 -0.012251
# 3 -0.004136 -0.003319 0.014561 0.003297 0.008873 -0.006653
# 4 -0.009689 0.000136 0.003297 0.052612 -0.001859 -0.007055
# 5 0.007584 -0.010639 0.008873 -0.001859 0.040756 -0.007129
# 6 0.004592 -0.012251 -0.006653 -0.007055 -0.007129 0.037299
#
#
# Mechanical properties :
#
#
# Convention : Reuss Voigt Hill
#
# Bulk Modulus (GPa) = 31.13998 42.68386 36.91192
# Shear Modulus (GPa) = 19.33913 28.27485 23.80699
#
# Velocity S-wave (km/s) = 3.22709 3.90205 3.58051
# Velocity P-wave (km/s) = 5.53663 6.57925 6.08033
#
# Compressibility (1/GPa) = 0.03211306
#
# Stress axis : x y z
#
# Youngs Moduli (GPa) = 32.62878 33.97439 68.67744
#
# Poissons Ratio (x) = 0.46919 0.28404
# Poissons Ratio (y) = 0.45061 0.22792
# Poissons Ratio (z) = 0.13495 0.11275
#
# Static dielectric constant tensor:
#      x y z
#    x 3.332570 0.153460 -0.046050 
#    y 0.153460 3.391630 -0.020040 
#    z -0.046050 -0.020040 3.621340 
# 
# 
# High freq. dielectric constant tensor:
#      x y z
#    x 1.713280 0.009870 -0.001190 
#    y 0.009870 1.718960 -0.003040 
#    z -0.001190 -0.003040 1.733700 
# 
# From -- ./inp_files/37822.got.cif
#   From: 2010.06.25/outbox.cif.g09.slc.cpg/sg2_19_cif.got.tgz:37822.got - 2010.06.27 13:26:56.
