data_PCOD8009035
_publ_section_title
;
Structure prediction by ZEFSAII (Michael W. Deem and Ramdas Pophale) SiO2 
 PCOD8009035
Probable space group: P -1
;
_chemical_formula_sum "Si O2"
_cell_formula_units_Z 16
_cell_length_a 10.502119
_cell_length_b 14.555332
_cell_length_c 10.577747
_cell_angle_alpha 94.446517
_cell_angle_beta 42.586466
_cell_angle_gamma 63.154980
_cell_volume 716.647651
_symmetry_space_group_name_H-M "P -1"
_symmetry_group_IT_number 2
_symmetry_cell_setting 'triclinic'
loop_
_space_group_symop_operation_xyz
x,y,z
-x,-y,-z
loop_
_atom_site_type_symbol
_atom_site_label
_atom_site_fract_x
_atom_site_fract_y
_atom_site_fract_z
Si Si1 0.464846 0.272026 0.250379
Si Si2 0.408198 0.757861 0.128867
Si Si3 0.581178 0.023701 0.142343
Si Si4 0.082790 0.326772 0.930421
Si Si5 0.695217 0.037337 0.528021
Si Si6 0.992455 0.498250 0.799698
Si Si7 0.984782 0.854140 0.059573
Si Si8 0.885311 0.961227 0.679742
O O1 0.185099 0.426396 0.525257
O O2 0.408256 0.183358 0.271904
O O3 0.536868 0.288587 0.062117
O O4 0.725054 0.194842 0.148032
O O5 0.108934 0.824754 0.409783
O O6 0.662893 0.626309 0.013849
O O7 0.363006 0.886576 0.197438
O O8 0.369512 0.015038 0.317242
O O9 0.816367 0.949698 0.070184
O O10 0.749500 0.942025 0.878166
O O11 0.416075 0.197275 0.709957
O O12 0.047643 0.384429 0.824361
O O13 0.932830 0.283320 0.030595
O O14 0.924294 0.446435 0.165712
O O15 0.955193 0.011667 0.361537
O O16 0.780724 0.941261 0.338355
#
# Coordination Sequence:
#
# PCOD8009035 Si02
#       8
#     2   2   2   2   2   2   2   2
#     4  11  22  37  61  89 121 170 202 240 306 369
#     4  10  21  41  61  85 123 164 202 255 297 357
#     4  10  21  35  65  98 118 160 196 258 311 357
#     4  10  23  37  61  93 118 165 196 257 306 359
#     4  11  19  39  64  94 129 146 201 262 306 352
#     4  11  22  39  63  84 126 166 206 239 308 365
#     4  11  21  37  63  91 131 149 204 259 304 356
#     4  10  21  39  66  90 121 158 206 253 308 351
#
# _framework density 22.326173000000001
#
# number of rings (size 3 to 8) (size 9 to 14) (size 15 to 20)
#    0.000    1.500    3.750    3.750    1.750    0.500 
#    0.000    7.500    5.500    0.000    0.000    0.000 
#    0.000    0.000    0.000    0.000    0.000    0.000 
#
# Total GULP energy -198346.322068 kJ/mol
# GULP energy per Si atom -12396.645129 kJ/mol
# Density = 2.227536 g / cm^3
# Si number density = 22.326173 Si / 1000 Ang^3
#
#
#
# Elastic Constant Matrix: (Units=GPa)
#
#
# Indices 1 2 3 4 5 6 
#
# 1 65.4905 33.5639 29.3690 -1.7028 -0.3537 4.3423
# 2 33.5639 106.2945 47.9992 -3.4368 2.4225 -11.5641
# 3 29.3690 47.9992 143.3591 -1.5959 25.5126 -9.9859
# 4 -1.7028 -3.4368 -1.5959 31.0994 -4.3022 3.8706
# 5 -0.3537 2.4225 25.5126 -4.3022 45.4706 -4.9084
# 6 4.3423 -11.5641 -9.9859 3.8706 -4.9084 37.9174
#
#
#
# Elastic Compliance Matrix: (Units=1/GPa)
#
#
# Indices 1 2 3 4 5 6 
#
# 1 0.019651 -0.005437 -0.002800 0.001123 0.001628 -0.004550
# 2 -0.005437 0.012995 -0.003239 0.000708 0.001567 0.003863
# 3 -0.002800 -0.003239 0.009639 -0.000897 -0.005203 0.001289
# 4 0.001123 0.000708 -0.000897 0.033087 0.003270 -0.003103
# 5 0.001628 0.001567 -0.005203 0.003270 0.025352 0.001869
# 6 -0.004550 0.003863 0.001289 -0.003103 0.001869 0.028971
#
#
# Mechanical properties :
#
#
# Convention : Reuss Voigt Hill
#
# Bulk Modulus (GPa) = 51.72123 59.66757 55.69440
# Shear Modulus (GPa) = 31.42886 36.51162 33.97024
#
# Velocity S-wave (km/s) = 3.75602 4.04836 3.90493
# Velocity P-wave (km/s) = 6.48280 6.97393 6.73285
#
# Compressibility (1/GPa) = 0.01933442
#
# Stress axis : x y z
#
# Youngs Moduli (GPa) = 50.88862 76.95540 103.74184
#
# Poissons Ratio (x) = 0.41837 0.29045
# Poissons Ratio (y) = 0.27666 0.33601
# Poissons Ratio (z) = 0.14247 0.24925
#
# Static dielectric constant tensor:
#      x y z
#    x 4.233440 -0.174900 0.256190 
#    y -0.174900 3.899580 -0.031170 
#    z 0.256190 -0.031170 4.141910 
# 
# 
# High freq. dielectric constant tensor:
#      x y z
#    x 1.899690 -0.015080 0.015980 
#    y -0.015080 1.863510 -0.002240 
#    z 0.015980 -0.002240 1.879400 
# 
# From -- ./inp_files/434020.got.cif
#   From: 2010.06.25/outbox.cif.g09.slc.cpg/sg2_218_cif.got.tgz:434020.got - 2010.06.27 13:26:56.
