data_PCOD8009206
_publ_section_title
;
Structure prediction by ZEFSAII (Michael W. Deem and Ramdas Pophale) SiO2 
 PCOD8009206
Probable space group: P -1
;
_chemical_formula_sum "Si O2"
_cell_formula_units_Z 16
_cell_length_a 17.644233
_cell_length_b 11.420239
_cell_length_c 7.770114
_cell_angle_alpha 85.163753
_cell_angle_beta 140.113016
_cell_angle_gamma 66.123420
_cell_volume 678.721548
_symmetry_space_group_name_H-M "P -1"
_symmetry_group_IT_number 2
_symmetry_cell_setting 'triclinic'
loop_
_space_group_symop_operation_xyz
x,y,z
-x,-y,-z
loop_
_atom_site_type_symbol
_atom_site_label
_atom_site_fract_x
_atom_site_fract_y
_atom_site_fract_z
Si Si1 0.297130 0.981403 0.431798
Si Si2 0.497950 0.965060 0.303456
Si Si3 0.715713 0.579348 0.713099
Si Si4 0.080849 0.691716 0.182652
Si Si5 0.197649 0.043969 0.872386
Si Si6 0.173144 0.618335 0.749300
Si Si7 0.334070 0.704436 0.649182
Si Si8 0.634976 0.293592 0.929905
O O1 0.457501 0.955408 0.753011
O O2 0.370263 0.794343 0.587039
O O3 0.238099 0.061100 0.129692
O O4 0.124219 0.133011 0.224446
O O5 0.644315 0.761411 0.540057
O O6 0.500000 0.000000 0.500000
O O7 0.307952 0.043956 0.927645
O O8 0.861503 0.450023 0.836067
O O9 0.569718 0.584788 0.435913
O O10 0.786371 0.523372 0.041482
O O11 0.138491 0.611862 0.489121
O O12 0.176367 0.743942 0.292322
O O13 0.992124 0.200300 0.467431
O O14 0.261390 0.862684 0.003733
O O15 0.336313 0.588197 0.064642
O O16 0.500000 0.500000 0.000000
O O17 0.277079 0.800149 0.721011
#
# Coordination Sequence:
#
# PCOD8009206 Si02
#       8
#     2   2   2   2   2   2   2   2
#     4  10  22  41  65  86 128 171 199 266 317 359
#     4   9  21  43  65  88 124 167 216 254 310 377
#     4  11  22  40  65  91 132 166 207 262 305 372
#     4  10  23  40  61 100 128 159 214 251 319 382
#     4   9  20  39  61  91 121 161 216 253 309 381
#     4  10  22  37  64  94 128 164 200 265 317 361
#     4  11  22  38  61  93 129 157 206 263 310 373
#     4  10  21  36  58  92 127 159 212 249 313 387
#
# _framework density 23.573734999999999
#
# number of rings (size 3 to 8) (size 9 to 14) (size 15 to 20)
#    0.000    2.000    1.250    1.125    3.500    6.500 
#    0.000    9.375    2.750    0.000    0.000    0.000 
#    0.000    0.000    0.000    0.000    0.000    0.000 
#
# Total GULP energy -198213.451738 kJ/mol
# GULP energy per Si atom -12388.340734 kJ/mol
# Density = 2.352008 g / cm^3
# Si number density = 23.573735 Si / 1000 Ang^3
#
#
#
# Elastic Constant Matrix: (Units=GPa)
#
#
# Indices 1 2 3 4 5 6 
#
# 1 102.7737 50.4188 29.6139 -10.3775 13.0189 21.3155
# 2 50.4188 94.9622 21.8928 -12.8914 9.7175 -0.5114
# 3 29.6139 21.8928 46.8746 -13.5845 12.0826 6.4971
# 4 -10.3775 -12.8914 -13.5845 27.6084 -7.5474 2.0495
# 5 13.0189 9.7175 12.0826 -7.5474 27.8539 -3.1197
# 6 21.3155 -0.5114 6.4971 2.0495 -3.1197 36.4536
#
#
#
# Elastic Compliance Matrix: (Units=1/GPa)
#
#
# Indices 1 2 3 4 5 6 
#
# 1 0.017604 -0.007797 -0.004940 0.000063 -0.004458 -0.009908
# 2 -0.007797 0.015581 -0.002348 0.002977 0.000603 0.005080
# 3 -0.004940 -0.002348 0.031214 0.010512 -0.008010 -0.003984
# 4 0.000063 0.002977 0.010512 0.044752 0.006066 -0.003865
# 5 -0.004458 0.000603 -0.008010 0.006066 0.043727 0.007444
# 6 -0.009908 0.005080 -0.003984 -0.003865 0.007444 0.034861
#
#
# Mechanical properties :
#
#
# Convention : Reuss Voigt Hill
#
# Bulk Modulus (GPa) = 29.21372 49.82905 39.52138
# Shear Modulus (GPa) = 21.80364 27.89552 24.84958
#
# Velocity S-wave (km/s) = 3.04454 3.44369 3.25025
# Velocity P-wave (km/s) = 4.97778 6.08238 5.55760
#
# Compressibility (1/GPa) = 0.03423049
#
# Stress axis : x y z
#
# Youngs Moduli (GPa) = 56.80430 64.18003 32.03651
#
# Poissons Ratio (x) = 0.50038 0.15826
# Poissons Ratio (y) = 0.44288 0.07523
# Poissons Ratio (z) = 0.28061 0.15071
#
# Static dielectric constant tensor:
#      x y z
#    x 4.556410 -0.071250 0.379820 
#    y -0.071250 4.092810 0.192530 
#    z 0.379820 0.192530 4.216290 
# 
# 
# High freq. dielectric constant tensor:
#      x y z
#    x 1.931730 -0.011970 0.017620 
#    y -0.011970 1.925140 -0.000910 
#    z 0.017620 -0.000910 1.914950 
# 
# From -- ./inp_files/185875.got.cif
#   From: 2010.06.25/outbox.cif.g09.slc.cpg/sg2_93_cif.got.tgz:185875.got - 2010.06.27 13:26:56.
