data_PCOD8009036
_publ_section_title
;
Structure prediction by ZEFSAII (Michael W. Deem and Ramdas Pophale) SiO2 
 PCOD8009036
Probable space group: P -1
;
_chemical_formula_sum "Si O2"
_cell_formula_units_Z 14
_cell_length_a 13.743002
_cell_length_b 6.700679
_cell_length_c 11.016717
_cell_angle_alpha 83.250615
_cell_angle_beta 118.709380
_cell_angle_gamma 136.557126
_cell_volume 565.080167
_symmetry_space_group_name_H-M "P -1"
_symmetry_group_IT_number 2
_symmetry_cell_setting 'triclinic'
loop_
_space_group_symop_operation_xyz
x,y,z
-x,-y,-z
loop_
_atom_site_type_symbol
_atom_site_label
_atom_site_fract_x
_atom_site_fract_y
_atom_site_fract_z
Si Si1 0.396238 0.260619 0.067091
Si Si2 0.119711 0.181260 0.880091
Si Si3 0.207255 0.851800 0.495813
Si Si4 0.217920 0.550701 0.321670
Si Si5 0.158707 0.600262 0.032569
Si Si6 0.140402 0.401075 0.634220
Si Si7 0.345609 0.441893 0.583964
O O1 0.509951 0.347043 0.241558
O O2 0.278898 0.899378 0.991504
O O3 0.500000 0.500000 0.000000
O O4 0.258943 0.237358 0.028490
O O5 0.212596 0.407558 0.801218
O O6 0.070144 0.290270 0.933739
O O7 0.952376 0.826899 0.761069
O O8 0.172627 0.692711 0.358440
O O9 0.256181 0.754878 0.634441
O O10 0.049101 0.771979 0.449629
O O11 0.354107 0.227966 0.549776
O O12 0.276339 0.690482 0.211138
O O13 0.372146 0.637727 0.474370
O O14 0.000000 0.500000 0.000000
O O15 0.162754 0.262431 0.551045
#
# Coordination Sequence:
#
# PCOD8009036 Si02
#       7
#     2   2   2   2   2   2   2
#     4  12  29  47  72 111 152 187 237 299 373 429
#     4  12  25  44  77 105 145 189 249 302 350 431
#     4  10  22  36  70 103 145 185 240 299 356 417
#     4  11  25  45  73 107 137 193 253 289 352 436
#     4  12  28  49  78 105 143 196 250 297 357 428
#     4  10  21  35  66 105 138 184 241 289 357 419
#     4  11  24  43  67 104 149 186 234 301 363 428
#
# _framework density 24.775247
#
# number of rings (size 3 to 8) (size 9 to 14) (size 15 to 20)
#    0.000    0.857    4.286    1.714    6.000    3.429 
#    0.000    1.429    0.000    0.000    0.000    0.000 
#    0.000    0.000    0.000    0.000    0.000    0.000 
#
# Total GULP energy -173441.800522 kJ/mol
# GULP energy per Si atom -12388.700037 kJ/mol
# Density = 2.471886 g / cm^3
# Si number density = 24.775247 Si / 1000 Ang^3
#
#
#
# Elastic Constant Matrix: (Units=GPa)
#
#
# Indices 1 2 3 4 5 6 
#
# 1 72.1901 44.9636 33.0270 11.1525 -16.9846 -34.2657
# 2 44.9636 142.8091 42.1449 -6.0280 -12.4797 -21.3405
# 3 33.0270 42.1449 108.4502 -16.2698 -1.9959 -18.0745
# 4 11.1525 -6.0280 -16.2698 50.6531 -10.3651 -11.2251
# 5 -16.9846 -12.4797 -1.9959 -10.3651 38.8572 6.7983
# 6 -34.2657 -21.3405 -18.0745 -11.2251 6.7983 39.7222
#
#
#
# Elastic Compliance Matrix: (Units=1/GPa)
#
#
# Indices 1 2 3 4 5 6 
#
# 1 0.030243 -0.004800 -0.004392 -0.002836 0.007290 0.019462
# 2 -0.004800 0.009282 -0.001771 0.001929 0.001241 0.000373
# 3 -0.004392 -0.001771 0.012415 0.005111 -0.000927 0.002512
# 4 -0.002836 0.001929 0.005111 0.024834 0.005030 0.007073
# 5 0.007290 0.001241 -0.000927 0.005030 0.030125 0.002800
# 6 0.019462 0.000373 0.002512 0.007073 0.002800 0.044826
#
#
# Mechanical properties :
#
#
# Convention : Reuss Voigt Hill
#
# Bulk Modulus (GPa) = 33.31893 62.63559 47.97726
# Shear Modulus (GPa) = 27.22489 39.40076 33.31283
#
# Velocity S-wave (km/s) = 3.31852 3.99222 3.67086
# Velocity P-wave (km/s) = 5.30671 6.82545 6.11343
#
# Compressibility (1/GPa) = 0.03001297
#
# Stress axis : x y z
#
# Youngs Moduli (GPa) = 33.06586 107.73661 80.54846
#
# Poissons Ratio (x) = 0.51714 0.35380
# Poissons Ratio (y) = 0.15872 0.14264
# Poissons Ratio (z) = 0.14524 0.19078
#
# Static dielectric constant tensor:
#      x y z
#    x 4.337960 -0.389370 -0.017010 
#    y -0.389370 5.066870 -0.502690 
#    z -0.017010 -0.502690 4.422290 
# 
# 
# High freq. dielectric constant tensor:
#      x y z
#    x 1.974120 -0.026500 -0.002820 
#    y -0.026500 2.004310 -0.021040 
#    z -0.002820 -0.021040 1.974490 
# 
# From -- ./inp_files/441977.got.cif
#   From: 2010.06.25/outbox.cif.g09.slc.cpg/sg2_221_cif.got.tgz:441977.got - 2010.06.27 13:26:56.
