data_PCOD8009790
_publ_section_title
;
Structure prediction by ZEFSAII (Michael W. Deem and Ramdas Pophale) SiO2 
 PCOD8009790
Probable space group: P -1
;
_chemical_formula_sum "Si O2"
_cell_formula_units_Z 16
_cell_length_a 11.819090
_cell_length_b 10.372817
_cell_length_c 8.431583
_cell_angle_alpha 43.652732
_cell_angle_beta 89.773891
_cell_angle_gamma 78.706891
_cell_volume 685.085844
_symmetry_space_group_name_H-M "P -1"
_symmetry_group_IT_number 2
_symmetry_cell_setting 'triclinic'
loop_
_space_group_symop_operation_xyz
x,y,z
-x,-y,-z
loop_
_atom_site_type_symbol
_atom_site_label
_atom_site_fract_x
_atom_site_fract_y
_atom_site_fract_z
Si Si1 0.243108 0.295779 0.605085
Si Si2 0.228011 0.191189 0.349853
Si Si3 0.026091 0.773276 0.682747
Si Si4 0.515139 0.695709 0.255125
Si Si5 0.159034 0.641825 0.501921
Si Si6 0.739136 0.248310 0.152544
Si Si7 0.355568 0.416632 0.941086
Si Si8 0.261041 0.892397 0.064737
O O1 0.246604 0.301659 0.410568
O O2 0.375614 0.258062 0.700835
O O3 0.149588 0.490269 0.498871
O O4 0.197115 0.115119 0.825173
O O5 0.091616 0.280975 0.212041
O O6 0.259682 0.958107 0.584086
O O7 0.311833 0.240256 0.172420
O O8 0.043748 0.713500 0.548851
O O9 0.144211 0.680643 0.865797
O O10 0.000000 0.000000 0.500000
O O11 0.500000 0.500000 0.500000
O O12 0.526797 0.681958 0.073044
O O13 0.395925 0.865306 0.143737
O O14 0.268847 0.532782 0.703842
O O15 0.184053 0.831988 0.255198
O O16 0.631673 0.422885 0.070532
O O17 0.732444 0.245607 0.966166
#
# Coordination Sequence:
#
# PCOD8009790 Si02
#       8
#     2   2   2   2   2   2   2   2
#     4  10  22  39  60  89 119 155 197 243 295 346
#     4  10  21  41  59  86 124 151 196 247 285 349
#     4   9  20  40  62  87 120 158 196 237 292 348
#     4  11  22  41  60  87 116 157 199 239 299 349
#     4  10  21  38  60  91 117 158 199 235 296 345
#     4   9  21  39  61  89 119 157 194 240 294 343
#     4  10  21  37  61  86 115 155 197 241 295 347
#     4  11  21  41  61  85 126 152 193 251 286 347
#
# _framework density 23.354735999999999
#
# number of rings (size 3 to 8) (size 9 to 14) (size 15 to 20)
#    0.000    2.000    2.500    1.125    0.000    9.000 
#    2.250   10.625    0.000    0.000    0.000    0.000 
#    0.000    0.000    0.000    0.000    0.000    0.000 
#
# Total GULP energy -198326.261978 kJ/mol
# GULP energy per Si atom -12395.391374 kJ/mol
# Density = 2.330158 g / cm^3
# Si number density = 23.354736 Si / 1000 Ang^3
#
#
#
# Elastic Constant Matrix: (Units=GPa)
#
#
# Indices 1 2 3 4 5 6 
#
# 1 40.8295 27.6240 9.5299 4.8360 -13.5874 -3.6438
# 2 27.6240 89.6057 5.1735 0.9687 -15.1481 3.8136
# 3 9.5299 5.1735 94.2253 11.8989 -28.1984 -2.1129
# 4 4.8360 0.9687 11.8989 28.1295 -0.1624 1.7058
# 5 -13.5874 -15.1481 -28.1984 -0.1624 33.0522 6.6707
# 6 -3.6438 3.8136 -2.1129 1.7058 6.6707 34.8609
#
#
#
# Elastic Compliance Matrix: (Units=1/GPa)
#
#
# Indices 1 2 3 4 5 6 
#
# 1 0.034885 -0.009131 0.000899 -0.006188 0.010280 0.003035
# 2 -0.009131 0.014878 0.001437 0.000690 0.004998 -0.003485
# 3 0.000899 0.001437 0.015630 -0.006634 0.014652 -0.001595
# 4 -0.006188 0.000690 -0.006634 0.039454 -0.007362 -0.001646
# 5 0.010280 0.004998 0.014652 -0.007362 0.050841 -0.007953
# 6 0.003035 -0.003485 -0.001595 -0.001646 -0.007953 0.030890
#
#
# Mechanical properties :
#
#
# Convention : Reuss Voigt Hill
#
# Bulk Modulus (GPa) = 19.30392 34.36835 26.83614
# Shear Modulus (GPa) = 22.99559 31.36406 27.17982
#
# Velocity S-wave (km/s) = 3.14127 3.66859 3.41513
# Velocity P-wave (km/s) = 4.63036 5.71774 5.20254
#
# Compressibility (1/GPa) = 0.05180296
#
# Stress axis : x y z
#
# Youngs Moduli (GPa) = 28.66597 67.21506 63.97983
#
# Poissons Ratio (x) = 0.61372 -0.05752
# Poissons Ratio (y) = 0.26174 -0.09194
# Poissons Ratio (z) = -0.02577 -0.09659
#
# Static dielectric constant tensor:
#      x y z
#    x 4.499050 -0.087990 -0.024590 
#    y -0.087990 4.746490 0.090900 
#    z -0.024590 0.090900 4.054420 
# 
# 
# High freq. dielectric constant tensor:
#      x y z
#    x 1.902950 0.002570 -0.004830 
#    y 0.002570 1.935160 -0.002230 
#    z -0.004830 -0.002230 1.921520 
# 
# From -- ./inp_files/255825.got.cif
#   From: 2010.06.25/outbox.cif.g09.slc.cpg/sg2_128_cif.got.tgz:255825.got - 2010.06.27 13:26:56.
