data_PCOD8009574
_publ_section_title
;
Structure prediction by ZEFSAII (Michael W. Deem and Ramdas Pophale) SiO2 
 PCOD8009574
Probable space group: P -1
;
_chemical_formula_sum "Si O2"
_cell_formula_units_Z 14
_cell_length_a 10.626337
_cell_length_b 22.866605
_cell_length_c 8.726577
_cell_angle_alpha 53.526915
_cell_angle_beta 43.278666
_cell_angle_gamma 29.477823
_cell_volume 710.453075
_symmetry_space_group_name_H-M "P -1"
_symmetry_group_IT_number 2
_symmetry_cell_setting 'triclinic'
loop_
_space_group_symop_operation_xyz
x,y,z
-x,-y,-z
loop_
_atom_site_type_symbol
_atom_site_label
_atom_site_fract_x
_atom_site_fract_y
_atom_site_fract_z
Si Si1 0.567447 0.741424 0.449079
Si Si2 0.774476 0.861528 0.783962
Si Si3 0.671194 0.338146 0.178864
Si Si4 0.596910 0.153887 0.880886
Si Si5 0.758902 0.781127 0.639717
Si Si6 0.719601 0.037834 0.468362
Si Si7 0.158308 0.602329 0.302558
O O1 0.459222 0.700034 0.681932
O O2 0.529512 0.750633 0.284163
O O3 0.351367 0.873247 0.495635
O O4 0.912458 0.644788 0.340331
O O5 0.891080 0.803017 0.599501
O O6 0.020565 0.762652 0.844366
O O7 0.700059 0.970027 0.690035
O O8 0.474878 0.907233 0.013455
O O9 0.433089 0.460029 0.298819
O O10 0.729191 0.357379 0.933312
O O11 0.416322 0.224095 0.091734
O O12 0.949461 0.054974 0.751116
O O13 0.521466 0.892505 0.561648
O O14 0.026726 0.658105 0.501272
#
# Coordination Sequence:
#
# PCOD8009574 Si02
#       7
#     2   2   2   2   2   2   2
#     4  11  22  39  60  91 112 152 198 235 284 344
#     4  10  22  37  58  87 118 155 187 236 284 346
#     4  11  22  40  65  82 114 154 194 245 283 334
#     4  10  21  37  57  86 124 146 191 231 287 346
#     4   9  22  40  56  87 118 153 191 235 285 346
#     4  11  21  38  60  85 122 154 189 232 287 342
#     4  10  22  43  61  84 114 150 199 243 284 334
#
# _framework density 19.705736000000002
#
# number of rings (size 3 to 8) (size 9 to 14) (size 15 to 20)
#    0.857    0.857    2.857    1.714    0.000    3.429 
#    5.143    0.714    0.000    0.000    0.000    0.000 
#    0.000    0.000    0.000    0.000    0.000    0.000 
#
# Total GULP energy -173564.267018 kJ/mol
# GULP energy per Si atom -12397.447644 kJ/mol
# Density = 1.966088 g / cm^3
# Si number density = 19.705736 Si / 1000 Ang^3
#
#
#
# Elastic Constant Matrix: (Units=GPa)
#
#
# Indices 1 2 3 4 5 6 
#
# 1 29.1053 10.5184 7.2055 -13.8114 -4.2894 10.7116
# 2 10.5184 40.9777 12.7806 -16.2683 -2.5751 10.2587
# 3 7.2055 12.7806 79.4916 -5.9344 -12.5474 14.0683
# 4 -13.8114 -16.2683 -5.9344 25.1063 3.1189 -2.8795
# 5 -4.2894 -2.5751 -12.5474 3.1189 41.3947 -3.2604
# 6 10.7116 10.2587 14.0683 -2.8795 -3.2604 20.4170
#
#
#
# Elastic Compliance Matrix: (Units=1/GPa)
#
#
# Indices 1 2 3 4 5 6 
#
# 1 0.058593 0.004594 0.001907 0.032004 0.002201 -0.029497
# 2 0.004594 0.037764 -0.001812 0.024757 -0.000912 -0.016790
# 3 0.001907 -0.001812 0.015143 0.001878 0.003773 -0.009657
# 4 0.032004 0.024757 0.001878 0.071752 -0.001608 -0.020661
# 5 0.002201 -0.000912 0.003773 -0.001608 0.025639 0.000571
# 6 -0.029497 -0.016790 -0.009657 -0.020661 0.000571 0.076722
#
#
# Mechanical properties :
#
#
# Convention : Reuss Voigt Hill
#
# Bulk Modulus (GPa) = 8.27286 23.39818 15.83552
# Shear Modulus (GPa) = 15.79639 25.32161 20.55900
#
# Velocity S-wave (km/s) = 2.83435 3.58856 3.23352
# Velocity P-wave (km/s) = 3.86247 5.39165 4.68981
#
# Compressibility (1/GPa) = 0.12087721
#
# Stress axis : x y z
#
# Youngs Moduli (GPa) = 17.06703 26.48014 66.03590
#
# Poissons Ratio (x) = -0.12164 -0.12595
# Poissons Ratio (y) = -0.07840 0.11968
# Poissons Ratio (z) = -0.03255 0.04799
#
# Static dielectric constant tensor:
#      x y z
#    x 3.483300 -0.081940 -0.052200 
#    y -0.081940 3.425380 -0.015770 
#    z -0.052200 -0.015770 3.695810 
# 
# 
# High freq. dielectric constant tensor:
#      x y z
#    x 1.762040 -0.012750 -0.005100 
#    y -0.012750 1.753540 -0.004290 
#    z -0.005100 -0.004290 1.775720 
# 
# From -- ./inp_files/267874.got.cif
#   From: 2010.06.25/outbox.cif.g09.slc.cpg/sg2_134_cif.got.tgz:267874.got - 2010.06.27 13:26:56.
