data_PCOD8009578
_publ_section_title
;
Structure prediction by ZEFSAII (Michael W. Deem and Ramdas Pophale) SiO2 
 PCOD8009578
Probable space group: P -1
;
_chemical_formula_sum "Si O2"
_cell_formula_units_Z 16
_cell_length_a 15.285732
_cell_length_b 12.068408
_cell_length_c 5.287509
_cell_angle_alpha 99.466109
_cell_angle_beta 65.472128
_cell_angle_gamma 69.606423
_cell_volume 775.191280
_symmetry_space_group_name_H-M "P -1"
_symmetry_group_IT_number 2
_symmetry_cell_setting 'triclinic'
loop_
_space_group_symop_operation_xyz
x,y,z
-x,-y,-z
loop_
_atom_site_type_symbol
_atom_site_label
_atom_site_fract_x
_atom_site_fract_y
_atom_site_fract_z
Si Si1 0.644382 0.258547 0.884330
Si Si2 0.573048 0.087491 0.158907
Si Si3 0.640887 0.813581 0.865183
Si Si4 0.526108 0.702513 0.271268
Si Si5 0.886209 0.653413 0.439323
Si Si6 0.325900 0.549357 0.784159
Si Si7 0.997262 0.355171 0.202201
Si Si8 0.209052 0.650651 0.452289
O O1 0.537402 0.338394 0.872684
O O2 0.753042 0.239369 0.592836
O O3 0.648173 0.125041 0.901441
O O4 0.631207 0.345887 0.181800
O O5 0.450915 0.137033 0.221282
O O6 0.560476 0.160640 0.463698
O O7 0.632900 0.936963 0.070446
O O8 0.758746 0.735725 0.571419
O O9 0.624593 0.719473 0.038915
O O10 0.575837 0.593262 0.382065
O O11 0.916852 0.688208 0.688373
O O12 0.919144 0.505557 0.343811
O O13 0.943880 0.689384 0.154721
O O14 0.269930 0.565109 0.588436
O O15 0.243828 0.563971 0.122829
O O16 0.919581 0.289532 0.321816
#
# Coordination Sequence:
#
# PCOD8009578 Si02
#       8
#     2   2   2   2   2   2   2   2
#     4   9  22  36  55  88 120 165 194 252 292 359
#     4  10  22  39  59  85 124 164 211 237 288 363
#     4  10  23  39  58  89 120 166 202 248 296 353
#     4  11  21  35  58  86 124 158 203 247 295 368
#     4  10  22  38  61  87 118 155 193 255 300 352
#     4  10  22  33  60  89 124 157 194 240 312 356
#     4  10  21  38  61  89 118 149 200 245 311 358
#     4  10  21  37  57  89 120 157 189 246 306 362
#
# _framework density 20.640070000000001
#
# number of rings (size 3 to 8) (size 9 to 14) (size 15 to 20)
#    0.750    1.250    0.000    3.000    7.000    2.000 
#    0.000    0.000    0.000    1.500    0.000    0.000 
#    0.000    0.000    0.000    0.000    0.000    0.000 
#
# Total GULP energy -198296.096790 kJ/mol
# GULP energy per Si atom -12393.506049 kJ/mol
# Density = 2.059309 g / cm^3
# Si number density = 20.640070 Si / 1000 Ang^3
#
#
#
# Elastic Constant Matrix: (Units=GPa)
#
#
# Indices 1 2 3 4 5 6 
#
# 1 78.1820 36.2678 38.1251 -15.1517 -19.5703 9.7712
# 2 36.2678 48.1831 14.0505 -1.5638 -11.8381 12.0185
# 3 38.1251 14.0505 98.7325 -14.1295 -11.1989 2.4501
# 4 -15.1517 -1.5638 -14.1295 27.3652 4.3027 -2.2673
# 5 -19.5703 -11.8381 -11.1989 4.3027 39.7397 -10.0344
# 6 9.7712 12.0185 2.4501 -2.2673 -10.0344 25.0649
#
#
#
# Elastic Compliance Matrix: (Units=1/GPa)
#
#
# Indices 1 2 3 4 5 6 
#
# 1 0.026761 -0.017084 -0.005852 0.010044 0.005741 0.001538
# 2 -0.017084 0.036099 0.000645 -0.008081 0.000565 -0.011218
# 3 -0.005852 0.000645 0.012853 0.003404 0.000915 0.001390
# 4 0.010044 -0.008081 0.003404 0.043743 -0.000370 0.003435
# 5 0.005741 0.000565 0.000915 -0.000370 0.030918 0.009746
# 6 0.001538 -0.011218 0.001390 0.003435 0.009746 0.048752
#
#
# Mechanical properties :
#
#
# Convention : Reuss Voigt Hill
#
# Bulk Modulus (GPa) = 32.12056 44.66493 38.39275
# Shear Modulus (GPa) = 19.67859 27.54424 23.61141
#
# Velocity S-wave (km/s) = 3.09109 3.65705 3.38592
# Velocity P-wave (km/s) = 5.32314 6.28641 5.82472
#
# Compressibility (1/GPa) = 0.03113270
#
# Stress axis : x y z
#
# Youngs Moduli (GPa) = 37.36830 27.70121 77.80485
#
# Poissons Ratio (x) = 0.47324 0.45531
# Poissons Ratio (y) = 0.63839 -0.05022
# Poissons Ratio (z) = 0.21868 -0.01788
#
# Static dielectric constant tensor:
#      x y z
#    x 3.648560 0.256670 0.027780 
#    y 0.256670 3.486300 -0.243240 
#    z 0.027780 -0.243240 3.686440 
# 
# 
# High freq. dielectric constant tensor:
#      x y z
#    x 1.802380 0.019600 0.007180 
#    y 0.019600 1.775120 -0.028650 
#    z 0.007180 -0.028650 1.806420 
# 
# From -- ./inp_files/95114.got.cif
#   From: 2010.06.25/outbox.cif.g09.slc.cpg/sg2_48_cif.got.tgz:95114.got - 2010.06.27 13:26:56.
