data_PCOD8009228
_publ_section_title
;
Structure prediction by ZEFSAII (Michael W. Deem and Ramdas Pophale) SiO2 
 PCOD8009228
Probable space group: P -1
;
_chemical_formula_sum "Si O2"
_cell_formula_units_Z 16
_cell_length_a 14.048595
_cell_length_b 8.272128
_cell_length_c 8.765444
_cell_angle_alpha 82.069280
_cell_angle_beta 50.014881
_cell_angle_gamma 94.298308
_cell_volume 754.855115
_symmetry_space_group_name_H-M "P -1"
_symmetry_group_IT_number 2
_symmetry_cell_setting 'triclinic'
loop_
_space_group_symop_operation_xyz
x,y,z
-x,-y,-z
loop_
_atom_site_type_symbol
_atom_site_label
_atom_site_fract_x
_atom_site_fract_y
_atom_site_fract_z
Si Si1 0.825111 0.688412 0.969810
Si Si2 0.830232 0.586812 0.643566
Si Si3 0.691233 0.940868 0.955415
Si Si4 0.703195 0.832435 0.617259
Si Si5 0.204649 0.664739 0.892235
Si Si6 0.107085 0.729800 0.296282
Si Si7 0.926461 0.091148 0.189967
Si Si8 0.536739 0.114475 0.303497
O O1 0.788679 0.599177 0.857869
O O2 0.724868 0.810570 0.064700
O O3 0.967250 0.799087 0.825313
O O4 0.804762 0.529165 0.129450
O O5 0.732836 0.646568 0.620019
O O6 0.841259 0.396528 0.623061
O O7 0.961394 0.724239 0.479834
O O8 0.660016 0.874164 0.825975
O O9 0.817109 0.083970 0.787277
O O10 0.574681 0.009611 0.135671
O O11 0.585055 0.815055 0.628336
O O12 0.828621 0.958254 0.408255
O O13 0.159162 0.784030 0.800727
O O14 0.348951 0.734930 0.788157
O O15 0.109843 0.661100 0.131447
O O16 0.000000 0.000000 0.000000
O O17 0.500000 0.000000 0.500000
#
# Coordination Sequence:
#
# PCOD8009228 Si02
#       8
#     2   2   2   2   2   2   2   2
#     4  10  21  36  59  85 120 149 195 247 300 349
#     4   9  18  34  56  89 118 150 189 245 294 356
#     4  10  21  39  61  87 114 156 199 246 293 350
#     4  11  22  37  61  90 118 154 202 238 293 348
#     4  10  21  38  56  85 118 160 193 244 293 346
#     4   9  17  34  59  83 122 150 189 239 304 347
#     4  12  22  35  61  89 122 158 195 239 300 361
#     4  11  22  42  63  81 119 161 202 243 289 351
#
# _framework density 21.196120000000001
#
# number of rings (size 3 to 8) (size 9 to 14) (size 15 to 20)
#    0.000    1.750    1.250    4.500    0.000    2.000 
#    0.000   13.125    0.000    0.000    0.000    0.000 
#    0.000    0.000    0.000    0.000    0.000    0.000 
#
# Total GULP energy -198231.115499 kJ/mol
# GULP energy per Si atom -12389.444719 kJ/mol
# Density = 2.114788 g / cm^3
# Si number density = 21.196120 Si / 1000 Ang^3
#
#
#
# Elastic Constant Matrix: (Units=GPa)
#
#
# Indices 1 2 3 4 5 6 
#
# 1 116.1802 44.9103 8.2429 0.9810 -4.8037 -30.9853
# 2 44.9103 88.5706 11.4212 -14.2022 -7.5978 -24.9183
# 3 8.2429 11.4212 70.3750 -3.4935 0.0193 -5.7021
# 4 0.9810 -14.2022 -3.4935 17.0908 -6.8712 0.8239
# 5 -4.8037 -7.5978 0.0193 -6.8712 24.3593 -2.3901
# 6 -30.9853 -24.9183 -5.7021 0.8239 -2.3901 35.2369
#
#
#
# Elastic Compliance Matrix: (Units=1/GPa)
#
#
# Indices 1 2 3 4 5 6 
#
# 1 0.012683 -0.005076 -0.000306 -0.005309 0.000171 0.007650
# 2 -0.005076 0.022110 -0.000912 0.023402 0.013616 0.011400
# 3 -0.000306 -0.000912 0.014626 0.002361 0.000450 0.001429
# 4 -0.005309 0.023402 0.002361 0.091530 0.033284 0.012381
# 5 0.000171 0.013616 0.000450 0.033284 0.055984 0.012871
# 6 0.007650 0.011400 0.001429 0.012381 0.012871 0.043982
#
#
# Mechanical properties :
#
#
# Convention : Reuss Voigt Hill
#
# Bulk Modulus (GPa) = 27.15031 44.91940 36.03486
# Shear Modulus (GPa) = 18.81251 29.37416 24.09334
#
# Velocity S-wave (km/s) = 2.98240 3.72671 3.37514
# Velocity P-wave (km/s) = 4.96956 6.30524 5.67682
#
# Compressibility (1/GPa) = 0.03683199
#
# Stress axis : x y z
#
# Youngs Moduli (GPa) = 78.84419 45.22883 68.37030
#
# Poissons Ratio (x) = 0.22959 0.02089
# Poissons Ratio (y) = 0.40022 0.06235
# Poissons Ratio (z) = 0.02409 0.04125
#
# Static dielectric constant tensor:
#      x y z
#    x 3.841460 -0.455000 0.028200 
#    y -0.455000 4.071270 0.121360 
#    z 0.028200 0.121360 3.558490 
# 
# 
# High freq. dielectric constant tensor:
#      x y z
#    x 1.823740 -0.029110 0.001050 
#    y -0.029110 1.836190 -0.008810 
#    z 0.001050 -0.008810 1.818400 
# 
# From -- ./inp_files/179204.got.cif
#   From: 2010.06.25/outbox.cif.g09.slc.cpg/sg2_90_cif.got.tgz:179204.got - 2010.06.27 13:26:56.
