data_PCOD8009962
_publ_section_title
;
Structure prediction by ZEFSAII (Michael W. Deem and Ramdas Pophale) SiO2 
 PCOD8009962
Probable space group: P -1
;
_chemical_formula_sum "Si O2"
_cell_formula_units_Z 16
_cell_length_a 9.034175
_cell_length_b 22.369013
_cell_length_c 19.146883
_cell_angle_alpha 17.487480
_cell_angle_beta 37.218799
_cell_angle_gamma 37.325479
_cell_volume 689.600470
_symmetry_space_group_name_H-M "P -1"
_symmetry_group_IT_number 2
_symmetry_cell_setting 'triclinic'
loop_
_space_group_symop_operation_xyz
x,y,z
-x,-y,-z
loop_
_atom_site_type_symbol
_atom_site_label
_atom_site_fract_x
_atom_site_fract_y
_atom_site_fract_z
Si Si1 0.964001 0.972433 0.202912
Si Si2 0.991512 0.798547 0.933639
Si Si3 0.624932 0.201536 0.967337
Si Si4 0.680669 0.645859 0.714274
Si Si5 0.166244 0.975067 0.395542
Si Si6 0.757509 0.529678 0.960803
Si Si7 0.280646 0.505501 0.835305
Si Si8 0.449310 0.729183 0.237944
O O1 0.256876 0.870386 0.204790
O O2 0.797342 0.801385 0.452716
O O3 0.894945 0.094575 0.164204
O O4 0.883385 0.109191 0.012274
O O5 0.002209 0.916613 0.725683
O O6 0.707631 0.802447 0.057621
O O7 0.152834 0.576063 0.112397
O O8 0.528936 0.425287 0.787575
O O9 0.681866 0.241717 0.821037
O O10 0.416512 0.065270 0.210400
O O11 0.676692 0.692361 0.747660
O O12 0.398173 0.651987 0.787333
O O13 0.246609 0.740882 0.603351
O O14 0.000000 0.000000 0.500000
O O15 0.056286 0.446718 0.937858
O O16 0.704339 0.624037 0.953302
O O17 0.500000 0.500000 0.500000
#
# Coordination Sequence:
#
# PCOD8009962 Si02
#       8
#     2   2   2   2   2   2   2   2
#     4  12  25  43  68  98 131 168 222 277 334 384
#     4  11  24  41  69  98 128 171 225 268 325 399
#     4  11  26  43  67  98 134 171 220 274 325 393
#     4  11  22  41  61  94 136 169 213 267 327 374
#     4  11  23  40  68  99 136 181 219 258 326 394
#     4  10  21  37  63  90 131 177 209 259 310 390
#     4  11  21  41  63  91 135 173 220 259 321 382
#     4  11  24  48  72  90 129 174 216 280 341 382
#
# _framework density 23.201841000000002
#
# number of rings (size 3 to 8) (size 9 to 14) (size 15 to 20)
#    0.000    1.000    1.250    6.750    1.750    1.000 
#    0.000    5.000    0.000    0.000    0.000    0.000 
#    0.000    0.000    0.000    0.000    0.000    0.000 
#
# Total GULP energy -198360.073369 kJ/mol
# GULP energy per Si atom -12397.504586 kJ/mol
# Density = 2.314903 g / cm^3
# Si number density = 23.201841 Si / 1000 Ang^3
#
#
#
# Elastic Constant Matrix: (Units=GPa)
#
#
# Indices 1 2 3 4 5 6 
#
# 1 135.2113 26.0465 38.3869 -7.5163 17.0251 4.0616
# 2 26.0465 55.2251 39.4437 -15.7455 -3.8740 10.1692
# 3 38.3869 39.4437 99.4725 -4.8252 11.7716 6.1644
# 4 -7.5163 -15.7455 -4.8252 39.4808 0.9931 0.9578
# 5 17.0251 -3.8740 11.7716 0.9931 26.9416 7.3746
# 6 4.0616 10.1692 6.1644 0.9578 7.3746 33.4433
#
#
#
# Elastic Compliance Matrix: (Units=1/GPa)
#
#
# Indices 1 2 3 4 5 6 
#
# 1 0.009340 -0.004299 -0.001245 0.000030 -0.006478 0.001830
# 2 -0.004299 0.036630 -0.013515 0.012012 0.016777 -0.012169
# 3 -0.001245 -0.013515 0.016607 -0.003447 -0.009196 0.003326
# 4 0.000030 0.012012 -0.003447 0.029731 0.003382 -0.004618
# 5 -0.006478 0.016777 -0.009196 0.003382 0.051360 -0.014042
# 6 0.001830 -0.012169 0.003326 -0.004618 -0.014042 0.035995
#
#
# Mechanical properties :
#
#
# Convention : Reuss Voigt Hill
#
# Bulk Modulus (GPa) = 40.88181 55.29589 48.08885
# Shear Modulus (GPa) = 22.13043 32.37526 27.25284
#
# Velocity S-wave (km/s) = 3.09175 3.73952 3.43096
# Velocity P-wave (km/s) = 5.51394 6.52148 6.03876
#
# Compressibility (1/GPa) = 0.02446076
#
# Stress axis : x y z
#
# Youngs Moduli (GPa) = 107.06904 27.29996 60.21405
#
# Poissons Ratio (x) = 0.11735 0.07497
# Poissons Ratio (y) = 0.46024 0.81377
# Poissons Ratio (z) = 0.13331 0.36895
#
# Static dielectric constant tensor:
#      x y z
#    x 4.509530 0.086520 0.203610 
#    y 0.086520 4.107210 0.053890 
#    z 0.203610 0.053890 4.058560 
# 
# 
# High freq. dielectric constant tensor:
#      x y z
#    x 1.935770 0.004170 0.011410 
#    y 0.004170 1.917430 0.000030 
#    z 0.011410 0.000030 1.901870 
# 
# From -- ./inp_files/562866.got.cif
#   From: 2010.06.25/outbox.cif.g09.slc.cpg/sg2_282_cif.got.tgz:562866.got - 2010.06.27 13:26:56.
