data_PCOD8009276
_publ_section_title
;
Structure prediction by ZEFSAII (Michael W. Deem and Ramdas Pophale) SiO2 
 PCOD8009276
Probable space group: P -1
;
_chemical_formula_sum "Si O2"
_cell_formula_units_Z 16
_cell_length_a 12.125294
_cell_length_b 11.960617
_cell_length_c 13.595909
_cell_angle_alpha 124.808327
_cell_angle_beta 132.254225
_cell_angle_gamma 93.581344
_cell_volume 813.321216
_symmetry_space_group_name_H-M "P -1"
_symmetry_group_IT_number 2
_symmetry_cell_setting 'triclinic'
loop_
_space_group_symop_operation_xyz
x,y,z
-x,-y,-z
loop_
_atom_site_type_symbol
_atom_site_label
_atom_site_fract_x
_atom_site_fract_y
_atom_site_fract_z
Si Si1 0.161249 0.676489 0.370222
Si Si2 0.822768 0.997330 0.912452
Si Si3 0.813128 0.797227 0.169430
Si Si4 0.338022 0.593684 0.078126
Si Si5 0.283008 0.056048 0.659762
Si Si6 0.790143 0.577608 0.656802
Si Si7 0.664628 0.685819 0.805500
Si Si8 0.533741 0.160059 0.539612
O O1 0.237366 0.602671 0.446114
O O2 0.248657 0.716474 0.332125
O O3 0.268055 0.884690 0.584570
O O4 0.899414 0.498822 0.122794
O O5 0.676753 0.840111 0.833962
O O6 0.674594 0.941120 0.702961
O O7 0.970511 0.227072 0.147138
O O8 0.000000 0.000000 0.000000
O O9 0.717129 0.868852 0.197340
O O10 0.684436 0.584113 0.033824
O O11 0.782391 0.779545 0.026203
O O12 0.074308 0.963719 0.424555
O O13 0.495138 0.757918 0.170703
O O14 0.431673 0.691406 0.290967
O O15 0.771643 0.631766 0.782850
O O16 0.598027 0.514708 0.442451
O O17 0.500000 0.000000 0.500000
#
# Coordination Sequence:
#
# PCOD8009276 Si02
#       8
#     2   2   2   2   2   2   2   2
#     4  11  22  39  58  88 125 157 195 251 308 365
#     4  10  23  36  57  91 127 161 198 247 303 375
#     4  10  23  40  65  85 118 161 208 253 300 358
#     4  11  23  36  63  88 122 158 201 254 304 366
#     4  10  23  42  59  91 119 157 207 256 301 354
#     4  10  21  36  60  88 124 153 196 241 304 371
#     4  10  21  39  60  86 120 160 197 248 297 362
#     4  12  22  37  61  95 127 162 196 248 320 370
#
# _framework density 19.672423999999999
#
# number of rings (size 3 to 8) (size 9 to 14) (size 15 to 20)
#    0.000    1.500    2.500    2.250    7.000    1.000 
#    0.000    0.625    0.000    1.500    0.000    0.000 
#    0.000    0.000    0.000    0.000    0.000    0.000 
#
# Total GULP energy -198356.527693 kJ/mol
# GULP energy per Si atom -12397.282981 kJ/mol
# Density = 1.962765 g / cm^3
# Si number density = 19.672424 Si / 1000 Ang^3
#
#
#
# Elastic Constant Matrix: (Units=GPa)
#
#
# Indices 1 2 3 4 5 6 
#
# 1 85.4716 29.0889 36.8551 7.1315 0.0892 -9.9798
# 2 29.0889 90.8500 32.3191 9.0899 8.8649 -19.9704
# 3 36.8551 32.3191 98.9348 4.8795 11.2909 0.1939
# 4 7.1315 9.0899 4.8795 35.8975 4.3667 -0.0048
# 5 0.0892 8.8649 11.2909 4.3667 35.4736 7.7512
# 6 -9.9798 -19.9704 0.1939 -0.0048 7.7512 22.8911
#
#
#
# Elastic Compliance Matrix: (Units=1/GPa)
#
#
# Indices 1 2 3 4 5 6 
#
# 1 0.015273 -0.002029 -0.005092 -0.001993 0.001358 0.004472
# 2 -0.002029 0.017750 -0.004207 -0.002735 -0.006429 0.016813
# 3 -0.005092 -0.004207 0.013614 0.000491 -0.002178 -0.005268
# 4 -0.001993 -0.002735 0.000491 0.029187 -0.002537 -0.002394
# 5 0.001358 -0.006429 -0.002178 -0.002537 0.034439 -0.016660
# 6 0.004472 0.016813 -0.005268 -0.002394 -0.016660 0.065987
#
#
# Mechanical properties :
#
#
# Convention : Reuss Voigt Hill
#
# Bulk Modulus (GPa) = 41.70037 52.42029 47.06033
# Shear Modulus (GPa) = 24.16628 30.65199 27.40914
#
# Velocity S-wave (km/s) = 3.50871 3.95158 3.73671
# Velocity P-wave (km/s) = 6.13662 6.89380 6.52620
#
# Compressibility (1/GPa) = 0.02398060
#
# Stress axis : x y z
#
# Youngs Moduli (GPa) = 65.47531 56.33785 73.45596
#
# Poissons Ratio (x) = 0.11430 0.37404
# Poissons Ratio (y) = 0.13284 0.30903
# Poissons Ratio (z) = 0.33341 0.23701
#
# Static dielectric constant tensor:
#      x y z
#    x 3.554930 -0.074690 0.149000 
#    y -0.074690 3.861000 0.491500 
#    z 0.149000 0.491500 3.818650 
# 
# 
# High freq. dielectric constant tensor:
#      x y z
#    x 1.745980 -0.013860 0.019460 
#    y -0.013860 1.768820 0.023220 
#    z 0.019460 0.023220 1.774200 
# 
# From -- ./inp_files/397449.got.cif
#   From: 2010.06.25/outbox.cif.g09.slc.cpg/sg2_199_cif.got.tgz:397449.got - 2010.06.27 13:26:56.
