data_PCOD8009862
_publ_section_title
;
Structure prediction by ZEFSAII (Michael W. Deem and Ramdas Pophale) SiO2 
 PCOD8009862
Probable space group: P -1
;
_chemical_formula_sum "Si O2"
_cell_formula_units_Z 16
_cell_length_a 9.718465
_cell_length_b 6.721779
_cell_length_c 29.796568
_cell_angle_alpha 109.992460
_cell_angle_beta 39.867826
_cell_angle_gamma 133.453792
_cell_volume 830.270088
_symmetry_space_group_name_H-M "P -1"
_symmetry_group_IT_number 2
_symmetry_cell_setting 'triclinic'
loop_
_space_group_symop_operation_xyz
x,y,z
-x,-y,-z
loop_
_atom_site_type_symbol
_atom_site_label
_atom_site_fract_x
_atom_site_fract_y
_atom_site_fract_z
Si Si1 0.656692 0.277411 0.950700
Si Si2 0.302984 0.284344 0.969423
Si Si3 0.803767 0.161720 0.717096
Si Si4 0.301881 0.727872 0.470254
Si Si5 0.342734 0.616205 0.550455
Si Si6 0.153600 0.144641 0.698118
Si Si7 0.800126 0.409966 0.222760
Si Si8 0.840024 0.590980 0.797274
O O1 0.414108 0.175213 0.965947
O O2 0.950583 0.378225 0.861928
O O3 0.768311 0.554834 0.972697
O O4 0.500000 0.000000 0.000000
O O5 0.560182 0.511530 0.885573
O O6 0.000000 0.000000 0.000000
O O7 0.711064 0.294855 0.781538
O O8 0.054095 0.412150 0.638800
O O9 0.927666 0.057455 0.708511
O O10 0.513963 0.878108 0.741804
O O11 0.226023 0.609042 0.530751
O O12 0.546520 0.738565 0.389979
O O13 0.000000 0.500000 0.500000
O O14 0.417373 0.049550 0.463891
O O15 0.500000 0.500000 0.500000
O O16 0.254987 0.410564 0.723769
O O17 0.984535 0.852157 0.746666
O O18 0.907171 0.300286 0.221316
#
# Coordination Sequence:
#
# PCOD8009862 Si02
#       8
#     2   2   2   2   2   2   2   2
#     4  10  21  39  59  89 122 152 201 245 284 354
#     4  10  21  37  62  87 118 158 196 242 295 344
#     4  11  23  40  61  86 123 155 196 246 293 347
#     4  11  26  41  64  89 117 156 199 239 296 353
#     4  11  24  43  61  88 120 152 196 247 290 349
#     4  11  23  40  58  89 119 153 198 243 289 354
#     4  10  24  38  61  89 118 160 195 239 301 345
#     4  10  22  41  58  87 124 153 198 245 289 353
#
# _framework density 19.270837
#
# number of rings (size 3 to 8) (size 9 to 14) (size 15 to 20)
#    0.000    1.500    2.500    1.500    3.500    3.000 
#    0.000    0.000    0.000    0.000    0.000    0.000 
#    0.000    0.000    0.000    0.000    0.000    0.000 
#
# Total GULP energy -198496.817203 kJ/mol
# GULP energy per Si atom -12406.051075 kJ/mol
# Density = 1.922698 g / cm^3
# Si number density = 19.270837 Si / 1000 Ang^3
#
#
#
# Elastic Constant Matrix: (Units=GPa)
#
#
# Indices 1 2 3 4 5 6 
#
# 1 107.3325 78.9941 45.5294 -14.8906 -0.2470 13.0355
# 2 78.9941 106.9656 39.1580 -7.7502 -8.3266 17.5218
# 3 45.5294 39.1580 82.6590 7.7753 13.7378 0.0231
# 4 -14.8906 -7.7502 7.7753 34.6668 -5.0223 5.5125
# 5 -0.2470 -8.3266 13.7378 -5.0223 31.2266 -9.7192
# 6 13.0355 17.5218 0.0231 5.5125 -9.7192 41.6731
#
#
#
# Elastic Compliance Matrix: (Units=1/GPa)
#
#
# Indices 1 2 3 4 5 6 
#
# 1 0.024911 -0.014211 -0.008016 0.009881 0.000596 -0.002981
# 2 -0.014211 0.022598 -0.004149 0.001449 0.006835 -0.003651
# 3 -0.008016 -0.004149 0.021451 -0.011332 -0.011476 0.003062
# 4 0.009881 0.001449 -0.011332 0.038384 0.009589 -0.006535
# 5 0.000596 0.006835 -0.011476 0.009589 0.042157 0.005510
# 6 -0.002981 -0.003651 0.003062 -0.006535 0.005510 0.028612
#
#
# Mechanical properties :
#
#
# Convention : Reuss Voigt Hill
#
# Bulk Modulus (GPa) = 61.70294 69.36888 65.53591
# Shear Modulus (GPa) = 21.16238 30.39836 25.78037
#
# Velocity S-wave (km/s) = 3.31744 3.97599 3.66155
# Velocity P-wave (km/s) = 6.83829 7.55996 7.20816
#
# Compressibility (1/GPa) = 0.01620668
#
# Stress axis : x y z
#
# Youngs Moduli (GPa) = 40.14326 44.25192 46.61745
#
# Poissons Ratio (x) = 0.62888 0.37371
# Poissons Ratio (y) = 0.57049 0.19340
# Poissons Ratio (z) = 0.32181 0.18359
#
# Static dielectric constant tensor:
#      x y z
#    x 3.406940 -0.230660 0.307280 
#    y -0.230660 3.250290 0.386210 
#    z 0.307280 0.386210 3.713690 
# 
# 
# High freq. dielectric constant tensor:
#      x y z
#    x 1.756310 -0.000160 0.010690 
#    y -0.000160 1.754690 0.009320 
#    z 0.010690 0.009320 1.768140 
# 
# From -- ./inp_files/10754.got.cif
#   From: 2010.06.25/outbox.cif.g09.slc.cpg/sg2_6_cif.got.tgz:10754.got - 2010.06.27 13:26:56.
