data_PCOD8009416
_publ_section_title
;
Structure prediction by ZEFSAII (Michael W. Deem and Ramdas Pophale) SiO2 
 PCOD8009416
Probable space group: P -1
;
_chemical_formula_sum "Si O2"
_cell_formula_units_Z 16
_cell_length_a 9.675680
_cell_length_b 15.475147
_cell_length_c 8.943618
_cell_angle_alpha 140.400062
_cell_angle_beta 81.472070
_cell_angle_gamma 108.004530
_cell_volume 802.836430
_symmetry_space_group_name_H-M "P -1"
_symmetry_group_IT_number 2
_symmetry_cell_setting 'triclinic'
loop_
_space_group_symop_operation_xyz
x,y,z
-x,-y,-z
loop_
_atom_site_type_symbol
_atom_site_label
_atom_site_fract_x
_atom_site_fract_y
_atom_site_fract_z
Si Si1 0.332966 0.757630 0.552258
Si Si2 0.764670 0.233482 0.092382
Si Si3 0.226488 0.448984 0.553729
Si Si4 0.564922 0.967532 0.598834
Si Si5 0.327766 0.292166 0.826058
Si Si6 0.039868 0.574181 0.252293
Si Si7 0.090538 0.332827 0.116887
Si Si8 0.536676 0.557940 0.278777
O O1 0.284201 0.803075 0.778612
O O2 0.438288 0.898217 0.646439
O O3 0.191937 0.703437 0.391449
O O4 0.413565 0.637842 0.404855
O O5 0.750360 0.383775 0.243259
O O6 0.930874 0.227242 0.042741
O O7 0.666633 0.114909 0.842127
O O8 0.192068 0.368928 0.295240
O O9 0.376455 0.424377 0.555295
O O10 0.096831 0.379301 0.601909
O O11 0.658503 0.862030 0.410231
O O12 0.500000 0.000000 0.500000
O O13 0.341661 0.380153 0.786770
O O14 0.167751 0.263778 0.887022
O O15 0.456724 0.389473 0.041906
O O16 0.071950 0.477197 0.249001
O O17 0.000000 0.500000 0.000000
#
# Coordination Sequence:
#
# PCOD8009416 Si02
#       8
#     2   2   2   2   2   2   2   2
#     4  11  22  43  64  90 124 158 205 253 309 361
#     4  11  22  41  60  86 130 163 198 248 302 367
#     4  11  21  36  64  98 124 153 200 250 315 364
#     4  11  26  40  61  88 116 169 212 245 296 364
#     4  10  21  39  59  87 127 156 203 251 304 355
#     4  11  21  35  63  96 122 157 195 255 316 354
#     4  11  21  39  62  93 127 153 200 258 307 366
#     4  10  21  36  63  94 123 154 200 258 309 350
#
# _framework density 19.92934
#
# number of rings (size 3 to 8) (size 9 to 14) (size 15 to 20)
#    0.000    1.250    3.750    2.625    7.000    3.500 
#    0.000    0.000    0.000    3.750    0.000    0.000 
#    0.000    0.000    0.000    0.000    0.000    0.000 
#
# Total GULP energy -198411.599122 kJ/mol
# GULP energy per Si atom -12400.724945 kJ/mol
# Density = 1.988398 g / cm^3
# Si number density = 19.929340 Si / 1000 Ang^3
#
#
#
# Elastic Constant Matrix: (Units=GPa)
#
#
# Indices 1 2 3 4 5 6 
#
# 1 98.4911 48.5969 47.4103 -6.4385 9.5899 12.2231
# 2 48.5969 75.1863 36.0470 -11.0361 4.0971 14.4391
# 3 47.4103 36.0470 102.9269 -8.6646 19.8811 14.4626
# 4 -6.4385 -11.0361 -8.6646 35.4570 1.9410 2.4565
# 5 9.5899 4.0971 19.8811 1.9410 40.7852 -16.1025
# 6 12.2231 14.4391 14.4626 2.4565 -16.1025 32.9962
#
#
#
# Elastic Compliance Matrix: (Units=1/GPa)
#
#
# Indices 1 2 3 4 5 6 
#
# 1 0.016661 -0.008461 -0.004297 -0.000492 -0.001444 -0.001254
# 2 -0.008461 0.021995 -0.001841 0.005500 -0.002464 -0.007296
# 3 -0.004297 -0.001841 0.016265 0.003946 -0.011030 -0.010408
# 4 -0.000492 0.005500 0.003946 0.031928 -0.007902 -0.010187
# 5 -0.001444 -0.002464 -0.011030 -0.007902 0.041664 0.027369
# 6 -0.001254 -0.007296 -0.010408 -0.010187 0.027369 0.052640
#
#
# Mechanical properties :
#
#
# Convention : Reuss Voigt Hill
#
# Bulk Modulus (GPa) = 38.87912 60.07920 49.47916
# Shear Modulus (GPa) = 22.83870 31.48437 27.16153
#
# Velocity S-wave (km/s) = 3.38891 3.97898 3.69574
# Velocity P-wave (km/s) = 5.90456 7.16389 6.56449
#
# Compressibility (1/GPa) = 0.02572075
#
# Stress axis : x y z
#
# Youngs Moduli (GPa) = 60.02148 45.46545 61.48101
#
# Poissons Ratio (x) = 0.38469 0.26420
# Poissons Ratio (y) = 0.50785 0.11321
# Poissons Ratio (z) = 0.25793 0.08372
#
# Static dielectric constant tensor:
#      x y z
#    x 3.843570 0.319530 0.106130 
#    y 0.319530 3.619130 -0.229840 
#    z 0.106130 -0.229840 3.414390 
# 
# 
# High freq. dielectric constant tensor:
#      x y z
#    x 1.787650 0.017390 0.007630 
#    y 0.017390 1.771670 -0.025830 
#    z 0.007630 -0.025830 1.765510 
# 
# From -- ./inp_files/185148.got.cif
#   From: 2010.06.25/outbox.cif.g09.slc.cpg/sg2_93_cif.got.tgz:185148.got - 2010.06.27 13:26:56.
