data_PCOD8009958
_publ_section_title
;
Structure prediction by ZEFSAII (Michael W. Deem and Ramdas Pophale) SiO2 
 PCOD8009958
Probable space group: P -1
;
_chemical_formula_sum "Si O2"
_cell_formula_units_Z 12
_cell_length_a 9.465555
_cell_length_b 9.859145
_cell_length_c 9.807570
_cell_angle_alpha 67.863692
_cell_angle_beta 40.684019
_cell_angle_gamma 59.898808
_cell_volume 516.175652
_symmetry_space_group_name_H-M "P -1"
_symmetry_group_IT_number 2
_symmetry_cell_setting 'triclinic'
loop_
_space_group_symop_operation_xyz
x,y,z
-x,-y,-z
loop_
_atom_site_type_symbol
_atom_site_label
_atom_site_fract_x
_atom_site_fract_y
_atom_site_fract_z
Si Si1 0.034610 0.243345 0.548444
Si Si2 0.186918 0.872244 0.001408
Si Si3 0.335318 0.333660 0.755255
Si Si4 0.176269 0.452510 0.553254
Si Si5 0.441123 0.006706 0.198501
Si Si6 0.160537 0.589372 0.987997
O O1 0.207208 0.315630 0.471789
O O2 0.177618 0.118763 0.377243
O O3 0.925430 0.152924 0.765321
O O4 0.827875 0.385172 0.572212
O O5 0.278144 0.710728 0.908383
O O6 0.397114 0.928627 0.854609
O O7 0.000000 0.000000 0.000000
O O8 0.369736 0.391799 0.554834
O O9 0.076219 0.322665 0.960246
O O10 0.530731 0.166773 0.705133
O O11 0.352356 0.458884 0.807303
O O12 0.918002 0.489637 0.794672
O O13 0.500000 0.000000 0.000000
#
# Coordination Sequence:
#
# PCOD8009958 Si02
#       6
#     2   2   2   2   2   2
#     4  10  21  37  63  90 125 160 205 258 302 359
#     4  11  22  41  64  93 123 164 205 248 315 368
#     4   9  17  35  64  85 121 168 199 240 314 363
#     4   8  16  35  59  85 120 167 195 239 314 362
#     4  12  25  39  62  98 125 155 208 265 302 353
#     4   8  16  34  63  82 113 167 203 231 297 377
#
# _framework density 23.247900000000001
#
# number of rings (size 3 to 8) (size 9 to 14) (size 15 to 20)
#    1.000    1.333    1.667    1.000    0.000    3.333 
#    0.000   13.333    0.000    5.000    0.000    0.000 
#    0.000    0.000    0.000    0.000    0.000    0.000 
#
# Total GULP energy -148737.348770 kJ/mol
# GULP energy per Si atom -12394.779064 kJ/mol
# Density = 2.319499 g / cm^3
# Si number density = 23.247900 Si / 1000 Ang^3
#
#
#
# Elastic Constant Matrix: (Units=GPa)
#
#
# Indices 1 2 3 4 5 6 
#
# 1 65.4355 32.9173 13.3828 4.6436 27.3691 -6.6832
# 2 32.9173 126.8382 41.6586 11.4627 22.2025 -17.4804
# 3 13.3828 41.6586 58.6608 15.1630 29.1159 -4.9214
# 4 4.6436 11.4627 15.1630 38.8288 4.1518 15.2446
# 5 27.3691 22.2025 29.1159 4.1518 37.1776 -6.1561
# 6 -6.6832 -17.4804 -4.9214 15.2446 -6.1561 48.7890
#
#
#
# Elastic Compliance Matrix: (Units=1/GPa)
#
#
# Indices 1 2 3 4 5 6 
#
# 1 0.026325 -0.005842 0.011000 -0.003409 -0.024016 0.000658
# 2 -0.005842 0.012148 -0.009091 -0.001301 0.004918 0.003662
# 3 0.011000 -0.009091 0.040376 -0.011622 -0.032688 0.001829
# 4 -0.003409 -0.001301 -0.011622 0.035228 0.006417 -0.012303
# 5 -0.024016 0.004918 -0.032688 0.006417 0.066789 0.001597
# 6 0.000658 0.003662 0.001829 -0.012303 0.001597 0.026129
#
#
# Mechanical properties :
#
#
# Convention : Reuss Voigt Hill
#
# Bulk Modulus (GPa) = 14.08821 47.42800 30.75810
# Shear Modulus (GPa) = 20.96226 35.82413 28.39319
#
# Velocity S-wave (km/s) = 3.00606 3.92977 3.49853
# Velocity P-wave (km/s) = 4.25696 6.40594 5.43865
#
# Compressibility (1/GPa) = 0.07098136
#
# Stress axis : x y z
#
# Youngs Moduli (GPa) = 37.98599 82.32102 24.76699
#
# Poissons Ratio (x) = 0.48093 -0.27243
# Poissons Ratio (y) = 0.22192 0.22517
# Poissons Ratio (z) = -0.41783 0.74842
#
# Static dielectric constant tensor:
#      x y z
#    x 3.985370 0.080670 0.341240 
#    y 0.080670 4.145030 0.093790 
#    z 0.341240 0.093790 3.877450 
# 
# 
# High freq. dielectric constant tensor:
#      x y z
#    x 1.907380 0.005100 0.026620 
#    y 0.005100 1.920930 0.006570 
#    z 0.026620 0.006570 1.897980 
# 
# From -- ./inp_files/414556.got.cif
#   From: 2010.06.25/outbox.cif.g09.slc.cpg/sg2_208_cif.got.tgz:414556.got - 2010.06.27 13:26:56.
