data_PCOD8009781
_publ_section_title
;
Structure prediction by ZEFSAII (Michael W. Deem and Ramdas Pophale) SiO2 
 PCOD8009781
Probable space group: P -1
;
_chemical_formula_sum "Si O2"
_cell_formula_units_Z 16
_cell_length_a 5.284763
_cell_length_b 12.195845
_cell_length_c 15.963173
_cell_angle_alpha 61.717253
_cell_angle_beta 122.290972
_cell_angle_gamma 118.889265
_cell_volume 728.443109
_symmetry_space_group_name_H-M "P -1"
_symmetry_group_IT_number 2
_symmetry_cell_setting 'triclinic'
loop_
_space_group_symop_operation_xyz
x,y,z
-x,-y,-z
loop_
_atom_site_type_symbol
_atom_site_label
_atom_site_fract_x
_atom_site_fract_y
_atom_site_fract_z
Si Si1 0.282154 0.826022 0.860403
Si Si2 0.754544 0.426476 0.585932
Si Si3 0.408902 0.131342 0.935202
Si Si4 0.804503 0.319032 0.389737
Si Si5 0.840625 0.987678 0.791955
Si Si6 0.440730 0.652843 0.245679
Si Si7 0.109176 0.785948 0.396528
Si Si8 0.826822 0.637932 0.734965
O O1 0.499998 0.911802 0.795259
O O2 0.041755 0.896131 0.829991
O O3 0.085322 0.687424 0.836180
O O4 0.511339 0.802597 0.982780
O O5 0.500000 0.500000 0.500000
O O6 0.779742 0.369064 0.704260
O O7 0.661318 0.300666 0.554056
O O8 0.086580 0.541106 0.591304
O O9 0.608012 0.234312 0.864150
O O10 0.037569 0.089133 0.861419
O O11 0.500000 0.000000 0.000000
O O12 0.891882 0.210688 0.503447
O O13 0.428623 0.284079 0.324518
O O14 0.995142 0.327164 0.334671
O O15 0.777328 0.067459 0.671620
O O16 0.348224 0.516333 0.227513
O O17 0.791390 0.697760 0.328135
#
# Coordination Sequence:
#
# PCOD8009781 Si02
#       8
#     2   2   2   2   2   2   2   2
#     4  11  23  46  61  88 124 171 208 260 309 367
#     4  11  20  33  61  92 138 156 196 256 322 367
#     4   9  21  41  68  94 124 157 211 267 318 362
#     4  11  22  38  59  95 124 167 203 255 313 369
#     4  10  24  40  69  91 121 161 214 262 316 365
#     4  10  21  37  60  99 123 165 205 260 313 377
#     4  11  21  36  62  94 127 157 210 264 314 366
#     4  11  24  40  62  86 131 168 210 245 309 382
#
# _framework density 21.964652999999998
#
# number of rings (size 3 to 8) (size 9 to 14) (size 15 to 20)
#    0.000    1.500    2.500    3.000    5.250    0.500 
#    2.250    3.750    0.000    6.000    0.000    0.000 
#    0.000    0.000    0.000    0.000    0.000    0.000 
#
# Total GULP energy -198253.711004 kJ/mol
# GULP energy per Si atom -12390.856938 kJ/mol
# Density = 2.191466 g / cm^3
# Si number density = 21.964653 Si / 1000 Ang^3
#
#
#
# Elastic Constant Matrix: (Units=GPa)
#
#
# Indices 1 2 3 4 5 6 
#
# 1 74.3362 14.3267 24.1282 3.0492 -5.3882 3.4897
# 2 14.3267 75.1107 51.9059 7.3456 -2.0838 15.5662
# 3 24.1282 51.9059 119.1011 -21.4461 -12.1586 12.7422
# 4 3.0492 7.3456 -21.4461 32.1688 8.2785 3.4697
# 5 -5.3882 -2.0838 -12.1586 8.2785 22.3116 -2.8264
# 6 3.4897 15.5662 12.7422 3.4697 -2.8264 28.6923
#
#
#
# Elastic Compliance Matrix: (Units=1/GPa)
#
#
# Indices 1 2 3 4 5 6 
#
# 1 0.015055 0.000118 -0.003697 -0.004903 0.003539 0.000688
# 2 0.000118 0.024410 -0.012391 -0.013079 -0.000378 -0.006210
# 3 -0.003697 -0.012391 0.017619 0.014703 0.001811 -0.002252
# 4 -0.004903 -0.013079 0.014703 0.048353 -0.013091 -0.005974
# 5 0.003539 -0.000378 0.001811 -0.013091 0.052205 0.005696
# 6 0.000688 -0.006210 -0.002252 -0.005974 0.005696 0.040421
#
#
# Mechanical properties :
#
#
# Convention : Reuss Voigt Hill
#
# Bulk Modulus (GPa) = 39.77164 49.91886 44.84525
# Shear Modulus (GPa) = 20.97461 28.51368 24.74414
#
# Velocity S-wave (km/s) = 3.09354 3.60691 3.36004
# Velocity P-wave (km/s) = 5.55935 6.33424 5.95941
#
# Compressibility (1/GPa) = 0.02514354
#
# Stress axis : x y z
#
# Youngs Moduli (GPa) = 66.42385 40.96691 56.75772
#
# Poissons Ratio (x) = -0.00484 0.20982
# Poissons Ratio (y) = -0.00785 0.70331
# Poissons Ratio (z) = 0.24555 0.50764
#
# Static dielectric constant tensor:
#      x y z
#    x 3.796820 0.203620 -0.134450 
#    y 0.203620 4.049730 0.241350 
#    z -0.134450 0.241350 4.439270 
# 
# 
# High freq. dielectric constant tensor:
#      x y z
#    x 1.854710 0.012510 -0.009870 
#    y 0.012510 1.844980 0.000810 
#    z -0.009870 0.000810 1.867500 
# 
# From -- ./inp_files/77133.got.cif
#   From: 2010.06.25/outbox.cif.g09.slc.cpg/sg2_39_cif.got.tgz:77133.got - 2010.06.27 13:26:56.
