data_PCOD8009636
_publ_section_title
;
Structure prediction by ZEFSAII (Michael W. Deem and Ramdas Pophale) SiO2 
 PCOD8009636
Probable space group: P -1
;
_chemical_formula_sum "Si O2"
_cell_formula_units_Z 16
_cell_length_a 9.477956
_cell_length_b 16.700883
_cell_length_c 8.822691
_cell_angle_alpha 46.852040
_cell_angle_beta 109.843860
_cell_angle_gamma 128.792682
_cell_volume 784.367167
_symmetry_space_group_name_H-M "P -1"
_symmetry_group_IT_number 2
_symmetry_cell_setting 'triclinic'
loop_
_space_group_symop_operation_xyz
x,y,z
-x,-y,-z
loop_
_atom_site_type_symbol
_atom_site_label
_atom_site_fract_x
_atom_site_fract_y
_atom_site_fract_z
Si Si1 0.211849 0.853913 0.555875
Si Si2 0.187730 0.238213 0.533306
Si Si3 0.321681 0.391376 0.667014
Si Si4 0.472207 0.954057 0.797110
Si Si5 0.466442 0.161045 0.739953
Si Si6 0.832257 0.411797 0.161777
Si Si7 0.812849 0.456524 0.425222
Si Si8 0.434876 0.528056 0.093501
O O1 0.288197 0.867588 0.737770
O O2 0.185029 0.724198 0.635914
O O3 0.021089 0.843504 0.500193
O O4 0.355739 0.977614 0.342433
O O5 0.188806 0.259500 0.688299
O O6 0.285253 0.160668 0.648209
O O7 0.301916 0.383105 0.309095
O O8 0.500000 0.500000 0.500000
O O9 0.212848 0.450570 0.600660
O O10 0.388144 0.364291 0.882239
O O11 0.449063 0.054878 0.753774
O O12 0.504788 0.867741 0.038732
O O13 0.645829 0.303432 0.578471
O O14 0.850784 0.492692 0.215238
O O15 0.652992 0.388684 0.051868
O O16 0.000000 0.500000 0.000000
O O17 0.000000 0.500000 0.500000
O O18 0.500000 0.500000 0.000000
#
# Coordination Sequence:
#
# PCOD8009636 Si02
#       8
#     2   2   2   2   2   2   2   2
#     4  11  24  45  65  94 125 168 224 268 313 381
#     4  11  23  40  68  92 130 165 212 270 318 385
#     4  10  21  37  58  96 128 164 196 255 330 386
#     4  10  26  45  66  87 125 176 223 266 314 370
#     4  11  23  46  66  92 128 172 217 266 318 377
#     4  12  24  38  65  98 131 166 208 265 329 390
#     4  12  24  38  65  97 133 167 208 261 327 390
#     4  11  21  38  58  97 134 167 203 252 334 393
#
# _framework density 20.398609
#
# number of rings (size 3 to 8) (size 9 to 14) (size 15 to 20)
#    0.000    1.000    6.250    0.750    5.250    1.000 
#    0.000    0.000    0.000    0.000    0.000    0.000 
#    0.000    0.000    0.000    0.000    0.000    0.000 
#
# Total GULP energy -198224.901244 kJ/mol
# GULP energy per Si atom -12389.056328 kJ/mol
# Density = 2.035218 g / cm^3
# Si number density = 20.398609 Si / 1000 Ang^3
#
#
#
# Elastic Constant Matrix: (Units=GPa)
#
#
# Indices 1 2 3 4 5 6 
#
# 1 158.6144 44.2181 43.0327 13.3227 16.6262 16.9265
# 2 44.2181 79.6733 14.8849 24.7427 -0.3375 17.4475
# 3 43.0327 14.8849 73.4640 20.4560 -0.0830 14.1652
# 4 13.3227 24.7427 20.4560 31.7555 0.1470 4.2963
# 5 16.6262 -0.3375 -0.0830 0.1470 39.7950 10.2689
# 6 16.9265 17.4475 14.1652 4.2963 10.2689 38.6462
#
#
#
# Elastic Compliance Matrix: (Units=1/GPa)
#
#
# Indices 1 2 3 4 5 6 
#
# 1 0.009437 -0.005713 -0.005743 0.004042 -0.004342 0.001255
# 2 -0.005713 0.021936 0.005321 -0.016958 0.004910 -0.008771
# 3 -0.005743 0.005321 0.021350 -0.014526 0.004419 -0.007272
# 4 0.004042 -0.016958 -0.014526 0.051507 -0.003723 0.006474
# 5 -0.004342 0.004910 0.004419 -0.003723 0.029417 -0.009337
# 6 0.001255 -0.008771 -0.007272 0.006474 -0.009337 0.033712
#
#
# Mechanical properties :
#
#
# Convention : Reuss Voigt Hill
#
# Bulk Modulus (GPa) = 24.72035 57.33589 41.02812
# Shear Modulus (GPa) = 25.89160 36.01374 30.95267
#
# Velocity S-wave (km/s) = 3.56656 4.20634 3.89960
# Velocity P-wave (km/s) = 5.39495 7.19443 6.35867
#
# Compressibility (1/GPa) = 0.04045250
#
# Stress axis : x y z
#
# Youngs Moduli (GPa) = 105.96633 45.58764 46.83889
#
# Poissons Ratio (x) = 0.26044 0.26898
# Poissons Ratio (y) = 0.60539 -0.24921
# Poissons Ratio (z) = 0.60853 -0.24256
#
# Static dielectric constant tensor:
#      x y z
#    x 3.917470 0.016500 0.049550 
#    y 0.016500 3.872080 0.248100 
#    z 0.049550 0.248100 3.363300 
# 
# 
# High freq. dielectric constant tensor:
#      x y z
#    x 1.818730 -0.000600 0.002630 
#    y -0.000600 1.789690 0.029650 
#    z 0.002630 0.029650 1.794000 
# 
# From -- ./inp_files/214493.got.cif
#   From: 2010.06.25/outbox.cif.g09.slc.cpg/sg2_108_cif.got.tgz:214493.got - 2010.06.27 13:26:56.
