data_PCOD8009382
_publ_section_title
;
Structure prediction by ZEFSAII (Michael W. Deem and Ramdas Pophale) SiO2 
 PCOD8009382
Probable space group: P -1
;
_chemical_formula_sum "Si O2"
_cell_formula_units_Z 16
_cell_length_a 14.520346
_cell_length_b 14.924642
_cell_length_c 8.875240
_cell_angle_alpha 92.196372
_cell_angle_beta 129.101292
_cell_angle_gamma 47.632819
_cell_volume 814.244720
_symmetry_space_group_name_H-M "P -1"
_symmetry_group_IT_number 2
_symmetry_cell_setting 'triclinic'
loop_
_space_group_symop_operation_xyz
x,y,z
-x,-y,-z
loop_
_atom_site_type_symbol
_atom_site_label
_atom_site_fract_x
_atom_site_fract_y
_atom_site_fract_z
Si Si1 0.352010 0.692413 0.467240
Si Si2 0.722491 0.702404 0.563652
Si Si3 0.811258 0.387666 0.827613
Si Si4 0.304187 0.870378 0.201610
Si Si5 0.507085 0.005888 0.185622
Si Si6 0.035977 0.977237 0.360718
Si Si7 0.159553 0.075244 0.338967
Si Si8 0.099091 0.340222 0.949198
O O1 0.607023 0.552103 0.723033
O O2 0.276424 0.638844 0.365434
O O3 0.255686 0.808043 0.233424
O O4 0.264556 0.785991 0.541316
O O5 0.550194 0.729515 0.390999
O O6 0.958805 0.512122 0.740121
O O7 0.619899 0.846208 0.363998
O O8 0.751632 0.720136 0.764189
O O9 0.907226 0.397881 0.812361
O O10 0.982905 0.261479 0.128501
O O11 0.243926 0.989664 0.257748
O O12 0.151687 0.964348 0.904368
O O13 0.646620 0.005040 0.370100
O O14 0.258436 0.183803 0.992946
O O15 0.500000 0.000000 0.000000
O O16 0.039538 0.076603 0.313779
O O17 0.000000 0.000000 0.500000
#
# Coordination Sequence:
#
# PCOD8009382 Si02
#       8
#     2   2   2   2   2   2   2   2
#     4  10  21  36  62  93 115 155 202 257 304 360
#     4  11  23  39  67  94 122 161 224 260 301 371
#     4  11  19  37  66  89 117 151 214 260 300 356
#     4  11  19  40  62  90 117 157 210 255 299 364
#     4  12  27  42  62  94 134 170 202 258 322 378
#     4  11  24  38  60  91 125 161 196 250 316 372
#     4  11  21  41  63  87 120 164 210 250 303 374
#     4  11  23  41  67  95 121 165 215 267 307 365
#
# _framework density 19.650112
#
# number of rings (size 3 to 8) (size 9 to 14) (size 15 to 20)
#    0.000    1.000    6.250    1.875    1.750    0.500 
#    0.000    1.875    0.000    0.000    0.000    0.000 
#    0.000    0.000    0.000    0.000    0.000    0.000 
#
# Total GULP energy -198317.194743 kJ/mol
# GULP energy per Si atom -12394.824671 kJ/mol
# Density = 1.960539 g / cm^3
# Si number density = 19.650112 Si / 1000 Ang^3
#
#
#
# Elastic Constant Matrix: (Units=GPa)
#
#
# Indices 1 2 3 4 5 6 
#
# 1 81.2806 50.0055 50.2403 2.1280 5.9292 -8.4648
# 2 50.0055 114.1162 68.4494 -12.3981 -7.5715 -19.8210
# 3 50.2403 68.4494 118.7795 -3.5516 3.4885 -18.8050
# 4 2.1280 -12.3981 -3.5516 44.8838 3.6575 2.5829
# 5 5.9292 -7.5715 3.4885 3.6575 35.6269 3.6798
# 6 -8.4648 -19.8210 -18.8050 2.5829 3.6798 32.1039
#
#
#
# Elastic Compliance Matrix: (Units=1/GPa)
#
#
# Indices 1 2 3 4 5 6 
#
# 1 0.019344 -0.006420 -0.004596 -0.002695 -0.003763 -0.000907
# 2 -0.006420 0.016805 -0.006325 0.003845 0.004435 0.004160
# 3 -0.004596 -0.006325 0.014663 -0.000394 -0.002365 0.003775
# 4 -0.002695 0.003845 -0.000394 0.023546 -0.001078 -0.000338
# 5 -0.003763 0.004435 -0.002365 -0.001078 0.030292 -0.003025
# 6 -0.000907 0.004160 0.003775 -0.000338 -0.003025 0.036063
#
#
# Mechanical properties :
#
#
# Convention : Reuss Voigt Hill
#
# Bulk Modulus (GPa) = 61.99775 72.39629 67.19702
# Shear Modulus (GPa) = 27.65904 32.22165 29.94035
#
# Velocity S-wave (km/s) = 3.75584 4.05380 3.90766
# Velocity P-wave (km/s) = 7.10125 7.67031 7.39126
#
# Compressibility (1/GPa) = 0.01612962
#
# Stress axis : x y z
#
# Youngs Moduli (GPa) = 51.69501 59.50679 68.19658
#
# Poissons Ratio (x) = 0.38202 0.31344
# Poissons Ratio (y) = 0.33187 0.43137
# Poissons Ratio (z) = 0.23760 0.37641
#
# Static dielectric constant tensor:
#      x y z
#    x 3.530490 0.118940 0.237640 
#    y 0.118940 3.681940 -0.313190 
#    z 0.237640 -0.313190 3.691290 
# 
# 
# High freq. dielectric constant tensor:
#      x y z
#    x 1.758220 0.016450 0.025650 
#    y 0.016450 1.762360 -0.018930 
#    z 0.025650 -0.018930 1.766440 
# 
# From -- ./inp_files/199587.got.cif
#   From: 2010.06.25/outbox.cif.g09.slc.cpg/sg2_100_cif.got.tgz:199587.got - 2010.06.27 13:26:56.
