data_PCOD8009062
_publ_section_title
;
Structure prediction by ZEFSAII (Michael W. Deem and Ramdas Pophale) SiO2 
 PCOD8009062
Probable space group: P -1
;
_chemical_formula_sum "Si O2"
_cell_formula_units_Z 14
_cell_length_a 7.810918
_cell_length_b 9.115454
_cell_length_c 13.370378
_cell_angle_alpha 90.036853
_cell_angle_beta 89.492733
_cell_angle_gamma 131.257434
_cell_volume 715.603686
_symmetry_space_group_name_H-M "P -1"
_symmetry_group_IT_number 2
_symmetry_cell_setting 'triclinic'
loop_
_space_group_symop_operation_xyz
x,y,z
-x,-y,-z
loop_
_atom_site_type_symbol
_atom_site_label
_atom_site_fract_x
_atom_site_fract_y
_atom_site_fract_z
Si Si1 0.768881 0.795862 0.722164
Si Si2 0.833263 0.265052 0.616191
Si Si3 0.009197 0.196183 0.798607
Si Si4 0.961621 0.650975 0.591362
Si Si5 0.564737 0.131510 0.310890
Si Si6 0.548171 0.933801 0.903123
Si Si7 0.468490 0.557768 0.895193
O O1 0.551018 0.771736 0.690051
O O2 0.688154 0.660615 0.821436
O O3 0.839959 0.725238 0.635174
O O4 0.985515 0.023811 0.743920
O O5 0.980065 0.281954 0.523750
O O6 0.960109 0.296945 0.718886
O O7 0.794974 0.417403 0.601679
O O8 0.581436 0.054446 0.615422
O O9 0.254165 0.360338 0.843459
O O10 0.821252 0.086689 0.887855
O O11 0.181742 0.721408 0.651089
O O12 0.563188 0.063580 0.197966
O O13 0.435641 0.710761 0.918642
O O14 0.500000 0.000000 0.000000
O O15 0.500000 0.500000 0.000000
#
# Coordination Sequence:
#
# PCOD8009062 Si02
#       7
#     2   2   2   2   2   2   2
#     4   9  22  37  55  83 110 144 185 221 271 326
#     4   9  20  36  55  82 110 141 183 223 273 327
#     4   9  20  39  54  74 116 148 174 230 275 317
#     4  11  20  35  59  83 109 143 184 228 267 320
#     4   9  20  38  54  78 116 143 178 228 267 323
#     4   9  20  35  54  80 107 144 184 219 272 326
#     4  10  21  36  54  78 109 142 183 226 269 324
#
# _framework density 19.563904000000001
#
# number of rings (size 3 to 8) (size 9 to 14) (size 15 to 20)
#    0.000    3.143    0.000    2.143    0.000   10.857 
#    0.000    6.429    0.000    0.000    0.000    0.000 
#    0.000    0.000    0.000    0.000    0.000    0.000 
#
# Total GULP energy -173507.758932 kJ/mol
# GULP energy per Si atom -12393.411352 kJ/mol
# Density = 1.951938 g / cm^3
# Si number density = 19.563904 Si / 1000 Ang^3
#
#
#
# Elastic Constant Matrix: (Units=GPa)
#
#
# Indices 1 2 3 4 5 6 
#
# 1 63.3895 21.7933 36.4084 11.9238 -13.9167 -7.3845
# 2 21.7933 83.4303 33.4778 -8.7606 -13.3853 -4.3528
# 3 36.4084 33.4778 95.2803 -3.3420 -18.4369 -14.3609
# 4 11.9238 -8.7606 -3.3420 35.8568 -6.7405 -3.1616
# 5 -13.9167 -13.3853 -18.4369 -6.7405 37.5341 15.8932
# 6 -7.3845 -4.3528 -14.3609 -3.1616 15.8932 23.3547
#
#
#
# Elastic Compliance Matrix: (Units=1/GPa)
#
#
# Indices 1 2 3 4 5 6 
#
# 1 0.023607 -0.003694 -0.007707 -0.009099 0.002353 -0.000796
# 2 -0.003694 0.015452 -0.003356 0.005315 0.004624 -0.002778
# 3 -0.007707 -0.003356 0.016063 0.004153 0.002048 0.005983
# 4 -0.009099 0.005315 0.004153 0.033857 0.006207 0.001027
# 5 0.002353 0.004624 0.002048 0.006207 0.041744 -0.024702
# 6 -0.000796 -0.002778 0.005983 0.001027 -0.024702 0.062676
#
#
# Mechanical properties :
#
#
# Convention : Reuss Voigt Hill
#
# Bulk Modulus (GPa) = 39.04597 47.27325 43.15961
# Shear Modulus (GPa) = 21.60299 29.37716 25.49007
#
# Velocity S-wave (km/s) = 3.32660 3.87925 3.61351
# Velocity P-wave (km/s) = 5.89546 6.65438 6.28638
#
# Compressibility (1/GPa) = 0.02561084
#
# Stress axis : x y z
#
# Youngs Moduli (GPa) = 42.35996 64.71528 62.25436
#
# Poissons Ratio (x) = 0.23903 0.47978
# Poissons Ratio (y) = 0.15646 0.20890
# Poissons Ratio (z) = 0.32646 0.21716
#
# Static dielectric constant tensor:
#      x y z
#    x 3.154720 0.024020 -0.036510 
#    y 0.024020 3.756750 -0.140100 
#    z -0.036510 -0.140100 3.655140 
# 
# 
# High freq. dielectric constant tensor:
#      x y z
#    x 1.721980 0.003070 -0.001820 
#    y 0.003070 1.780210 -0.010060 
#    z -0.001820 -0.010060 1.771380 
# 
# From -- ./inp_files/317299.got.cif
#   From: 2010.06.25/outbox.cif.g09.slc.cpg/sg2_159_cif.got.tgz:317299.got - 2010.06.27 13:26:56.
