data_PCOD8009450
_publ_section_title
;
Structure prediction by ZEFSAII (Michael W. Deem and Ramdas Pophale) SiO2 
 PCOD8009450
Probable space group: P -1
;
_chemical_formula_sum "Si O2"
_cell_formula_units_Z 10
_cell_length_a 10.988104
_cell_length_b 13.876175
_cell_length_c 15.022414
_cell_angle_alpha 160.305395
_cell_angle_beta 44.871448
_cell_angle_gamma 124.266700
_cell_volume 489.529774
_symmetry_space_group_name_H-M "P -1"
_symmetry_group_IT_number 2
_symmetry_cell_setting 'triclinic'
loop_
_space_group_symop_operation_xyz
x,y,z
-x,-y,-z
loop_
_atom_site_type_symbol
_atom_site_label
_atom_site_fract_x
_atom_site_fract_y
_atom_site_fract_z
Si Si1 0.315669 0.177084 0.512541
Si Si2 0.020425 0.851873 0.250741
Si Si3 0.393023 0.281616 0.367210
Si Si4 0.432105 0.228143 0.816158
Si Si5 0.980799 0.524777 0.812764
O O1 0.141177 0.072286 0.522369
O O2 0.398990 0.129542 0.328973
O O3 0.489274 0.965432 0.302584
O O4 0.223111 0.555008 0.913649
O O5 0.051444 0.160120 0.487653
O O6 0.934307 0.755185 0.123023
O O7 0.500000 0.500000 0.500000
O O8 0.171204 0.506517 0.648618
O O9 0.500000 0.000000 0.000000
O O10 0.500000 0.000000 0.500000
O O11 0.500000 0.500000 0.000000
O O12 0.201157 0.369938 0.066085
#
# Coordination Sequence:
#
# PCOD8009450 Si02
#       5
#     2   2   2   2   2
#     4  10  22  39  63  93 126 156 205 251 307 363
#     4  10  21  36  64  94 121 156 197 256 316 359
#     4  11  25  42  62  85 119 170 218 248 282 348
#     4  12  23  38  60  99 131 153 185 250 332 377
#     4  11  21  41  62  92 127 156 198 255 308 368
#
# _framework density 20.427766999999999
#
# number of rings (size 3 to 8) (size 9 to 14) (size 15 to 20)
#    0.000    1.200    4.000    2.400    0.000   13.600 
#    0.000    2.000    0.000    0.000    0.000    0.000 
#    0.000    0.000    0.000    0.000    0.000    0.000 
#
# Total GULP energy -123954.341045 kJ/mol
# GULP energy per Si atom -12395.434105 kJ/mol
# Density = 2.038127 g / cm^3
# Si number density = 20.427767 Si / 1000 Ang^3
#
#
#
# Elastic Constant Matrix: (Units=GPa)
#
#
# Indices 1 2 3 4 5 6 
#
# 1 128.4257 68.9771 63.4390 -5.8034 -30.3595 9.4963
# 2 68.9771 138.6523 59.9710 -19.2007 -2.7808 8.6720
# 3 63.4390 59.9710 100.1096 -10.9214 -6.2323 0.6765
# 4 -5.8034 -19.2007 -10.9214 33.9257 4.3621 2.4844
# 5 -30.3595 -2.7808 -6.2323 4.3621 61.7543 1.3072
# 6 9.4963 8.6720 0.6765 2.4844 1.3072 44.5318
#
#
#
# Elastic Compliance Matrix: (Units=1/GPa)
#
#
# Indices 1 2 3 4 5 6 
#
# 1 0.015402 -0.004899 -0.006708 -0.003023 0.006936 -0.002263
# 2 -0.004899 0.011994 -0.003663 0.005208 -0.002575 -0.001450
# 3 -0.006708 -0.003663 0.016541 0.002226 -0.001989 0.001827
# 4 -0.003023 0.005208 0.002226 0.033209 -0.003327 -0.002158
# 5 0.006936 -0.002575 -0.001989 -0.003327 0.019549 -0.001336
# 6 -0.002263 -0.001450 0.001827 -0.002158 -0.001336 0.023353
#
#
# Mechanical properties :
#
#
# Convention : Reuss Voigt Hill
#
# Bulk Modulus (GPa) = 74.64422 83.55131 79.09776
# Shear Modulus (GPa) = 32.24693 39.69571 35.97132
#
# Velocity S-wave (km/s) = 3.97745 4.41298 4.20086
# Velocity P-wave (km/s) = 7.59693 8.18264 7.89522
#
# Compressibility (1/GPa) = 0.01339689
#
# Stress axis : x y z
#
# Youngs Moduli (GPa) = 64.92838 83.37535 60.45549
#
# Poissons Ratio (x) = 0.40842 0.40555
# Poissons Ratio (y) = 0.31806 0.22146
# Poissons Ratio (z) = 0.43555 0.30542
#
# Static dielectric constant tensor:
#      x y z
#    x 4.301160 0.203150 -0.099280 
#    y 0.203150 3.730670 -0.062100 
#    z -0.099280 -0.062100 3.880900 
# 
# 
# High freq. dielectric constant tensor:
#      x y z
#    x 1.809440 0.015540 0.010930 
#    y 0.015540 1.779250 -0.000670 
#    z 0.010930 -0.000670 1.808750 
# 
# From -- ./inp_files/17245.got.cif
#   From: 2010.06.25/outbox.cif.g09.slc.cpg/sg2_9_cif.got.tgz:17245.got - 2010.06.27 13:26:56.
