data_PCOD8009341
_publ_section_title
;
Structure prediction by ZEFSAII (Michael W. Deem and Ramdas Pophale) SiO2 
 PCOD8009341
Probable space group: P -1
;
_chemical_formula_sum "Si O2"
_cell_formula_units_Z 16
_cell_length_a 8.914066
_cell_length_b 12.470840
_cell_length_c 17.104613
_cell_angle_alpha 136.107345
_cell_angle_beta 136.599634
_cell_angle_gamma 34.518512
_cell_volume 703.066814
_symmetry_space_group_name_H-M "P -1"
_symmetry_group_IT_number 2
_symmetry_cell_setting 'triclinic'
loop_
_space_group_symop_operation_xyz
x,y,z
-x,-y,-z
loop_
_atom_site_type_symbol
_atom_site_label
_atom_site_fract_x
_atom_site_fract_y
_atom_site_fract_z
Si Si1 0.269286 0.652840 0.836479
Si Si2 0.444257 0.774452 0.538121
Si Si3 0.990780 0.824427 0.496490
Si Si4 0.292403 0.615788 0.647377
Si Si5 0.252504 0.364812 0.772407
Si Si6 0.167911 0.428881 0.149230
Si Si7 0.661092 0.967142 0.812770
Si Si8 0.334178 0.238889 0.960929
O O1 0.184986 0.660400 0.718554
O O2 0.372393 0.447846 0.807735
O O3 0.994021 0.848011 0.876450
O O4 0.526096 0.655003 0.943396
O O5 0.270676 0.737640 0.508492
O O6 0.669599 0.575358 0.470502
O O7 0.604846 0.826982 0.679293
O O8 0.245638 0.943576 0.487978
O O9 0.054685 0.802776 0.601874
O O10 0.891736 0.698551 0.369315
O O11 0.582033 0.578673 0.727782
O O12 0.014880 0.549990 0.835805
O O13 0.504503 0.177561 0.819485
O O14 0.967846 0.630697 0.127427
O O15 0.286124 0.238799 0.036566
O O16 0.537940 0.018938 0.882867
#
# Coordination Sequence:
#
# PCOD8009341 Si02
#       8
#     2   2   2   2   2   2   2   2
#     4  11  24  39  62  87 121 165 197 238 303 349
#     4  10  21  37  62  93 119 157 191 246 303 349
#     4  10  21  36  61  93 124 150 195 246 300 353
#     4  11  22  38  62  91 122 155 198 246 293 356
#     4  10  21  39  62  90 119 156 199 244 297 358
#     4   9  19  37  64  87 114 154 201 252 293 334
#     4  10  22  38  62  87 123 156 200 241 296 358
#     4   9  20  41  61  85 122 155 200 255 289 345
#
# _framework density 22.757439000000002
#
# number of rings (size 3 to 8) (size 9 to 14) (size 15 to 20)
#    0.000    2.000    1.250    1.500    3.500    5.000 
#    0.000    3.125    2.750    0.000    0.000    0.000 
#    0.000    0.000    0.000    0.000    0.000    0.000 
#
# Total GULP energy -198394.420913 kJ/mol
# GULP energy per Si atom -12399.651307 kJ/mol
# Density = 2.270564 g / cm^3
# Si number density = 22.757439 Si / 1000 Ang^3
#
#
#
# Elastic Constant Matrix: (Units=GPa)
#
#
# Indices 1 2 3 4 5 6 
#
# 1 46.7124 11.2695 4.1698 -2.8336 -4.9265 3.8495
# 2 11.2695 57.1763 18.5510 -1.1729 -6.1738 -3.7277
# 3 4.1698 18.5510 80.1415 0.1582 -16.5284 8.1924
# 4 -2.8336 -1.1729 0.1582 30.7436 -5.8528 -6.0194
# 5 -4.9265 -6.1738 -16.5284 -5.8528 36.0299 1.0100
# 6 3.8495 -3.7277 8.1924 -6.0194 1.0100 31.3506
#
#
#
# Elastic Compliance Matrix: (Units=1/GPa)
#
#
# Indices 1 2 3 4 5 6 
#
# 1 0.023189 -0.004693 0.000875 0.001897 0.003170 -0.003372
# 2 -0.004693 0.020367 -0.004776 0.001392 0.000758 0.004489
# 3 0.000875 -0.004776 0.015380 0.000102 0.006510 -0.004884
# 4 0.001897 0.001392 0.000102 0.035177 0.006078 0.006464
# 5 0.003170 0.000758 0.006510 0.006078 0.032344 -0.001875
# 6 -0.003372 0.004489 -0.004884 0.006464 -0.001875 0.035423
#
#
# Mechanical properties :
#
#
# Convention : Reuss Voigt Hill
#
# Bulk Modulus (GPa) = 23.95336 28.00120 25.97728
# Shear Modulus (GPa) = 25.90881 29.62748 27.76814
#
# Velocity S-wave (km/s) = 3.37779 3.61207 3.49690
# Velocity P-wave (km/s) = 5.07553 5.45225 5.26726
#
# Compressibility (1/GPa) = 0.04174780
#
# Stress axis : x y z
#
# Youngs Moduli (GPa) = 43.12393 49.09840 65.02112
#
# Poissons Ratio (x) = 0.23041 -0.05686
# Poissons Ratio (y) = 0.20238 0.31052
# Poissons Ratio (z) = -0.03771 0.23448
#
# Static dielectric constant tensor:
#      x y z
#    x 3.987680 -0.121720 -0.258140 
#    y -0.121720 3.912640 -0.071410 
#    z -0.258140 -0.071410 4.292400 
# 
# 
# High freq. dielectric constant tensor:
#      x y z
#    x 1.883400 -0.009730 -0.008680 
#    y -0.009730 1.888340 -0.009570 
#    z -0.008680 -0.009570 1.911220 
# 
# From -- ./inp_files/284832.got.cif
#   From: 2010.06.25/outbox.cif.g09.slc.cpg/sg2_143_cif.got.tgz:284832.got - 2010.06.27 13:26:56.
