data_PCOD8009692
_publ_section_title
;
Structure prediction by ZEFSAII (Michael W. Deem and Ramdas Pophale) SiO2 
 PCOD8009692
Probable space group: P -1
;
_chemical_formula_sum "Si O2"
_cell_formula_units_Z 16
_cell_length_a 18.654127
_cell_length_b 7.055610
_cell_length_c 14.995387
_cell_angle_alpha 60.677020
_cell_angle_beta 35.795421
_cell_angle_gamma 42.463014
_cell_volume 749.255268
_symmetry_space_group_name_H-M "P -1"
_symmetry_group_IT_number 2
_symmetry_cell_setting 'triclinic'
loop_
_space_group_symop_operation_xyz
x,y,z
-x,-y,-z
loop_
_atom_site_type_symbol
_atom_site_label
_atom_site_fract_x
_atom_site_fract_y
_atom_site_fract_z
Si Si1 0.323799 0.722109 0.509108
Si Si2 0.700179 0.312773 0.251030
Si Si3 0.653183 0.844765 0.197836
Si Si4 0.863021 0.716245 0.161164
Si Si5 0.897964 0.345523 0.360802
Si Si6 0.535600 0.765799 0.950578
Si Si7 0.307136 0.228615 0.383659
Si Si8 0.268694 0.877500 0.076376
O O1 0.520076 0.455101 0.364137
O O2 0.276107 0.755794 0.652341
O O3 0.225242 0.672976 0.558356
O O4 0.266629 0.023787 0.459475
O O5 0.729287 0.533288 0.149750
O O6 0.836976 0.006550 0.132615
O O7 0.696092 0.808073 0.267806
O O8 0.457736 0.070100 0.337561
O O9 0.733274 0.957189 0.042930
O O10 0.901817 0.566823 0.251619
O O11 0.000000 0.500000 0.000000
O O12 0.841871 0.463526 0.491270
O O13 0.082684 0.033275 0.253390
O O14 0.648850 0.715084 0.767389
O O15 0.633899 0.457012 0.972406
O O16 0.360646 0.883091 0.065397
O O17 0.500000 0.000000 0.000000
#
# Coordination Sequence:
#
# PCOD8009692 Si02
#       8
#     2   2   2   2   2   2   2   2
#     4  10  21  37  61  91 129 173 211 257 302 362
#     4  10  21  37  59  88 132 179 222 244 290 373
#     4  10  21  40  62  95 127 178 213 252 307 369
#     4  12  23  37  57  93 138 179 208 248 312 372
#     4  12  23  40  62  97 137 165 207 263 317 375
#     4  10  24  49  74  91 118 163 216 270 330 386
#     4  10  23  41  66  95 124 166 216 265 314 375
#     4  10  24  44  67  99 125 160 215 268 323 378
#
# _framework density 21.354538000000002
#
# number of rings (size 3 to 8) (size 9 to 14) (size 15 to 20)
#    0.000    1.500    3.750    0.750    0.000    9.000 
#    2.250    1.250    0.000    0.000    0.000    0.000 
#    0.000    0.000    0.000    0.000    0.000    0.000 
#
# Total GULP energy -198393.181553 kJ/mol
# GULP energy per Si atom -12399.573847 kJ/mol
# Density = 2.130593 g / cm^3
# Si number density = 21.354538 Si / 1000 Ang^3
#
#
#
# Elastic Constant Matrix: (Units=GPa)
#
#
# Indices 1 2 3 4 5 6 
#
# 1 73.1817 49.9994 29.5016 5.6902 4.0117 6.3797
# 2 49.9994 143.9692 53.6243 5.2502 0.2928 19.1121
# 3 29.5016 53.6243 86.8781 3.6530 13.7622 5.4448
# 4 5.6902 5.2502 3.6530 35.3663 6.9369 4.0605
# 5 4.0117 0.2928 13.7622 6.9369 19.2843 2.4808
# 6 6.3797 19.1121 5.4448 4.0605 2.4808 30.1721
#
#
#
# Elastic Compliance Matrix: (Units=1/GPa)
#
#
# Indices 1 2 3 4 5 6 
#
# 1 0.018655 -0.005445 -0.002719 -0.001697 -0.001290 0.000330
# 2 -0.005445 0.011880 -0.006096 -0.000849 0.006339 -0.005681
# 3 -0.002719 -0.006096 0.018078 0.001825 -0.013158 0.002010
# 4 -0.001697 -0.000849 0.001825 0.031101 -0.011783 -0.002650
# 5 -0.001290 0.006339 -0.013158 -0.011783 0.066330 -0.005236
# 6 0.000330 -0.005681 0.002010 -0.002650 -0.005236 0.037096
#
#
# Mechanical properties :
#
#
# Convention : Reuss Voigt Hill
#
# Bulk Modulus (GPa) = 49.76959 63.36439 56.56699
# Shear Modulus (GPa) = 22.89819 28.35813 25.62816
#
# Velocity S-wave (km/s) = 3.27813 3.64808 3.46804
# Velocity P-wave (km/s) = 6.13882 6.89069 6.52559
#
# Compressibility (1/GPa) = 0.02009259
#
# Stress axis : x y z
#
# Youngs Moduli (GPa) = 53.60529 84.17656 55.31635
#
# Poissons Ratio (x) = 0.45837 0.15039
# Poissons Ratio (y) = 0.29190 0.33721
# Poissons Ratio (z) = 0.14573 0.51314
#
# Static dielectric constant tensor:
#      x y z
#    x 3.833930 -0.017320 -0.140890 
#    y -0.017320 4.048050 -0.060030 
#    z -0.140890 -0.060030 3.671530 
# 
# 
# High freq. dielectric constant tensor:
#      x y z
#    x 1.829280 0.004370 -0.008170 
#    y 0.004370 1.850730 -0.000940 
#    z -0.008170 -0.000940 1.822020 
# 
# From -- ./inp_files/99500.got.cif
#   From: 2010.06.25/outbox.cif.g09.slc.cpg/sg2_50_cif.got.tgz:99500.got - 2010.06.27 13:26:56.
