data_PCOD8009469
_publ_section_title
;
Structure prediction by ZEFSAII (Michael W. Deem and Ramdas Pophale) SiO2 
 PCOD8009469
Probable space group: P -1
;
_chemical_formula_sum "Si O2"
_cell_formula_units_Z 16
_cell_length_a 16.917870
_cell_length_b 11.910496
_cell_length_c 12.503894
_cell_angle_alpha 65.898458
_cell_angle_beta 113.904523
_cell_angle_gamma 159.864664
_cell_volume 789.801651
_symmetry_space_group_name_H-M "P -1"
_symmetry_group_IT_number 2
_symmetry_cell_setting 'triclinic'
loop_
_space_group_symop_operation_xyz
x,y,z
-x,-y,-z
loop_
_atom_site_type_symbol
_atom_site_label
_atom_site_fract_x
_atom_site_fract_y
_atom_site_fract_z
Si Si1 0.841483 0.258022 0.370421
Si Si2 0.336100 0.898525 0.455286
Si Si3 0.217890 0.161259 0.356239
Si Si4 0.540590 0.298667 0.213135
Si Si5 0.740734 0.888689 0.970705
Si Si6 0.947250 0.671669 0.225692
Si Si7 0.258543 0.123931 0.626549
Si Si8 0.909056 0.978403 0.220912
O O1 0.648371 0.017759 0.451478
O O2 0.897078 0.460940 0.264182
O O3 0.074037 0.508004 0.451040
O O4 0.749627 0.035450 0.323594
O O5 0.500000 0.000000 0.500000
O O6 0.401380 0.074376 0.327787
O O7 0.177223 0.084548 0.489376
O O8 0.485310 0.501439 0.344077
O O9 0.081663 0.874099 0.331222
O O10 0.130927 0.181737 0.263523
O O11 0.347114 0.086586 0.102987
O O12 0.696446 0.403906 0.198628
O O13 0.687458 0.604221 0.221452
O O14 0.500000 0.500000 0.000000
O O15 0.907751 0.082800 0.087744
O O16 0.899669 0.065199 0.886429
O O17 0.091433 0.952133 0.693882
#
# Coordination Sequence:
#
# PCOD8009469 Si02
#       8
#     2   2   2   2   2   2   2   2
#     4  11  24  36  60  92 123 157 197 245 298 364
#     4  11  21  36  60  92 123 157 195 248 307 351
#     4  10  22  38  61  86 121 159 194 249 297 359
#     4  10  21  36  65  93 116 153 203 255 299 350
#     4  10  21  38  63  89 119 155 202 259 296 343
#     4  11  21  41  63  94 117 152 208 252 296 352
#     4  11  24  38  57  89 128 161 191 239 304 363
#     4  10  23  39  59  86 119 161 201 243 294 358
#
# _framework density 20.25825
#
# number of rings (size 3 to 8) (size 9 to 14) (size 15 to 20)
#    0.000    1.500    2.500    3.375    5.250    6.500 
#    0.000    0.625    0.000    1.500    0.000    0.000 
#    0.000    0.000    0.000    0.000    0.000    0.000 
#
# Total GULP energy -198289.535786 kJ/mol
# GULP energy per Si atom -12393.095987 kJ/mol
# Density = 2.021214 g / cm^3
# Si number density = 20.258250 Si / 1000 Ang^3
#
#
#
# Elastic Constant Matrix: (Units=GPa)
#
#
# Indices 1 2 3 4 5 6 
#
# 1 101.2743 25.5246 31.2435 0.0310 6.8603 4.3996
# 2 25.5246 38.6761 26.5301 -5.7295 5.4005 8.0998
# 3 31.2435 26.5301 114.9883 -5.1588 13.8993 11.7158
# 4 0.0310 -5.7295 -5.1588 32.2151 7.9867 -2.2500
# 5 6.8603 5.4005 13.8993 7.9867 32.5401 -4.9912
# 6 4.3996 8.0998 11.7158 -2.2500 -4.9912 33.3205
#
#
#
# Elastic Compliance Matrix: (Units=1/GPa)
#
#
# Indices 1 2 3 4 5 6 
#
# 1 0.012214 -0.007172 -0.001775 -0.001487 -0.000165 0.000630
# 2 -0.007172 0.037122 -0.005021 0.006617 -0.005146 -0.006635
# 3 -0.001775 -0.005021 0.011279 0.001823 -0.004528 -0.003066
# 4 -0.001487 0.006617 0.001823 0.034989 -0.010342 -0.001240
# 5 -0.000165 -0.005146 -0.004528 -0.010342 0.037281 0.007751
# 6 0.000630 -0.006635 -0.003066 -0.001240 0.007751 0.033697
#
#
# Mechanical properties :
#
#
# Convention : Reuss Voigt Hill
#
# Bulk Modulus (GPa) = 30.60132 46.83726 38.71929
# Shear Modulus (GPa) = 24.34161 31.05785 27.69973
#
# Velocity S-wave (km/s) = 3.47012 3.91973 3.70176
# Velocity P-wave (km/s) = 5.58516 6.60726 6.11760
#
# Compressibility (1/GPa) = 0.03267832
#
# Stress axis : x y z
#
# Youngs Moduli (GPa) = 81.87608 26.93838 88.66283
#
# Poissons Ratio (x) = 0.19321 0.15735
# Poissons Ratio (y) = 0.58723 0.44518
# Poissons Ratio (z) = 0.14530 0.13526
#
# Static dielectric constant tensor:
#      x y z
#    x 3.647910 0.489410 -0.155110 
#    y 0.489410 2.933850 0.798720 
#    z -0.155110 0.798720 2.763470 
# 
# 
# High freq. dielectric constant tensor:
#      x y z
#    x 1.798890 0.022650 0.012980 
#    y 0.022650 1.766820 -0.013010 
#    z 0.012980 -0.013010 1.789070 
# 
# From -- ./inp_files/464534.got.cif
#   From: 2010.06.25/outbox.cif.g09.slc.cpg/sg2_233_cif.got.tgz:464534.got - 2010.06.27 13:26:56.
