data_PCOD8009606
_publ_section_title
;
Structure prediction by ZEFSAII (Michael W. Deem and Ramdas Pophale) SiO2 
 PCOD8009606
Probable space group: P -1
;
_chemical_formula_sum "Si O2"
_cell_formula_units_Z 16
_cell_length_a 9.396741
_cell_length_b 9.353232
_cell_length_c 14.655229
_cell_angle_alpha 61.132641
_cell_angle_beta 116.066062
_cell_angle_gamma 133.720538
_cell_volume 803.766159
_symmetry_space_group_name_H-M "P -1"
_symmetry_group_IT_number 2
_symmetry_cell_setting 'triclinic'
loop_
_space_group_symop_operation_xyz
x,y,z
-x,-y,-z
loop_
_atom_site_type_symbol
_atom_site_label
_atom_site_fract_x
_atom_site_fract_y
_atom_site_fract_z
Si Si1 0.889788 0.383354 0.295135
Si Si2 0.364777 0.758384 0.551720
Si Si3 0.279469 0.172753 0.291243
Si Si4 0.775394 0.286650 0.104036
Si Si5 0.543676 0.853620 0.240733
Si Si6 0.237357 0.497289 0.131269
Si Si7 0.744456 0.200032 0.677283
Si Si8 0.947424 0.049094 0.376460
O O1 0.780673 0.306451 0.384505
O O2 0.749759 0.345043 0.181310
O O3 0.057649 0.627694 0.265976
O O4 0.978765 0.262164 0.331553
O O5 0.510637 0.697962 0.633231
O O6 0.248809 0.674503 0.448733
O O7 0.500000 0.000000 0.500000
O O8 0.275756 0.329020 0.176731
O O9 0.253406 0.991150 0.282588
O O10 0.098106 0.069390 0.340746
O O11 0.006720 0.385319 0.122635
O O12 0.636803 0.038366 0.136065
O O13 0.698204 0.367685 0.983588
O O14 0.378905 0.639160 0.211505
O O15 0.448715 0.890038 0.287989
O O16 0.725141 0.864743 0.334030
O O17 0.000000 0.000000 0.500000
#
# Coordination Sequence:
#
# PCOD8009606 Si02
#       8
#     2   2   2   2   2   2   2   2
#     4  11  21  41  60  87 121 169 200 242 310 369
#     4  10  21  37  58  85 125 165 192 239 308 367
#     4  11  21  38  56  91 122 153 204 259 293 351
#     4  10  21  41  65  86 120 156 211 256 310 352
#     4  11  21  41  64  90 120 167 202 238 315 375
#     4  11  22  40  65  90 116 160 210 263 300 350
#     4  11  22  38  60  89 125 166 197 238 309 381
#     4  11  21  36  60  91 125 158 204 255 292 356
#
# _framework density 19.906286999999999
#
# number of rings (size 3 to 8) (size 9 to 14) (size 15 to 20)
#    0.000    1.250    3.750    6.000    0.000    2.000 
#    0.000    5.625    0.000    0.000    0.000    0.000 
#    0.000    0.000    0.000    0.000    0.000    0.000 
#
# Total GULP energy -198298.375849 kJ/mol
# GULP energy per Si atom -12393.648491 kJ/mol
# Density = 1.986098 g / cm^3
# Si number density = 19.906287 Si / 1000 Ang^3
#
#
#
# Elastic Constant Matrix: (Units=GPa)
#
#
# Indices 1 2 3 4 5 6 
#
# 1 77.7272 19.3785 18.7987 5.6080 -1.1468 -5.4166
# 2 19.3785 75.4519 14.3786 8.9358 5.1758 -6.4041
# 3 18.7987 14.3786 114.9258 -4.7951 6.4171 -13.0862
# 4 5.6080 8.9358 -4.7951 25.9328 2.7061 -3.7738
# 5 -1.1468 5.1758 6.4171 2.7061 34.3368 -5.1670
# 6 -5.4166 -6.4041 -13.0862 -3.7738 -5.1670 24.9547
#
#
#
# Elastic Compliance Matrix: (Units=1/GPa)
#
#
# Indices 1 2 3 4 5 6 
#
# 1 0.014401 -0.003033 -0.002029 -0.002437 0.001700 0.001267
# 2 -0.003033 0.015037 -0.001307 -0.004383 -0.001548 0.001532
# 3 -0.002029 -0.001307 0.009954 0.003551 -0.001302 0.004712
# 4 -0.002437 -0.004383 0.003551 0.042405 -0.002508 0.006102
# 5 0.001700 -0.001548 -0.001302 -0.002508 0.030645 0.005255
# 6 0.001267 0.001532 0.004712 0.006102 0.005255 0.045222
#
#
# Mechanical properties :
#
#
# Convention : Reuss Voigt Hill
#
# Bulk Modulus (GPa) = 37.51595 41.46849 39.49222
# Shear Modulus (GPa) = 27.88836 31.41480 29.65158
#
# Velocity S-wave (km/s) = 3.74703 3.97688 3.86367
# Velocity P-wave (km/s) = 6.13250 6.47801 6.30762
#
# Compressibility (1/GPa) = 0.02665533
#
# Stress axis : x y z
#
# Youngs Moduli (GPa) = 69.43741 66.50395 100.46227
#
# Poissons Ratio (x) = 0.20168 0.20380
# Poissons Ratio (y) = 0.21057 0.13133
# Poissons Ratio (z) = 0.14086 0.08694
#
# Static dielectric constant tensor:
#      x y z
#    x 3.690870 0.187600 -0.153040 
#    y 0.187600 3.573270 -0.088040 
#    z -0.153040 -0.088040 4.559300 
# 
# 
# High freq. dielectric constant tensor:
#      x y z
#    x 1.769690 0.016150 -0.007040 
#    y 0.016150 1.774970 0.000450 
#    z -0.007040 0.000450 1.782330 
# 
# From -- ./inp_files/203360.got.cif
#   From: 2010.06.25/outbox.cif.g09.slc.cpg/sg2_102_cif.got.tgz:203360.got - 2010.06.27 13:26:56.
