data_PCOD8009457
_publ_section_title
;
Structure prediction by ZEFSAII (Michael W. Deem and Ramdas Pophale) SiO2 
 PCOD8009457
Probable space group: P -1
;
_chemical_formula_sum "Si O2"
_cell_formula_units_Z 16
_cell_length_a 10.969247
_cell_length_b 8.627444
_cell_length_c 8.841985
_cell_angle_alpha 100.277714
_cell_angle_beta 81.099709
_cell_angle_gamma 120.509515
_cell_volume 707.318755
_symmetry_space_group_name_H-M "P -1"
_symmetry_group_IT_number 2
_symmetry_cell_setting 'triclinic'
loop_
_space_group_symop_operation_xyz
x,y,z
-x,-y,-z
loop_
_atom_site_type_symbol
_atom_site_label
_atom_site_fract_x
_atom_site_fract_y
_atom_site_fract_z
Si Si1 0.151132 0.516520 0.442981
Si Si2 0.069214 0.377341 0.985624
Si Si3 0.161613 0.067041 0.534534
Si Si4 0.983265 0.845047 0.769574
Si Si5 0.283486 0.709035 0.161298
Si Si6 0.232046 0.027693 0.198114
Si Si7 0.744771 0.560586 0.300665
Si Si8 0.488312 0.655635 0.940367
O O1 0.124115 0.328282 0.340994
O O2 0.251150 0.685041 0.343017
O O3 0.233939 0.555907 0.592565
O O4 0.000000 0.500000 0.500000
O O5 0.109837 0.332143 0.807575
O O6 0.981677 0.203098 0.079527
O O7 0.212765 0.507632 0.070101
O O8 0.000000 0.500000 0.000000
O O9 0.245153 0.030662 0.379104
O O10 0.265905 0.277540 0.589422
O O11 0.000000 0.000000 0.500000
O O12 0.136321 0.950806 0.673297
O O13 0.910955 0.971988 0.825371
O O14 0.226513 0.838072 0.121290
O O15 0.443420 0.770335 0.085022
O O16 0.360142 0.198727 0.125797
O O17 0.610745 0.428003 0.203234
O O18 0.500000 0.500000 0.000000
#
# Coordination Sequence:
#
# PCOD8009457 Si02
#       8
#     2   2   2   2   2   2   2   2
#     4  11  20  37  67  95 131 168 202 260 329 385
#     4  10  22  37  58  94 130 167 208 257 321 386
#     4  10  21  36  64  98 128 158 213 264 325 381
#     4  10  21  39  62  94 129 167 209 257 330 381
#     4  10  23  40  64  90 123 167 215 264 321 374
#     4  11  21  41  67  88 124 170 212 268 322 371
#     4  11  22  39  64  97 124 169 220 259 315 390
#     4  11  25  46  67  88 126 175 225 266 313 378
#
# _framework density 22.620633999999999
#
# number of rings (size 3 to 8) (size 9 to 14) (size 15 to 20)
#    0.000    1.500    2.500    4.875    5.250    1.000 
#    2.250    0.625    2.750    0.000    0.000    0.000 
#    0.000    0.000    0.000    0.000    0.000    0.000 
#
# Total GULP energy -198233.123429 kJ/mol
# GULP energy per Si atom -12389.570214 kJ/mol
# Density = 2.256915 g / cm^3
# Si number density = 22.620634 Si / 1000 Ang^3
#
#
#
# Elastic Constant Matrix: (Units=GPa)
#
#
# Indices 1 2 3 4 5 6 
#
# 1 69.6088 22.7980 38.3390 -13.9448 -3.8808 -21.8455
# 2 22.7980 101.7985 43.6657 -24.1991 -3.2084 -12.6950
# 3 38.3390 43.6657 125.6367 -29.6812 -3.8155 -7.4089
# 4 -13.9448 -24.1991 -29.6812 49.0683 -0.6710 0.0840
# 5 -3.8808 -3.2084 -3.8155 -0.6710 44.9929 -3.6007
# 6 -21.8455 -12.6950 -7.4089 0.0840 -3.6007 40.1411
#
#
#
# Elastic Compliance Matrix: (Units=1/GPa)
#
#
# Indices 1 2 3 4 5 6 
#
# 1 0.021328 -0.000584 -0.004944 0.002795 0.002277 0.010708
# 2 -0.000584 0.012690 -0.003003 0.004283 0.000921 0.003215
# 3 -0.004944 -0.003003 0.011375 0.004001 0.000262 -0.001526
# 4 0.002795 0.004283 0.004001 0.025722 0.001566 0.003701
# 5 0.002277 0.000921 0.000262 0.001566 0.022823 0.003623
# 6 0.010708 0.003215 -0.001526 0.003701 0.003623 0.031792
#
#
# Mechanical properties :
#
#
# Convention : Reuss Voigt Hill
#
# Bulk Modulus (GPa) = 35.29725 56.29439 45.79582
# Shear Modulus (GPa) = 32.84353 39.65655 36.25004
#
# Velocity S-wave (km/s) = 3.81455 4.19156 4.00749
# Velocity P-wave (km/s) = 5.91937 6.95456 6.45774
#
# Compressibility (1/GPa) = 0.02833082
#
# Stress axis : x y z
#
# Youngs Moduli (GPa) = 46.88651 78.80002 87.91112
#
# Poissons Ratio (x) = 0.04601 0.43468
# Poissons Ratio (y) = 0.02738 0.26399
# Poissons Ratio (z) = 0.23183 0.23663
#
# Static dielectric constant tensor:
#      x y z
#    x 3.699480 -0.226270 -0.259710 
#    y -0.226270 3.733300 -0.490670 
#    z -0.259710 -0.490670 4.670520 
# 
# 
# High freq. dielectric constant tensor:
#      x y z
#    x 1.853160 -0.018050 -0.013810 
#    y -0.018050 1.891910 -0.015780 
#    z -0.013810 -0.015780 1.915440 
# 
# From -- ./inp_files/239700.got.cif
#   From: 2010.06.25/outbox.cif.g09.slc.cpg/sg2_120_cif.got.tgz:239700.got - 2010.06.27 13:26:56.
