data_PCOD8009163
_publ_section_title
;
Structure prediction by ZEFSAII (Michael W. Deem and Ramdas Pophale) SiO2 
 PCOD8009163
Probable space group: P -1
;
_chemical_formula_sum "Si O2"
_cell_formula_units_Z 12
_cell_length_a 11.745169
_cell_length_b 7.024397
_cell_length_c 14.105718
_cell_angle_alpha 51.062549
_cell_angle_beta 55.093292
_cell_angle_gamma 44.900202
_cell_volume 621.616406
_symmetry_space_group_name_H-M "P -1"
_symmetry_group_IT_number 2
_symmetry_cell_setting 'triclinic'
loop_
_space_group_symop_operation_xyz
x,y,z
-x,-y,-z
loop_
_atom_site_type_symbol
_atom_site_label
_atom_site_fract_x
_atom_site_fract_y
_atom_site_fract_z
Si Si1 0.223021 0.485895 0.918591
Si Si2 0.593391 0.208387 0.246086
Si Si3 0.533627 0.872891 0.240181
Si Si4 0.950639 0.745442 0.811858
Si Si5 0.220340 0.435980 0.630164
Si Si6 0.295202 0.712850 0.343766
O O1 0.365927 0.201260 0.882966
O O2 0.357024 0.398116 0.653746
O O3 0.071159 0.701641 0.854175
O O4 0.161908 0.377912 0.067683
O O5 0.699612 0.344395 0.125759
O O6 0.449497 0.410912 0.325088
O O7 0.512949 0.166259 0.202184
O O8 0.718994 0.889903 0.334020
O O9 0.358629 0.907045 0.298787
O O10 0.045198 0.580890 0.721854
O O11 0.834968 0.092383 0.737343
O O12 0.201570 0.642240 0.488733
#
# Coordination Sequence:
#
# PCOD8009163 Si02
#       6
#     2   2   2   2   2   2
#     4   9  19  41  55  74 112 144 182 212 272 322
#     4   9  20  36  58  81 103 147 177 218 267 318
#     4   8  19  35  58  80 102 147 173 218 269 313
#     4  10  21  36  58  78 109 147 173 225 269 309
#     4   9  19  37  55  81 109 145 174 210 279 322
#     4  11  19  36  57  83 110 134 183 226 258 317
#
# _framework density 19.304511000000002
#
# number of rings (size 3 to 8) (size 9 to 14) (size 15 to 20)
#    1.000    1.667    0.000    1.500    0.000    3.333 
#    3.000    2.500    0.000    0.000    0.000    0.000 
#    0.000    0.000    0.000    0.000    0.000    0.000 
#
# Total GULP energy -148721.167597 kJ/mol
# GULP energy per Si atom -12393.430633 kJ/mol
# Density = 1.926057 g / cm^3
# Si number density = 19.304511 Si / 1000 Ang^3
#
#
#
# Elastic Constant Matrix: (Units=GPa)
#
#
# Indices 1 2 3 4 5 6 
#
# 1 31.0690 39.5051 38.0509 5.2091 -14.1822 13.5823
# 2 39.5051 97.4818 54.5297 1.1655 -11.7960 10.3394
# 3 38.0509 54.5297 140.7894 5.3528 -21.1794 -10.9213
# 4 5.2091 1.1655 5.3528 15.7896 -7.4062 2.2032
# 5 -14.1822 -11.7960 -21.1794 -7.4062 27.1475 -4.4435
# 6 13.5823 10.3394 -10.9213 2.2032 -4.4435 34.8293
#
#
#
# Elastic Compliance Matrix: (Units=1/GPa)
#
#
# Indices 1 2 3 4 5 6 
#
# 1 0.145060 -0.036659 -0.023793 -0.016832 0.028773 -0.048411
# 2 -0.036659 0.023614 0.000080 0.006649 -0.006012 0.006123
# 3 -0.023793 0.000080 0.014817 0.001775 0.001946 0.014037
# 4 -0.016832 0.006649 0.001775 0.075132 0.016384 0.002484
# 5 0.028773 -0.006012 0.001946 0.016384 0.054772 -0.002874
# 6 -0.048411 0.006123 0.014037 0.002484 -0.002874 0.049650
#
#
# Mechanical properties :
#
#
# Convention : Reuss Voigt Hill
#
# Bulk Modulus (GPa) = 15.93767 59.27908 37.60837
# Shear Modulus (GPa) = 9.90679 24.70360 17.30520
#
# Velocity S-wave (km/s) = 2.26782 3.58114 2.99730
# Velocity P-wave (km/s) = 3.88988 6.91907 5.61269
#
# Compressibility (1/GPa) = 0.06274444
#
# Stress axis : x y z
#
# Youngs Moduli (GPa) = 6.89372 42.34861 67.49145
#
# Poissons Ratio (x) = 1.55245 1.60585
# Poissons Ratio (y) = 0.25272 -0.00537
# Poissons Ratio (z) = 0.16403 -0.00337
#
# Static dielectric constant tensor:
#      x y z
#    x 3.407210 -0.056050 -0.097260 
#    y -0.056050 3.377470 0.055630 
#    z -0.097260 0.055630 3.312510 
# 
# 
# High freq. dielectric constant tensor:
#      x y z
#    x 1.740760 -0.009280 -0.011360 
#    y -0.009280 1.738220 0.006070 
#    z -0.011360 0.006070 1.742810 
# 
# From -- ./inp_files/78868.got.cif
#   From: 2010.06.25/outbox.cif.g09.slc.cpg/sg2_40_cif.got.tgz:78868.got - 2010.06.27 13:26:56.
