data_PCOD8009129
_publ_section_title
;
Structure prediction by ZEFSAII (Michael W. Deem and Ramdas Pophale) SiO2 
 PCOD8009129
Probable space group: P -1
;
_chemical_formula_sum "Si O2"
_cell_formula_units_Z 16
_cell_length_a 7.183118
_cell_length_b 18.711516
_cell_length_c 7.838687
_cell_angle_alpha 79.348668
_cell_angle_beta 58.805686
_cell_angle_gamma 108.508782
_cell_volume 771.356386
_symmetry_space_group_name_H-M "P -1"
_symmetry_group_IT_number 2
_symmetry_cell_setting 'triclinic'
loop_
_space_group_symop_operation_xyz
x,y,z
-x,-y,-z
loop_
_atom_site_type_symbol
_atom_site_label
_atom_site_fract_x
_atom_site_fract_y
_atom_site_fract_z
Si Si1 0.778579 0.565197 0.015147
Si Si2 0.730972 0.131270 0.716734
Si Si3 0.878463 0.932017 0.442236
Si Si4 0.323331 0.994291 0.736747
Si Si5 0.059215 0.314235 0.406893
Si Si6 0.956676 0.342164 0.822090
Si Si7 0.419768 0.599214 0.986281
Si Si8 0.338503 0.842432 0.893138
O O1 0.974601 0.630000 0.750845
O O2 0.507303 0.558900 0.114800
O O3 0.747345 0.473641 0.038836
O O4 0.850768 0.590387 0.166081
O O5 0.497253 0.055676 0.772837
O O6 0.956216 0.111582 0.653363
O O7 0.849595 0.218033 0.516715
O O8 0.607026 0.145080 0.937168
O O9 0.877953 0.979489 0.245549
O O10 0.592944 0.866890 0.658661
O O11 0.000000 0.000000 0.500000
O O12 0.500000 0.000000 0.500000
O O13 0.202795 0.897500 0.891554
O O14 0.336156 0.325456 0.252101
O O15 0.067105 0.346028 0.581818
O O16 0.731405 0.359596 0.882240
O O17 0.860626 0.253810 0.002748
#
# Coordination Sequence:
#
# PCOD8009129 Si02
#       8
#     2   2   2   2   2   2   2   2
#     4   9  21  40  59  88 122 147 190 243 279 343
#     4  11  21  41  56  80 121 142 187 248 270 332
#     4  11  22  36  58  79 105 154 187 227 291 327
#     4  10  21  36  57  82 107 150 190 226 285 335
#     4   9  22  39  58  89 117 151 195 235 285 343
#     4  11  21  39  62  84 117 159 186 235 297 333
#     4   9  20  42  57  90 120 146 195 237 280 349
#     4  10  23  39  55  86 113 143 197 235 273 344
#
# _framework density 20.742681000000001
#
# number of rings (size 3 to 8) (size 9 to 14) (size 15 to 20)
#    0.750    1.250    2.500    1.500    3.500    1.500 
#    2.250    2.500    0.000    0.000    0.000    0.000 
#    0.000    0.000    0.000    0.000    0.000    0.000 
#
# Total GULP energy -198232.369916 kJ/mol
# GULP energy per Si atom -12389.523120 kJ/mol
# Density = 2.069547 g / cm^3
# Si number density = 20.742681 Si / 1000 Ang^3
#
#
#
# Elastic Constant Matrix: (Units=GPa)
#
#
# Indices 1 2 3 4 5 6 
#
# 1 62.0206 6.5813 8.1736 9.7276 -1.4724 -5.2949
# 2 6.5813 60.1540 -12.0791 -4.3835 -0.3409 -4.4237
# 3 8.1736 -12.0791 20.0781 -0.3162 3.3646 -8.6158
# 4 9.7276 -4.3835 -0.3162 31.5022 -1.8471 6.4688
# 5 -1.4724 -0.3409 3.3646 -1.8471 21.1542 2.2780
# 6 -5.2949 -4.4237 -8.6158 6.4688 2.2780 25.1786
#
#
#
# Elastic Compliance Matrix: (Units=1/GPa)
#
#
# Indices 1 2 3 4 5 6 
#
# 1 0.019229 -0.004631 -0.010604 -0.006793 0.002234 0.001144
# 2 -0.004631 0.021960 0.019810 0.002532 -0.003907 0.009366
# 3 -0.010604 0.019810 0.082173 -0.000504 -0.016874 0.031025
# 4 -0.006793 0.002532 -0.000504 0.036672 0.004028 -0.010942
# 5 0.002234 -0.003907 -0.016874 0.004028 0.051660 -0.011699
# 6 0.001144 0.009366 0.031025 -0.010942 -0.011699 0.056088
#
#
# Mechanical properties :
#
#
# Convention : Reuss Voigt Hill
#
# Bulk Modulus (GPa) = 7.54659 16.40048 11.97354
# Shear Modulus (GPa) = 16.51237 24.87213 20.69225
#
# Velocity S-wave (km/s) = 2.82451 3.46653 3.16186
# Velocity P-wave (km/s) = 3.77932 4.89349 4.37204
#
# Compressibility (1/GPa) = 0.13251022
#
# Stress axis : x y z
#
# Youngs Moduli (GPa) = 52.00535 45.53777 12.16942
#
# Poissons Ratio (x) = 0.21090 0.12905
# Poissons Ratio (y) = 0.24086 -0.24108
# Poissons Ratio (z) = 0.55149 -0.90211
#
# Static dielectric constant tensor:
#      x y z
#    x 3.887640 -0.359570 0.381240 
#    y -0.359570 3.832170 -0.288650 
#    z 0.381240 -0.288650 4.029250 
# 
# 
# High freq. dielectric constant tensor:
#      x y z
#    x 1.791070 -0.001060 0.007210 
#    y -0.001060 1.820980 -0.002130 
#    z 0.007210 -0.002130 1.806170 
# 
# From -- ./inp_files/212622.got.cif
#   From: 2010.06.25/outbox.cif.g09.slc.cpg/sg2_107_cif.got.tgz:212622.got - 2010.06.27 13:26:56.
