data_PCOD8009598
_publ_section_title
;
Structure prediction by ZEFSAII (Michael W. Deem and Ramdas Pophale) SiO2 
 PCOD8009598
Probable space group: P -1
;
_chemical_formula_sum "Si O2"
_cell_formula_units_Z 16
_cell_length_a 8.856207
_cell_length_b 6.126080
_cell_length_c 21.707836
_cell_angle_alpha 67.369478
_cell_angle_beta 123.774738
_cell_angle_gamma 128.624631
_cell_volume 763.525490
_symmetry_space_group_name_H-M "P -1"
_symmetry_group_IT_number 2
_symmetry_cell_setting 'triclinic'
loop_
_space_group_symop_operation_xyz
x,y,z
-x,-y,-z
loop_
_atom_site_type_symbol
_atom_site_label
_atom_site_fract_x
_atom_site_fract_y
_atom_site_fract_z
Si Si1 0.181788 0.322545 0.902578
Si Si2 0.664560 0.402508 0.539469
Si Si3 0.550227 0.902635 0.959699
Si Si4 0.578060 0.203651 0.405559
Si Si5 0.693374 0.095808 0.843642
Si Si6 0.139141 0.782460 0.639475
Si Si7 0.676154 0.496546 0.213856
Si Si8 0.443314 0.339094 0.710679
O O1 0.320341 0.650262 0.912646
O O2 0.209164 0.287123 0.839924
O O3 0.938621 0.202258 0.877879
O O4 0.270901 0.172036 0.980213
O O5 0.500000 0.500000 0.500000
O O6 0.682661 0.336898 0.480128
O O7 0.888479 0.658147 0.587477
O O8 0.598375 0.126286 0.594151
O O9 0.648014 0.129487 0.901717
O O10 0.500000 0.000000 0.000000
O O11 0.769405 0.251658 0.400098
O O12 0.465961 0.359224 0.333644
O O13 0.632622 0.277797 0.767262
O O14 0.556907 0.769421 0.829071
O O15 0.172703 0.614686 0.719128
O O16 0.252855 0.106146 0.649543
O O17 0.652620 0.672781 0.242785
#
# Coordination Sequence:
#
# PCOD8009598 Si02
#       8
#     2   2   2   2   2   2   2   2
#     4  10  21  37  58  84 119 155 194 243 291 345
#     4  11  24  40  62  90 119 154 200 245 298 360
#     4  10  21  37  58  87 119 154 197 241 290 347
#     4  10  23  41  60  87 120 156 196 245 298 359
#     4  10  21  38  59  87 118 154 198 243 293 349
#     4  10  22  41  61  85 120 157 195 245 300 352
#     4   9  21  38  56  83 117 154 195 240 293 351
#     4  10  21  40  63  85 118 157 199 246 297 355
#
# _framework density 20.955425000000002
#
# number of rings (size 3 to 8) (size 9 to 14) (size 15 to 20)
#    0.000    2.000    0.000    2.250    0.000   11.500 
#    0.000    6.250    0.000    0.000    0.000    0.000 
#    0.000    0.000    0.000    0.000    0.000    0.000 
#
# Total GULP energy -198425.632827 kJ/mol
# GULP energy per Si atom -12401.602052 kJ/mol
# Density = 2.090773 g / cm^3
# Si number density = 20.955425 Si / 1000 Ang^3
#
#
#
# Elastic Constant Matrix: (Units=GPa)
#
#
# Indices 1 2 3 4 5 6 
#
# 1 107.7481 60.1768 53.3531 16.1025 15.3307 18.1551
# 2 60.1768 94.7256 54.4820 -3.2288 6.9410 2.7934
# 3 53.3531 54.4820 106.5917 0.2093 1.0478 19.2796
# 4 16.1025 -3.2288 0.2093 34.5175 0.4008 -3.0837
# 5 15.3307 6.9410 1.0478 0.4008 34.3242 5.6098
# 6 18.1551 2.7934 19.2796 -3.0837 5.6098 30.8007
#
#
#
# Elastic Compliance Matrix: (Units=1/GPa)
#
#
# Indices 1 2 3 4 5 6 
#
# 1 0.021478 -0.011706 -0.002880 -0.011929 -0.005362 -0.010013
# 2 -0.011706 0.022341 -0.007480 0.008551 -0.000889 0.010574
# 3 -0.002880 -0.007480 0.016133 -0.000249 0.003685 -0.008419
# 4 -0.011929 0.008551 -0.000249 0.036189 0.001591 0.009745
# 5 -0.005362 -0.000889 0.003685 0.001591 0.032362 -0.004801
# 6 -0.010013 0.010574 -0.008419 0.009745 -0.004801 0.044530
#
#
# Mechanical properties :
#
#
# Convention : Reuss Voigt Hill
#
# Bulk Modulus (GPa) = 63.21386 71.67658 67.44522
# Shear Modulus (GPa) = 22.47816 29.33205 25.90510
#
# Velocity S-wave (km/s) = 3.27871 3.74536 3.51978
# Velocity P-wave (km/s) = 6.67567 7.27889 6.98380
#
# Compressibility (1/GPa) = 0.01581931
#
# Stress axis : x y z
#
# Youngs Moduli (GPa) = 46.56001 44.76153 61.98382
#
# Poissons Ratio (x) = 0.52400 0.17849
# Poissons Ratio (y) = 0.54505 0.46364
# Poissons Ratio (z) = 0.13407 0.33482
#
# Static dielectric constant tensor:
#      x y z
#    x 3.627120 -0.115090 -0.210580 
#    y -0.115090 3.788770 -0.109790 
#    z -0.210580 -0.109790 4.119910 
# 
# 
# High freq. dielectric constant tensor:
#      x y z
#    x 1.815070 -0.008810 -0.011160 
#    y -0.008810 1.809710 -0.004850 
#    z -0.011160 -0.004850 1.840030 
# 
# From -- ./inp_files/10564.got.cif
#   From: 2010.06.25/outbox.cif.g09.slc.cpg/sg2_6_cif.got.tgz:10564.got - 2010.06.27 13:26:56.
