data_PCOD8009435
_publ_section_title
;
Structure prediction by ZEFSAII (Michael W. Deem and Ramdas Pophale) SiO2 
 PCOD8009435
Probable space group: P -1
;
_chemical_formula_sum "Si O2"
_cell_formula_units_Z 12
_cell_length_a 11.405467
_cell_length_b 19.527690
_cell_length_c 22.106283
_cell_angle_alpha 167.621957
_cell_angle_beta 147.590054
_cell_angle_gamma 33.211762
_cell_volume 562.561716
_symmetry_space_group_name_H-M "P -1"
_symmetry_group_IT_number 2
_symmetry_cell_setting 'triclinic'
loop_
_space_group_symop_operation_xyz
x,y,z
-x,-y,-z
loop_
_atom_site_type_symbol
_atom_site_label
_atom_site_fract_x
_atom_site_fract_y
_atom_site_fract_z
Si Si1 0.175584 0.532900 0.487417
Si Si2 0.503268 0.197857 0.417734
Si Si3 0.091720 0.995671 0.132561
Si Si4 0.245243 0.557063 0.927597
Si Si5 0.782675 0.647820 0.998533
Si Si6 0.017578 0.974806 0.692450
O O1 0.431734 0.433098 0.532111
O O2 0.167356 0.743287 0.603908
O O3 0.053686 0.726911 0.656200
O O4 0.065250 0.203426 0.147435
O O5 0.268903 0.148716 0.301668
O O6 0.631345 0.861089 0.163606
O O7 0.653874 0.357066 0.668790
O O8 0.224616 0.754861 0.028253
O O9 0.500000 0.500000 0.000000
O O10 0.145021 0.220917 0.586104
O O11 0.126023 0.742579 0.091608
O O12 0.826499 0.867794 0.150358
O O13 0.000000 0.500000 0.000000
#
# Coordination Sequence:
#
# PCOD8009435 Si02
#       6
#     2   2   2   2   2   2
#     4  10  21  41  65  94 121 151 202 261 306 351
#     4  12  24  41  66  89 122 169 197 244 312 358
#     4  10  21  37  63  98 123 148 199 258 307 361
#     4  10  21  36  64  88 117 161 196 250 305 350
#     4  12  28  42  60  87 127 169 205 245 287 365
#     4  10  23  41  59  88 124 153 204 255 288 354
#
# _framework density 21.330992999999999
#
# number of rings (size 3 to 8) (size 9 to 14) (size 15 to 20)
#    0.000    1.333    0.000    5.000    4.667    1.333 
#    0.000    0.000    0.000    0.000    0.000    0.000 
#    0.000    0.000    0.000    0.000    0.000    0.000 
#
# Total GULP energy -148840.230568 kJ/mol
# GULP energy per Si atom -12403.352547 kJ/mol
# Density = 2.128244 g / cm^3
# Si number density = 21.330993 Si / 1000 Ang^3
#
#
#
# Elastic Constant Matrix: (Units=GPa)
#
#
# Indices 1 2 3 4 5 6 
#
# 1 91.1892 22.0163 19.4590 -12.5340 -7.8889 21.3451
# 2 22.0163 136.5527 28.2025 -14.0138 -10.6626 8.4886
# 3 19.4590 28.2025 137.1356 -21.0631 -18.6809 4.8336
# 4 -12.5340 -14.0138 -21.0631 27.8157 14.7838 -5.3545
# 5 -7.8889 -10.6626 -18.6809 14.7838 38.2291 -4.3141
# 6 21.3451 8.4886 4.8336 -5.3545 -4.3141 18.9263
#
#
#
# Elastic Compliance Matrix: (Units=1/GPa)
#
#
# Indices 1 2 3 4 5 6 
#
# 1 0.015566 -0.001035 -0.001059 0.002863 -0.000521 -0.016129
# 2 -0.001035 0.008066 -0.001047 0.002272 0.000485 -0.001430
# 3 -0.001059 -0.001047 0.008608 0.004677 0.002029 0.001250
# 4 0.002863 0.002272 0.004677 0.051343 -0.015725 0.005499
# 5 -0.000521 0.000485 0.002029 -0.015725 0.033604 0.003063
# 6 -0.016129 -0.001430 0.001250 0.005499 0.003063 0.073603
#
#
# Mechanical properties :
#
#
# Convention : Reuss Voigt Hill
#
# Bulk Modulus (GPa) = 38.52173 56.02590 47.27382
# Shear Modulus (GPa) = 24.30437 36.67420 30.48929
#
# Velocity S-wave (km/s) = 3.37915 4.15093 3.78477
# Velocity P-wave (km/s) = 5.77262 7.02109 6.42724
#
# Compressibility (1/GPa) = 0.02595937
#
# Stress axis : x y z
#
# Youngs Moduli (GPa) = 64.24266 123.97518 116.17030
#
# Poissons Ratio (x) = 0.12835 0.12298
# Poissons Ratio (y) = 0.06651 0.12158
# Poissons Ratio (z) = 0.06801 0.12975
#
# Static dielectric constant tensor:
#      x y z
#    x 3.815320 0.245820 -0.127770 
#    y 0.245820 3.959760 -0.009600 
#    z -0.127770 -0.009600 4.157890 
# 
# 
# High freq. dielectric constant tensor:
#      x y z
#    x 1.834620 0.011220 -0.012470 
#    y 0.011220 1.850350 0.002510 
#    z -0.012470 0.002510 1.853710 
# 
# From -- ./inp_files/23316.got.cif
#   From: 2010.06.25/outbox.cif.g09.slc.cpg/sg2_12_cif.got.tgz:23316.got - 2010.06.27 13:26:56.
