data_PCOD8009037
_publ_section_title
;
Structure prediction by ZEFSAII (Michael W. Deem and Ramdas Pophale) SiO2 
 PCOD8009037
Probable space group: P -1
;
_chemical_formula_sum "Si O2"
_cell_formula_units_Z 16
_cell_length_a 12.937049
_cell_length_b 25.421548
_cell_length_c 8.286051
_cell_angle_alpha 50.020084
_cell_angle_beta 114.701029
_cell_angle_gamma 155.461441
_cell_volume 738.888607
_symmetry_space_group_name_H-M "P -1"
_symmetry_group_IT_number 2
_symmetry_cell_setting 'triclinic'
loop_
_space_group_symop_operation_xyz
x,y,z
-x,-y,-z
loop_
_atom_site_type_symbol
_atom_site_label
_atom_site_fract_x
_atom_site_fract_y
_atom_site_fract_z
Si Si1 0.363503 0.458386 0.653177
Si Si2 0.739950 0.947464 0.000699
Si Si3 0.413222 0.272789 0.164667
Si Si4 0.382557 0.260660 0.789728
Si Si5 0.641828 0.042642 0.663206
Si Si6 0.797303 0.611783 0.808140
Si Si7 0.223793 0.031942 0.640608
Si Si8 0.828275 0.143608 0.119213
O O1 0.500000 0.500000 0.500000
O O2 0.391177 0.555859 0.482001
O O3 0.531978 0.517708 0.797105
O O4 0.016748 0.250988 0.863060
O O5 0.620221 0.947766 0.828189
O O6 0.063729 0.110605 0.825253
O O7 0.542697 0.770457 0.185096
O O8 0.743158 0.965106 0.155862
O O9 0.450978 0.217468 0.371280
O O10 0.409984 0.264954 0.987626
O O11 0.676797 0.466999 0.014585
O O12 0.105345 0.131567 0.302812
O O13 0.981453 0.254712 0.464228
O O14 0.500000 0.000000 0.500000
O O15 0.458738 0.966869 0.849977
O O16 0.956667 0.714248 0.877382
O O17 0.293890 0.001239 0.649975
#
# Coordination Sequence:
#
# PCOD8009037 Si02
#       8
#     2   2   2   2   2   2   2   2
#     4  12  21  39  64  98 125 157 222 271 310 374
#     4  10  21  40  62  93 127 170 209 260 322 378
#     4  10  21  37  61  96 131 159 209 271 321 371
#     4  10  21  35  66  93 125 166 208 268 324 364
#     4  10  24  43  65  91 132 171 217 259 316 393
#     4  11  22  40  66  91 130 169 214 267 312 379
#     4  10  22  37  60  97 130 160 214 266 314 384
#     4  11  25  40  65  93 126 174 211 263 327 373
#
# _framework density 21.654145
#
# number of rings (size 3 to 8) (size 9 to 14) (size 15 to 20)
#    0.000    1.500    3.750    1.125    5.250    1.500 
#    0.000    1.250    0.000    0.000    0.000    0.000 
#    0.000    0.000    0.000    0.000    0.000    0.000 
#
# Total GULP energy -198354.320252 kJ/mol
# GULP energy per Si atom -12397.145016 kJ/mol
# Density = 2.160486 g / cm^3
# Si number density = 21.654145 Si / 1000 Ang^3
#
#
#
# Elastic Constant Matrix: (Units=GPa)
#
#
# Indices 1 2 3 4 5 6 
#
# 1 152.3175 36.9042 75.0811 -18.0059 33.9540 -5.7824
# 2 36.9042 35.3284 20.5217 -7.2922 19.6151 -8.0128
# 3 75.0811 20.5217 133.6955 -20.1131 29.1578 3.6362
# 4 -18.0059 -7.2922 -20.1131 28.9852 -3.0817 7.3819
# 5 33.9540 19.6151 29.1578 -3.0817 53.8271 -6.0846
# 6 -5.7824 -8.0128 3.6362 7.3819 -6.0846 33.4758
#
#
#
# Elastic Compliance Matrix: (Units=1/GPa)
#
#
# Indices 1 2 3 4 5 6 
#
# 1 0.011267 -0.007884 -0.004469 0.001772 -0.001730 -0.000161
# 2 -0.007884 0.044410 0.000254 0.003681 -0.010398 0.006539
# 3 -0.004469 0.000254 0.011800 0.006099 -0.003771 -0.004023
# 4 0.001772 0.003681 0.006099 0.042762 -0.004412 -0.009707
# 5 -0.001730 -0.010398 -0.003771 -0.004412 0.025616 0.003251
# 6 -0.000161 0.006539 -0.004023 -0.009707 0.003251 0.034578
#
#
# Mechanical properties :
#
#
# Convention : Reuss Voigt Hill
#
# Bulk Modulus (GPa) = 23.10555 65.15060 44.12808
# Shear Modulus (GPa) = 23.91682 35.84659 29.88171
#
# Velocity S-wave (km/s) = 3.32699 4.07309 3.71880
# Velocity P-wave (km/s) = 5.04499 7.22996 6.23395
#
# Compressibility (1/GPa) = 0.04327964
#
# Stress axis : x y z
#
# Youngs Moduli (GPa) = 88.75163 22.51760 84.74646
#
# Poissons Ratio (x) = 0.17753 0.37875
# Poissons Ratio (y) = 0.69971 -0.02156
# Poissons Ratio (z) = 0.39665 -0.00573
#
# Static dielectric constant tensor:
#      x y z
#    x 4.207570 0.087680 -0.062650 
#    y 0.087680 3.733480 -0.227770 
#    z -0.062650 -0.227770 4.296430 
# 
# 
# High freq. dielectric constant tensor:
#      x y z
#    x 1.844990 -0.014760 0.013870 
#    y -0.014760 1.827950 0.004340 
#    z 0.013870 0.004340 1.857920 
# 
# From -- ./inp_files/284741.got.cif
#   From: 2010.06.25/outbox.cif.g09.slc.cpg/sg2_143_cif.got.tgz:284741.got - 2010.06.27 13:26:56.
