data_PCOD8009364
_publ_section_title
;
Structure prediction by ZEFSAII (Michael W. Deem and Ramdas Pophale) SiO2 
 PCOD8009364
Probable space group: P -1
;
_chemical_formula_sum "Si O2"
_cell_formula_units_Z 14
_cell_length_a 12.267592
_cell_length_b 8.237685
_cell_length_c 8.902398
_cell_angle_alpha 89.161196
_cell_angle_beta 51.297177
_cell_angle_gamma 83.724155
_cell_volume 696.200628
_symmetry_space_group_name_H-M "P -1"
_symmetry_group_IT_number 2
_symmetry_cell_setting 'triclinic'
loop_
_space_group_symop_operation_xyz
x,y,z
-x,-y,-z
loop_
_atom_site_type_symbol
_atom_site_label
_atom_site_fract_x
_atom_site_fract_y
_atom_site_fract_z
Si Si1 0.879971 0.911212 0.182229
Si Si2 0.301949 0.507276 0.414009
Si Si3 0.036871 0.434048 0.803165
Si Si4 0.653966 0.177024 0.481392
Si Si5 0.646163 0.757950 0.203268
Si Si6 0.603894 0.404227 0.243809
Si Si7 0.768180 0.538387 0.864824
O O1 0.963417 0.761662 0.204896
O O2 0.777700 0.835787 0.153865
O O3 0.780237 0.028498 0.378876
O O4 0.000000 0.000000 0.000000
O O5 0.192129 0.471924 0.634888
O O6 0.322008 0.697959 0.407142
O O7 0.446464 0.390640 0.322632
O O8 0.246295 0.470092 0.298937
O O9 0.931924 0.524511 0.769250
O O10 0.000000 0.500000 0.000000
O O11 0.499650 0.119171 0.649717
O O12 0.658221 0.259735 0.312304
O O13 0.613717 0.583933 0.311657
O O14 0.685793 0.711613 0.995678
O O15 0.703905 0.390440 0.009570
#
# Coordination Sequence:
#
# PCOD8009364 Si02
#       7
#     2   2   2   2   2   2   2
#     4  12  23  36  59  88 116 152 196 245 287 336
#     4  11  21  37  63  90 117 151 193 239 296 344
#     4  12  22  40  61  86 114 155 204 239 279 346
#     4  11  21  35  62  91 118 148 192 243 292 340
#     4   9  20  36  59  84 118 147 198 235 285 335
#     4   9  19  36  62  90 112 148 197 236 281 343
#     4  10  21  36  62  88 120 147 197 239 289 339
#
# _framework density 20.109145999999999
#
# number of rings (size 3 to 8) (size 9 to 14) (size 15 to 20)
#    0.857    0.571    1.429    7.286    0.000    0.000 
#    0.000    0.714    3.143    1.714    0.000    0.000 
#    0.000    0.000    0.000    0.000    0.000    0.000 
#
# Total GULP energy -173483.699875 kJ/mol
# GULP energy per Si atom -12391.692848 kJ/mol
# Density = 2.006338 g / cm^3
# Si number density = 20.109146 Si / 1000 Ang^3
#
#
#
# Elastic Constant Matrix: (Units=GPa)
#
#
# Indices 1 2 3 4 5 6 
#
# 1 91.5027 19.5581 32.4239 -1.2211 -6.9930 14.9957
# 2 19.5581 57.3741 20.6215 12.8250 -10.0463 0.6972
# 3 32.4239 20.6215 85.8863 6.8989 -15.0558 4.8767
# 4 -1.2211 12.8250 6.8989 29.7477 6.5156 -11.8501
# 5 -6.9930 -10.0463 -15.0558 6.5156 45.3748 0.1027
# 6 14.9957 0.6972 4.8767 -11.8501 0.1027 26.1555
#
#
#
# Elastic Compliance Matrix: (Units=1/GPa)
#
#
# Indices 1 2 3 4 5 6 
#
# 1 0.014323 -0.003276 -0.004188 0.000028 0.000105 -0.007331
# 2 -0.003276 0.023138 -0.002083 -0.012487 0.005729 -0.004030
# 3 -0.004188 -0.002083 0.015055 -0.004778 0.004581 -0.002533
# 4 0.000028 -0.012487 -0.004778 0.052753 -0.011978 0.025155
# 5 0.000105 0.005729 0.004581 -0.011978 0.026578 -0.006598
# 6 -0.007331 -0.004030 -0.002533 0.025155 -0.006598 0.054438
#
#
# Mechanical properties :
#
#
# Convention : Reuss Voigt Hill
#
# Bulk Modulus (GPa) = 29.91982 42.21889 36.06935
# Shear Modulus (GPa) = 23.09254 31.06623 27.07939
#
# Velocity S-wave (km/s) = 3.39242 3.93476 3.67361
# Velocity P-wave (km/s) = 5.50052 6.45628 5.99747
#
# Compressibility (1/GPa) = 0.03342266
#
# Stress axis : x y z
#
# Youngs Moduli (GPa) = 69.81888 43.21840 66.42288
#
# Poissons Ratio (x) = 0.14158 0.27819
# Poissons Ratio (y) = 0.22873 0.13833
# Poissons Ratio (z) = 0.29242 0.09000
#
# Static dielectric constant tensor:
#      x y z
#    x 3.617910 0.067970 -0.408810 
#    y 0.067970 3.506790 0.116660 
#    z -0.408810 0.116660 3.737950 
# 
# 
# High freq. dielectric constant tensor:
#      x y z
#    x 1.780390 0.013110 -0.032250 
#    y 0.013110 1.748940 0.007590 
#    z -0.032250 0.007590 1.793250 
# 
# From -- ./inp_files/239458.got.cif
#   From: 2010.06.25/outbox.cif.g09.slc.cpg/sg2_120_cif.got.tgz:239458.got - 2010.06.27 13:26:56.
