data_PCOD8009592
_publ_section_title
;
Structure prediction by ZEFSAII (Michael W. Deem and Ramdas Pophale) SiO2 
 PCOD8009592
Probable space group: P -1
;
_chemical_formula_sum "Si O2"
_cell_formula_units_Z 16
_cell_length_a 11.898587
_cell_length_b 9.445065
_cell_length_c 8.818963
_cell_angle_alpha 87.060089
_cell_angle_beta 89.213775
_cell_angle_gamma 58.946692
_cell_volume 847.852558
_symmetry_space_group_name_H-M "P -1"
_symmetry_group_IT_number 2
_symmetry_cell_setting 'triclinic'
loop_
_space_group_symop_operation_xyz
x,y,z
-x,-y,-z
loop_
_atom_site_type_symbol
_atom_site_label
_atom_site_fract_x
_atom_site_fract_y
_atom_site_fract_z
Si Si1 0.982348 0.586311 0.154428
Si Si2 0.763759 0.661795 0.666684
Si Si3 0.477566 0.698664 0.345819
Si Si4 0.532475 0.611213 0.687921
Si Si5 0.697637 0.973364 0.832424
Si Si6 0.284725 0.254248 0.677387
Si Si7 0.911962 0.923299 0.035275
Si Si8 0.355820 0.932127 0.848265
O O1 0.087929 0.465073 0.280386
O O2 0.836384 0.646154 0.212110
O O3 0.999810 0.742905 0.118503
O O4 0.000000 0.500000 0.000000
O O5 0.681618 0.569981 0.682133
O O6 0.767631 0.721222 0.494148
O O7 0.691791 0.822025 0.767377
O O8 0.460448 0.686267 0.525902
O O9 0.467623 0.555634 0.265549
O O10 0.356265 0.875453 0.291200
O O11 0.617091 0.678414 0.304920
O O12 0.454280 0.743574 0.813046
O O13 0.609675 0.032682 0.984752
O O14 0.849007 0.911455 0.876747
O O15 0.363626 0.058030 0.723483
O O16 0.792275 0.036721 0.147033
O O17 0.000000 0.000000 0.000000
#
# Coordination Sequence:
#
# PCOD8009592 Si02
#       8
#     2   2   2   2   2   2   2   2
#     4  11  21  39  58  84 112 148 187 235 271 328
#     4  11  21  36  61  82 112 153 186 227 278 334
#     4  10  22  38  57  83 117 147 183 233 284 332
#     4  10  22  38  56  85 116 146 185 233 282 331
#     4  10  21  37  58  84 108 149 187 230 279 327
#     4  10  21  38  58  83 114 148 188 228 276 338
#     4   9  21  38  56  81 115 147 182 233 280 327
#     4   9  20  37  57  83 110 146 187 233 273 327
#
# _framework density 18.871206000000001
#
# number of rings (size 3 to 8) (size 9 to 14) (size 15 to 20)
#    0.750    1.250    1.250    1.875    1.750    6.500 
#    0.000    0.000    0.000    2.250    0.000    0.000 
#    0.000    0.000    0.000    0.000    0.000    0.000 
#
# Total GULP energy -198376.681266 kJ/mol
# GULP energy per Si atom -12398.542579 kJ/mol
# Density = 1.882825 g / cm^3
# Si number density = 18.871206 Si / 1000 Ang^3
#
#
#
# Elastic Constant Matrix: (Units=GPa)
#
#
# Indices 1 2 3 4 5 6 
#
# 1 74.6079 31.6637 20.2912 -1.3439 -4.4266 22.9937
# 2 31.6637 95.6821 20.4605 -4.2223 0.1230 8.2307
# 3 20.2912 20.4605 68.4706 1.5326 3.7423 4.9656
# 4 -1.3439 -4.2223 1.5326 38.0693 -5.9847 0.0700
# 5 -4.4266 0.1230 3.7423 -5.9847 28.0809 -4.2961
# 6 22.9937 8.2307 4.9656 0.0700 -4.2961 31.4411
#
#
#
# Elastic Compliance Matrix: (Units=1/GPa)
#
#
# Indices 1 2 3 4 5 6 
#
# 1 0.020629 -0.004865 -0.003843 0.000674 0.001949 -0.012942
# 2 -0.004865 0.012575 -0.002383 0.001297 -0.000133 0.000621
# 3 -0.003843 -0.002383 0.016631 -0.001555 -0.003083 0.000390
# 4 0.000674 0.001297 -0.001555 0.027471 0.006193 0.000198
# 5 0.001949 -0.000133 -0.003083 0.006193 0.038311 0.004317
# 6 -0.012942 0.000621 0.000390 0.000198 0.004317 0.041635
#
#
# Mechanical properties :
#
#
# Convention : Reuss Voigt Hill
#
# Bulk Modulus (GPa) = 36.16079 42.62125 39.39102
# Shear Modulus (GPa) = 26.50405 30.60795 28.55600
#
# Velocity S-wave (km/s) = 3.75169 4.03170 3.89421
# Velocity P-wave (km/s) = 6.16201 6.65636 6.41395
#
# Compressibility (1/GPa) = 0.02765427
#
# Stress axis : x y z
#
# Youngs Moduli (GPa) = 48.47454 79.52555 60.12968
#
# Poissons Ratio (x) = 0.38686 0.23107
# Poissons Ratio (y) = 0.23581 0.14327
# Poissons Ratio (z) = 0.18628 0.18949
#
# Static dielectric constant tensor:
#      x y z
#    x 3.342630 -0.019520 0.076680 
#    y -0.019520 3.472100 -0.131420 
#    z 0.076680 -0.131420 3.457630 
# 
# 
# High freq. dielectric constant tensor:
#      x y z
#    x 1.723990 -0.000580 0.003570 
#    y -0.000580 1.735180 -0.009380 
#    z 0.003570 -0.009380 1.732290 
# 
# From -- ./inp_files/216752.got.cif
#   From: 2010.06.25/outbox.cif.g09.slc.cpg/sg2_109_cif.got.tgz:216752.got - 2010.06.27 13:26:56.
