data_PCOD8009769
_publ_section_title
;
Structure prediction by ZEFSAII (Michael W. Deem and Ramdas Pophale) SiO2 
 PCOD8009769
Probable space group: P -1
;
_chemical_formula_sum "Si O2"
_cell_formula_units_Z 16
_cell_length_a 9.073248
_cell_length_b 10.762371
_cell_length_c 17.492263
_cell_angle_alpha 40.878253
_cell_angle_beta 62.930429
_cell_angle_gamma 93.398344
_cell_volume 718.450000
_symmetry_space_group_name_H-M "P -1"
_symmetry_group_IT_number 2
_symmetry_cell_setting 'triclinic'
loop_
_space_group_symop_operation_xyz
x,y,z
-x,-y,-z
loop_
_atom_site_type_symbol
_atom_site_label
_atom_site_fract_x
_atom_site_fract_y
_atom_site_fract_z
Si Si1 0.952081 0.185774 0.695686
Si Si2 0.700979 0.994495 0.174191
Si Si3 0.813409 0.715281 0.034415
Si Si4 0.222898 0.300196 0.785962
Si Si5 0.357336 0.381571 0.228663
Si Si6 0.468813 0.904975 0.964763
Si Si7 0.763144 0.340081 0.489516
Si Si8 0.967072 0.096714 0.566743
O O1 0.029301 0.140464 0.621350
O O2 0.141224 0.487423 0.535940
O O3 0.715608 0.108864 0.769898
O O4 0.906408 0.000947 0.861029
O O5 0.698951 0.097897 0.044391
O O6 0.642549 0.725252 0.294859
O O7 0.509234 0.914265 0.316447
O O8 0.955175 0.229874 0.041995
O O9 0.667473 0.591608 0.205861
O O10 0.615879 0.498411 0.121343
O O11 0.188392 0.483303 0.675516
O O12 0.000000 0.000000 0.000000
O O13 0.186905 0.188490 0.427808
O O14 0.250332 0.214749 0.253093
O O15 0.367645 0.615379 0.119157
O O16 0.500000 0.000000 0.000000
O O17 0.898705 0.253779 0.481476
#
# Coordination Sequence:
#
# PCOD8009769 Si02
#       8
#     2   2   2   2   2   2   2   2
#     4  11  22  40  64 100 130 164 220 274 324 379
#     4  11  22  38  60 100 133 167 210 264 338 377
#     4  10  23  40  65  93 129 177 211 262 331 392
#     4  10  21  37  60  93 138 166 206 259 330 386
#     4  10  25  46  67  91 130 178 224 269 324 399
#     4  11  23  38  68 100 129 173 218 269 327 387
#     4  12  23  38  65 104 133 163 215 281 320 391
#     4  11  25  43  68  95 129 175 224 272 333 377
#
# _framework density 22.270166
#
# number of rings (size 3 to 8) (size 9 to 14) (size 15 to 20)
#    0.000    1.250    3.750    3.000    8.750    2.000 
#    0.000    1.250    0.000    0.000    0.000    0.000 
#    0.000    0.000    0.000    0.000    0.000    0.000 
#
# Total GULP energy -198272.669713 kJ/mol
# GULP energy per Si atom -12392.041857 kJ/mol
# Density = 2.221948 g / cm^3
# Si number density = 22.270166 Si / 1000 Ang^3
#
#
#
# Elastic Constant Matrix: (Units=GPa)
#
#
# Indices 1 2 3 4 5 6 
#
# 1 113.6344 15.9467 38.4801 -11.1758 -2.1824 11.6237
# 2 15.9467 82.4687 24.6661 -18.5793 6.2356 6.4094
# 3 38.4801 24.6661 83.2859 -8.3521 -6.6417 10.5169
# 4 -11.1758 -18.5793 -8.3521 37.0333 0.6164 -8.1430
# 5 -2.1824 6.2356 -6.6417 0.6164 49.3139 0.4285
# 6 11.6237 6.4094 10.5169 -8.1430 0.4285 17.3410
#
#
#
# Elastic Compliance Matrix: (Units=1/GPa)
#
#
# Indices 1 2 3 4 5 6 
#
# 1 0.010822 -0.000191 -0.004317 0.001331 -0.000061 -0.003938
# 2 -0.000191 0.015013 -0.003908 0.006666 -0.002518 0.000142
# 3 -0.004317 -0.003908 0.016005 -0.000993 0.002522 -0.005897
# 4 0.001331 0.006666 -0.000993 0.033400 -0.001448 0.012965
# 5 -0.000061 -0.002518 0.002522 -0.001448 0.020967 -0.001756
# 6 -0.003938 0.000142 -0.005897 0.012965 -0.001756 0.069962
#
#
# Mechanical properties :
#
#
# Convention : Reuss Voigt Hill
#
# Bulk Modulus (GPa) = 39.98891 48.61942 44.30417
# Shear Modulus (GPa) = 26.13192 34.09070 30.11131
#
# Velocity S-wave (km/s) = 3.42922 3.91676 3.68107
# Velocity P-wave (km/s) = 5.80298 6.50644 6.16475
#
# Compressibility (1/GPa) = 0.02500693
#
# Stress axis : x y z
#
# Youngs Moduli (GPa) = 92.40851 66.61001 62.47925
#
# Poissons Ratio (x) = 0.01269 0.26975
# Poissons Ratio (y) = 0.01761 0.24419
# Poissons Ratio (z) = 0.39897 0.26034
#
# Static dielectric constant tensor:
#      x y z
#    x 4.187390 0.146140 -0.090650 
#    y 0.146140 4.211630 0.192940 
#    z -0.090650 0.192940 3.985180 
# 
# 
# High freq. dielectric constant tensor:
#      x y z
#    x 1.880360 0.013410 -0.003670 
#    y 0.013410 1.846340 0.010410 
#    z -0.003670 0.010410 1.879460 
# 
# From -- ./inp_files/529354.got.cif
#   From: 2010.06.25/outbox.cif.g09.slc.cpg/sg2_265_cif.got.tgz:529354.got - 2010.06.27 13:26:56.
