data_PCOD8009605
_publ_section_title
;
Structure prediction by ZEFSAII (Michael W. Deem and Ramdas Pophale) SiO2 
 PCOD8009605
Probable space group: P -1
;
_chemical_formula_sum "Si O2"
_cell_formula_units_Z 16
_cell_length_a 19.071425
_cell_length_b 9.105175
_cell_length_c 6.088235
_cell_angle_alpha 44.056750
_cell_angle_beta 95.367504
_cell_angle_gamma 103.690710
_cell_volume 709.668433
_symmetry_space_group_name_H-M "P -1"
_symmetry_group_IT_number 2
_symmetry_cell_setting 'triclinic'
loop_
_space_group_symop_operation_xyz
x,y,z
-x,-y,-z
loop_
_atom_site_type_symbol
_atom_site_label
_atom_site_fract_x
_atom_site_fract_y
_atom_site_fract_z
Si Si1 0.589896 0.744460 0.835166
Si Si2 0.791736 0.863927 0.153098
Si Si3 0.831064 0.223549 0.135997
Si Si4 0.954209 0.362270 0.323367
Si Si5 0.667153 0.469859 0.468591
Si Si6 0.716389 0.135631 0.536336
Si Si7 0.907902 0.615812 0.421471
Si Si8 0.453538 0.564661 0.227102
O O1 0.583080 0.654122 0.683528
O O2 0.638608 0.989816 0.590954
O O3 0.624573 0.583718 0.162067
O O4 0.508275 0.742982 0.900334
O O5 0.730213 0.646019 0.419672
O O6 0.866702 0.805418 0.169530
O O7 0.806030 0.004818 0.225410
O O8 0.766487 0.989875 0.809339
O O9 0.890922 0.184460 0.373661
O O10 0.760126 0.259614 0.206645
O O11 0.863206 0.433828 0.770913
O O12 0.914112 0.506823 0.306294
O O13 0.010752 0.269613 0.587888
O O14 0.000000 0.500000 0.000000
O O15 0.703811 0.301219 0.539097
O O16 0.611425 0.347373 0.774002
O O17 0.500000 0.500000 0.500000
#
# Coordination Sequence:
#
# PCOD8009605 Si02
#       8
#     2   2   2   2   2   2   2   2
#     4   9  20  38  60  87 118 155 198 242 295 355
#     4  11  23  38  60  88 120 157 201 248 294 352
#     4  11  22  38  60  88 121 157 200 247 298 358
#     4   9  20  40  64  88 118 155 197 246 300 356
#     4  10  21  37  58  85 120 158 197 246 297 347
#     4  11  24  39  59  90 122 158 203 244 294 356
#     4  10  22  42  63  87 120 157 198 247 299 354
#     4   9  18  38  62  85 118 155 194 245 297 347
#
# _framework density 22.545739999999999
#
# number of rings (size 3 to 8) (size 9 to 14) (size 15 to 20)
#    0.000    2.000    0.000    3.000    0.000    7.000 
#    0.000   14.375    0.000    0.000    0.000    0.000 
#    0.000    0.000    0.000    0.000    0.000    0.000 
#
# Total GULP energy -198333.992289 kJ/mol
# GULP energy per Si atom -12395.874518 kJ/mol
# Density = 2.249443 g / cm^3
# Si number density = 22.545740 Si / 1000 Ang^3
#
#
#
# Elastic Constant Matrix: (Units=GPa)
#
#
# Indices 1 2 3 4 5 6 
#
# 1 111.2905 57.2891 28.4388 5.4417 -24.2858 -13.7653
# 2 57.2891 148.3396 30.1030 16.3726 -16.6191 13.2466
# 3 28.4388 30.1030 44.8925 6.7997 -23.8616 -9.1613
# 4 5.4417 16.3726 6.7997 31.2166 -3.7397 -3.8613
# 5 -24.2858 -16.6191 -23.8616 -3.7397 41.2171 8.6382
# 6 -13.7653 13.2466 -9.1613 -3.8613 8.6382 54.9803
#
#
#
# Elastic Compliance Matrix: (Units=1/GPa)
#
#
# Indices 1 2 3 4 5 6 
#
# 1 0.013251 -0.004609 -0.002867 0.001606 0.003706 0.003481
# 2 -0.004609 0.010257 -0.004612 -0.004219 -0.000672 -0.004584
# 3 -0.002867 -0.004612 0.037452 -0.002726 0.017098 0.003756
# 4 0.001606 -0.004219 -0.002726 0.034997 0.000129 0.003402
# 5 0.003706 -0.000672 0.017098 0.000129 0.036458 -0.001780
# 6 0.003481 -0.004584 0.003756 0.003402 -0.001780 0.021309
#
#
# Mechanical properties :
#
#
# Convention : Reuss Voigt Hill
#
# Bulk Modulus (GPa) = 27.18533 59.57603 43.38068
# Shear Modulus (GPa) = 26.29345 38.06224 32.17785
#
# Velocity S-wave (km/s) = 3.41871 4.11326 3.78196
# Velocity P-wave (km/s) = 5.25999 7.00288 6.19306
#
# Compressibility (1/GPa) = 0.03678455
#
# Stress axis : x y z
#
# Youngs Moduli (GPa) = 75.46400 97.49542 26.70087
#
# Poissons Ratio (x) = 0.44934 0.07656
# Poissons Ratio (y) = 0.34780 0.12314
# Poissons Ratio (z) = 0.21637 0.44963
#
# Static dielectric constant tensor:
#      x y z
#    x 4.837760 0.329100 -0.269580 
#    y 0.329100 4.145830 0.302580 
#    z -0.269580 0.302580 3.803040 
# 
# 
# High freq. dielectric constant tensor:
#      x y z
#    x 1.914400 0.016160 -0.016940 
#    y 0.016160 1.890190 0.027830 
#    z -0.016940 0.027830 1.862380 
# 
# From -- ./inp_files/10752.got.cif
#   From: 2010.06.25/outbox.cif.g09.slc.cpg/sg2_6_cif.got.tgz:10752.got - 2010.06.27 13:26:56.
