data_PCOD8009077
_publ_section_title
;
Structure prediction by ZEFSAII (Michael W. Deem and Ramdas Pophale) SiO2 
 PCOD8009077
Probable space group: P -1
;
_chemical_formula_sum "Si O2"
_cell_formula_units_Z 16
_cell_length_a 11.518129
_cell_length_b 14.635977
_cell_length_c 14.854208
_cell_angle_alpha 42.630553
_cell_angle_beta 30.157092
_cell_angle_gamma 41.029381
_cell_volume 798.918539
_symmetry_space_group_name_H-M "P -1"
_symmetry_group_IT_number 2
_symmetry_cell_setting 'triclinic'
loop_
_space_group_symop_operation_xyz
x,y,z
-x,-y,-z
loop_
_atom_site_type_symbol
_atom_site_label
_atom_site_fract_x
_atom_site_fract_y
_atom_site_fract_z
Si Si1 0.274475 0.494394 0.453190
Si Si2 0.116947 0.641339 0.140217
Si Si3 0.505437 0.577258 0.075798
Si Si4 0.080353 0.082747 0.242304
Si Si5 0.612786 0.275016 0.513751
Si Si6 0.382617 0.156873 0.142816
Si Si7 0.781261 0.866295 0.081713
Si Si8 0.084917 0.773437 0.484761
O O1 0.389618 0.485988 0.283106
O O2 0.494406 0.418703 0.430659
O O3 0.136792 0.661448 0.449601
O O4 0.084218 0.409672 0.637436
O O5 0.315530 0.655458 0.067556
O O6 0.989697 0.797238 0.067139
O O7 0.242332 0.527673 0.060112
O O8 0.566284 0.694874 0.010525
O O9 0.272123 0.120068 0.151403
O O10 0.803077 0.148902 0.417758
O O11 0.160487 0.909947 0.307951
O O12 0.090298 0.148173 0.090825
O O13 0.404349 0.221372 0.732598
O O14 0.760698 0.310308 0.471821
O O15 0.203288 0.170995 0.337698
O O16 0.639421 0.031309 0.083537
#
# Coordination Sequence:
#
# PCOD8009077 Si02
#       8
#     2   2   2   2   2   2   2   2
#     4  11  22  38  62  86 112 153 195 230 289 342
#     4  10  24  43  60  84 114 147 198 246 282 331
#     4  11  23  42  63  81 113 154 193 243 286 332
#     4  11  21  37  59  87 121 153 187 224 288 352
#     4  10  21  36  54  87 124 148 183 236 276 340
#     4  11  21  38  59  87 119 153 190 231 283 344
#     4  11  21  37  62  86 115 153 189 235 286 336
#     4  11  20  38  57  87 123 155 182 229 288 344
#
# _framework density 20.027073000000001
#
# number of rings (size 3 to 8) (size 9 to 14) (size 15 to 20)
#    0.000    1.250    3.750    3.375    1.750    0.500 
#    0.000    1.875    0.000    1.500    0.000    0.000 
#    0.000    0.000    0.000    0.000    0.000    0.000 
#
# Total GULP energy -198482.550973 kJ/mol
# GULP energy per Si atom -12405.159436 kJ/mol
# Density = 1.998149 g / cm^3
# Si number density = 20.027073 Si / 1000 Ang^3
#
#
#
# Elastic Constant Matrix: (Units=GPa)
#
#
# Indices 1 2 3 4 5 6 
#
# 1 45.3349 18.6538 28.4065 -2.9076 5.4948 -10.9514
# 2 18.6538 67.8563 13.3653 -7.0692 -0.1489 -12.1168
# 3 28.4065 13.3653 88.2222 -3.2055 15.3564 -12.9944
# 4 -2.9076 -7.0692 -3.2055 24.1323 -2.3778 -6.5126
# 5 5.4948 -0.1489 15.3564 -2.3778 27.7573 -2.2790
# 6 -10.9514 -12.1168 -12.9944 -6.5126 -2.2790 28.6507
#
#
#
# Elastic Compliance Matrix: (Units=1/GPa)
#
#
# Indices 1 2 3 4 5 6 
#
# 1 0.031213 -0.005569 -0.007971 0.002722 -0.001032 0.006497
# 2 -0.005569 0.018320 -0.000073 0.006910 0.002436 0.007351
# 3 -0.007971 -0.000073 0.015693 0.001485 -0.006661 0.003847
# 4 0.002722 0.006910 0.001485 0.048728 0.004168 0.016044
# 5 -0.001032 0.002436 -0.006661 0.004168 0.040432 0.001778
# 6 0.006497 0.007351 0.003847 0.016044 0.001778 0.046029
#
#
# Mechanical properties :
#
#
# Convention : Reuss Voigt Hill
#
# Bulk Modulus (GPa) = 26.31532 35.80718 31.06125
# Shear Modulus (GPa) = 20.80670 25.50727 23.15699
#
# Velocity S-wave (km/s) = 3.22674 3.57268 3.40411
# Velocity P-wave (km/s) = 5.20104 5.91075 5.56722
#
# Compressibility (1/GPa) = 0.03800068
#
# Stress axis : x y z
#
# Youngs Moduli (GPa) = 32.03760 54.58506 63.72393
#
# Poissons Ratio (x) = 0.30399 0.50795
# Poissons Ratio (y) = 0.17842 0.00462
# Poissons Ratio (z) = 0.25537 0.00396
#
# Static dielectric constant tensor:
#      x y z
#    x 3.379260 -0.209540 0.059020 
#    y -0.209540 3.719320 0.137680 
#    z 0.059020 0.137680 3.658950 
# 
# 
# High freq. dielectric constant tensor:
#      x y z
#    x 1.757860 -0.009880 0.004930 
#    y -0.009880 1.785840 0.010130 
#    z 0.004930 0.010130 1.792090 
# 
# From -- ./inp_files/187223.got.cif
#   From: 2010.06.25/outbox.cif.g09.slc.cpg/sg2_94_cif.got.tgz:187223.got - 2010.06.27 13:26:56.
