data_PCOD8009632
_publ_section_title
;
Structure prediction by ZEFSAII (Michael W. Deem and Ramdas Pophale) SiO2 
 PCOD8009632
Probable space group: P -1
;
_chemical_formula_sum "Si O2"
_cell_formula_units_Z 16
_cell_length_a 26.544429
_cell_length_b 6.473418
_cell_length_c 12.522369
_cell_angle_alpha 117.866164
_cell_angle_beta 27.090691
_cell_angle_gamma 126.929695
_cell_volume 769.728674
_symmetry_space_group_name_H-M "P -1"
_symmetry_group_IT_number 2
_symmetry_cell_setting 'triclinic'
loop_
_space_group_symop_operation_xyz
x,y,z
-x,-y,-z
loop_
_atom_site_type_symbol
_atom_site_label
_atom_site_fract_x
_atom_site_fract_y
_atom_site_fract_z
Si Si1 0.903641 0.589370 0.153264
Si Si2 0.252297 0.950261 0.620811
Si Si3 0.834450 0.841755 0.965180
Si Si4 0.713879 0.911726 0.004315
Si Si5 0.911419 0.119850 0.291713
Si Si6 0.930266 0.217416 0.510594
Si Si7 0.382420 0.686758 0.729738
Si Si8 0.505052 0.603260 0.677110
O O1 0.769074 0.333265 0.359216
O O2 0.901653 0.837409 0.274923
O O3 0.000000 0.500000 0.000000
O O4 0.949443 0.683653 0.967810
O O5 0.191586 0.916725 0.610737
O O6 0.399414 0.147023 0.373259
O O7 0.187958 0.061318 0.854390
O O8 0.791012 0.968854 0.982287
O O9 0.978962 0.919654 0.696429
O O10 0.756654 0.526214 0.025527
O O11 0.805203 0.025597 0.760455
O O12 0.626278 0.599102 0.070099
O O13 0.622473 0.045192 0.224168
O O14 0.891919 0.246335 0.468078
O O15 0.000000 0.500000 0.500000
O O16 0.481248 0.735035 0.648889
O O17 0.424435 0.570608 0.522986
#
# Coordination Sequence:
#
# PCOD8009632 Si02
#       8
#     2   2   2   2   2   2   2   2
#     4   9  18  36  59  84 114 150 192 251 294 333
#     4  10  21  38  65  89 117 154 194 255 299 341
#     4  10  21  37  58  93 120 151 205 242 297 352
#     4  11  22  37  59  87 125 163 193 241 296 354
#     4  10  22  39  56  87 121 150 202 241 290 358
#     4  12  24  40  59  87 125 165 194 237 296 364
#     4   9  18  37  56  88 121 153 196 252 293 346
#     4   9  20  36  59  89 121 149 205 246 293 349
#
# _framework density 20.786545
#
# number of rings (size 3 to 8) (size 9 to 14) (size 15 to 20)
#    0.000    2.000    1.250    3.750    1.750    3.000 
#    4.500    0.625    0.000    1.500    0.000    0.000 
#    0.000    0.000    0.000    0.000    0.000    0.000 
#
# Total GULP energy -198269.531111 kJ/mol
# GULP energy per Si atom -12391.845694 kJ/mol
# Density = 2.073923 g / cm^3
# Si number density = 20.786545 Si / 1000 Ang^3
#
#
#
# Elastic Constant Matrix: (Units=GPa)
#
#
# Indices 1 2 3 4 5 6 
#
# 1 127.8918 50.1594 40.7526 -9.7427 8.5476 15.8592
# 2 50.1594 118.0914 29.0678 -27.6649 0.9808 0.3639
# 3 40.7526 29.0678 76.9855 -22.6700 0.3022 9.4636
# 4 -9.7427 -27.6649 -22.6700 35.5516 -1.3439 -6.2292
# 5 8.5476 0.9808 0.3022 -1.3439 27.8285 3.1518
# 6 15.8592 0.3639 9.4636 -6.2292 3.1518 30.3896
#
#
#
# Elastic Compliance Matrix: (Units=1/GPa)
#
#
# Indices 1 2 3 4 5 6 
#
# 1 0.011869 -0.004856 -0.005240 -0.004893 -0.003066 -0.005189
# 2 -0.004856 0.012692 0.000005 0.009320 0.001020 0.004186
# 3 -0.005240 0.000005 0.019013 0.010552 0.002053 -0.001236
# 4 -0.004893 0.009320 0.010552 0.042180 0.002239 0.007569
# 5 -0.003066 0.001020 0.002053 0.002239 0.037204 -0.002451
# 6 -0.005189 0.004186 -0.001236 0.007569 -0.002451 0.037754
#
#
# Mechanical properties :
#
#
# Convention : Reuss Voigt Hill
#
# Bulk Modulus (GPa) = 42.75365 62.54759 52.65062
# Shear Modulus (GPa) = 26.49816 32.28654 29.39235
#
# Velocity S-wave (km/s) = 3.57427 3.94540 3.76441
# Velocity P-wave (km/s) = 6.13567 7.13517 6.65421
#
# Compressibility (1/GPa) = 0.02338982
#
# Stress axis : x y z
#
# Youngs Moduli (GPa) = 84.25110 78.79185 52.59576
#
# Poissons Ratio (x) = 0.38265 0.27562
# Poissons Ratio (y) = 0.40916 -0.00025
# Poissons Ratio (z) = 0.44150 -0.00037
#
# Static dielectric constant tensor:
#      x y z
#    x 3.628960 -0.034440 -0.134260 
#    y -0.034440 4.147070 -0.422760 
#    z -0.134260 -0.422760 3.725650 
# 
# 
# High freq. dielectric constant tensor:
#      x y z
#    x 1.803220 -0.009580 -0.012270 
#    y -0.009580 1.816950 -0.024250 
#    z -0.012270 -0.024250 1.789350 
# 
# From -- ./inp_files/473454.got.cif
#   From: 2010.06.25/outbox.cif.g09.slc.cpg/sg2_237_cif.got.tgz:473454.got - 2010.06.27 13:26:56.
