data_PCOD8009051
_publ_section_title
;
Structure prediction by ZEFSAII (Michael W. Deem and Ramdas Pophale) SiO2 
 PCOD8009051
Probable space group: P -1
;
_chemical_formula_sum "Si O2"
_cell_formula_units_Z 16
_cell_length_a 25.427272
_cell_length_b 8.604312
_cell_length_c 9.504180
_cell_angle_alpha 31.769479
_cell_angle_beta 51.640865
_cell_angle_gamma 48.018842
_cell_volume 806.636953
_symmetry_space_group_name_H-M "P -1"
_symmetry_group_IT_number 2
_symmetry_cell_setting 'triclinic'
loop_
_space_group_symop_operation_xyz
x,y,z
-x,-y,-z
loop_
_atom_site_type_symbol
_atom_site_label
_atom_site_fract_x
_atom_site_fract_y
_atom_site_fract_z
Si Si1 0.586226 0.173924 0.228546
Si Si2 0.679831 0.409289 0.098385
Si Si3 0.334038 0.895341 0.364439
Si Si4 0.172476 0.096039 0.440664
Si Si5 0.841026 0.223915 0.012451
Si Si6 0.032125 0.059142 0.182673
Si Si7 0.427913 0.456734 0.317187
Si Si8 0.945708 0.713378 0.726884
O O1 0.510952 0.277812 0.357669
O O2 0.611210 0.801540 0.437955
O O3 0.644893 0.257434 0.156086
O O4 0.577188 0.361386 0.957134
O O5 0.764484 0.234998 0.073017
O O6 0.656481 0.786605 0.836893
O O7 0.654856 0.343256 0.342812
O O8 0.393574 0.716862 0.291334
O O9 0.256666 0.965949 0.367037
O O10 0.150644 0.440597 0.277175
O O11 0.131895 0.122165 0.339868
O O12 0.150487 0.883617 0.755638
O O13 0.902279 0.998832 0.986824
O O14 0.057849 0.132003 0.234888
O O15 0.003325 0.772481 0.478152
O O16 0.967350 0.341911 0.002631
#
# Coordination Sequence:
#
# PCOD8009051 Si02
#       8
#     2   2   2   2   2   2   2   2
#     4  10  21  37  57  83 113 144 182 225 268 320
#     4  10  21  37  56  81 112 144 182 225 269 322
#     4  10  21  37  56  81 112 144 182 225 269 322
#     4  10  21  36  54  78 106 137 177 221 264 316
#     4  10  21  36  54  78 106 137 177 221 264 316
#     4  10  21  36  53  76 105 136 174 218 264 317
#     4  10  21  37  57  83 113 144 182 225 268 320
#     4  10  21  36  53  76 105 136 174 218 264 317
#
# _framework density 19.835442
#
# number of rings (size 3 to 8) (size 9 to 14) (size 15 to 20)
#    0.000    2.000    0.000    3.000    0.000    5.000 
#    0.000    3.750    0.000    0.000    0.000    0.000 
#    0.000    0.000    0.000    0.000    0.000    0.000 
#
# Total GULP energy -198377.526425 kJ/mol
# GULP energy per Si atom -12398.595402 kJ/mol
# Density = 1.979030 g / cm^3
# Si number density = 19.835442 Si / 1000 Ang^3
#
#
#
# Elastic Constant Matrix: (Units=GPa)
#
#
# Indices 1 2 3 4 5 6 
#
# 1 95.5200 -13.7243 5.7848 -14.8719 7.6797 -4.0341
# 2 -13.7243 32.5903 -0.7364 -2.3538 -1.2664 2.0502
# 3 5.7848 -0.7364 80.3032 -9.5491 -3.7808 0.6701
# 4 -14.8719 -2.3538 -9.5491 29.0146 -2.0819 0.1426
# 5 7.6797 -1.2664 -3.7808 -2.0819 25.6400 -6.5831
# 6 -4.0341 2.0502 0.6701 0.1426 -6.5831 13.4324
#
#
#
# Elastic Compliance Matrix: (Units=1/GPa)
#
#
# Indices 1 2 3 4 5 6 
#
# 1 0.012592 0.005577 -0.000200 0.006649 -0.002573 0.001609
# 2 0.005577 0.033684 0.000606 0.005780 -0.000414 -0.003761
# 3 -0.000200 0.000606 0.013114 0.004439 0.002476 0.000360
# 4 0.006649 0.005780 0.004439 0.039984 0.002649 0.001767
# 5 -0.002573 -0.000414 0.002476 0.002649 0.045885 0.021626
# 6 0.001609 -0.003761 0.000360 0.001767 0.021626 0.086066
#
#
# Mechanical properties :
#
#
# Convention : Reuss Voigt Hill
#
# Bulk Modulus (GPa) = 14.01377 21.22908 17.62143
# Shear Modulus (GPa) = 20.56385 28.09000 24.32693
#
# Velocity S-wave (km/s) = 3.22331 3.76726 3.50585
# Velocity P-wave (km/s) = 4.57530 5.44508 5.02902
#
# Compressibility (1/GPa) = 0.07135839
#
# Stress axis : x y z
#
# Youngs Moduli (GPa) = 79.41287 29.68737 76.25340
#
# Poissons Ratio (x) = -0.16558 0.01525
# Poissons Ratio (y) = -0.44291 -0.04623
# Poissons Ratio (z) = 0.01588 -0.01800
#
# Static dielectric constant tensor:
#      x y z
#    x 3.596120 -0.235110 -0.040060 
#    y -0.235110 3.401350 -0.094300 
#    z -0.040060 -0.094300 3.885550 
# 
# 
# High freq. dielectric constant tensor:
#      x y z
#    x 1.769800 -0.005000 0.001640 
#    y -0.005000 1.757220 -0.006460 
#    z 0.001640 -0.006460 1.796720 
# 
# From -- ./inp_files/53200.got.cif
#   From: 2010.06.25/outbox.cif.g09.slc.cpg/sg2_27_cif.got.tgz:53200.got - 2010.06.27 13:26:56.
