data_PCOD8009927
_publ_section_title
;
Structure prediction by ZEFSAII (Michael W. Deem and Ramdas Pophale) SiO2 
 PCOD8009927
Probable space group: P -1
;
_chemical_formula_sum "Si O2"
_cell_formula_units_Z 16
_cell_length_a 11.595605
_cell_length_b 9.082304
_cell_length_c 9.763886
_cell_angle_alpha 75.847753
_cell_angle_beta 104.206962
_cell_angle_gamma 125.266516
_cell_volume 806.995640
_symmetry_space_group_name_H-M "P -1"
_symmetry_group_IT_number 2
_symmetry_cell_setting 'triclinic'
loop_
_space_group_symop_operation_xyz
x,y,z
-x,-y,-z
loop_
_atom_site_type_symbol
_atom_site_label
_atom_site_fract_x
_atom_site_fract_y
_atom_site_fract_z
Si Si1 0.548817 0.298817 0.451184
Si Si2 0.782084 0.354879 0.013697
Si Si3 0.299256 0.293375 0.676171
Si Si4 0.013700 0.086496 0.782084
Si Si5 0.676174 0.170295 0.299255
Si Si6 0.770452 0.953935 0.525681
Si Si7 0.525680 0.209160 0.770451
Si Si8 0.980678 0.230678 0.019323
O O1 0.594156 0.493783 0.365821
O O2 0.634184 0.234565 0.405838
O O3 0.379714 0.155362 0.411256
O O4 0.588746 0.313092 0.620287
O O5 0.756427 0.330270 0.174990
O O6 0.842531 0.235909 0.007295
O O7 0.639433 0.287966 0.905004
O O8 0.882923 0.567702 0.965708
O O9 0.174992 0.248836 0.756423
O O10 0.223026 0.190109 0.535867
O O11 0.396404 0.225915 0.778995
O O12 0.965715 0.150494 0.882924
O O13 0.905003 0.053540 0.639435
O O14 0.007297 0.900676 0.842531
O O15 0.778998 0.108512 0.396405
O O16 0.535869 0.002955 0.223027
#
# Coordination Sequence:
#
# PCOD8009927 Si02
#       8
#     2   2   2   2   2   2   2   2
#     4  10  21  37  62  96 124 150 206 255 291 362
#     4  11  23  42  62  88 123 165 200 251 302 358
#     4  10  21  39  60  95 121 153 207 253 289 366
#     4  11  23  42  62  88 123 165 200 251 302 358
#     4  10  21  39  60  95 121 153 207 253 289 366
#     4  10  21  38  64  86 124 163 198 242 315 351
#     4  10  21  38  64  86 124 163 198 242 315 351
#     4  10  25  41  60  84 130 158 208 245 303 364
#
# _framework density 19.826626000000001
#
# number of rings (size 3 to 8) (size 9 to 14) (size 15 to 20)
#    0.000    2.000    0.000    6.000    7.000    0.000 
#    4.500    2.500    0.000    0.000    0.000    0.000 
#    0.000    0.000    0.000    0.000    0.000    0.000 
#
# Total GULP energy -198405.675644 kJ/mol
# GULP energy per Si atom -12400.354728 kJ/mol
# Density = 1.978150 g / cm^3
# Si number density = 19.826626 Si / 1000 Ang^3
#
#
#
# Elastic Constant Matrix: (Units=GPa)
#
#
# Indices 1 2 3 4 5 6 
#
# 1 90.9154 25.7128 53.8055 -0.9310 3.5745 6.8859
# 2 25.7128 57.7792 26.2387 -5.2555 7.8520 -7.1031
# 3 53.8055 26.2387 88.8081 -5.4902 14.4028 16.1745
# 4 -0.9310 -5.2555 -5.4902 27.9584 11.9282 -2.4308
# 5 3.5745 7.8520 14.4028 11.9282 34.5493 2.8148
# 6 6.8859 -7.1031 16.1745 -2.4308 2.8148 25.9341
#
#
#
# Elastic Compliance Matrix: (Units=1/GPa)
#
#
# Indices 1 2 3 4 5 6 
#
# 1 0.018541 -0.004424 -0.011028 -0.004673 0.005320 -0.000272
# 2 -0.004424 0.024901 -0.005507 0.007332 -0.006482 0.012820
# 3 -0.011028 -0.005507 0.023426 0.005764 -0.008407 -0.011738
# 4 -0.004673 0.007332 0.005764 0.047403 -0.020467 0.006318
# 5 0.005320 -0.006482 -0.008407 -0.020467 0.040787 -0.004290
# 6 -0.000272 0.012820 -0.011738 0.006318 -0.004290 0.050521
#
#
# Mechanical properties :
#
#
# Convention : Reuss Voigt Hill
#
# Bulk Modulus (GPa) = 40.08166 49.89073 44.98620
# Shear Modulus (GPa) = 19.54536 26.47140 23.00838
#
# Velocity S-wave (km/s) = 3.14317 3.65793 3.41028
# Velocity P-wave (km/s) = 5.78210 6.56191 6.18431
#
# Compressibility (1/GPa) = 0.02494906
#
# Stress axis : x y z
#
# Youngs Moduli (GPa) = 53.93503 40.15939 42.68677
#
# Poissons Ratio (x) = 0.17768 0.47076
# Poissons Ratio (y) = 0.23863 0.23507
# Poissons Ratio (z) = 0.59480 0.22115
#
# Static dielectric constant tensor:
#      x y z
#    x 3.624480 -0.121000 -0.159650 
#    y -0.121000 3.736210 -0.099280 
#    z -0.159650 -0.099280 3.514820 
# 
# 
# High freq. dielectric constant tensor:
#      x y z
#    x 1.774260 -0.006960 -0.009960 
#    y -0.006960 1.778670 -0.007460 
#    z -0.009960 -0.007460 1.767050 
# 
# From -- ./inp_files/238548.got.cif
#   From: 2010.06.25/outbox.cif.g09.slc.cpg/sg2_120_cif.got.tgz:238548.got - 2010.06.27 13:26:56.
