data_PCOD8009715
_publ_section_title
;
Structure prediction by ZEFSAII (Michael W. Deem and Ramdas Pophale) SiO2 
 PCOD8009715
Probable space group: P -1
;
_chemical_formula_sum "Si O2"
_cell_formula_units_Z 16
_cell_length_a 19.871584
_cell_length_b 17.116329
_cell_length_c 5.958683
_cell_angle_alpha 98.106836
_cell_angle_beta 79.321972
_cell_angle_gamma 28.570881
_cell_volume 726.812258
_symmetry_space_group_name_H-M "P -1"
_symmetry_group_IT_number 2
_symmetry_cell_setting 'triclinic'
loop_
_space_group_symop_operation_xyz
x,y,z
-x,-y,-z
loop_
_atom_site_type_symbol
_atom_site_label
_atom_site_fract_x
_atom_site_fract_y
_atom_site_fract_z
Si Si1 0.429535 0.325559 0.205826
Si Si2 0.455546 0.425723 0.570237
Si Si3 0.379262 0.244608 0.525012
Si Si4 0.937411 0.508540 0.730241
Si Si5 0.718803 0.816415 0.359388
Si Si6 0.357944 0.671393 0.963344
Si Si7 0.132741 0.582627 0.177150
Si Si8 0.260811 0.920074 0.358295
O O1 0.360575 0.455149 0.507935
O O2 0.453342 0.212449 0.248999
O O3 0.271879 0.494416 0.178495
O O4 0.625190 0.146042 0.912407
O O5 0.300058 0.646445 0.889780
O O6 0.547941 0.382738 0.315834
O O7 0.614956 0.222574 0.554783
O O8 0.319285 0.220107 0.473656
O O9 0.541757 0.062820 0.539669
O O10 0.210645 0.471329 0.842523
O O11 0.891315 0.468597 0.665652
O O12 0.000000 0.500000 0.500000
O O13 0.111117 0.313409 0.714679
O O14 0.760798 0.735229 0.054619
O O15 0.500000 0.500000 0.000000
O O16 0.210159 0.889466 0.257614
O O17 0.935093 0.833668 0.353817
#
# Coordination Sequence:
#
# PCOD8009715 Si02
#       8
#     2   2   2   2   2   2   2   2
#     4  11  23  38  60  90 121 163 203 250 305 365
#     4   9  18  36  64  89 122 164 198 246 301 359
#     4  10  22  40  59  82 123 158 202 257 306 361
#     4  10  21  37  60  85 115 156 206 253 304 362
#     4   9  21  39  58  83 112 161 205 248 308 366
#     4   8  16  35  63  93 121 158 204 241 295 366
#     4  11  25  38  57  92 125 154 205 259 302 363
#     4  10  22  39  62  93 123 160 204 250 305 360
#
# _framework density 22.013939000000001
#
# number of rings (size 3 to 8) (size 9 to 14) (size 15 to 20)
#    0.000    2.250    0.000    1.500    5.250    2.000 
#    0.000    4.375    0.000   30.750    0.000    0.000 
#    0.000    0.000    0.000    0.000    0.000    0.000 
#
# Total GULP energy -198211.612649 kJ/mol
# GULP energy per Si atom -12388.225791 kJ/mol
# Density = 2.196383 g / cm^3
# Si number density = 22.013939 Si / 1000 Ang^3
#
#
#
# Elastic Constant Matrix: (Units=GPa)
#
#
# Indices 1 2 3 4 5 6 
#
# 1 71.2120 27.3745 17.0007 12.7773 11.5787 -4.1192
# 2 27.3745 77.9197 42.6312 9.2158 -3.8292 16.3518
# 3 17.0007 42.6312 70.9469 14.8336 1.7412 9.9549
# 4 12.7773 9.2158 14.8336 38.2031 4.9720 -4.0505
# 5 11.5787 -3.8292 1.7412 4.9720 33.0010 -7.0625
# 6 -4.1192 16.3518 9.9549 -4.0505 -7.0625 34.2824
#
#
#
# Elastic Compliance Matrix: (Units=1/GPa)
#
#
# Indices 1 2 3 4 5 6 
#
# 1 0.018666 -0.007479 0.000293 -0.003332 -0.006057 0.004083
# 2 -0.007479 0.023557 -0.011305 -0.000195 0.004272 -0.007995
# 3 0.000293 -0.011305 0.022451 -0.006045 -0.002171 -0.002253
# 4 -0.003332 -0.000195 -0.006045 0.030451 -0.002137 0.004606
# 5 -0.006057 0.004272 -0.002171 -0.002137 0.034363 0.004691
# 6 0.004083 -0.007995 -0.002253 0.004606 0.004691 0.035638
#
#
# Mechanical properties :
#
#
# Convention : Reuss Voigt Hill
#
# Bulk Modulus (GPa) = 36.11014 43.78791 39.94902
# Shear Modulus (GPa) = 23.65850 29.96879 26.81364
#
# Velocity S-wave (km/s) = 3.28183 3.69366 3.49382
# Velocity P-wave (km/s) = 5.54972 6.17454 5.87045
#
# Compressibility (1/GPa) = 0.02769305
#
# Stress axis : x y z
#
# Youngs Moduli (GPa) = 53.57269 42.44954 44.54070
#
# Poissons Ratio (x) = 0.31747 -0.01306
# Poissons Ratio (y) = 0.40066 0.50355
# Poissons Ratio (z) = -0.01571 0.47991
#
# Static dielectric constant tensor:
#      x y z
#    x 4.732350 0.170220 0.287380 
#    y 0.170220 3.764300 -0.022720 
#    z 0.287380 -0.022720 3.928330 
# 
# 
# High freq. dielectric constant tensor:
#      x y z
#    x 1.873860 0.018050 0.012570 
#    y 0.018050 1.851480 -0.014860 
#    z 0.012570 -0.014860 1.854980 
# 
# From -- ./inp_files/120066.got.cif
#   From: 2010.06.25/outbox.cif.g09.slc.cpg/sg2_61_cif.got.tgz:120066.got - 2010.06.27 13:26:56.
