data_PCOD8009302
_publ_section_title
;
Structure prediction by ZEFSAII (Michael W. Deem and Ramdas Pophale) SiO2 
 PCOD8009302
Probable space group: P -1
;
_chemical_formula_sum "Si O2"
_cell_formula_units_Z 14
_cell_length_a 27.150958
_cell_length_b 6.579758
_cell_length_c 24.817064
_cell_angle_alpha 116.173419
_cell_angle_beta 9.649716
_cell_angle_gamma 116.558032
_cell_volume 664.741750
_symmetry_space_group_name_H-M "P -1"
_symmetry_group_IT_number 2
_symmetry_cell_setting 'triclinic'
loop_
_space_group_symop_operation_xyz
x,y,z
-x,-y,-z
loop_
_atom_site_type_symbol
_atom_site_label
_atom_site_fract_x
_atom_site_fract_y
_atom_site_fract_z
Si Si1 0.153164 0.642060 0.268010
Si Si2 0.570965 0.398390 0.597598
Si Si3 0.731053 0.304883 0.729851
Si Si4 0.228776 0.185327 0.393843
Si Si5 0.980706 0.328664 0.786342
Si Si6 0.685550 0.108290 0.177073
Si Si7 0.861852 0.626240 0.212549
O O1 0.154231 0.742730 0.339312
O O2 0.001931 0.386426 0.407519
O O3 0.961057 0.784847 0.451723
O O4 0.489600 0.630130 0.884165
O O5 0.716825 0.525099 0.507174
O O6 0.802168 0.447859 0.305078
O O7 0.502603 0.131238 0.646893
O O8 0.259076 0.492168 0.936249
O O9 0.621138 0.056168 0.797045
O O10 0.500000 0.500000 0.000000
O O11 0.020541 0.206851 0.672258
O O12 0.872880 0.132683 0.922415
O O13 0.450820 0.294124 0.458272
O O14 0.916556 0.157939 0.982630
O O15 0.000000 0.500000 0.000000
#
# Coordination Sequence:
#
# PCOD8009302 Si02
#       7
#     2   2   2   2   2   2   2
#     4  11  25  42  63  91 120 158 195 251 316 377
#     4  10  21  41  61  84 124 164 202 249 303 349
#     4  11  25  43  65  92 124 157 200 251 318 385
#     4  12  25  40  65  89 121 159 204 257 312 365
#     4  10  23  40  58  87 116 157 210 250 293 363
#     4  10  21  39  61  84 124 167 193 253 303 342
#     4  10  21  36  60  96 125 156 207 247 293 362
#
# _framework density 21.060811000000001
#
# number of rings (size 3 to 8) (size 9 to 14) (size 15 to 20)
#    0.000    1.429    1.429    3.000    4.000    3.429 
#    0.000    0.000    0.000    0.000    0.000    0.000 
#    0.000    0.000    0.000    0.000    0.000    0.000 
#
# Total GULP energy -173529.418949 kJ/mol
# GULP energy per Si atom -12394.958496 kJ/mol
# Density = 2.101288 g / cm^3
# Si number density = 21.060811 Si / 1000 Ang^3
#
#
#
# Elastic Constant Matrix: (Units=GPa)
#
#
# Indices 1 2 3 4 5 6 
#
# 1 102.0357 48.2208 35.7601 2.1787 10.3424 -5.8714
# 2 48.2208 92.3914 30.3621 -15.0443 15.7510 3.3731
# 3 35.7601 30.3621 84.6985 -11.0908 7.1920 -8.7497
# 4 2.1787 -15.0443 -11.0908 33.2467 4.2625 -6.1404
# 5 10.3424 15.7510 7.1920 4.2625 41.4156 3.6415
# 6 -5.8714 3.3731 -8.7497 -6.1404 3.6415 12.5414
#
#
#
# Elastic Compliance Matrix: (Units=1/GPa)
#
#
# Indices 1 2 3 4 5 6 
#
# 1 0.015059 -0.007518 -0.003899 -0.004953 -0.000061 0.003945
# 2 -0.007518 0.017711 -0.002287 0.007468 -0.004805 -0.004827
# 3 -0.003899 -0.002287 0.017311 0.008384 -0.003430 0.015968
# 4 -0.004953 0.007468 0.008384 0.042451 -0.009636 0.025104
# 5 -0.000061 -0.004805 -0.003430 -0.009636 0.028826 -0.014217
# 6 0.003945 -0.004827 0.015968 0.025104 -0.014217 0.110441
#
#
# Mechanical properties :
#
#
# Convention : Reuss Voigt Hill
#
# Bulk Modulus (GPa) = 44.10669 56.42355 50.26512
# Shear Modulus (GPa) = 18.74313 28.42625 23.58469
#
# Velocity S-wave (km/s) = 2.98644 3.67784 3.35003
# Velocity P-wave (km/s) = 5.73409 6.69958 6.23555
#
# Compressibility (1/GPa) = 0.02267230
#
# Stress axis : x y z
#
# Youngs Moduli (GPa) = 66.40579 56.46307 57.76602
#
# Poissons Ratio (x) = 0.42452 0.22521
# Poissons Ratio (y) = 0.49927 0.13212
# Poissons Ratio (z) = 0.25889 0.12914
#
# Static dielectric constant tensor:
#      x y z
#    x 3.858460 -0.197380 -0.059860 
#    y -0.197380 3.640790 -0.331860 
#    z -0.059860 -0.331860 3.946630 
# 
# 
# High freq. dielectric constant tensor:
#      x y z
#    x 1.823720 -0.008470 -0.010250 
#    y -0.008470 1.810720 -0.018770 
#    z -0.010250 -0.018770 1.839170 
# 
# From -- ./inp_files/8930.got.cif
#   From: 2010.06.25/outbox.cif.g09.slc.cpg/sg2_5_cif.got.tgz:8930.got - 2010.06.27 13:26:56.
