data_PCOD8009384
_publ_section_title
;
Structure prediction by ZEFSAII (Michael W. Deem and Ramdas Pophale) SiO2 
 PCOD8009384
Probable space group: P -1
;
_chemical_formula_sum "Si O2"
_cell_formula_units_Z 16
_cell_length_a 24.201992
_cell_length_b 21.684984
_cell_length_c 9.092219
_cell_angle_alpha 30.780846
_cell_angle_beta 39.235052
_cell_angle_gamma 18.281332
_cell_volume 740.336871
_symmetry_space_group_name_H-M "P -1"
_symmetry_group_IT_number 2
_symmetry_cell_setting 'triclinic'
loop_
_space_group_symop_operation_xyz
x,y,z
-x,-y,-z
loop_
_atom_site_type_symbol
_atom_site_label
_atom_site_fract_x
_atom_site_fract_y
_atom_site_fract_z
Si Si1 0.996623 0.723008 0.217969
Si Si2 0.529037 0.088736 0.840392
Si Si3 0.795296 0.139831 0.591857
Si Si4 0.650434 0.047912 0.393207
Si Si5 0.935503 0.120514 0.098284
Si Si6 0.276364 0.605455 0.300243
Si Si7 0.596873 0.855437 0.443899
Si Si8 0.453880 0.553691 0.258445
O O1 0.193387 0.432034 0.372856
O O2 0.853714 0.794571 0.423613
O O3 0.002237 0.815874 0.147886
O O4 0.921699 0.871559 0.916114
O O5 0.340558 0.390275 0.630229
O O6 0.662588 0.007589 0.627142
O O7 0.500000 0.000000 0.000000
O O8 0.603095 0.967765 0.098177
O O9 0.905247 0.115921 0.338481
O O10 0.644186 0.281969 0.493110
O O11 0.705220 0.296824 0.606910
O O12 0.514004 0.117990 0.457360
O O13 0.561800 0.284853 0.061537
O O14 0.751312 0.334510 0.940375
O O15 0.082498 0.854779 0.266848
O O16 0.425400 0.517279 0.239157
O O17 0.500000 0.000000 0.500000
#
# Coordination Sequence:
#
# PCOD8009384 Si02
#       8
#     2   2   2   2   2   2   2   2
#     4  11  23  43  69  98 134 175 227 271 338 389
#     4  10  23  43  64  90 125 183 215 261 329 389
#     4  10  21  36  62  93 137 172 205 265 344 402
#     4  10  22  45  67  92 137 172 219 277 333 395
#     4  11  22  38  62 103 131 169 208 280 339 389
#     4  11  23  39  65  97 134 159 226 268 330 397
#     4  11  26  44  70  94 128 181 228 273 320 389
#     4  10  21  40  64 101 130 171 215 271 347 392
#
# _framework density 21.611782000000002
#
# number of rings (size 3 to 8) (size 9 to 14) (size 15 to 20)
#    0.000    1.500    2.500    3.375    1.750    6.000 
#    0.000    0.000    0.000    0.000    0.000    0.000 
#    0.000    0.000    0.000    0.000    0.000    0.000 
#
# Total GULP energy -198342.308130 kJ/mol
# GULP energy per Si atom -12396.394258 kJ/mol
# Density = 2.156259 g / cm^3
# Si number density = 21.611782 Si / 1000 Ang^3
#
#
#
# Elastic Constant Matrix: (Units=GPa)
#
#
# Indices 1 2 3 4 5 6 
#
# 1 96.9649 27.8125 55.8275 -6.7698 16.6722 0.5027
# 2 27.8125 133.8080 73.9816 -10.4290 10.1429 -0.9757
# 3 55.8275 73.9816 157.3036 -6.1931 25.7002 9.3146
# 4 -6.7698 -10.4290 -6.1931 49.6218 4.8523 3.1223
# 5 16.6722 10.1429 25.7002 4.8523 38.9811 -0.8028
# 6 0.5027 -0.9757 9.3146 3.1223 -0.8028 29.8486
#
#
#
# Elastic Compliance Matrix: (Units=1/GPa)
#
#
# Indices 1 2 3 4 5 6 
#
# 1 0.013390 -0.000110 -0.004180 0.001534 -0.003116 0.000831
# 2 -0.000110 0.010310 -0.004938 0.001378 0.000485 0.001749
# 3 -0.004180 -0.004938 0.011118 0.000443 -0.004389 -0.003725
# 4 0.001534 0.001378 0.000443 0.021252 -0.004003 -0.002450
# 5 -0.003116 0.000485 -0.004389 -0.004003 0.030307 0.002672
# 6 0.000831 0.001749 -0.003725 -0.002450 0.002672 0.035036
#
#
# Mechanical properties :
#
#
# Convention : Reuss Voigt Hill
#
# Bulk Modulus (GPa) = 61.11989 78.14665 69.63327
# Shear Modulus (GPa) = 34.40572 39.05396 36.72984
#
# Velocity S-wave (km/s) = 3.99430 4.25557 4.12701
# Velocity P-wave (km/s) = 7.04378 7.77074 7.41617
#
# Compressibility (1/GPa) = 0.01636129
#
# Stress axis : x y z
#
# Youngs Moduli (GPa) = 74.68353 96.99236 89.94168
#
# Poissons Ratio (x) = 0.01069 0.37595
# Poissons Ratio (y) = 0.00823 0.44416
# Poissons Ratio (z) = 0.31217 0.47898
#
# Static dielectric constant tensor:
#      x y z
#    x 3.903880 0.025950 0.409150 
#    y 0.025950 4.067960 0.172650 
#    z 0.409150 0.172650 4.310520 
# 
# 
# High freq. dielectric constant tensor:
#      x y z
#    x 1.841050 -0.001160 0.021690 
#    y -0.001160 1.855280 0.003340 
#    z 0.021690 0.003340 1.849250 
# 
# From -- ./inp_files/355249.got.cif
#   From: 2010.06.25/outbox.cif.g09.slc.cpg/sg2_178_cif.got.tgz:355249.got - 2010.06.27 13:26:56.
