data_PCOD8009824
_publ_section_title
;
Structure prediction by ZEFSAII (Michael W. Deem and Ramdas Pophale) SiO2 
 PCOD8009824
Probable space group: P -1
;
_chemical_formula_sum "Si O2"
_cell_formula_units_Z 12
_cell_length_a 18.849125
_cell_length_b 4.967453
_cell_length_c 6.970466
_cell_angle_alpha 110.998623
_cell_angle_beta 80.160101
_cell_angle_gamma 80.799956
_cell_volume 582.748221
_symmetry_space_group_name_H-M "P -1"
_symmetry_group_IT_number 2
_symmetry_cell_setting 'triclinic'
loop_
_space_group_symop_operation_xyz
x,y,z
-x,-y,-z
loop_
_atom_site_type_symbol
_atom_site_label
_atom_site_fract_x
_atom_site_fract_y
_atom_site_fract_z
Si Si1 0.500285 0.174748 0.851002
Si Si2 0.913944 0.519203 0.041507
Si Si3 0.729167 0.285256 0.351252
Si Si4 0.840189 0.001071 0.916612
Si Si5 0.197182 0.195972 0.523807
Si Si6 0.431900 0.348135 0.548730
O O1 0.433189 0.239525 0.743056
O O2 0.567788 0.952349 0.649704
O O3 0.500000 0.500000 0.000000
O O4 0.500000 0.000000 0.000000
O O5 0.878259 0.697319 0.292483
O O6 0.901807 0.189409 0.958499
O O7 0.000000 0.500000 0.000000
O O8 0.875182 0.681916 0.910868
O O9 0.768555 0.530967 0.480384
O O10 0.642177 0.405648 0.393582
O O11 0.740882 0.024458 0.434643
O O12 0.764554 0.167096 0.100083
O O13 0.821455 0.967944 0.696582
O O14 0.500000 0.500000 0.500000
#
# Coordination Sequence:
#
# PCOD8009824 Si02
#       6
#     2   2   2   2   2   2
#     4  11  24  42  61  89 123 155 200 259 323 383
#     4  10  21  37  61  92 123 155 199 248 292 354
#     4  10  24  39  61  85 121 157 205 250 302 364
#     4  10  21  40  59  87 122 159 200 241 300 360
#     4  10  22  40  60  88 121 163 200 244 300 364
#     4  11  25  42  66  92 124 161 214 270 321 373
#
# _framework density 20.592084
#
# number of rings (size 3 to 8) (size 9 to 14) (size 15 to 20)
#    0.000    1.667    1.667    1.500    4.667    4.000 
#    0.000    0.000    0.000    0.000    0.000    0.000 
#    0.000    0.000    0.000    0.000    0.000    0.000 
#
# Total GULP energy -148699.643494 kJ/mol
# GULP energy per Si atom -12391.636958 kJ/mol
# Density = 2.054522 g / cm^3
# Si number density = 20.592084 Si / 1000 Ang^3
#
#
#
# Elastic Constant Matrix: (Units=GPa)
#
#
# Indices 1 2 3 4 5 6 
#
# 1 108.9164 15.1938 38.3252 9.5772 -13.2708 -16.4304
# 2 15.1938 100.1466 38.2224 8.3582 -2.5633 -2.8563
# 3 38.3252 38.2224 145.9023 13.2374 24.4163 0.7056
# 4 9.5772 8.3582 13.2374 32.5910 0.2999 -2.8221
# 5 -13.2708 -2.5633 24.4163 0.2999 22.7637 0.1964
# 6 -16.4304 -2.8563 0.7056 -2.8221 0.1964 22.4364
#
#
#
# Elastic Compliance Matrix: (Units=1/GPa)
#
#
# Indices 1 2 3 4 5 6 
#
# 1 0.015323 0.001213 -0.007069 -0.001116 0.016569 0.011313
# 2 0.001213 0.011859 -0.004443 -0.001457 0.006808 0.002295
# 3 -0.007069 -0.004443 0.013279 -0.002551 -0.018776 -0.006317
# 4 -0.001116 -0.001457 -0.002551 0.032682 0.001464 0.003176
# 5 0.016569 0.006808 -0.018776 0.001464 0.074363 0.013124
# 6 0.011313 0.002295 -0.006317 0.003176 0.013124 0.053630
#
#
# Mechanical properties :
#
#
# Convention : Reuss Voigt Hill
#
# Bulk Modulus (GPa) = 50.34820 59.82755 55.08787
# Shear Modulus (GPa) = 21.89571 33.10647 27.50109
#
# Velocity S-wave (km/s) = 3.26438 4.01400 3.65844
# Velocity P-wave (km/s) = 6.22186 7.11334 6.68248
#
# Compressibility (1/GPa) = 0.01986168
#
# Stress axis : x y z
#
# Youngs Moduli (GPa) = 65.26114 84.32754 75.30690
#
# Poissons Ratio (x) = -0.10230 0.53235
# Poissons Ratio (y) = -0.07917 0.33462
# Poissons Ratio (z) = 0.46134 0.37471
#
# Static dielectric constant tensor:
#      x y z
#    x 3.378390 -0.119670 0.042230 
#    y -0.119670 4.083860 0.075130 
#    z 0.042230 0.075130 4.151990 
# 
# 
# High freq. dielectric constant tensor:
#      x y z
#    x 1.779070 -0.010700 0.006380 
#    y -0.010700 1.834380 -0.001100 
#    z 0.006380 -0.001100 1.815370 
# 
# From -- ./inp_files/102847.got.cif
#   From: 2010.06.25/outbox.cif.g09.slc.cpg/sg2_52_cif.got.tgz:102847.got - 2010.06.27 13:26:56.
