data_PCOD8009008
_publ_section_title
;
Structure prediction by ZEFSAII (Michael W. Deem and Ramdas Pophale) SiO2 
 PCOD8009008
Probable space group: P -1
;
_chemical_formula_sum "Si O2"
_cell_formula_units_Z 16
_cell_length_a 10.989283
_cell_length_b 15.399290
_cell_length_c 11.507499
_cell_angle_alpha 28.826669
_cell_angle_beta 113.837614
_cell_angle_gamma 123.621111
_cell_volume 765.829669
_symmetry_space_group_name_H-M "P -1"
_symmetry_group_IT_number 2
_symmetry_cell_setting 'triclinic'
loop_
_space_group_symop_operation_xyz
x,y,z
-x,-y,-z
loop_
_atom_site_type_symbol
_atom_site_label
_atom_site_fract_x
_atom_site_fract_y
_atom_site_fract_z
Si Si1 0.978181 0.130779 0.686322
Si Si2 0.338693 0.606137 0.550144
Si Si3 0.114317 0.330201 0.281038
Si Si4 0.116101 0.704234 0.954691
Si Si5 0.949174 0.488884 0.360581
Si Si6 0.345059 0.973265 0.019903
Si Si7 0.679341 0.867508 0.408829
Si Si8 0.753442 0.790911 0.139964
O O1 0.912419 0.273125 0.545828
O O2 0.998255 0.156086 0.525645
O O3 0.138993 0.191815 0.732594
O O4 0.857004 0.903709 0.936684
O O5 0.207839 0.493893 0.726122
O O6 0.267982 0.737601 0.301063
O O7 0.500768 0.747935 0.500694
O O8 0.350690 0.442267 0.660618
O O9 0.253275 0.286599 0.355471
O O10 0.031748 0.326260 0.134821
O O11 0.174298 0.548018 0.111847
O O12 0.247788 0.930982 0.719544
O O13 0.072116 0.663318 0.122408
O O14 0.000000 0.500000 0.500000
O O15 0.500000 0.000000 0.000000
O O16 0.271988 0.046207 0.803914
O O17 0.352936 0.109942 0.975399
#
# Coordination Sequence:
#
# PCOD8009008 Si02
#       8
#     2   2   2   2   2   2   2   2
#     4  10  21  35  63  87 122 160 211 254 299 366
#     4  11  24  37  58  94 131 160 200 256 319 371
#     4  10  22  44  62  89 116 165 219 250 304 366
#     4  10  24  40  69  87 119 162 212 261 299 370
#     4  11  20  38  65  93 125 158 205 254 313 366
#     4  10  22  36  55  87 127 162 196 240 310 376
#     4  11  23  38  61  89 123 163 201 256 313 368
#     4  11  21  36  58  91 123 163 200 258 310 360
#
# _framework density 20.892374
#
# number of rings (size 3 to 8) (size 9 to 14) (size 15 to 20)
#    0.000    1.500    3.750    1.125    3.500    4.000 
#    0.000    0.625    0.000    2.250    0.000    0.000 
#    0.000    0.000    0.000    0.000    0.000    0.000 
#
# Total GULP energy -198257.890840 kJ/mol
# GULP energy per Si atom -12391.118178 kJ/mol
# Density = 2.084482 g / cm^3
# Si number density = 20.892374 Si / 1000 Ang^3
#
#
#
# Elastic Constant Matrix: (Units=GPa)
#
#
# Indices 1 2 3 4 5 6 
#
# 1 106.5664 44.0446 37.0445 -18.6872 12.5526 7.9173
# 2 44.0446 68.4736 32.6199 -11.5107 -3.9110 3.3684
# 3 37.0445 32.6199 89.1613 -16.3288 18.7436 2.3695
# 4 -18.6872 -11.5107 -16.3288 42.4084 -2.3849 -2.7408
# 5 12.5526 -3.9110 18.7436 -2.3849 30.5040 -1.3490
# 6 7.9173 3.3684 2.3695 -2.7408 -1.3490 25.1725
#
#
#
# Elastic Compliance Matrix: (Units=1/GPa)
#
#
# Indices 1 2 3 4 5 6 
#
# 1 0.014966 -0.008867 -0.000891 0.003249 -0.006646 -0.003439
# 2 -0.008867 0.024699 -0.007726 0.000535 0.011644 0.000893
# 3 -0.000891 -0.007726 0.017403 0.003555 -0.011063 -0.000530
# 4 0.003249 0.000535 0.003555 0.026542 -0.001316 0.001391
# 5 -0.006646 0.011644 -0.011063 -0.001316 0.043873 0.003781
# 6 -0.003439 0.000893 -0.000530 0.001391 0.003781 0.041092
#
#
# Mechanical properties :
#
#
# Convention : Reuss Voigt Hill
#
# Bulk Modulus (GPa) = 45.24508 54.62436 49.93472
# Shear Modulus (GPa) = 23.70687 29.64980 26.67833
#
# Velocity S-wave (km/s) = 3.37221 3.77127 3.57731
# Velocity P-wave (km/s) = 6.07171 6.72054 6.40435
#
# Compressibility (1/GPa) = 0.02210185
#
# Stress axis : x y z
#
# Youngs Moduli (GPa) = 66.81674 40.48713 57.46121
#
# Poissons Ratio (x) = 0.35899 0.05117
# Poissons Ratio (y) = 0.59245 0.44395
# Poissons Ratio (z) = 0.05950 0.31280
#
# Static dielectric constant tensor:
#      x y z
#    x -1.188260 -0.131220 3.412660 
#    y -0.131220 3.457440 -0.058880 
#    z 3.412660 -0.058880 2.298480 
# 
# 
# High freq. dielectric constant tensor:
#      x y z
#    x 1.818260 -0.006230 0.012570 
#    y -0.006230 1.784130 -0.016470 
#    z 0.012570 -0.016470 1.825670 
# 
# From -- ./inp_files/432323.got.cif
#   From: 2010.06.25/outbox.cif.g09.slc.cpg/sg2_217_cif.got.tgz:432323.got - 2010.06.27 13:26:56.
