data_PCOD8009514
_publ_section_title
;
Structure prediction by ZEFSAII (Michael W. Deem and Ramdas Pophale) SiO2 
 PCOD8009514
Probable space group: P -1
;
_chemical_formula_sum "Si O2"
_cell_formula_units_Z 16
_cell_length_a 27.423123
_cell_length_b 14.972172
_cell_length_c 17.927553
_cell_angle_alpha 21.629455
_cell_angle_beta 21.009372
_cell_angle_gamma 17.990204
_cell_volume 755.040009
_symmetry_space_group_name_H-M "P -1"
_symmetry_group_IT_number 2
_symmetry_cell_setting 'triclinic'
loop_
_space_group_symop_operation_xyz
x,y,z
-x,-y,-z
loop_
_atom_site_type_symbol
_atom_site_label
_atom_site_fract_x
_atom_site_fract_y
_atom_site_fract_z
Si Si1 0.421029 0.813512 0.545479
Si Si2 0.848399 0.542731 0.638177
Si Si3 0.424600 0.258604 0.969346
Si Si4 0.802634 0.430212 0.346228
Si Si5 0.951988 0.667796 0.046367
Si Si6 0.760279 0.944782 0.804960
Si Si7 0.906781 0.589093 0.724537
Si Si8 0.826985 0.018322 0.103081
O O1 0.410008 0.551163 0.733366
O O2 0.620764 0.679872 0.368502
O O3 0.334246 0.922280 0.668131
O O4 0.322208 0.096279 0.407924
O O5 0.000000 0.500000 0.500000
O O6 0.942884 0.409216 0.526010
O O7 0.794468 0.342219 0.902523
O O8 0.551814 0.111926 0.974787
O O9 0.229438 0.365112 0.180060
O O10 0.500000 0.000000 0.000000
O O11 0.970833 0.236941 0.200207
O O12 0.793150 0.186393 0.592921
O O13 0.823813 0.616090 0.232803
O O14 0.128669 0.346626 0.073934
O O15 0.837076 0.925005 0.074710
O O16 0.810660 0.862733 0.709674
O O17 0.991852 0.257789 0.900536
#
# Coordination Sequence:
#
# PCOD8009514 Si02
#       8
#     2   2   2   2   2   2   2   2
#     4  10  22  37  54  81 111 140 179 223 264 317
#     4  11  21  33  54  78 108 147 180 214 262 316
#     4   9  17  32  54  79 109 141 172 214 263 311
#     4  10  21  37  56  81 108 135 179 229 270 316
#     4  10  21  37  58  80 104 140 181 223 271 321
#     4   9  18  34  56  78 107 141 175 220 271 317
#     4   9  18  33  52  79 110 142 179 216 259 317
#     4  10  21  37  55  78 110 144 180 219 264 317
#
# _framework density 21.190930000000002
#
# number of rings (size 3 to 8) (size 9 to 14) (size 15 to 20)
#    0.000    2.250    0.000    2.625    0.000    5.500 
#    0.000    0.625    0.000   13.500    0.000    0.000 
#    0.000    0.000    0.000    0.000    0.000    0.000 
#
# Total GULP energy -198294.487220 kJ/mol
# GULP energy per Si atom -12393.405451 kJ/mol
# Density = 2.114270 g / cm^3
# Si number density = 21.190930 Si / 1000 Ang^3
#
#
#
# Elastic Constant Matrix: (Units=GPa)
#
#
# Indices 1 2 3 4 5 6 
#
# 1 55.6241 11.0157 19.9390 0.4778 -13.8049 6.9608
# 2 11.0157 74.5497 19.5066 -6.3126 -9.2431 4.1593
# 3 19.9390 19.5066 82.0261 3.2492 -13.7604 -0.3948
# 4 0.4778 -6.3126 3.2492 32.7993 -4.2561 3.8133
# 5 -13.8049 -9.2431 -13.7604 -4.2561 29.4380 1.9458
# 6 6.9608 4.1593 -0.3948 3.8133 1.9458 33.3486
#
#
#
# Elastic Compliance Matrix: (Units=1/GPa)
#
#
# Indices 1 2 3 4 5 6 
#
# 1 0.022411 -0.000736 -0.003843 0.001714 0.009085 -0.005358
# 2 -0.000736 0.015251 -0.002983 0.004020 0.003794 -0.002465
# 3 -0.003843 -0.002983 0.014531 -0.001626 0.003732 0.001314
# 4 0.001714 0.004020 -0.001626 0.032808 0.006380 -0.005002
# 5 0.009085 0.003794 0.003732 0.006380 0.042454 -0.005532
# 6 -0.005358 -0.002465 0.001314 -0.005002 -0.005532 0.032322
#
#
# Mechanical properties :
#
#
# Convention : Reuss Voigt Hill
#
# Bulk Modulus (GPa) = 26.97447 34.79139 30.88293
# Shear Modulus (GPa) = 26.70126 29.89977 28.30051
#
# Velocity S-wave (km/s) = 3.55354 3.76036 3.65842
# Velocity P-wave (km/s) = 5.44002 5.94201 5.69655
#
# Compressibility (1/GPa) = 0.03707210
#
# Stress axis : x y z
#
# Youngs Moduli (GPa) = 44.62041 65.56786 68.81632
#
# Poissons Ratio (x) = 0.04824 0.26443
# Poissons Ratio (y) = 0.03283 0.20527
# Poissons Ratio (z) = 0.17145 0.19558
#
# Static dielectric constant tensor:
#      x y z
#    x 3.805050 0.036250 0.039310 
#    y 0.036250 4.109510 0.293440 
#    z 0.039310 0.293440 3.969190 
# 
# 
# High freq. dielectric constant tensor:
#      x y z
#    x 1.817450 0.004330 0.000780 
#    y 0.004330 1.841350 0.007560 
#    z 0.000780 0.007560 1.826070 
# 
# From -- ./inp_files/100973.got.cif
#   From: 2010.06.25/outbox.cif.g09.slc.cpg/sg2_51_cif.got.tgz:100973.got - 2010.06.27 13:26:56.
