data_PCOD8009122
_publ_section_title
;
Structure prediction by ZEFSAII (Michael W. Deem and Ramdas Pophale) SiO2 
 PCOD8009122
Probable space group: P -1
;
_chemical_formula_sum "Si O2"
_cell_formula_units_Z 16
_cell_length_a 19.418958
_cell_length_b 8.595135
_cell_length_c 11.655731
_cell_angle_alpha 42.672271
_cell_angle_beta 140.414377
_cell_angle_gamma 132.008357
_cell_volume 816.215068
_symmetry_space_group_name_H-M "P -1"
_symmetry_group_IT_number 2
_symmetry_cell_setting 'triclinic'
loop_
_space_group_symop_operation_xyz
x,y,z
-x,-y,-z
loop_
_atom_site_type_symbol
_atom_site_label
_atom_site_fract_x
_atom_site_fract_y
_atom_site_fract_z
Si Si1 0.796463 0.355908 0.475664
Si Si2 0.377011 0.375569 0.872149
Si Si3 0.769443 0.892452 0.572987
Si Si4 0.994156 0.131932 0.185881
Si Si5 0.377571 0.000639 0.880227
Si Si6 0.214046 0.285561 0.901745
Si Si7 0.242990 0.497757 0.057789
Si Si8 0.993265 0.466435 0.196185
O O1 0.688876 0.424803 0.359385
O O2 0.809192 0.464192 0.304450
O O3 0.905635 0.484992 0.613197
O O4 0.780026 0.075549 0.594010
O O5 0.379142 0.204031 0.862998
O O6 0.311818 0.228611 0.977090
O O7 0.500000 0.500000 0.000000
O O8 0.683097 0.940706 0.343275
O O9 0.731427 0.629009 0.722554
O O10 0.887675 0.930762 0.641922
O O11 0.982271 0.213250 0.257576
O O12 0.898060 0.909854 0.150975
O O13 0.979085 0.333257 0.971770
O O14 0.500000 0.000000 0.000000
O O15 0.326444 0.750156 0.010587
O O16 0.253596 0.318535 0.065770
O O17 0.118542 0.534381 0.878612
#
# Coordination Sequence:
#
# PCOD8009122 Si02
#       8
#     2   2   2   2   2   2   2   2
#     4  10  21  36  60  90 117 164 199 248 301 357
#     4  10  22  41  62  89 120 158 204 252 306 356
#     4  11  23  40  64  92 125 162 202 250 306 363
#     4  10  21  36  56  89 127 161 202 250 302 364
#     4  12  24  43  68  89 122 156 206 258 300 362
#     4  10  21  36  60  90 117 164 199 248 301 357
#     4  11  23  40  64  92 125 162 202 250 306 363
#     4  10  21  36  56  89 127 161 202 250 302 364
#
# _framework density 19.602677
#
# number of rings (size 3 to 8) (size 9 to 14) (size 15 to 20)
#    0.750    0.750    1.250    4.500    1.750    4.000 
#    0.000    1.250    0.000    5.250    0.000    0.000 
#    0.000    0.000    0.000    0.000    0.000    0.000 
#
# Total GULP energy -198333.673609 kJ/mol
# GULP energy per Si atom -12395.854601 kJ/mol
# Density = 1.955806 g / cm^3
# Si number density = 19.602677 Si / 1000 Ang^3
#
#
#
# Elastic Constant Matrix: (Units=GPa)
#
#
# Indices 1 2 3 4 5 6 
#
# 1 101.1471 21.0239 17.4342 -3.4645 7.6663 -5.1430
# 2 21.0239 90.7298 31.1888 -2.6184 -3.1770 -0.5156
# 3 17.4342 31.1888 44.5740 -5.7083 5.3777 13.0006
# 4 -3.4645 -2.6184 -5.7083 22.9991 -4.1096 2.1019
# 5 7.6663 -3.1770 5.3777 -4.1096 28.0970 1.5923
# 6 -5.1430 -0.5156 13.0006 2.1019 1.5923 45.6185
#
#
#
# Elastic Compliance Matrix: (Units=1/GPa)
#
#
# Indices 1 2 3 4 5 6 
#
# 1 0.011143 -0.001350 -0.003820 -0.000112 -0.002616 0.002426
# 2 -0.001350 0.015582 -0.011966 -0.000974 0.004089 0.003336
# 3 -0.003820 -0.011966 0.037228 0.007313 -0.005725 -0.011313
# 4 -0.000112 -0.000974 0.007313 0.046572 0.005585 -0.004448
# 5 -0.002616 0.004089 -0.005725 0.005585 0.038692 -0.000225
# 6 0.002426 0.003336 -0.011313 -0.004448 -0.000225 0.025669
#
#
# Mechanical properties :
#
#
# Convention : Reuss Voigt Hill
#
# Bulk Modulus (GPa) = 33.69136 41.74938 37.72037
# Shear Modulus (GPa) = 22.82556 30.46320 26.64438
#
# Velocity S-wave (km/s) = 3.41605 3.94640 3.69076
# Velocity P-wave (km/s) = 5.72570 6.48918 6.11936
#
# Compressibility (1/GPa) = 0.02968120
#
# Stress axis : x y z
#
# Youngs Moduli (GPa) = 89.73861 64.17708 26.86136
#
# Poissons Ratio (x) = 0.08663 0.10262
# Poissons Ratio (y) = 0.12114 0.32142
# Poissons Ratio (z) = 0.34284 0.76793
#
# Static dielectric constant tensor:
#      x y z
#    x 3.762490 0.025160 -0.206440 
#    y 0.025160 3.481300 -0.107590 
#    z -0.206440 -0.107590 3.909210 
# 
# 
# High freq. dielectric constant tensor:
#      x y z
#    x 1.771380 -0.008090 0.001740 
#    y -0.008090 1.768490 0.001290 
#    z 0.001740 0.001290 1.756270 
# 
# From -- ./inp_files/469789.got.cif
#   From: 2010.06.25/outbox.cif.g09.slc.cpg/sg2_235_cif.got.tgz:469789.got - 2010.06.27 13:26:56.
