data_PCOD8009511
_publ_section_title
;
Structure prediction by ZEFSAII (Michael W. Deem and Ramdas Pophale) SiO2 
 PCOD8009511
Probable space group: P -1
;
_chemical_formula_sum "Si O2"
_cell_formula_units_Z 14
_cell_length_a 6.493887
_cell_length_b 12.765158
_cell_length_c 15.320637
_cell_angle_alpha 56.514468
_cell_angle_beta 51.988651
_cell_angle_gamma 41.825023
_cell_volume 656.779633
_symmetry_space_group_name_H-M "P -1"
_symmetry_group_IT_number 2
_symmetry_cell_setting 'triclinic'
loop_
_space_group_symop_operation_xyz
x,y,z
-x,-y,-z
loop_
_atom_site_type_symbol
_atom_site_label
_atom_site_fract_x
_atom_site_fract_y
_atom_site_fract_z
Si Si1 0.043473 0.107334 0.767757
Si Si2 0.482592 0.624334 0.621325
Si Si3 0.198232 0.340764 0.631982
Si Si4 0.871639 0.744024 0.003414
Si Si5 0.687216 0.603136 0.230257
Si Si6 0.353033 0.008267 0.908032
Si Si7 0.930773 0.135346 0.237043
O O1 0.238437 0.181359 0.673830
O O2 0.663744 0.248372 0.783028
O O3 0.113874 0.030238 0.882466
O O4 0.185767 0.961981 0.730029
O O5 0.528904 0.666017 0.493251
O O6 0.272869 0.557805 0.699761
O O7 0.273255 0.785850 0.657633
O O8 0.833670 0.498969 0.632464
O O9 0.257197 0.350111 0.712969
O O10 0.944523 0.583000 0.098255
O O11 0.860845 0.835724 0.048718
O O12 0.506886 0.852564 0.000791
O O13 0.142548 0.722973 0.875209
O O14 0.673114 0.987526 0.792270
#
# Coordination Sequence:
#
# PCOD8009511 Si02
#       7
#     2   2   2   2   2   2   2
#     4  11  19  35  66  84 115 150 186 233 289 327
#     4  10  24  40  60  77 119 153 191 234 289 319
#     4  10  22  42  59  84 104 157 204 230 266 350
#     4   9  18  36  59  85 120 139 192 225 278 351
#     4  11  20  39  61  85 110 156 192 231 275 341
#     4   9  18  36  56  89 117 143 187 228 273 354
#     4  10  21  37  54  93 116 146 182 235 290 333
#
# _framework density 21.316130000000001
#
# number of rings (size 3 to 8) (size 9 to 14) (size 15 to 20)
#    0.857    1.143    2.857    0.429    0.000    4.571 
#    0.000    3.571    0.000    0.000    0.000    0.000 
#    0.000    0.000    0.000    0.000    0.000    0.000 
#
# Total GULP energy -173434.101711 kJ/mol
# GULP energy per Si atom -12388.150122 kJ/mol
# Density = 2.126761 g / cm^3
# Si number density = 21.316130 Si / 1000 Ang^3
#
#
#
# Elastic Constant Matrix: (Units=GPa)
#
#
# Indices 1 2 3 4 5 6 
#
# 1 76.5397 13.4387 13.2879 -3.9889 20.7129 17.4764
# 2 13.4387 39.3506 10.5633 -2.8322 2.2207 19.9413
# 3 13.2879 10.5633 62.7127 -10.8231 10.5484 -1.5153
# 4 -3.9889 -2.8322 -10.8231 32.6095 -0.1357 -5.7929
# 5 20.7129 2.2207 10.5484 -0.1357 28.1176 -4.5130
# 6 17.4764 19.9413 -1.5153 -5.7929 -4.5130 22.3981
#
#
#
# Elastic Compliance Matrix: (Units=1/GPa)
#
#
# Indices 1 2 3 4 5 6 
#
# 1 0.027680 0.013797 -0.005606 -0.004610 -0.025928 -0.040677
# 2 0.013797 0.062578 -0.013388 -0.010665 -0.022108 -0.074597
# 3 -0.005606 -0.013388 0.021316 0.008800 0.000460 0.020105
# 4 -0.004610 -0.010665 0.008800 0.036399 0.004982 0.024105
# 5 -0.025928 -0.022108 0.000460 0.004982 0.064982 0.054326
# 6 -0.040677 -0.074597 0.020105 0.024105 0.054326 0.161341
#
#
# Mechanical properties :
#
#
# Convention : Reuss Voigt Hill
#
# Bulk Modulus (GPa) = 9.88357 28.13143 19.00750
# Shear Modulus (GPa) = 11.94979 26.04591 18.99785
#
# Velocity S-wave (km/s) = 2.37026 3.49934 2.98861
# Velocity P-wave (km/s) = 3.48391 5.43628 4.56567
#
# Compressibility (1/GPa) = 0.10117802
#
# Stress axis : x y z
#
# Youngs Moduli (GPa) = 36.12705 15.98009 46.91357
#
# Poissons Ratio (x) = -0.22047 0.26301
# Poissons Ratio (y) = -0.49844 0.62809
# Poissons Ratio (z) = 0.20254 0.21395
#
# Static dielectric constant tensor:
#      x y z
#    x 3.840400 0.271860 -0.035250 
#    y 0.271860 3.542220 -0.378180 
#    z -0.035250 -0.378180 3.992430 
# 
# 
# High freq. dielectric constant tensor:
#      x y z
#    x 1.831310 0.020740 0.007780 
#    y 0.020740 1.803350 -0.020870 
#    z 0.007780 -0.020870 1.841030 
# 
# From -- ./inp_files/362877.got.cif
#   From: 2010.06.25/outbox.cif.g09.slc.cpg/sg2_182_cif.got.tgz:362877.got - 2010.06.27 13:26:56.
