data_PCOD8009371
_publ_section_title
;
Structure prediction by ZEFSAII (Michael W. Deem and Ramdas Pophale) SiO2 
 PCOD8009371
Probable space group: P -1
;
_chemical_formula_sum "Si O2"
_cell_formula_units_Z 12
_cell_length_a 14.804623
_cell_length_b 12.290042
_cell_length_c 20.896699
_cell_angle_alpha 30.484725
_cell_angle_beta 17.599808
_cell_angle_gamma 40.919187
_cell_volume 526.851708
_symmetry_space_group_name_H-M "P -1"
_symmetry_group_IT_number 2
_symmetry_cell_setting 'triclinic'
loop_
_space_group_symop_operation_xyz
x,y,z
-x,-y,-z
loop_
_atom_site_type_symbol
_atom_site_label
_atom_site_fract_x
_atom_site_fract_y
_atom_site_fract_z
Si Si1 0.031576 0.968668 0.241532
Si Si2 0.816296 0.448541 0.320564
Si Si3 0.792198 0.292135 0.550752
Si Si4 0.943393 0.909947 0.694829
Si Si5 0.289583 0.469695 0.397963
Si Si6 0.219716 0.690720 0.807388
O O1 0.962225 0.707803 0.394181
O O2 0.761934 0.052996 0.352196
O O3 0.986499 0.949271 0.357426
O O4 0.394249 0.161514 0.879445
O O5 0.500000 0.500000 0.500000
O O6 0.928295 0.471432 0.307827
O O7 0.774511 0.182522 0.463158
O O8 0.092575 0.633964 0.994994
O O9 0.900864 0.436734 0.470699
O O10 0.940911 0.096734 0.548496
O O11 0.581424 0.687740 0.054396
O O12 0.426817 0.316373 0.427320
O O13 0.000000 0.500000 0.000000
#
# Coordination Sequence:
#
# PCOD8009371 Si02
#       6
#     2   2   2   2   2   2
#     4  11  20  37  63  89 116 153 198 239 288 342
#     4  11  20  38  64  82 117 158 192 239 292 344
#     4  11  22  38  59  90 121 151 191 239 297 344
#     4  10  23  38  61  87 118 156 194 239 286 344
#     4  10  21  36  62  90 116 153 196 241 286 344
#     4  11  18  38  62  88 114 152 199 243 285 340
#
# _framework density 22.776810000000001
#
# number of rings (size 3 to 8) (size 9 to 14) (size 15 to 20)
#    0.000    1.333    6.667    3.000    0.000    2.667 
#    0.000    4.167    0.000    7.000    0.000    0.000 
#    0.000    0.000    0.000    0.000    0.000    0.000 
#
# Total GULP energy -148716.426571 kJ/mol
# GULP energy per Si atom -12393.035548 kJ/mol
# Density = 2.272497 g / cm^3
# Si number density = 22.776810 Si / 1000 Ang^3
#
#
#
# Elastic Constant Matrix: (Units=GPa)
#
#
# Indices 1 2 3 4 5 6 
#
# 1 71.0685 47.5692 20.9078 -6.0888 13.8430 6.6352
# 2 47.5692 136.0708 23.7029 -7.6304 4.7688 4.3173
# 3 20.9078 23.7029 27.4976 -8.9467 2.3720 13.0684
# 4 -6.0888 -7.6304 -8.9467 32.6700 6.7099 -1.0263
# 5 13.8430 4.7688 2.3720 6.7099 31.7767 -14.2115
# 6 6.6352 4.3173 13.0684 -1.0263 -14.2115 56.8962
#
#
#
# Elastic Compliance Matrix: (Units=1/GPa)
#
#
# Indices 1 2 3 4 5 6 
#
# 1 0.023299 -0.005866 -0.009858 0.002275 -0.010131 -0.002497
# 2 -0.005866 0.010198 -0.005603 -0.000679 0.002383 0.001780
# 3 -0.009858 -0.005603 0.061261 0.015044 -0.009098 -0.014497
# 4 0.002275 -0.000679 0.015044 0.037402 -0.012663 -0.006157
# 5 -0.010131 0.002383 -0.009098 -0.012663 0.045208 0.014154
# 6 -0.002497 0.001780 -0.014497 -0.006157 0.014154 0.024486
#
#
# Mechanical properties :
#
#
# Convention : Reuss Voigt Hill
#
# Bulk Modulus (GPa) = 19.19225 46.55518 32.87372
# Shear Modulus (GPa) = 19.09305 33.76570 26.42937
#
# Velocity S-wave (km/s) = 2.89842 3.85445 3.41011
# Velocity P-wave (km/s) = 4.43234 6.34769 5.47443
#
# Compressibility (1/GPa) = 0.05210435
#
# Stress axis : x y z
#
# Youngs Moduli (GPa) = 42.92074 98.06122 16.32353
#
# Poissons Ratio (x) = 0.57523 0.16092
# Poissons Ratio (y) = 0.25177 0.09146
# Poissons Ratio (z) = 0.42311 0.54941
#
# Static dielectric constant tensor:
#      x y z
#    x 4.209460 -0.077360 0.137430 
#    y -0.077360 4.736490 0.040660 
#    z 0.137430 0.040660 3.508920 
# 
# 
# High freq. dielectric constant tensor:
#      x y z
#    x 1.910540 -0.008790 0.013540 
#    y -0.008790 1.929920 -0.006690 
#    z 0.013540 -0.006690 1.829990 
# 
# From -- ./inp_files/171630.got.cif
#   From: 2010.06.25/outbox.cif.g09.slc.cpg/sg2_86_cif.got.tgz:171630.got - 2010.06.27 13:26:56.
