data_PCOD8009281
_publ_section_title
;
Structure prediction by ZEFSAII (Michael W. Deem and Ramdas Pophale) SiO2 
 PCOD8009281
Probable space group: P -1
;
_chemical_formula_sum "Si O2"
_cell_formula_units_Z 14
_cell_length_a 14.050713
_cell_length_b 11.483473
_cell_length_c 21.607539
_cell_angle_alpha 154.680701
_cell_angle_beta 149.328166
_cell_angle_gamma 45.673310
_cell_volume 709.331906
_symmetry_space_group_name_H-M "P -1"
_symmetry_group_IT_number 2
_symmetry_cell_setting 'triclinic'
loop_
_space_group_symop_operation_xyz
x,y,z
-x,-y,-z
loop_
_atom_site_type_symbol
_atom_site_label
_atom_site_fract_x
_atom_site_fract_y
_atom_site_fract_z
Si Si1 0.868302 0.899827 0.734361
Si Si2 0.517395 0.690541 0.353399
Si Si3 0.074020 0.090976 0.653334
Si Si4 0.696072 0.695703 0.843267
Si Si5 0.348695 0.702327 0.140480
Si Si6 0.701013 0.191338 0.513914
Si Si7 0.288414 0.678532 0.561996
O O1 0.739338 0.729831 0.520912
O O2 0.827957 0.662940 0.652720
O O3 0.801456 0.163416 0.846452
O O4 0.100470 0.023903 0.905205
O O5 0.349035 0.449183 0.183828
O O6 0.477543 0.606081 0.218453
O O7 0.500000 0.000000 0.500000
O O8 0.880628 0.078743 0.579468
O O9 0.178788 0.868751 0.628491
O O10 0.230210 0.421508 0.899039
O O11 0.000000 0.000000 0.500000
O O12 0.718479 0.465351 0.696747
O O13 0.516925 0.796574 0.769715
O O14 0.491170 0.934211 0.284216
O O15 0.717121 0.287266 0.498054
#
# Coordination Sequence:
#
# PCOD8009281 Si02
#       7
#     2   2   2   2   2   2   2
#     4  10  21  36  60  89 118 152 194 243 288 342
#     4   9  19  36  57  93 119 142 199 251 283 338
#     4  10  24  41  57  86 121 157 197 237 288 354
#     4  11  20  36  63  89 116 155 193 243 296 338
#     4  11  21  38  63  88 119 153 195 246 289 344
#     4  11  21  37  62  88 115 159 197 233 296 351
#     4  10  23  39  55  88 126 147 198 244 286 350
#
# _framework density 19.736881
#
# number of rings (size 3 to 8) (size 9 to 14) (size 15 to 20)
#    0.000    1.714    5.714    0.429    0.000    9.714 
#    0.000    2.857    0.000    5.143    0.000    0.000 
#    0.000    0.000    0.000    0.000    0.000    0.000 
#
# Total GULP energy -173551.055484 kJ/mol
# GULP energy per Si atom -12396.503963 kJ/mol
# Density = 1.969196 g / cm^3
# Si number density = 19.736881 Si / 1000 Ang^3
#
#
#
# Elastic Constant Matrix: (Units=GPa)
#
#
# Indices 1 2 3 4 5 6 
#
# 1 48.4570 47.1726 38.1324 -6.4621 16.0455 12.0431
# 2 47.1726 113.5599 42.9993 -5.2749 2.6953 -10.6883
# 3 38.1324 42.9993 130.5563 -20.1993 21.3994 7.3028
# 4 -6.4621 -5.2749 -20.1993 25.1580 -7.2659 4.1603
# 5 16.0455 2.6953 21.3994 -7.2659 32.0601 -0.3605
# 6 12.0431 -10.6883 7.3028 4.1603 -0.3605 39.4360
#
#
#
# Elastic Compliance Matrix: (Units=1/GPa)
#
#
# Indices 1 2 3 4 5 6 
#
# 1 0.069885 -0.029594 -0.003354 0.005471 -0.029342 -0.029587
# 2 -0.029594 0.023186 -0.002772 -0.003602 0.014080 0.016344
# 3 -0.003354 -0.002772 0.011467 0.006989 -0.004188 -0.002626
# 4 0.005471 -0.003602 0.006989 0.048605 0.003814 -0.009034
# 5 -0.029342 0.014080 -0.004188 0.003814 0.048505 0.013593
# 6 -0.029587 0.016344 -0.002626 -0.009034 0.013593 0.040386
#
#
# Mechanical properties :
#
#
# Convention : Reuss Voigt Hill
#
# Bulk Modulus (GPa) = 30.21385 61.02020 45.61703
# Shear Modulus (GPa) = 15.40801 30.28210 22.84505
#
# Velocity S-wave (km/s) = 2.79708 3.92125 3.40587
# Velocity P-wave (km/s) = 5.07672 7.17534 6.21525
#
# Compressibility (1/GPa) = 0.03309740
#
# Stress axis : x y z
#
# Youngs Moduli (GPa) = 14.30923 43.13000 87.21015
#
# Poissons Ratio (x) = 1.27641 0.29248
# Poissons Ratio (y) = 0.42347 0.24173
# Poissons Ratio (z) = 0.04799 0.11955
#
# Static dielectric constant tensor:
#      x y z
#    x 3.669310 -0.072540 0.022630 
#    y -0.072540 3.870680 0.011990 
#    z 0.022630 0.011990 3.499990 
# 
# 
# High freq. dielectric constant tensor:
#      x y z
#    x 1.750550 0.001290 0.011430 
#    y 0.001290 1.775930 -0.008940 
#    z 0.011430 -0.008940 1.769050 
# 
# From -- ./inp_files/83738.got.cif
#   From: 2010.06.25/outbox.cif.g09.slc.cpg/sg2_42_cif.got.tgz:83738.got - 2010.06.27 13:26:56.
