data_PCOD8009789
_publ_section_title
;
Structure prediction by ZEFSAII (Michael W. Deem and Ramdas Pophale) SiO2 
 PCOD8009789
Probable space group: P -1
;
_chemical_formula_sum "Si O2"
_cell_formula_units_Z 14
_cell_length_a 8.965401
_cell_length_b 15.451990
_cell_length_c 9.868549
_cell_angle_alpha 102.475843
_cell_angle_beta 134.650710
_cell_angle_gamma 109.080823
_cell_volume 688.061313
_symmetry_space_group_name_H-M "P -1"
_symmetry_group_IT_number 2
_symmetry_cell_setting 'triclinic'
loop_
_space_group_symop_operation_xyz
x,y,z
-x,-y,-z
loop_
_atom_site_type_symbol
_atom_site_label
_atom_site_fract_x
_atom_site_fract_y
_atom_site_fract_z
Si Si1 0.869938 0.151728 0.677816
Si Si2 0.354897 0.086626 0.450075
Si Si3 0.863633 0.513548 0.292883
Si Si4 0.927004 0.267654 0.010238
Si Si5 0.762080 0.688228 0.282603
Si Si6 0.786096 0.763971 0.619589
Si Si7 0.822516 0.471671 0.745648
O O1 0.533406 0.086588 0.445904
O O2 0.996958 0.207236 0.631223
O O3 0.875892 0.047768 0.675736
O O4 0.048411 0.256448 0.945083
O O5 0.193436 0.125059 0.299287
O O6 0.587273 0.190858 0.745691
O O7 0.822315 0.604242 0.332797
O O8 0.000000 0.500000 0.500000
O O9 0.082372 0.567405 0.325276
O O10 0.550059 0.384300 0.007975
O O11 0.942721 0.204360 0.125106
O O12 0.113600 0.408492 0.213294
O O13 0.788236 0.751984 0.456669
O O14 0.512253 0.639444 0.476027
O O15 0.000000 0.500000 0.000000
#
# Coordination Sequence:
#
# PCOD8009789 Si02
#       7
#     2   2   2   2   2   2   2
#     4   9  21  42  61  79 116 151 190 238 275 333
#     4   9  20  42  61  79 113 153 193 229 283 333
#     4  11  24  37  57  83 120 153 185 228 285 338
#     4  10  21  37  61  86 110 149 197 227 277 343
#     4  11  23  38  54  89 117 144 189 239 280 328
#     4  12  23  35  62  86 116 149 188 235 284 337
#     4  12  20  39  59  84 118 155 182 229 289 341
#
# _framework density 20.347023
#
# number of rings (size 3 to 8) (size 9 to 14) (size 15 to 20)
#    0.857    0.571    2.857    3.000    4.000    1.143 
#    0.000    0.714    0.000    0.000    0.000    0.000 
#    0.000    0.000    0.000    0.000    0.000    0.000 
#
# Total GULP energy -173568.057273 kJ/mol
# GULP energy per Si atom -12397.718377 kJ/mol
# Density = 2.030071 g / cm^3
# Si number density = 20.347023 Si / 1000 Ang^3
#
#
#
# Elastic Constant Matrix: (Units=GPa)
#
#
# Indices 1 2 3 4 5 6 
#
# 1 80.5078 27.4239 11.7636 -9.5457 -9.7579 9.1862
# 2 27.4239 104.0337 14.0234 -14.8712 5.5165 -11.0936
# 3 11.7636 14.0234 36.7050 -23.2434 2.5397 3.3881
# 4 -9.5457 -14.8712 -23.2434 38.9338 -3.2726 0.1526
# 5 -9.7579 5.5165 2.5397 -3.2726 20.6063 -1.3100
# 6 9.1862 -11.0936 3.3881 0.1526 -1.3100 43.1032
#
#
#
# Elastic Compliance Matrix: (Units=1/GPa)
#
#
# Indices 1 2 3 4 5 6 
#
# 1 0.016145 -0.004615 -0.002855 0.001278 0.009173 -0.004130
# 2 -0.004615 0.012047 -0.001995 0.001876 -0.004606 0.004094
# 3 -0.002855 -0.001995 0.045638 0.025579 -0.002613 -0.003662
# 4 0.001278 0.001876 0.025579 0.042290 0.003550 -0.001842
# 5 0.009173 -0.004606 -0.002613 0.003550 0.054910 -0.001279
# 6 -0.004130 0.004094 -0.003662 -0.001842 -0.001279 0.025390
#
#
# Mechanical properties :
#
#
# Convention : Reuss Voigt Hill
#
# Bulk Modulus (GPa) = 18.21506 36.40759 27.31133
# Shear Modulus (GPa) = 21.39950 31.73103 26.56527
#
# Velocity S-wave (km/s) = 3.24655 3.95333 3.61724
# Velocity P-wave (km/s) = 4.79845 6.22660 5.55858
#
# Compressibility (1/GPa) = 0.05489964
#
# Stress axis : x y z
#
# Youngs Moduli (GPa) = 61.93837 83.01006 21.91158
#
# Poissons Ratio (x) = 0.38311 0.06256
# Poissons Ratio (y) = 0.28586 0.04371
# Poissons Ratio (z) = 0.17684 0.16559
#
# Static dielectric constant tensor:
#      x y z
#    x 3.573490 -0.142120 -0.011540 
#    y -0.142120 3.728790 0.085040 
#    z -0.011540 0.085040 3.679980 
# 
# 
# High freq. dielectric constant tensor:
#      x y z
#    x 1.785460 -0.014600 -0.003210 
#    y -0.014600 1.799980 -0.008930 
#    z -0.003210 -0.008930 1.777300 
# 
# From -- ./inp_files/202321.got.cif
#   From: 2010.06.25/outbox.cif.g09.slc.cpg/sg2_102_cif.got.tgz:202321.got - 2010.06.27 13:26:56.
