data_PCOD8009764
_publ_section_title
;
Structure prediction by ZEFSAII (Michael W. Deem and Ramdas Pophale) SiO2 
 PCOD8009764
Probable space group: P -1
;
_chemical_formula_sum "Si O2"
_cell_formula_units_Z 14
_cell_length_a 10.023137
_cell_length_b 8.982364
_cell_length_c 9.396962
_cell_angle_alpha 63.029088
_cell_angle_beta 98.423192
_cell_angle_gamma 77.877312
_cell_volume 708.257363
_symmetry_space_group_name_H-M "P -1"
_symmetry_group_IT_number 2
_symmetry_cell_setting 'triclinic'
loop_
_space_group_symop_operation_xyz
x,y,z
-x,-y,-z
loop_
_atom_site_type_symbol
_atom_site_label
_atom_site_fract_x
_atom_site_fract_y
_atom_site_fract_z
Si Si1 0.062079 0.815176 0.016881
Si Si2 0.360735 0.348657 0.975992
Si Si3 0.166220 0.904271 0.530693
Si Si4 0.682203 0.263292 0.097228
Si Si5 0.807982 0.473193 0.384524
Si Si6 0.895558 0.523759 0.671109
Si Si7 0.179920 0.206558 0.213622
O O1 0.219171 0.801885 0.995713
O O2 0.972408 0.778155 0.885618
O O3 0.065534 0.680497 0.200804
O O4 0.000000 0.000000 0.000000
O O5 0.321898 0.537165 0.963576
O O6 0.306840 0.383583 0.790168
O O7 0.528076 0.250133 0.043299
O O8 0.288089 0.219829 0.100539
O O9 0.253601 0.867676 0.706383
O O10 0.207085 0.720884 0.530870
O O11 0.229804 0.026225 0.388723
O O12 0.000000 0.000000 0.500000
O O13 0.792830 0.559019 0.501950
O O14 0.963532 0.430970 0.361713
O O15 0.824322 0.636578 0.746879
#
# Coordination Sequence:
#
# PCOD8009764 Si02
#       7
#     2   2   2   2   2   2   2
#     4  12  23  37  64  97 124 156 210 261 307 357
#     4  10  21  42  64  89 123 168 207 244 307 379
#     4  11  20  35  61  92 124 157 204 262 305 352
#     4  10  22  39  65  89 126 165 203 251 312 365
#     4  10  21  37  60  92 123 160 202 258 310 358
#     4  11  21  35  64  91 121 159 213 255 300 362
#     4  12  21  38  66  91 121 162 209 255 300 369
#
# _framework density 19.766825999999998
#
# number of rings (size 3 to 8) (size 9 to 14) (size 15 to 20)
#    0.000    1.143    5.714    2.143    0.000    0.571 
#    0.000    1.429    3.143    0.000    0.000    0.000 
#    0.000    0.000    0.000    0.000    0.000    0.000 
#
# Total GULP energy -173599.607354 kJ/mol
# GULP energy per Si atom -12399.971954 kJ/mol
# Density = 1.972184 g / cm^3
# Si number density = 19.766826 Si / 1000 Ang^3
#
#
#
# Elastic Constant Matrix: (Units=GPa)
#
#
# Indices 1 2 3 4 5 6 
#
# 1 170.4050 28.7956 96.1270 -14.2370 9.6524 -18.0573
# 2 28.7956 89.5617 44.1684 5.3784 -1.7516 5.6388
# 3 96.1270 44.1684 156.0008 -17.8902 9.5068 0.1244
# 4 -14.2370 5.3784 -17.8902 39.1006 11.4220 -2.3004
# 5 9.6524 -1.7516 9.5068 11.4220 39.3227 -5.7903
# 6 -18.0573 5.6388 0.1244 -2.3004 -5.7903 27.3899
#
#
#
# Elastic Compliance Matrix: (Units=1/GPa)
#
#
# Indices 1 2 3 4 5 6 
#
# 1 0.010224 -0.001003 -0.005772 0.001823 -0.000660 0.006987
# 2 -0.001003 0.014124 -0.004159 -0.005260 0.002912 -0.003376
# 3 -0.005772 -0.004159 0.011907 0.004749 -0.003519 -0.003349
# 4 0.001823 -0.005260 0.004749 0.032467 -0.010864 0.002694
# 5 -0.000660 0.002912 -0.003519 -0.010864 0.030391 0.004494
# 6 0.006987 -0.003376 -0.003349 0.002694 0.004494 0.043002
#
#
# Mechanical properties :
#
#
# Convention : Reuss Voigt Hill
#
# Bulk Modulus (GPa) = 69.50989 83.79439 76.65214
# Shear Modulus (GPa) = 29.62442 37.62109 33.62275
#
# Velocity S-wave (km/s) = 3.87550 4.36735 4.12875
# Velocity P-wave (km/s) = 7.43419 8.24106 7.84800
#
# Compressibility (1/GPa) = 0.01438644
#
# Stress axis : x y z
#
# Youngs Moduli (GPa) = 97.80723 70.79952 83.98755
#
# Poissons Ratio (x) = 0.07100 0.48482
# Poissons Ratio (y) = 0.09808 0.34931
# Poissons Ratio (z) = 0.56459 0.29446
#
# Static dielectric constant tensor:
#      x y z
#    x 3.482380 0.172120 0.045050 
#    y 0.172120 3.373980 -0.072670 
#    z 0.045050 -0.072670 3.888130 
# 
# 
# High freq. dielectric constant tensor:
#      x y z
#    x 1.752240 0.015940 -0.005430 
#    y 0.015940 1.754660 -0.004950 
#    z -0.005430 -0.004950 1.791470 
# 
# From -- ./inp_files/157414.got.cif
#   From: 2010.06.25/outbox.cif.g09.slc.cpg/sg2_79_cif.got.tgz:157414.got - 2010.06.27 13:26:56.
