data_PCOD8009953
_publ_section_title
;
Structure prediction by ZEFSAII (Michael W. Deem and Ramdas Pophale) SiO2 
 PCOD8009953
Probable space group: P -1
;
_chemical_formula_sum "Si O2"
_cell_formula_units_Z 16
_cell_length_a 12.583506
_cell_length_b 12.319463
_cell_length_c 8.995695
_cell_angle_alpha 74.522437
_cell_angle_beta 129.940758
_cell_angle_gamma 132.780091
_cell_volume 748.454590
_symmetry_space_group_name_H-M "P -1"
_symmetry_group_IT_number 2
_symmetry_cell_setting 'triclinic'
loop_
_space_group_symop_operation_xyz
x,y,z
-x,-y,-z
loop_
_atom_site_type_symbol
_atom_site_label
_atom_site_fract_x
_atom_site_fract_y
_atom_site_fract_z
Si Si1 0.279892 0.872162 0.382720
Si Si2 0.041951 0.177470 0.040962
Si Si3 0.169061 0.910869 0.573083
Si Si4 0.684954 0.175084 0.064652
Si Si5 0.129931 0.114091 0.848055
Si Si6 0.794310 0.351071 0.812914
Si Si7 0.444898 0.235603 0.864780
Si Si8 0.625277 0.480610 0.706181
O O1 0.164202 0.901589 0.176152
O O2 0.255551 0.883879 0.529005
O O3 0.202768 0.704168 0.327739
O O4 0.500000 0.000000 0.500000
O O5 0.161320 0.183714 0.013925
O O6 0.164737 0.352330 0.138372
O O7 0.003832 0.071463 0.183655
O O8 0.139109 0.798825 0.716618
O O9 0.969507 0.855271 0.367627
O O10 0.311033 0.089578 0.685347
O O11 0.718397 0.210027 0.906583
O O12 0.639978 0.273474 0.059454
O O13 0.500000 0.000000 0.000000
O O14 0.335565 0.199533 0.933022
O O15 0.654235 0.381007 0.675863
O O16 0.000000 0.500000 0.000000
O O17 0.512378 0.388725 0.790648
O O18 0.500000 0.500000 0.500000
#
# Coordination Sequence:
#
# PCOD8009953 Si02
#       8
#     2   2   2   2   2   2   2   2
#     4  11  22  38  66  93 126 166 215 260 312 371
#     4  10  23  40  62  92 131 161 209 274 310 372
#     4  10  21  38  60  94 124 155 217 265 301 367
#     4   9  20  36  59  88 121 160 208 258 302 369
#     4  10  22  38  62  92 122 163 212 261 314 373
#     4  11  23  41  65  92 126 171 211 256 321 377
#     4  10  21  37  63  89 122 167 208 255 318 382
#     4  11  23  41  63  91 130 167 209 259 321 382
#
# _framework density 21.377381
#
# number of rings (size 3 to 8) (size 9 to 14) (size 15 to 20)
#    0.000    1.750    1.250    3.375    5.250    3.500 
#    0.000    0.625    0.000    0.000    0.000    0.000 
#    0.000    0.000    0.000    0.000    0.000    0.000 
#
# Total GULP energy -198298.076341 kJ/mol
# GULP energy per Si atom -12393.629771 kJ/mol
# Density = 2.132873 g / cm^3
# Si number density = 21.377381 Si / 1000 Ang^3
#
#
#
# Elastic Constant Matrix: (Units=GPa)
#
#
# Indices 1 2 3 4 5 6 
#
# 1 100.3584 23.9926 12.9676 -6.6706 -6.7553 -5.5609
# 2 23.9926 99.5613 25.7938 -17.8473 -1.9655 -3.4997
# 3 12.9676 25.7938 70.0591 -19.8161 14.3156 -7.4584
# 4 -6.6706 -17.8473 -19.8161 44.8283 -8.3549 2.2606
# 5 -6.7553 -1.9655 14.3156 -8.3549 26.3359 2.0265
# 6 -5.5609 -3.4997 -7.4584 2.2606 2.0265 28.9944
#
#
#
# Elastic Compliance Matrix: (Units=1/GPa)
#
#
# Indices 1 2 3 4 5 6 
#
# 1 0.011025 -0.001953 -0.001773 0.000731 0.003793 0.001101
# 2 -0.001953 0.012231 -0.003945 0.003550 0.003717 -0.000450
# 3 -0.001773 -0.003945 0.020067 0.004846 -0.010481 0.004701
# 4 0.000731 0.003550 0.004846 0.027224 0.006514 -0.000763
# 5 0.003793 0.003717 -0.010481 0.006514 0.047396 -0.005341
# 6 0.001101 -0.000450 0.004701 -0.000763 -0.005341 0.036288
#
#
# Mechanical properties :
#
#
# Convention : Reuss Voigt Hill
#
# Bulk Modulus (GPa) = 35.73763 43.94297 39.84030
# Shear Modulus (GPa) = 27.94867 33.84671 30.89769
#
# Velocity S-wave (km/s) = 3.61971 3.98338 3.80589
# Velocity P-wave (km/s) = 5.85009 6.46196 6.16362
#
# Compressibility (1/GPa) = 0.02798171
#
# Stress axis : x y z
#
# Youngs Moduli (GPa) = 90.70170 81.76148 49.83340
#
# Poissons Ratio (x) = 0.15968 0.08835
# Poissons Ratio (y) = 0.17714 0.19658
# Poissons Ratio (z) = 0.16080 0.32252
#
# Static dielectric constant tensor:
#      x y z
#    x 4.277650 -0.294020 0.099780 
#    y -0.294020 3.988020 -0.336610 
#    z 0.099780 -0.336610 4.163820 
# 
# 
# High freq. dielectric constant tensor:
#      x y z
#    x 1.852490 -0.011140 0.012050 
#    y -0.011140 1.826250 -0.016970 
#    z 0.012050 -0.016970 1.821350 
# 
# From -- ./inp_files/262408.got.cif
#   From: 2010.06.25/outbox.cif.g09.slc.cpg/sg2_132_cif.got.tgz:262408.got - 2010.06.27 13:26:56.
