data_PCOD8009690
_publ_section_title
;
Structure prediction by ZEFSAII (Michael W. Deem and Ramdas Pophale) SiO2 
 PCOD8009690
Probable space group: P -1
;
_chemical_formula_sum "Si O2"
_cell_formula_units_Z 14
_cell_length_a 15.304194
_cell_length_b 11.069502
_cell_length_c 9.185111
_cell_angle_alpha 80.345117
_cell_angle_beta 104.949173
_cell_angle_gamma 152.125495
_cell_volume 696.591892
_symmetry_space_group_name_H-M "P -1"
_symmetry_group_IT_number 2
_symmetry_cell_setting 'triclinic'
loop_
_space_group_symop_operation_xyz
x,y,z
-x,-y,-z
loop_
_atom_site_type_symbol
_atom_site_label
_atom_site_fract_x
_atom_site_fract_y
_atom_site_fract_z
Si Si1 0.294849 0.473763 0.091451
Si Si2 0.490614 0.461695 0.674007
Si Si3 0.610394 0.013105 0.590426
Si Si4 0.483332 0.286938 0.156263
Si Si5 0.950997 0.236605 0.005476
Si Si6 0.629302 0.932403 0.316370
Si Si7 0.015549 0.535079 0.771277
O O1 0.311738 0.365306 0.211847
O O2 0.077741 0.264390 0.048489
O O3 0.440814 0.745955 0.177541
O O4 0.360791 0.534000 0.940535
O O5 0.500000 0.500000 0.500000
O O6 0.441902 0.521689 0.736580
O O7 0.326327 0.158566 0.684660
O O8 0.585669 0.883276 0.479507
O O9 0.829209 0.318039 0.635740
O O10 0.500000 0.000000 0.500000
O O11 0.530915 0.860519 0.737390
O O12 0.272287 0.067841 0.046901
O O13 0.982635 0.347010 0.145140
O O14 0.025276 0.414212 0.874103
O O15 0.798611 0.229620 0.297659
#
# Coordination Sequence:
#
# PCOD8009690 Si02
#       7
#     2   2   2   2   2   2   2
#     4  10  22  36  66  89 115 163 200 245 300 358
#     4  10  21  41  63  84 122 161 200 249 302 350
#     4  11  23  37  61  89 122 161 200 246 302 358
#     4  11  21  42  63  89 124 158 200 252 297 353
#     4  10  21  38  59  96 122 153 202 249 300 353
#     4  10  21  39  59  88 116 163 196 244 302 353
#     4  10  21  37  59  88 128 156 196 253 296 359
#
# _framework density 20.097850000000001
#
# number of rings (size 3 to 8) (size 9 to 14) (size 15 to 20)
#    0.857    0.857    2.857    1.714    2.000    1.143 
#    0.000    0.000    0.000    5.143    0.000    0.000 
#    0.000    0.000    0.000    0.000    0.000    0.000 
#
# Total GULP energy -173470.754615 kJ/mol
# GULP energy per Si atom -12390.768187 kJ/mol
# Density = 2.005211 g / cm^3
# Si number density = 20.097850 Si / 1000 Ang^3
#
#
#
# Elastic Constant Matrix: (Units=GPa)
#
#
# Indices 1 2 3 4 5 6 
#
# 1 71.8228 8.4149 39.3656 9.2349 5.8014 4.1868
# 2 8.4149 29.3895 5.0652 5.9626 0.7982 -1.3237
# 3 39.3656 5.0652 107.4883 6.9998 -6.2208 9.4221
# 4 9.2349 5.9626 6.9998 26.2303 -6.6565 -5.4111
# 5 5.8014 0.7982 -6.2208 -6.6565 40.1908 6.3648
# 6 4.1868 -1.3237 9.4221 -5.4111 6.3648 27.8172
#
#
#
# Elastic Compliance Matrix: (Units=1/GPa)
#
#
# Indices 1 2 3 4 5 6 
#
# 1 0.019063 -0.003099 -0.006665 -0.005539 -0.004512 -0.000804
# 2 -0.003099 0.036558 -0.000326 -0.007308 -0.001744 0.001294
# 3 -0.006665 -0.000326 0.012377 -0.000877 0.003397 -0.004153
# 4 -0.005539 -0.007308 -0.000877 0.045412 0.007063 0.008001
# 5 -0.004512 -0.001744 0.003397 0.007063 0.028153 -0.005622
# 6 -0.000804 0.001294 -0.004153 0.008001 -0.005622 0.040381
#
#
# Mechanical properties :
#
#
# Convention : Reuss Voigt Hill
#
# Bulk Modulus (GPa) = 20.91331 34.93243 27.92287
# Shear Modulus (GPa) = 22.92900 29.23801 26.08350
#
# Velocity S-wave (km/s) = 3.38134 3.81830 3.60644
# Velocity P-wave (km/s) = 5.06685 6.07109 5.59156
#
# Compressibility (1/GPa) = 0.04781645
#
# Stress axis : x y z
#
# Youngs Moduli (GPa) = 52.45751 27.35410 80.79213
#
# Poissons Ratio (x) = 0.08478 0.53851
# Poissons Ratio (y) = 0.16258 0.02635
# Poissons Ratio (z) = 0.34965 0.00892
#
# Static dielectric constant tensor:
#      x y z
#    x 3.454310 -0.176330 -0.098620 
#    y -0.176330 3.439800 -0.017020 
#    z -0.098620 -0.017020 3.673680 
# 
# 
# High freq. dielectric constant tensor:
#      x y z
#    x 1.768960 -0.018180 -0.010810 
#    y -0.018180 1.764720 -0.000070 
#    z -0.010810 -0.000070 1.802280 
# 
# From -- ./inp_files/307378.got.cif
#   From: 2010.06.25/outbox.cif.g09.slc.cpg/sg2_154_cif.got.tgz:307378.got - 2010.06.27 13:26:56.
