data_PCOD8009456
_publ_section_title
;
Structure prediction by ZEFSAII (Michael W. Deem and Ramdas Pophale) SiO2 
 PCOD8009456
Probable space group: P -1
;
_chemical_formula_sum "Si O2"
_cell_formula_units_Z 12
_cell_length_a 5.253275
_cell_length_b 12.864107
_cell_length_c 14.793457
_cell_angle_alpha 28.384333
_cell_angle_beta 98.168299
_cell_angle_gamma 94.547086
_cell_volume 468.204385
_symmetry_space_group_name_H-M "P -1"
_symmetry_group_IT_number 2
_symmetry_cell_setting 'triclinic'
loop_
_space_group_symop_operation_xyz
x,y,z
-x,-y,-z
loop_
_atom_site_type_symbol
_atom_site_label
_atom_site_fract_x
_atom_site_fract_y
_atom_site_fract_z
Si Si1 0.965441 0.522405 0.676905
Si Si2 0.545390 0.641346 0.273598
Si Si3 0.384661 0.275359 0.189060
Si Si4 0.203764 0.112102 0.481700
Si Si5 0.927443 0.859828 0.880838
Si Si6 0.560563 0.973452 0.170498
O O1 0.196194 0.509933 0.625650
O O2 0.694830 0.505377 0.625143
O O3 0.946505 0.758006 0.544230
O O4 0.017890 0.335874 0.896594
O O5 0.580726 0.738477 0.300932
O O6 0.486970 0.836470 0.050724
O O7 0.333003 0.277485 0.292659
O O8 0.126158 0.245737 0.139542
O O9 0.585229 0.069902 0.328629
O O10 0.500000 0.500000 0.000000
O O11 0.000000 0.000000 0.500000
O O12 0.677471 0.017363 0.779333
O O13 0.172954 0.002097 0.780654
#
# Coordination Sequence:
#
# PCOD8009456 Si02
#       6
#     2   2   2   2   2   2
#     4  10  21  36  65  95 134 178 224 275 344 398
#     4   9  18  34  60  95 134 176 220 282 330 407
#     4  11  27  45  71 100 139 181 230 285 344 411
#     4  11  27  45  69 101 138 183 229 283 347 413
#     4  10  21  36  64  97 132 178 224 281 334 405
#     4   9  18  34  59  97 133 172 229 273 337 401
#
# _framework density 25.629835
#
# number of rings (size 3 to 8) (size 9 to 14) (size 15 to 20)
#    0.000    2.000    0.000    2.000   14.000    5.333 
#    0.000    0.000    0.000    6.000    0.000    0.000 
#    0.000    0.000    0.000    0.000    0.000    0.000 
#
# Total GULP energy -148848.069465 kJ/mol
# GULP energy per Si atom -12404.005789 kJ/mol
# Density = 2.557150 g / cm^3
# Si number density = 25.629835 Si / 1000 Ang^3
#
#
#
# Elastic Constant Matrix: (Units=GPa)
#
#
# Indices 1 2 3 4 5 6 
#
# 1 177.0675 60.8766 47.9964 -19.5383 24.0490 15.0582
# 2 60.8766 141.7640 53.0180 -30.5546 8.4983 9.6281
# 3 47.9964 53.0180 67.9639 -7.7545 0.7940 -3.7976
# 4 -19.5383 -30.5546 -7.7545 41.7766 1.0517 -0.2087
# 5 24.0490 8.4983 0.7940 1.0517 28.0042 -12.2550
# 6 15.0582 9.6281 -3.7976 -0.2087 -12.2550 61.1177
#
#
#
# Elastic Compliance Matrix: (Units=1/GPa)
#
#
# Indices 1 2 3 4 5 6 
#
# 1 0.009624 0.000039 -0.006572 0.003546 -0.010345 -0.004848
# 2 0.000039 0.012735 -0.009219 0.007742 -0.005534 -0.003672
# 3 -0.006572 -0.009219 0.026211 -0.005191 0.010899 0.006868
# 4 0.003546 0.007742 -0.005191 0.030478 -0.008116 -0.003939
# 5 -0.010345 -0.005534 0.010899 -0.008116 0.052671 0.014631
# 6 -0.004848 -0.003672 0.006868 -0.003939 0.014631 0.021482
#
#
# Mechanical properties :
#
#
# Convention : Reuss Voigt Hill
#
# Bulk Modulus (GPa) = 58.59982 78.95307 68.77644
# Shear Modulus (GPa) = 26.26122 41.17332 33.71727
#
# Velocity S-wave (km/s) = 3.20446 4.01242 3.63098
# Velocity P-wave (km/s) = 6.05021 7.23450 6.66870
#
# Compressibility (1/GPa) = 0.01706490
#
# Stress axis : x y z
#
# Youngs Moduli (GPa) = 103.90249 78.52499 38.15215
#
# Poissons Ratio (x) = -0.00304 0.25075
# Poissons Ratio (y) = -0.00402 0.35172
# Poissons Ratio (z) = 0.68290 0.72391
#
# Static dielectric constant tensor:
#      x y z
#    x 4.721810 -0.136970 -0.049120 
#    y -0.136970 4.950720 0.238690 
#    z -0.049120 0.238690 4.544230 
# 
# 
# High freq. dielectric constant tensor:
#      x y z
#    x 2.028180 0.001850 0.004020 
#    y 0.001850 2.029350 0.009150 
#    z 0.004020 0.009150 2.034280 
# 
# From -- ./inp_files/38315.got.cif
#   From: 2010.06.25/outbox.cif.g09.slc.cpg/sg2_20_cif.got.tgz:38315.got - 2010.06.27 13:26:56.
