data_PCOD8009079
_publ_section_title
;
Structure prediction by ZEFSAII (Michael W. Deem and Ramdas Pophale) SiO2 
 PCOD8009079
Probable space group: P -1
;
_chemical_formula_sum "Si O2"
_cell_formula_units_Z 16
_cell_length_a 12.405938
_cell_length_b 22.183830
_cell_length_c 11.999348
_cell_angle_alpha 25.812549
_cell_angle_beta 126.631053
_cell_angle_gamma 142.400848
_cell_volume 788.342986
_symmetry_space_group_name_H-M "P -1"
_symmetry_group_IT_number 2
_symmetry_cell_setting 'triclinic'
loop_
_space_group_symop_operation_xyz
x,y,z
-x,-y,-z
loop_
_atom_site_type_symbol
_atom_site_label
_atom_site_fract_x
_atom_site_fract_y
_atom_site_fract_z
Si Si1 0.504540 0.897986 0.274544
Si Si2 0.748960 0.729642 0.868247
Si Si3 0.858828 0.043285 0.142997
Si Si4 0.711103 0.375668 0.067187
Si Si5 0.917049 0.421852 0.919372
Si Si6 0.918866 0.383542 0.528234
Si Si7 0.680550 0.643828 0.712913
Si Si8 0.327613 0.013865 0.545804
O O1 0.279638 0.676508 0.519469
O O2 0.575621 0.003316 0.264416
O O3 0.666008 0.903487 0.337440
O O4 0.500000 0.000000 0.000000
O O5 0.765875 0.703782 0.791651
O O6 0.748982 0.894442 0.614172
O O7 0.939106 0.805274 0.916554
O O8 0.555931 0.514411 0.162605
O O9 0.801504 0.852865 0.368625
O O10 0.866250 0.179914 0.837608
O O11 0.491816 0.153990 0.318371
O O12 0.867618 0.399305 0.191754
O O13 0.763070 0.403657 0.921178
O O14 0.730836 0.545236 0.840611
O O15 0.922139 0.473320 0.708146
O O16 0.850035 0.210782 0.238225
O O17 0.000000 0.500000 0.500000
#
# Coordination Sequence:
#
# PCOD8009079 Si02
#       8
#     2   2   2   2   2   2   2   2
#     4  10  21  36  54  89 123 153 192 244 303 351
#     4  10  22  34  59  92 116 156 195 249 300 346
#     4  11  22  37  57  86 122 158 195 243 304 350
#     4  10  23  38  61  87 122 157 202 248 283 365
#     4  11  22  40  60  88 119 161 200 242 303 342
#     4  11  25  38  62  89 122 158 198 248 299 364
#     4  10  21  36  57  85 123 154 199 246 289 355
#     4  11  20  39  63  89 124 151 202 248 298 353
#
# _framework density 20.295732999999998
#
# number of rings (size 3 to 8) (size 9 to 14) (size 15 to 20)
#    0.000    1.500    2.500    3.000    5.250    0.000 
#    0.000    0.625    0.000    3.000    0.000    0.000 
#    0.000    0.000    0.000    0.000    0.000    0.000 
#
# Total GULP energy -198242.986207 kJ/mol
# GULP energy per Si atom -12390.186638 kJ/mol
# Density = 2.024954 g / cm^3
# Si number density = 20.295733 Si / 1000 Ang^3
#
#
#
# Elastic Constant Matrix: (Units=GPa)
#
#
# Indices 1 2 3 4 5 6 
#
# 1 106.3944 40.2398 43.4700 3.2682 -18.0895 -12.3991
# 2 40.2398 73.9678 19.7569 -6.2622 -10.9811 10.2031
# 3 43.4700 19.7569 120.1792 -8.6964 -3.1761 -9.2048
# 4 3.2682 -6.2622 -8.6964 27.2826 -4.8199 -4.2687
# 5 -18.0895 -10.9811 -3.1761 -4.8199 25.6595 0.3163
# 6 -12.3991 10.2031 -9.2048 -4.2687 0.3163 36.2643
#
#
#
# Elastic Compliance Matrix: (Units=1/GPa)
#
#
# Indices 1 2 3 4 5 6 
#
# 1 0.015914 -0.007648 -0.004046 -0.002775 0.006848 0.006180
# 2 -0.007648 0.019949 -0.000664 0.004769 0.004056 -0.007870
# 3 -0.004046 -0.000664 0.010270 0.003685 -0.001195 0.001855
# 4 -0.002775 0.004769 0.003685 0.041248 0.008247 0.003428
# 5 0.006848 0.004056 -0.001195 0.008247 0.046919 0.001458
# 6 0.006180 -0.007870 0.001855 0.003428 0.001458 0.032764
#
#
# Mechanical properties :
#
#
# Convention : Reuss Voigt Hill
#
# Bulk Modulus (GPa) = 46.68675 56.38608 51.53641
# Shear Modulus (GPa) = 25.13602 30.97960 28.05781
#
# Velocity S-wave (km/s) = 3.52303 3.91117 3.72216
# Velocity P-wave (km/s) = 6.29303 6.94542 6.62726
#
# Compressibility (1/GPa) = 0.02141936
#
# Stress axis : x y z
#
# Youngs Moduli (GPa) = 62.83736 50.12882 97.36685
#
# Poissons Ratio (x) = 0.38337 0.39390
# Poissons Ratio (y) = 0.48056 0.06463
# Poissons Ratio (z) = 0.25421 0.03327
#
# Static dielectric constant tensor:
#      x y z
#    x 3.856950 0.229730 -0.162940 
#    y 0.229730 3.632290 -0.268380 
#    z -0.162940 -0.268380 3.829910 
# 
# 
# High freq. dielectric constant tensor:
#      x y z
#    x 1.786970 0.017440 -0.007880 
#    y 0.017440 1.775370 -0.023850 
#    z -0.007880 -0.023850 1.795580 
# 
# From -- ./inp_files/438351.got.cif
#   From: 2010.06.25/outbox.cif.g09.slc.cpg/sg2_220_cif.got.tgz:438351.got - 2010.06.27 13:26:56.
