data_PCOD8009616
_publ_section_title
;
Structure prediction by ZEFSAII (Michael W. Deem and Ramdas Pophale) SiO2 
 PCOD8009616
Probable space group: P -1
;
_chemical_formula_sum "Si O2"
_cell_formula_units_Z 16
_cell_length_a 11.523270
_cell_length_b 8.913283
_cell_length_c 14.682014
_cell_angle_alpha 97.180841
_cell_angle_beta 33.114267
_cell_angle_gamma 113.330646
_cell_volume 689.259829
_symmetry_space_group_name_H-M "P -1"
_symmetry_group_IT_number 2
_symmetry_cell_setting 'triclinic'
loop_
_space_group_symop_operation_xyz
x,y,z
-x,-y,-z
loop_
_atom_site_type_symbol
_atom_site_label
_atom_site_fract_x
_atom_site_fract_y
_atom_site_fract_z
Si Si1 0.635168 0.362284 0.065054
Si Si2 0.981898 0.303761 0.708955
Si Si3 0.645945 0.249362 0.662899
Si Si4 0.918980 0.893088 0.238108
Si Si5 0.613488 0.314183 0.492895
Si Si6 0.036147 0.767388 0.833865
Si Si7 0.841522 0.630116 0.609918
Si Si8 0.747296 0.147979 0.105503
O O1 0.340953 0.297717 0.243641
O O2 0.659216 0.276949 0.136314
O O3 0.734589 0.304373 0.907008
O O4 0.786384 0.574695 0.999268
O O5 0.971311 0.125924 0.738798
O O6 0.226328 0.471697 0.610166
O O7 0.020383 0.316778 0.576526
O O8 0.520698 0.262934 0.653460
O O9 0.687439 0.414522 0.710594
O O10 0.922651 0.276852 0.468260
O O11 0.456592 0.052739 0.812492
O O12 0.617136 0.784444 0.432821
O O13 0.043190 0.098346 0.140462
O O14 0.987468 0.792951 0.110183
O O15 0.792973 0.239576 0.356235
O O16 0.214379 0.839385 0.811129
#
# Coordination Sequence:
#
# PCOD8009616 Si02
#       8
#     2   2   2   2   2   2   2   2
#     4  10  23  40  60  92 120 158 200 248 299 354
#     4   9  22  39  59  92 120 154 203 245 297 356
#     4  10  22  41  62  91 114 161 205 243 292 356
#     4  11  21  35  59  88 123 157 189 247 301 356
#     4  10  21  37  58  87 127 151 195 248 298 358
#     4  11  22  36  58  90 124 155 196 243 301 362
#     4  10  22  43  68  80 123 163 200 247 298 347
#     4  11  23  37  59  89 126 152 200 245 298 363
#
# _framework density 23.213307
#
# number of rings (size 3 to 8) (size 9 to 14) (size 15 to 20)
#    0.000    1.750    1.250    2.250    5.250    0.500 
#    0.000   13.750    0.000    0.000    0.000    0.000 
#    0.000    0.000    0.000    0.000    0.000    0.000 
#
# Total GULP energy -198292.253066 kJ/mol
# GULP energy per Si atom -12393.265817 kJ/mol
# Density = 2.316047 g / cm^3
# Si number density = 23.213307 Si / 1000 Ang^3
#
#
#
# Elastic Constant Matrix: (Units=GPa)
#
#
# Indices 1 2 3 4 5 6 
#
# 1 66.7148 36.0705 28.1585 0.7215 -8.8858 -21.0894
# 2 36.0705 80.3248 25.4162 -6.3112 -1.4360 -34.5101
# 3 28.1585 25.4162 88.8196 5.7507 -11.7812 -12.0195
# 4 0.7215 -6.3112 5.7507 25.7082 -9.5892 -2.7800
# 5 -8.8858 -1.4360 -11.7812 -9.5892 34.1929 4.8539
# 6 -21.0894 -34.5101 -12.0195 -2.7800 4.8539 38.9903
#
#
#
# Elastic Compliance Matrix: (Units=1/GPa)
#
#
# Indices 1 2 3 4 5 6 
#
# 1 0.022190 -0.006670 -0.004082 0.000468 0.003583 0.004428
# 2 -0.006670 0.025002 -0.003377 0.008268 -0.002131 0.018335
# 3 -0.004082 -0.003377 0.013901 -0.002868 0.002994 -0.001489
# 4 0.000468 0.008268 -0.002868 0.046725 0.011363 0.008604
# 5 0.003583 -0.002131 0.002994 0.011363 0.034665 -0.002530
# 6 0.004428 0.018335 -0.001489 0.008604 -0.002530 0.044741
#
#
# Mechanical properties :
#
#
# Convention : Reuss Voigt Hill
#
# Bulk Modulus (GPa) = 30.45492 46.12772 38.29132
# Shear Modulus (GPa) = 22.08230 29.52587 25.80409
#
# Velocity S-wave (km/s) = 3.08762 3.57029 3.33769
# Velocity P-wave (km/s) = 5.08521 6.07539 5.60222
#
# Compressibility (1/GPa) = 0.03283541
#
# Stress axis : x y z
#
# Youngs Moduli (GPa) = 45.06501 39.99685 71.93951
#
# Poissons Ratio (x) = 0.26677 0.29368
# Poissons Ratio (y) = 0.30057 0.24292
# Poissons Ratio (z) = 0.18397 0.13506
#
# Static dielectric constant tensor:
#      x y z
#    x 3.907810 -0.229680 -0.096470 
#    y -0.229680 4.147280 -0.081890 
#    z -0.096470 -0.081890 4.070520 
# 
# 
# High freq. dielectric constant tensor:
#      x y z
#    x 1.901590 -0.023890 -0.008000 
#    y -0.023890 1.911600 -0.005000 
#    z -0.008000 -0.005000 1.916770 
# 
# From -- ./inp_files/186559.got.cif
#   From: 2010.06.25/outbox.cif.g09.slc.cpg/sg2_94_cif.got.tgz:186559.got - 2010.06.27 13:26:56.
