data_PCOD8009837
_publ_section_title
;
Structure prediction by ZEFSAII (Michael W. Deem and Ramdas Pophale) SiO2 
 PCOD8009837
Probable space group: P -1
;
_chemical_formula_sum "Si O2"
_cell_formula_units_Z 12
_cell_length_a 12.218046
_cell_length_b 8.537044
_cell_length_c 19.878275
_cell_angle_alpha 148.433818
_cell_angle_beta 147.755671
_cell_angle_gamma 37.636908
_cell_volume 559.928830
_symmetry_space_group_name_H-M "P -1"
_symmetry_group_IT_number 2
_symmetry_cell_setting 'triclinic'
loop_
_space_group_symop_operation_xyz
x,y,z
-x,-y,-z
loop_
_atom_site_type_symbol
_atom_site_label
_atom_site_fract_x
_atom_site_fract_y
_atom_site_fract_z
Si Si1 0.366382 0.257584 0.828543
Si Si2 0.301016 0.330317 0.263554
Si Si3 0.549221 0.646899 0.416038
Si Si4 0.908001 0.629225 0.689564
Si Si5 0.064233 0.214766 0.980153
Si Si6 0.509844 0.091639 0.114883
O O1 0.143488 0.406987 0.731344
O O2 0.505507 0.981196 0.753645
O O3 0.310058 0.130130 0.826134
O O4 0.500000 0.500000 0.000000
O O5 0.383546 0.605114 0.372179
O O6 0.231649 0.410583 0.332978
O O7 0.086472 0.312001 0.104909
O O8 0.788869 0.537453 0.529397
O O9 0.525994 0.444463 0.263382
O O10 0.500000 0.000000 0.500000
O O11 0.907728 0.990791 0.814066
O O12 0.298881 0.026883 0.013100
O O13 0.000000 0.500000 0.000000
O O14 0.500000 0.000000 0.000000
#
# Coordination Sequence:
#
# PCOD8009837 Si02
#       6
#     2   2   2   2   2   2
#     4  10  21  39  62  98 131 160 227 268 313 400
#     4  10  23  39  63  97 127 172 219 264 329 392
#     4  10  23  45  64  97 135 169 220 276 328 397
#     4  12  21  40  70  90 130 176 213 277 336 372
#     4  10  21  37  61  94 127 170 222 258 318 404
#     4  10  23  42  63  92 133 171 212 275 323 385
#
# _framework density 21.431294999999999
#
# number of rings (size 3 to 8) (size 9 to 14) (size 15 to 20)
#    0.000    2.000    3.333    3.000    2.333    4.000 
#    0.000    0.833    0.000    0.000    0.000    0.000 
#    0.000    0.000    0.000    0.000    0.000    0.000 
#
# Total GULP energy -148691.470879 kJ/mol
# GULP energy per Si atom -12390.955907 kJ/mol
# Density = 2.138252 g / cm^3
# Si number density = 21.431295 Si / 1000 Ang^3
#
#
#
# Elastic Constant Matrix: (Units=GPa)
#
#
# Indices 1 2 3 4 5 6 
#
# 1 74.1706 37.2327 46.4654 8.9587 -9.4110 2.6305
# 2 37.2327 113.1223 35.9460 5.7912 -1.3576 9.0048
# 3 46.4654 35.9460 133.8530 5.4418 -2.8202 5.6535
# 4 8.9587 5.7912 5.4418 44.6296 11.7268 7.5039
# 5 -9.4110 -1.3576 -2.8202 11.7268 37.6898 0.9470
# 6 2.6305 9.0048 5.6535 7.5039 0.9470 23.7861
#
#
#
# Elastic Compliance Matrix: (Units=1/GPa)
#
#
# Indices 1 2 3 4 5 6 
#
# 1 0.020744 -0.004885 -0.005660 -0.004786 0.006015 0.002171
# 2 -0.004885 0.011058 -0.001169 0.000536 -0.000988 -0.003498
# 3 -0.005660 -0.001169 0.009768 0.000558 -0.000863 -0.001395
# 4 -0.004786 0.000536 0.000558 0.027022 -0.009342 -0.007959
# 5 0.006015 -0.000988 -0.000863 -0.009342 0.030800 0.001635
# 6 0.002171 -0.003498 -0.001395 -0.007959 0.001635 0.045903
#
#
# Mechanical properties :
#
#
# Convention : Reuss Voigt Hill
#
# Bulk Modulus (GPa) = 55.11648 62.27046 58.69347
# Shear Modulus (GPa) = 28.60900 34.65456 31.63178
#
# Velocity S-wave (km/s) = 3.65762 4.02557 3.84599
# Velocity P-wave (km/s) = 6.60387 7.12221 6.86793
#
# Compressibility (1/GPa) = 0.01814339
#
# Stress axis : x y z
#
# Youngs Moduli (GPa) = 48.20562 90.42924 102.38015
#
# Poissons Ratio (x) = 0.44174 0.57945
# Poissons Ratio (y) = 0.23548 0.11966
# Poissons Ratio (z) = 0.27283 0.10569
#
# Static dielectric constant tensor:
#      x y z
#    x 0.040160 -2.910770 2.915800 
#    y -2.910770 1.558600 2.213380 
#    z 2.915800 2.213380 1.878650 
# 
# 
# High freq. dielectric constant tensor:
#      x y z
#    x 1.813780 0.022100 0.005520 
#    y 0.022100 1.846240 -0.005710 
#    z 0.005520 -0.005710 1.853830 
# 
# From -- ./inp_files/151644.got.cif
#   From: 2010.06.25/outbox.cif.g09.slc.cpg/sg2_76_cif.got.tgz:151644.got - 2010.06.27 13:26:56.
