data_PCOD8009943
_publ_section_title
;
Structure prediction by ZEFSAII (Michael W. Deem and Ramdas Pophale) SiO2 
 PCOD8009943
Probable space group: P -1
;
_chemical_formula_sum "Si O2"
_cell_formula_units_Z 16
_cell_length_a 13.870660
_cell_length_b 13.871303
_cell_length_c 14.369292
_cell_angle_alpha 48.284819
_cell_angle_beta 48.288428
_cell_angle_gamma 21.556830
_cell_volume 747.295352
_symmetry_space_group_name_H-M "P -1"
_symmetry_group_IT_number 2
_symmetry_cell_setting 'triclinic'
loop_
_space_group_symop_operation_xyz
x,y,z
-x,-y,-z
loop_
_atom_site_type_symbol
_atom_site_label
_atom_site_fract_x
_atom_site_fract_y
_atom_site_fract_z
Si Si1 0.534198 0.533429 0.557651
Si Si2 0.821084 0.821223 0.840688
Si Si3 0.467478 0.466943 0.837161
Si Si4 0.881182 0.881960 0.570622
Si Si5 0.247593 0.247787 0.380666
Si Si6 0.672585 0.672657 0.044418
Si Si7 0.181340 0.181134 0.666425
Si Si8 0.024018 0.023381 0.864258
O O1 0.500000 0.500000 0.500000
O O2 0.479719 0.480121 0.709556
O O3 0.829504 0.329214 0.513678
O O4 0.331495 0.828051 0.513075
O O5 0.875375 0.875458 0.689580
O O6 0.084924 0.585187 0.882863
O O7 0.585267 0.085013 0.882764
O O8 0.744369 0.744865 0.901156
O O9 0.386863 0.386973 0.954706
O O10 0.747632 0.247627 0.845455
O O11 0.249252 0.746365 0.845590
O O12 0.807267 0.806697 0.628849
O O13 0.210478 0.210292 0.526237
O O14 0.044404 0.544030 0.309131
O O15 0.543796 0.044661 0.309086
O O16 0.102697 0.102613 0.759717
O O17 0.000000 0.000000 0.000000
#
# Coordination Sequence:
#
# PCOD8009943 Si02
#       8
#     2   2   2   2   2   2   2   2
#     4  12  25  40  65  96 132 168 203 254 313 378
#     4  10  21  39  61  88 127 161 203 262 300 366
#     4  12  24  44  67  91 127 168 210 256 310 379
#     4  12  23  38  61  95 124 157 209 253 311 369
#     4  10  21  37  63  85 113 155 193 254 306 363
#     4  10  22  40  62  88 121 170 210 245 312 362
#     4  10  21  40  59  85 117 150 199 250 315 358
#     4  12  27  44  66  92 126 167 211 262 310 373
#
# _framework density 21.410543000000001
#
# number of rings (size 3 to 8) (size 9 to 14) (size 15 to 20)
#    0.000    1.000    0.000    7.500    0.000    4.000 
#    0.000    0.000    0.000    0.000    0.000    0.000 
#    0.000    0.000    0.000    0.000    0.000    0.000 
#
# Total GULP energy -198471.723449 kJ/mol
# GULP energy per Si atom -12404.482716 kJ/mol
# Density = 2.136181 g / cm^3
# Si number density = 21.410543 Si / 1000 Ang^3
#
#
#
# Elastic Constant Matrix: (Units=GPa)
#
#
# Indices 1 2 3 4 5 6 
#
# 1 144.3886 69.5276 30.1250 -4.9327 -29.9060 1.4453
# 2 69.5276 198.3150 35.1984 -3.7823 -16.7892 -11.9110
# 3 30.1250 35.1984 64.6942 -1.5439 -8.4635 -0.9000
# 4 -4.9327 -3.7823 -1.5439 32.4461 2.9241 -1.4730
# 5 -29.9060 -16.7892 -8.4635 2.9241 47.8989 -2.0581
# 6 1.4453 -11.9110 -0.9000 -1.4730 -2.0581 35.3482
#
#
#
# Elastic Compliance Matrix: (Units=1/GPa)
#
#
# Indices 1 2 3 4 5 6 
#
# 1 0.009691 -0.002618 -0.002485 0.000587 0.004613 -0.001049
# 2 -0.002618 0.006532 -0.002251 0.000330 0.000335 0.002284
# 3 -0.002485 -0.002251 0.017947 0.000134 0.000816 -0.000147
# 4 0.000587 0.000330 0.000134 0.031134 -0.001339 0.001310
# 5 0.004613 0.000335 0.000816 -0.001339 0.024157 0.001296
# 6 -0.001049 0.002284 -0.000147 0.001310 0.001296 0.029229
#
#
# Mechanical properties :
#
#
# Convention : Reuss Voigt Hill
#
# Bulk Modulus (GPa) = 51.38455 75.23330 63.30893
# Shear Modulus (GPa) = 35.74357 41.30842 38.52600
#
# Velocity S-wave (km/s) = 4.09031 4.39720 4.24653
# Velocity P-wave (km/s) = 6.80876 7.80994 7.32647
#
# Compressibility (1/GPa) = 0.01946110
#
# Stress axis : x y z
#
# Youngs Moduli (GPa) = 103.19106 153.10142 55.71835
#
# Poissons Ratio (x) = 0.40076 0.13849
# Poissons Ratio (y) = 0.27012 0.12544
# Poissons Ratio (z) = 0.25648 0.34467
#
# Static dielectric constant tensor:
#      x y z
#    x 3.915600 -0.082240 -0.195930 
#    y -0.082240 4.377720 -0.032860 
#    z -0.195930 -0.032860 3.895580 
# 
# 
# High freq. dielectric constant tensor:
#      x y z
#    x 1.847940 -0.003020 -0.015200 
#    y -0.003020 1.864790 -0.002670 
#    z -0.015200 -0.002670 1.839660 
# 
# From -- ./inp_files/534255.got.cif
#   From: 2010.06.25/outbox.cif.g09.slc.cpg/sg2_268_cif.got.tgz:534255.got - 2010.06.27 13:26:56.
