data_PCOD8009549
_publ_section_title
;
Structure prediction by ZEFSAII (Michael W. Deem and Ramdas Pophale) SiO2 
 PCOD8009549
Probable space group: P -1
;
_chemical_formula_sum "Si O2"
_cell_formula_units_Z 12
_cell_length_a 7.206958
_cell_length_b 16.639002
_cell_length_c 6.220311
_cell_angle_alpha 58.883796
_cell_angle_beta 56.233973
_cell_angle_gamma 89.712910
_cell_volume 487.353488
_symmetry_space_group_name_H-M "P -1"
_symmetry_group_IT_number 2
_symmetry_cell_setting 'triclinic'
loop_
_space_group_symop_operation_xyz
x,y,z
-x,-y,-z
loop_
_atom_site_type_symbol
_atom_site_label
_atom_site_fract_x
_atom_site_fract_y
_atom_site_fract_z
Si Si1 0.071335 0.618982 0.803189
Si Si2 0.355234 0.938181 0.974257
Si Si3 0.557263 0.786197 0.125562
Si Si4 0.990962 0.744298 0.017262
Si Si5 0.527893 0.856039 0.529114
Si Si6 0.142306 0.247481 0.444433
O O1 0.323416 0.677582 0.430939
O O2 0.857987 0.650407 0.806344
O O3 0.075690 0.655480 0.998707
O O4 0.000000 0.500000 0.000000
O O5 0.494115 0.130308 0.115740
O O6 0.330622 0.019840 0.706171
O O7 0.094729 0.853260 0.325148
O O8 0.500000 0.000000 0.000000
O O9 0.580954 0.834114 0.280331
O O10 0.810927 0.771923 0.926232
O O11 0.838137 0.717137 0.368812
O O12 0.245603 0.838515 0.769350
O O13 0.624049 0.781796 0.715020
#
# Coordination Sequence:
#
# PCOD8009549 Si02
#       6
#     2   2   2   2   2   2
#     4  10  22  40  61  82 107 145 188 234 287 331
#     4   9  17  33  57  83 116 151 183 224 268 322
#     4   8  18  36  55  83 116 145 185 230 270 324
#     4  10  21  38  57  81 116 147 183 231 275 330
#     4   9  18  34  55  82 116 151 183 220 272 329
#     4  10  21  37  57  83 114 146 186 232 274 325
#
# _framework density 24.622782999999998
#
# number of rings (size 3 to 8) (size 9 to 14) (size 15 to 20)
#    0.000    2.667    0.000    1.500    0.000    5.333 
#    0.000   10.833    0.000    0.000    0.000    0.000 
#    0.000    0.000    0.000    0.000    0.000    0.000 
#
# Total GULP energy -148669.147525 kJ/mol
# GULP energy per Si atom -12389.095627 kJ/mol
# Density = 2.456674 g / cm^3
# Si number density = 24.622783 Si / 1000 Ang^3
#
#
#
# Elastic Constant Matrix: (Units=GPa)
#
#
# Indices 1 2 3 4 5 6 
#
# 1 133.4137 53.5019 44.7014 -14.2866 -1.3462 -38.7798
# 2 53.5019 170.3481 83.2691 -11.8647 -2.4612 -41.5951
# 3 44.7014 83.2691 100.1984 -22.0921 -1.2355 -34.6305
# 4 -14.2866 -11.8647 -22.0921 54.8937 -12.6421 -0.7150
# 5 -1.3462 -2.4612 -1.2355 -12.6421 30.0488 2.7605
# 6 -38.7798 -41.5951 -34.6305 -0.7150 2.7605 43.4170
#
#
#
# Elastic Compliance Matrix: (Units=1/GPa)
#
#
# Indices 1 2 3 4 5 6 
#
# 1 0.010743 -0.000848 -0.000641 0.002631 0.000733 0.008269
# 2 -0.000848 0.010514 -0.007379 -0.000915 -0.000180 0.003426
# 3 -0.000641 -0.007379 0.021308 0.007523 0.002552 0.009316
# 4 0.002631 -0.000915 0.007523 0.024088 0.009821 0.007246
# 5 0.000733 -0.000180 0.002552 0.009821 0.037507 0.000295
# 6 0.008269 0.003426 0.009316 0.007246 0.000295 0.041231
#
#
# Mechanical properties :
#
#
# Convention : Reuss Voigt Hill
#
# Bulk Modulus (GPa) = 40.27551 85.21168 62.74360
# Shear Modulus (GPa) = 29.17098 40.50443 34.83771
#
# Velocity S-wave (km/s) = 3.44570 4.06026 3.76554
# Velocity P-wave (km/s) = 5.67653 7.52748 6.66655
#
# Compressibility (1/GPa) = 0.02482898
#
# Stress axis : x y z
#
# Youngs Moduli (GPa) = 93.08468 95.11262 46.93004
#
# Poissons Ratio (x) = 0.08063 0.03010
# Poissons Ratio (y) = 0.07892 0.34630
# Poissons Ratio (z) = 0.05969 0.70184
#
# Static dielectric constant tensor:
#      x y z
#    x 5.373630 -0.100680 0.394530 
#    y -0.100680 4.848480 0.380220 
#    z 0.394530 0.380220 4.134970 
# 
# 
# High freq. dielectric constant tensor:
#      x y z
#    x 2.009670 0.006090 0.024850 
#    y 0.006090 2.014020 0.045360 
#    z 0.024850 0.045360 1.944760 
# 
# From -- ./inp_files/199194.got.cif
#   From: 2010.06.25/outbox.cif.g09.slc.cpg/sg2_100_cif.got.tgz:199194.got - 2010.06.27 13:26:56.
