data_PCOD8009744
_publ_section_title
;
Structure prediction by ZEFSAII (Michael W. Deem and Ramdas Pophale) SiO2 
 PCOD8009744
Probable space group: P -1
;
_chemical_formula_sum "Si O2"
_cell_formula_units_Z 14
_cell_length_a 6.381141
_cell_length_b 6.219658
_cell_length_c 19.116922
_cell_angle_alpha 59.692822
_cell_angle_beta 102.890069
_cell_angle_gamma 89.891215
_cell_volume 632.588021
_symmetry_space_group_name_H-M "P -1"
_symmetry_group_IT_number 2
_symmetry_cell_setting 'triclinic'
loop_
_space_group_symop_operation_xyz
x,y,z
-x,-y,-z
loop_
_atom_site_type_symbol
_atom_site_label
_atom_site_fract_x
_atom_site_fract_y
_atom_site_fract_z
Si Si1 0.262224 0.812084 0.118152
Si Si2 0.366426 0.259872 0.244539
Si Si3 0.110259 0.750677 0.964042
Si Si4 0.766049 0.093202 0.394650
Si Si5 0.974855 0.096204 0.690371
Si Si6 0.064143 0.389343 0.448726
Si Si7 0.629430 0.076795 0.162728
O O1 0.249770 0.544347 0.198582
O O2 0.493409 0.897631 0.138286
O O3 0.242411 0.788463 0.037515
O O4 0.069823 0.009649 0.102332
O O5 0.527257 0.184630 0.333319
O O6 0.487645 0.246396 0.181314
O O7 0.189422 0.071735 0.260118
O O8 0.276676 0.730232 0.914974
O O9 0.000000 0.500000 0.000000
O O10 0.848475 0.316231 0.407672
O O11 0.756022 0.855594 0.485972
O O12 0.940925 0.017070 0.359144
O O13 0.854040 0.383990 0.626899
O O14 0.178744 0.102804 0.755504
O O15 0.000000 0.500000 0.500000
#
# Coordination Sequence:
#
# PCOD8009744 Si02
#       7
#     2   2   2   2   2   2   2
#     4  11  24  40  63  91 122 161 203 249 310 366
#     4  11  24  40  62  93 124 161 205 251 303 362
#     4  11  25  44  64  90 122 158 204 255 305 365
#     4   9  20  38  61  88 123 161 201 249 302 356
#     4  10  21  37  60  89 124 160 202 251 298 356
#     4   9  18  38  62  87 121 162 202 247 299 354
#     4  11  23  41  63  89 123 161 201 252 304 361
#
# _framework density 22.131307
#
# number of rings (size 3 to 8) (size 9 to 14) (size 15 to 20)
#    0.000    1.714    0.000    3.857    0.000    9.714 
#    0.000    6.429    0.000    0.000    0.000    0.000 
#    0.000    0.000    0.000    0.000    0.000    0.000 
#
# Total GULP energy -173610.231517 kJ/mol
# GULP energy per Si atom -12400.730823 kJ/mol
# Density = 2.208094 g / cm^3
# Si number density = 22.131307 Si / 1000 Ang^3
#
#
#
# Elastic Constant Matrix: (Units=GPa)
#
#
# Indices 1 2 3 4 5 6 
#
# 1 93.3583 52.2922 62.6029 -9.3653 6.0778 19.4892
# 2 52.2922 141.7192 77.2832 -12.0297 9.8831 27.5727
# 3 62.6029 77.2832 127.0404 -16.7550 19.0618 15.4033
# 4 -9.3653 -12.0297 -16.7550 61.0228 7.1708 3.0651
# 5 6.0778 9.8831 19.0618 7.1708 34.0856 -1.7638
# 6 19.4892 27.5727 15.4033 3.0651 -1.7638 31.9426
#
#
#
# Elastic Compliance Matrix: (Units=1/GPa)
#
#
# Indices 1 2 3 4 5 6 
#
# 1 0.017535 -0.001435 -0.007057 0.000685 0.000777 -0.006080
# 2 -0.001435 0.012140 -0.005566 0.001087 -0.000746 -0.007065
# 3 -0.007057 -0.005566 0.016044 0.002975 -0.006689 0.000719
# 4 0.000685 0.001087 0.002975 0.018504 -0.006248 -0.004911
# 5 0.000777 -0.000746 -0.006689 -0.006248 0.034776 0.005914
# 6 -0.006080 -0.007065 0.000719 -0.004911 0.005914 0.041565
#
#
# Mechanical properties :
#
#
# Convention : Reuss Voigt Hill
#
# Bulk Modulus (GPa) = 56.81100 82.94160 69.87630
# Shear Modulus (GPa) = 28.64550 36.73951 32.69251
#
# Velocity S-wave (km/s) = 3.60160 4.07882 3.84761
# Velocity P-wave (km/s) = 6.55904 7.72921 7.16805
#
# Compressibility (1/GPa) = 0.01760222
#
# Stress axis : x y z
#
# Youngs Moduli (GPa) = 57.03041 82.37322 62.32908
#
# Poissons Ratio (x) = 0.11820 0.43985
# Poissons Ratio (y) = 0.08183 0.34693
# Poissons Ratio (z) = 0.40246 0.45850
#
# Static dielectric constant tensor:
#      x y z
#    x 3.671730 0.054630 0.132840 
#    y 0.054630 4.104830 -0.085150 
#    z 0.132840 -0.085150 4.515460 
# 
# 
# High freq. dielectric constant tensor:
#      x y z
#    x 1.840580 0.009920 0.008370 
#    y 0.009920 1.880680 0.005050 
#    z 0.008370 0.005050 1.898620 
# 
# From -- ./inp_files/6564.got.cif
#   From: 2010.06.25/outbox.cif.g09.slc.cpg/sg2_4_cif.got.tgz:6564.got - 2010.06.27 13:26:56.
