data_PCOD8009448
_publ_section_title
;
Structure prediction by ZEFSAII (Michael W. Deem and Ramdas Pophale) SiO2 
 PCOD8009448
Probable space group: P -1
;
_chemical_formula_sum "Si O2"
_cell_formula_units_Z 12
_cell_length_a 11.908502
_cell_length_b 9.235861
_cell_length_c 9.729068
_cell_angle_alpha 65.630121
_cell_angle_beta 147.195170
_cell_angle_gamma 116.432131
_cell_volume 517.493587
_symmetry_space_group_name_H-M "P -1"
_symmetry_group_IT_number 2
_symmetry_cell_setting 'triclinic'
loop_
_space_group_symop_operation_xyz
x,y,z
-x,-y,-z
loop_
_atom_site_type_symbol
_atom_site_label
_atom_site_fract_x
_atom_site_fract_y
_atom_site_fract_z
Si Si1 0.004195 0.688208 0.934216
Si Si2 0.037536 0.191602 0.454920
Si Si3 0.313971 0.281969 0.178733
Si Si4 0.222733 0.937512 0.255154
Si Si5 0.918310 0.284773 0.580763
Si Si6 0.360961 0.477642 0.732053
O O1 0.036106 0.758974 0.787259
O O2 0.785836 0.703414 0.779607
O O3 0.204522 0.791354 0.182864
O O4 0.000000 0.500000 0.000000
O O5 0.282815 0.287460 0.688031
O O6 0.903585 0.249491 0.417601
O O7 0.000000 0.000000 0.500000
O O8 0.515924 0.425454 0.307901
O O9 0.392970 0.105094 0.328603
O O10 0.150686 0.291242 0.882134
O O11 0.248596 0.862417 0.461593
O O12 0.000000 0.000000 0.000000
O O13 0.851272 0.455155 0.477725
O O14 0.500000 0.500000 0.000000
#
# Coordination Sequence:
#
# PCOD8009448 Si02
#       6
#     2   2   2   2   2   2
#     4  10  21  36  64  93 126 165 200 261 330 364
#     4  12  23  41  67  96 130 164 207 269 328 369
#     4  10  21  43  65  90 126 164 218 256 309 389
#     4   8  17  38  65  88 119 168 207 250 311 381
#     4  10  21  42  68  90 127 173 211 253 317 383
#     4  12  26  39  67  93 123 174 221 254 305 380
#
# _framework density 23.188694000000002
#
# number of rings (size 3 to 8) (size 9 to 14) (size 15 to 20)
#    0.000    2.000    1.667    5.500    2.333    1.333 
#    0.000    2.500    0.000    0.000    0.000    0.000 
#    0.000    0.000    0.000    0.000    0.000    0.000 
#
# Total GULP energy -148698.290394 kJ/mol
# GULP energy per Si atom -12391.524199 kJ/mol
# Density = 2.313592 g / cm^3
# Si number density = 23.188694 Si / 1000 Ang^3
#
#
#
# Elastic Constant Matrix: (Units=GPa)
#
#
# Indices 1 2 3 4 5 6 
#
# 1 148.8957 68.6351 38.9918 9.5790 -40.8320 15.7954
# 2 68.6351 238.2841 47.8680 3.2891 -11.3222 28.7191
# 3 38.9918 47.8680 57.6784 -5.0111 -33.2359 8.1393
# 4 9.5790 3.2891 -5.0111 37.7344 3.9825 5.9037
# 5 -40.8320 -11.3222 -33.2359 3.9825 41.0628 0.5553
# 6 15.7954 28.7191 8.1393 5.9037 0.5553 42.5044
#
#
#
# Elastic Compliance Matrix: (Units=1/GPa)
#
#
# Indices 1 2 3 4 5 6 
#
# 1 0.011347 -0.002683 0.001664 -0.003340 0.012247 -0.002419
# 2 -0.002683 0.006254 -0.006813 0.000204 -0.006453 -0.001868
# 3 0.001664 -0.006813 0.042300 0.003001 0.033790 -0.004973
# 4 -0.003340 0.000204 0.003001 0.028638 -0.003567 -0.003403
# 5 0.012247 -0.006453 0.033790 -0.003567 0.062541 -0.006983
# 6 -0.002419 -0.001868 -0.004973 -0.003403 -0.006983 0.027204
#
#
# Mechanical properties :
#
#
# Convention : Reuss Voigt Hill
#
# Bulk Modulus (GPa) = 22.60583 83.98311 53.29447
# Shear Modulus (GPa) = 23.95840 43.55122 33.75481
#
# Velocity S-wave (km/s) = 3.21782 4.33843 3.81945
# Velocity P-wave (km/s) = 4.85547 7.83530 6.51796
#
# Compressibility (1/GPa) = 0.04423639
#
# Stress axis : x y z
#
# Youngs Moduli (GPa) = 88.12789 159.89944 23.64068
#
# Poissons Ratio (x) = 0.42904 -0.03934
# Poissons Ratio (y) = 0.23647 0.16107
# Poissons Ratio (z) = -0.14666 1.08945
#
# Static dielectric constant tensor:
#      x y z
#    x 4.510530 0.434480 -0.046410 
#    y 0.434480 5.230000 -0.132470 
#    z -0.046410 -0.132470 4.044430 
# 
# 
# High freq. dielectric constant tensor:
#      x y z
#    x 1.922670 0.022300 -0.015860 
#    y 0.022300 1.942860 -0.013740 
#    z -0.015860 -0.013740 1.892140 
# 
# From -- ./inp_files/238072.got.cif
#   From: 2010.06.25/outbox.cif.g09.slc.cpg/sg2_120_cif.got.tgz:238072.got - 2010.06.27 13:26:56.
