data_PCOD8009159
_publ_section_title
;
Structure prediction by ZEFSAII (Michael W. Deem and Ramdas Pophale) SiO2 
 PCOD8009159
Probable space group: P -1
;
_chemical_formula_sum "Si O2"
_cell_formula_units_Z 16
_cell_length_a 24.857144
_cell_length_b 5.144697
_cell_length_c 24.112233
_cell_angle_alpha 77.586868
_cell_angle_beta 163.004819
_cell_angle_gamma 108.094314
_cell_volume 818.498125
_symmetry_space_group_name_H-M "P -1"
_symmetry_group_IT_number 2
_symmetry_cell_setting 'triclinic'
loop_
_space_group_symop_operation_xyz
x,y,z
-x,-y,-z
loop_
_atom_site_type_symbol
_atom_site_label
_atom_site_fract_x
_atom_site_fract_y
_atom_site_fract_z
Si Si1 0.269910 0.903898 0.285001
Si Si2 0.555504 0.597829 0.988255
Si Si3 0.541733 0.363470 0.701752
Si Si4 0.192367 0.291934 0.280998
Si Si5 0.761977 0.477970 0.412285
Si Si6 0.443550 0.177921 0.738414
Si Si7 0.238969 0.746213 0.861111
Si Si8 0.771986 0.024727 0.884508
O O1 0.189594 0.604767 0.251597
O O2 0.179135 0.879985 0.135689
O O3 0.500000 0.000000 0.500000
O O4 0.226251 0.148864 0.264293
O O5 0.690955 0.436096 0.105083
O O6 0.691012 0.931241 0.106437
O O7 0.500000 0.500000 0.000000
O O8 0.347436 0.522604 0.754007
O O9 0.341650 0.287269 0.475260
O O10 0.503033 0.276616 0.730689
O O11 0.662112 0.196765 0.799631
O O12 0.656863 0.695662 0.794260
O O13 0.989328 0.107615 0.120106
O O14 0.690778 0.658042 0.377713
O O15 0.000405 0.612827 0.636561
O O16 0.692681 0.155019 0.380321
O O17 0.651510 0.252380 0.972539
#
# Coordination Sequence:
#
# PCOD8009159 Si02
#       8
#     2   2   2   2   2   2   2   2
#     4  12  21  41  63  80 116 150 178 228 286 345
#     4  10  21  36  57  91 123 150 192 238 278 333
#     4  12  24  41  59  86 115 145 189 241 284 331
#     4  12  24  40  60  86 113 147 185 229 284 345
#     4  10  21  39  60  84 114 157 195 231 285 334
#     4  10  23  39  59  83 114 149 195 242 278 333
#     4  10  21  38  60  84 117 158 194 231 283 336
#     4  12  25  39  61  86 113 147 186 229 288 347
#
# _framework density 19.547998
#
# number of rings (size 3 to 8) (size 9 to 14) (size 15 to 20)
#    0.000    1.000    2.500    4.500    0.000    3.000 
#    0.000    0.000    0.000    0.000    0.000    0.000 
#    0.000    0.000    0.000    0.000    0.000    0.000 
#
# Total GULP energy -198409.965249 kJ/mol
# GULP energy per Si atom -12400.622828 kJ/mol
# Density = 1.950351 g / cm^3
# Si number density = 19.547998 Si / 1000 Ang^3
#
#
#
# Elastic Constant Matrix: (Units=GPa)
#
#
# Indices 1 2 3 4 5 6 
#
# 1 616.0711 -259.5525 80.1476 -10.9721 8.4917 -428.1533
# 2 -259.5525 433.2032 66.6185 30.6057 11.0488 324.6118
# 3 80.1476 66.6185 190.3399 9.4006 19.8656 -5.7412
# 4 -10.9721 30.6057 9.4006 35.4229 0.1370 17.7668
# 5 8.4917 11.0488 19.8656 0.1370 28.5610 -5.5579
# 6 -428.1533 324.6118 -5.7412 17.7668 -5.5579 463.1739
#
#
#
# Elastic Compliance Matrix: (Units=1/GPa)
#
#
# Indices 1 2 3 4 5 6 
#
# 1 0.005291 -0.000413 -0.002029 -0.000063 0.001004 0.005169
# 2 -0.000413 0.005883 -0.001705 -0.002519 -0.001821 -0.004451
# 3 -0.002029 -0.001705 0.007119 -0.000724 -0.003804 -0.000611
# 4 -0.000063 -0.002519 -0.000724 0.030296 0.001459 0.000554
# 5 0.001004 -0.001821 -0.003804 0.001459 0.038557 0.002564
# 6 0.005169 -0.004451 -0.000611 0.000554 0.002564 0.010059
#
#
# Mechanical properties :
#
#
# Convention : Reuss Voigt Hill
#
# Bulk Modulus (GPa) = 100.00631 112.67128 106.33879
# Shear Modulus (GPa) = 45.94248 195.59160 120.76704
#
# Velocity S-wave (km/s) = 4.85319 10.01371 7.86854
# Velocity P-wave (km/s) = 9.09258 13.83700 11.70764
#
# Compressibility (1/GPa) = 0.00999937
#
# Stress axis : x y z
#
# Youngs Moduli (GPa) = 188.99876 169.98656 140.46187
#
# Poissons Ratio (x) = 0.07015 0.28504
# Poissons Ratio (y) = 0.07799 0.23949
# Poissons Ratio (z) = 0.38353 0.28983
#
# Static dielectric constant tensor:
#      x y z
#    x 3.474790 -0.190470 -0.020040 
#    y -0.190470 3.909980 0.036980 
#    z -0.020040 0.036980 3.795460 
# 
# 
# High freq. dielectric constant tensor:
#      x y z
#    x 1.758720 -0.012900 0.001440 
#    y -0.012900 1.782560 0.001160 
#    z 0.001440 0.001160 1.779660 
# 
# From -- ./inp_files/600778.got.cif
#   From: 2010.06.25/outbox.cif.g09.slc.cpg/sg2_301_cif.got.tgz:600778.got - 2010.06.27 13:26:56.
