data_PCOD8009003
_publ_section_title
;
Structure prediction by ZEFSAII (Michael W. Deem and Ramdas Pophale) SiO2 
 PCOD8009003
Probable space group: P -1
;
_chemical_formula_sum "Si O2"
_cell_formula_units_Z 16
_cell_length_a 9.462369
_cell_length_b 21.084240
_cell_length_c 21.030775
_cell_angle_alpha 18.624379
_cell_angle_beta 33.672610
_cell_angle_gamma 40.187443
_cell_volume 735.681194
_symmetry_space_group_name_H-M "P -1"
_symmetry_group_IT_number 2
_symmetry_cell_setting 'triclinic'
loop_
_space_group_symop_operation_xyz
x,y,z
-x,-y,-z
loop_
_atom_site_type_symbol
_atom_site_label
_atom_site_fract_x
_atom_site_fract_y
_atom_site_fract_z
Si Si1 0.853512 0.379427 0.991776
Si Si2 0.804315 0.073494 0.645640
Si Si3 0.103858 0.300913 0.095229
Si Si4 0.288237 0.759730 0.338648
Si Si5 0.170491 0.294988 0.846463
Si Si6 0.309033 0.205778 0.378574
Si Si7 0.185528 0.073928 0.688392
Si Si8 0.314359 0.727281 0.623202
O O1 0.593719 0.222235 0.227891
O O2 0.917636 0.402453 0.019961
O O3 0.808576 0.583660 0.779185
O O4 0.094620 0.293065 0.951322
O O5 0.710994 0.133546 0.693417
O O6 0.733395 0.238983 0.465829
O O7 0.112915 0.060081 0.546712
O O8 0.718271 0.852629 0.857328
O O9 0.915689 0.198404 0.319169
O O10 0.304957 0.488891 0.866655
O O11 0.222145 0.519440 0.589093
O O12 0.577121 0.816677 0.148732
O O13 0.078652 0.827275 0.305180
O O14 0.918555 0.162394 0.034270
O O15 0.319238 0.123614 0.523567
O O16 0.398961 0.157997 0.579989
#
# Coordination Sequence:
#
# PCOD8009003 Si02
#       8
#     2   2   2   2   2   2   2   2
#     4  11  19  37  63  95 124 162 195 261 311 366
#     4  11  22  41  61  88 125 165 204 255 304 371
#     4  11  23  37  61  87 131 172 197 246 314 371
#     4  10  23  44  63  94 120 158 217 261 303 365
#     4  11  22  38  69  91 122 163 205 261 317 350
#     4  10  21  35  62  95 129 149 206 254 312 372
#     4  11  22  39  62  94 125 158 205 260 304 368
#     4  11  24  41  57  92 130 165 208 245 305 378
#
# _framework density 21.748550000000002
#
# number of rings (size 3 to 8) (size 9 to 14) (size 15 to 20)
#    0.000    1.250    5.000    2.250    1.750    2.000 
#    0.000    0.625    0.000    9.000    0.000    0.000 
#    0.000    0.000    0.000    0.000    0.000    0.000 
#
# Total GULP energy -198210.701057 kJ/mol
# GULP energy per Si atom -12388.168816 kJ/mol
# Density = 2.169905 g / cm^3
# Si number density = 21.748550 Si / 1000 Ang^3
#
#
#
# Elastic Constant Matrix: (Units=GPa)
#
#
# Indices 1 2 3 4 5 6 
#
# 1 73.6851 23.9384 4.7015 14.3384 -4.8265 4.7156
# 2 23.9384 122.4522 39.3802 6.6922 -4.1098 -2.3558
# 3 4.7015 39.3802 80.3745 7.7911 -19.2769 1.5141
# 4 14.3384 6.6922 7.7911 33.3766 -0.8533 -2.8107
# 5 -4.8265 -4.1098 -19.2769 -0.8533 25.6216 -2.8853
# 6 4.7156 -2.3558 1.5141 -2.8107 -2.8853 17.1750
#
#
#
# Elastic Compliance Matrix: (Units=1/GPa)
#
#
# Indices 1 2 3 4 5 6 
#
# 1 0.016646 -0.003644 0.002482 -0.007408 0.003506 -0.005912
# 2 -0.003644 0.010670 -0.005895 0.000944 -0.003084 0.002620
# 3 0.002482 -0.005895 0.018814 -0.004066 0.013365 -0.001569
# 4 -0.007408 0.000944 -0.004066 0.034501 -0.002278 0.007785
# 5 0.003506 -0.003084 0.013365 -0.002278 0.049786 0.005427
# 6 -0.005912 0.002620 -0.001569 0.007785 0.005427 0.062531
#
#
# Mechanical properties :
#
#
# Convention : Reuss Voigt Hill
#
# Bulk Modulus (GPa) = 31.23386 45.83912 38.53649
# Shear Modulus (GPa) = 22.96381 29.13411 26.04896
#
# Velocity S-wave (km/s) = 3.25295 3.66401 3.46458
# Velocity P-wave (km/s) = 5.33868 6.24680 5.81051
#
# Compressibility (1/GPa) = 0.03201654
#
# Stress axis : x y z
#
# Youngs Moduli (GPa) = 60.07389 93.72146 53.15159
#
# Poissons Ratio (x) = 0.34148 -0.13191
# Poissons Ratio (y) = 0.21888 0.31334
# Poissons Ratio (z) = -0.14909 0.55250
#
# Static dielectric constant tensor:
#      x y z
#    x 3.662420 -0.064970 -0.114580 
#    y -0.064970 3.882660 -0.046900 
#    z -0.114580 -0.046900 4.369470 
# 
# 
# High freq. dielectric constant tensor:
#      x y z
#    x 1.823700 -0.005360 0.001080 
#    y -0.005360 1.843510 -0.015430 
#    z 0.001080 -0.015430 1.881740 
# 
# From -- ./inp_files/591588.got.cif
#   From: 2010.06.25/outbox.cif.g09.slc.cpg/sg2_296_cif.got.tgz:591588.got - 2010.06.27 13:26:56.
