data_PCOD8009322
_publ_section_title
;
Structure prediction by ZEFSAII (Michael W. Deem and Ramdas Pophale) SiO2 
 PCOD8009322
Probable space group: P -1
;
_chemical_formula_sum "Si O2"
_cell_formula_units_Z 16
_cell_length_a 15.082165
_cell_length_b 10.041854
_cell_length_c 11.630645
_cell_angle_alpha 49.548476
_cell_angle_beta 110.347546
_cell_angle_gamma 142.273973
_cell_volume 766.654692
_symmetry_space_group_name_H-M "P -1"
_symmetry_group_IT_number 2
_symmetry_cell_setting 'triclinic'
loop_
_space_group_symop_operation_xyz
x,y,z
-x,-y,-z
loop_
_atom_site_type_symbol
_atom_site_label
_atom_site_fract_x
_atom_site_fract_y
_atom_site_fract_z
Si Si1 0.019314 0.819480 0.104102
Si Si2 0.794156 0.827176 0.402943
Si Si3 0.598388 0.237720 0.584777
Si Si4 0.138845 0.844471 0.354149
Si Si5 0.138142 0.800534 0.951876
Si Si6 0.121141 0.133181 0.344992
Si Si7 0.657574 0.217442 0.877076
Si Si8 0.717038 0.237654 0.418256
O O1 0.862513 0.501612 0.258026
O O2 0.155398 0.927522 0.181884
O O3 0.063285 0.830428 0.989036
O O4 0.000000 0.000000 0.000000
O O5 0.636126 0.492677 0.490547
O O6 0.812593 0.896179 0.507581
O O7 0.778043 0.977098 0.238352
O O8 0.942621 0.923180 0.392737
O O9 0.628231 0.174525 0.750945
O O10 0.707558 0.347207 0.464854
O O11 0.423282 0.952945 0.626528
O O12 0.283036 0.958693 0.415730
O O13 0.000000 0.500000 0.500000
O O14 0.119759 0.010191 0.302894
O O15 0.262889 0.853444 0.031451
O O16 0.000000 0.500000 0.000000
O O17 0.227998 0.463252 0.203527
O O18 0.500000 0.000000 0.000000
#
# Coordination Sequence:
#
# PCOD8009322 Si02
#       8
#     2   2   2   2   2   2   2   2
#     4  11  24  40  67  99 132 171 221 277 330 393
#     4  10  21  38  63  87 127 161 221 260 321 384
#     4  10  22  42  62  92 127 175 217 268 334 392
#     4  10  21  36  61  87 120 158 220 263 319 375
#     4  12  25  40  67  97 132 172 221 271 328 393
#     4  10  21  39  63  91 121 174 213 272 316 393
#     4  11  26  43  65  96 139 175 216 274 340 393
#     4  10  22  39  66  89 128 170 221 272 325 392
#
# _framework density 20.869890000000002
#
# number of rings (size 3 to 8) (size 9 to 14) (size 15 to 20)
#    0.000    1.500    1.250    3.750    5.250    1.000 
#    0.000    2.500    0.000    6.000    0.000    0.000 
#    0.000    0.000    0.000    0.000    0.000    0.000 
#
# Total GULP energy -198213.539626 kJ/mol
# GULP energy per Si atom -12388.346227 kJ/mol
# Density = 2.082239 g / cm^3
# Si number density = 20.869890 Si / 1000 Ang^3
#
#
#
# Elastic Constant Matrix: (Units=GPa)
#
#
# Indices 1 2 3 4 5 6 
#
# 1 68.4488 23.0530 20.9399 -2.6204 11.2363 -1.4683
# 2 23.0530 99.3486 34.4686 7.3862 9.7000 -6.3504
# 3 20.9399 34.4686 125.3161 12.0146 21.9803 7.0715
# 4 -2.6204 7.3862 12.0146 23.4513 6.2847 2.8079
# 5 11.2363 9.7000 21.9803 6.2847 40.7322 1.7614
# 6 -1.4683 -6.3504 7.0715 2.8079 1.7614 27.8431
#
#
#
# Elastic Compliance Matrix: (Units=1/GPa)
#
#
# Indices 1 2 3 4 5 6 
#
# 1 0.017071 -0.003321 -0.001767 0.004816 -0.003723 0.000341
# 2 -0.003321 0.012259 -0.002673 -0.003240 -0.000218 0.003640
# 3 -0.001767 -0.002673 0.010126 -0.003220 -0.003726 -0.002714
# 4 0.004816 -0.003240 -0.003220 0.047962 -0.006041 -0.004122
# 5 -0.003723 -0.000218 -0.003726 -0.006041 0.028594 -0.000499
# 6 0.000341 0.003640 -0.002714 -0.004122 -0.000499 0.037901
#
#
# Mechanical properties :
#
#
# Convention : Reuss Voigt Hill
#
# Bulk Modulus (GPa) = 41.78377 50.00407 45.89392
# Shear Modulus (GPa) = 28.18292 32.71544 30.44918
#
# Velocity S-wave (km/s) = 3.67878 3.96358 3.82383
# Velocity P-wave (km/s) = 6.17326 6.70511 6.44467
#
# Compressibility (1/GPa) = 0.02393274
#
# Stress axis : x y z
#
# Youngs Moduli (GPa) = 58.57791 81.57597 98.75766
#
# Poissons Ratio (x) = 0.27090 0.17452
# Poissons Ratio (y) = 0.19453 0.26402
# Poissons Ratio (z) = 0.10352 0.21808
#
# Static dielectric constant tensor:
#      x y z
#    x 2.764770 -0.155580 0.289190 
#    y -0.155580 3.947460 0.402480 
#    z 0.289190 0.402480 3.933430 
# 
# 
# High freq. dielectric constant tensor:
#      x y z
#    x 1.803460 -0.006440 0.012370 
#    y -0.006440 1.832670 0.019010 
#    z 0.012370 0.019010 1.823600 
# 
# From -- ./inp_files/227726.got.cif
#   From: 2010.06.25/outbox.cif.g09.slc.cpg/sg2_114_cif.got.tgz:227726.got - 2010.06.27 13:26:56.
