data_PCOD8009706
_publ_section_title
;
Structure prediction by ZEFSAII (Michael W. Deem and Ramdas Pophale) SiO2 
 PCOD8009706
Probable space group: P -1
;
_chemical_formula_sum "Si O2"
_cell_formula_units_Z 16
_cell_length_a 9.005276
_cell_length_b 8.965224
_cell_length_c 15.293292
_cell_angle_alpha 57.895220
_cell_angle_beta 113.093517
_cell_angle_gamma 73.174504
_cell_volume 740.020587
_symmetry_space_group_name_H-M "P -1"
_symmetry_group_IT_number 2
_symmetry_cell_setting 'triclinic'
loop_
_space_group_symop_operation_xyz
x,y,z
-x,-y,-z
loop_
_atom_site_type_symbol
_atom_site_label
_atom_site_fract_x
_atom_site_fract_y
_atom_site_fract_z
Si Si1 0.301173 0.505082 0.139182
Si Si2 0.829481 0.699811 0.564279
Si Si3 0.191499 0.362405 0.654488
Si Si4 0.513999 0.526499 0.347222
Si Si5 0.895044 0.689759 0.777576
Si Si6 0.403747 0.807781 0.395554
Si Si7 0.746939 0.322958 0.100801
Si Si8 0.301514 0.958457 0.711519
O O1 0.373891 0.556550 0.225653
O O2 0.118724 0.494361 0.126294
O O3 0.482894 0.268016 0.206149
O O4 0.208296 0.710399 0.983439
O O5 0.783847 0.767675 0.633282
O O6 0.642822 0.712319 0.476573
O O7 0.059033 0.443957 0.689686
O O8 0.833341 0.880400 0.453238
O O9 0.322461 0.449567 0.661199
O O10 0.000000 0.500000 0.500000
O O11 0.338770 0.092887 0.748346
O O12 0.366921 0.715759 0.329092
O O13 0.633403 0.279612 0.497596
O O14 0.136828 0.584803 0.862121
O O15 0.762743 0.919736 0.732991
O O16 0.828119 0.097203 0.244664
O O17 0.500000 0.500000 0.000000
#
# Coordination Sequence:
#
# PCOD8009706 Si02
#       8
#     2   2   2   2   2   2   2   2
#     4  11  22  43  66  87 124 168 218 252 296 367
#     4  11  21  37  65  99 127 157 199 252 323 374
#     4  10  21  37  59  92 133 165 190 252 318 372
#     4  11  22  37  64  95 134 158 202 256 315 372
#     4  12  23  41  68  91 122 166 209 257 316 364
#     4  11  22  38  62  99 129 160 194 263 321 370
#     4  10  26  43  63  88 122 168 217 259 293 361
#     4  10  21  42  62  91 130 160 205 251 309 372
#
# _framework density 21.621019
#
# number of rings (size 3 to 8) (size 9 to 14) (size 15 to 20)
#    0.000    1.250    5.000    1.500    7.000    0.500 
#    0.000    1.250    2.750    0.000    0.000    0.000 
#    0.000    0.000    0.000    0.000    0.000    0.000 
#
# Total GULP energy -198256.661534 kJ/mol
# GULP energy per Si atom -12391.041346 kJ/mol
# Density = 2.157181 g / cm^3
# Si number density = 21.621019 Si / 1000 Ang^3
#
#
#
# Elastic Constant Matrix: (Units=GPa)
#
#
# Indices 1 2 3 4 5 6 
#
# 1 145.4447 43.4371 44.8721 11.7290 -13.5071 26.5533
# 2 43.4371 89.3129 31.2057 14.7730 -2.3035 5.9163
# 3 44.8721 31.2057 66.3929 20.9956 -19.9825 5.4579
# 4 11.7290 14.7730 20.9956 19.9984 0.5810 6.0713
# 5 -13.5071 -2.3035 -19.9825 0.5810 42.9064 1.1853
# 6 26.5533 5.9163 5.4579 6.0713 1.1853 35.1202
#
#
#
# Elastic Compliance Matrix: (Units=1/GPa)
#
#
# Indices 1 2 3 4 5 6 
#
# 1 0.010969 -0.003328 -0.006953 0.005637 0.000171 -0.007633
# 2 -0.003328 0.014872 -0.003685 -0.005600 -0.001934 0.001617
# 3 -0.006953 -0.003685 0.035851 -0.032934 0.014604 0.005507
# 4 0.005637 -0.005600 -0.032934 0.089858 -0.014715 -0.013238
# 5 0.000171 -0.001934 0.014604 -0.014715 0.030272 -0.000550
# 6 -0.007633 0.001617 0.005507 -0.013238 -0.000550 0.035423
#
#
# Mechanical properties :
#
#
# Convention : Reuss Voigt Hill
#
# Bulk Modulus (GPa) = 29.62110 60.02003 44.82057
# Shear Modulus (GPa) = 19.49843 31.71404 25.60624
#
# Velocity S-wave (km/s) = 3.00630 3.83406 3.44513
# Velocity P-wave (km/s) = 5.07744 6.88624 6.04982
#
# Compressibility (1/GPa) = 0.03375972
#
# Stress axis : x y z
#
# Youngs Moduli (GPa) = 91.16393 67.24081 27.89324
#
# Poissons Ratio (x) = 0.22376 0.19395
# Poissons Ratio (y) = 0.30337 0.10279
# Poissons Ratio (z) = 0.63390 0.24779
#
# Static dielectric constant tensor:
#      x y z
#    x 4.431160 -0.058190 -0.421510 
#    y -0.058190 4.400270 -0.095800 
#    z -0.421510 -0.095800 3.861610 
# 
# 
# High freq. dielectric constant tensor:
#      x y z
#    x 1.869310 0.001160 -0.016880 
#    y 0.001160 1.841480 0.011190 
#    z -0.016880 0.011190 1.815560 
# 
# From -- ./inp_files/494527.got.cif
#   From: 2010.06.25/outbox.cif.g09.slc.cpg/sg2_248_cif.got.tgz:494527.got - 2010.06.27 13:26:56.
