data_PCOD8009201
_publ_section_title
;
Structure prediction by ZEFSAII (Michael W. Deem and Ramdas Pophale) SiO2 
 PCOD8009201
Probable space group: P -1
;
_chemical_formula_sum "Si O2"
_cell_formula_units_Z 16
_cell_length_a 14.517455
_cell_length_b 11.752635
_cell_length_c 11.716925
_cell_angle_alpha 99.231039
_cell_angle_beta 114.613331
_cell_angle_gamma 136.786555
_cell_volume 829.704596
_symmetry_space_group_name_H-M "P -1"
_symmetry_group_IT_number 2
_symmetry_cell_setting 'triclinic'
loop_
_space_group_symop_operation_xyz
x,y,z
-x,-y,-z
loop_
_atom_site_type_symbol
_atom_site_label
_atom_site_fract_x
_atom_site_fract_y
_atom_site_fract_z
Si Si1 0.830883 0.144846 0.526476
Si Si2 0.298603 0.911017 0.786723
Si Si3 0.336499 0.794171 0.475703
Si Si4 0.026469 0.744377 0.818693
Si Si5 0.702908 0.351178 0.219426
Si Si6 0.573828 0.873874 0.759009
Si Si7 0.384306 0.237434 0.459604
Si Si8 0.847424 0.801512 0.787581
O O1 0.700192 0.017781 0.319612
O O2 0.834795 0.277837 0.599438
O O3 0.083355 0.365874 0.669959
O O4 0.714119 0.942157 0.521911
O O5 0.122291 0.795167 0.758012
O O6 0.232727 0.709764 0.705575
O O7 0.542934 0.168945 0.001623
O O8 0.492003 0.916925 0.682318
O O9 0.204390 0.550031 0.323414
O O10 0.500000 0.000000 0.500000
O O11 0.981103 0.834563 0.799833
O O12 0.180453 0.870762 0.026122
O O13 0.589776 0.320378 0.250948
O O14 0.560286 0.770424 0.632160
O O15 0.610600 0.520659 0.668752
O O16 0.200413 0.148039 0.322750
O O17 0.000000 0.000000 0.000000
#
# Coordination Sequence:
#
# PCOD8009201 Si02
#       8
#     2   2   2   2   2   2   2   2
#     4  12  22  38  61  92 133 159 187 251 310 359
#     4  10  21  36  58  90 125 165 199 238 292 371
#     4  12  22  35  56  94 130 156 191 246 311 364
#     4  11  22  39  63  87 116 164 207 246 300 354
#     4  10  21  36  60  89 127 166 200 229 295 377
#     4  11  21  38  60  92 118 156 204 243 290 366
#     4  11  25  41  64  95 117 155 211 255 302 356
#     4  11  23  44  67  85 114 162 213 257 299 352
#
# _framework density 19.283971000000001
#
# number of rings (size 3 to 8) (size 9 to 14) (size 15 to 20)
#    0.000    1.000    6.250    1.125    0.000    1.500 
#    2.250    0.625    0.000    2.250    0.000    0.000 
#    0.000    0.000    0.000    0.000    0.000    0.000 
#
# Total GULP energy -198352.903980 kJ/mol
# GULP energy per Si atom -12397.056499 kJ/mol
# Density = 1.924008 g / cm^3
# Si number density = 19.283971 Si / 1000 Ang^3
#
#
#
# Elastic Constant Matrix: (Units=GPa)
#
#
# Indices 1 2 3 4 5 6 
#
# 1 100.7924 51.9166 43.1713 0.6481 3.0509 -0.7137
# 2 51.9166 105.9857 59.6305 -1.7801 -5.1822 0.3550
# 3 43.1713 59.6305 123.3134 -0.9021 5.5627 0.8882
# 4 0.6481 -1.7801 -0.9021 16.0494 1.2412 4.5485
# 5 3.0509 -5.1822 5.5627 1.2412 31.2192 -4.0887
# 6 -0.7137 0.3550 0.8882 4.5485 -4.0887 28.0168
#
#
#
# Elastic Compliance Matrix: (Units=1/GPa)
#
#
# Indices 1 2 3 4 5 6 
#
# 1 0.013803 -0.005764 -0.001974 -0.001286 -0.001847 0.000426
# 2 -0.005764 0.015730 -0.005770 0.001261 0.004184 0.000243
# 3 -0.001974 -0.005770 0.011736 0.000581 -0.002994 -0.000881
# 4 -0.001286 0.001261 0.000581 0.066051 -0.003882 -0.011357
# 5 -0.001847 0.004184 -0.002994 -0.003882 0.034333 0.005636
# 6 0.000426 0.000243 -0.000881 -0.011357 0.005636 0.038395
#
#
# Mechanical properties :
#
#
# Convention : Reuss Voigt Hill
#
# Bulk Modulus (GPa) = 70.15933 71.05871 70.60902
# Shear Modulus (GPa) = 23.60548 26.74860 25.17704
#
# Velocity S-wave (km/s) = 3.50251 3.72841 3.61722
# Velocity P-wave (km/s) = 7.26759 7.44737 7.35803
#
# Compressibility (1/GPa) = 0.01425327
#
# Stress axis : x y z
#
# Youngs Moduli (GPa) = 72.44738 63.57319 85.20508
#
# Poissons Ratio (x) = 0.36643 0.16822
# Poissons Ratio (y) = 0.41758 0.49162
# Poissons Ratio (z) = 0.14303 0.36681
#
# Static dielectric constant tensor:
#      x y z
#    x 5.865240 0.083660 -0.260140 
#    y 0.083660 3.289300 -0.073980 
#    z -0.260140 -0.073980 3.741850 
# 
# 
# High freq. dielectric constant tensor:
#      x y z
#    x 1.753770 0.012200 0.012160 
#    y 0.012200 1.722900 -0.002070 
#    z 0.012160 -0.002070 1.768270 
# 
# From -- ./inp_files/273262.got.cif
#   From: 2010.06.25/outbox.cif.g09.slc.cpg/sg2_137_cif.got.tgz:273262.got - 2010.06.27 13:26:56.
