data_PCOD8009272
_publ_section_title
;
Structure prediction by ZEFSAII (Michael W. Deem and Ramdas Pophale) SiO2 
 PCOD8009272
Probable space group: P -1
;
_chemical_formula_sum "Si O2"
_cell_formula_units_Z 14
_cell_length_a 15.547290
_cell_length_b 13.257762
_cell_length_c 12.872799
_cell_angle_alpha 44.872905
_cell_angle_beta 153.192061
_cell_angle_gamma 141.916270
_cell_volume 737.941994
_symmetry_space_group_name_H-M "P -1"
_symmetry_group_IT_number 2
_symmetry_cell_setting 'triclinic'
loop_
_space_group_symop_operation_xyz
x,y,z
-x,-y,-z
loop_
_atom_site_type_symbol
_atom_site_label
_atom_site_fract_x
_atom_site_fract_y
_atom_site_fract_z
Si Si1 0.345374 0.859086 0.013613
Si Si2 0.452424 0.881172 0.439706
Si Si3 0.504330 0.681787 0.975352
Si Si4 0.268389 0.046845 0.504790
Si Si5 0.691472 0.443944 0.362308
Si Si6 0.840753 0.048494 0.067736
Si Si7 0.163617 0.705185 0.730691
O O1 0.199354 0.913323 0.885659
O O2 0.184797 0.707172 0.878430
O O3 0.508182 0.826701 0.286426
O O4 0.500000 0.000000 0.000000
O O5 0.665753 0.961190 0.537390
O O6 0.412113 0.705631 0.560767
O O7 0.500000 0.000000 0.500000
O O8 0.237818 0.859229 0.164642
O O9 0.582589 0.555644 0.188619
O O10 0.711343 0.855359 0.045463
O O11 0.349935 0.617394 0.755648
O O12 0.373555 0.702904 0.913151
O O13 0.097195 0.114035 0.278763
O O14 0.157762 0.865537 0.566317
O O15 0.949687 0.543203 0.584416
#
# Coordination Sequence:
#
# PCOD8009272 Si02
#       7
#     2   2   2   2   2   2   2
#     4   9  19  35  60  91 116 147 205 247 279 341
#     4  11  22  41  58  86 122 155 196 241 285 359
#     4  11  21  38  59  89 122 149 194 245 287 352
#     4  10  21  36  60  87 118 154 195 241 290 341
#     4  11  24  37  59  89 121 153 191 242 298 346
#     4  11  20  38  62  88 118 157 194 242 293 343
#     4  11  20  38  62  89 116 155 196 245 293 337
#
# _framework density 18.971681
#
# number of rings (size 3 to 8) (size 9 to 14) (size 15 to 20)
#    0.000    1.429    7.143    0.429    0.000    5.143 
#    0.000    2.857    0.000    5.143    0.000    0.000 
#    0.000    0.000    0.000    0.000    0.000    0.000 
#
# Total GULP energy -173605.358235 kJ/mol
# GULP energy per Si atom -12400.382731 kJ/mol
# Density = 1.892850 g / cm^3
# Si number density = 18.971681 Si / 1000 Ang^3
#
#
#
# Elastic Constant Matrix: (Units=GPa)
#
#
# Indices 1 2 3 4 5 6 
#
# 1 110.9885 9.2685 58.1804 1.5739 2.8600 -15.2872
# 2 9.2685 67.1441 35.4305 -3.2797 -10.3575 -0.7531
# 3 58.1804 35.4305 106.3723 -1.5091 11.9102 -6.4128
# 4 1.5739 -3.2797 -1.5091 35.4455 -2.1752 -0.6316
# 5 2.8600 -10.3575 11.9102 -2.1752 34.1394 -0.1980
# 6 -15.2872 -0.7531 -6.4128 -0.6316 -0.1980 25.6864
#
#
#
# Elastic Compliance Matrix: (Units=1/GPa)
#
#
# Indices 1 2 3 4 5 6 
#
# 1 0.014116 0.003127 -0.008701 -0.000423 0.002812 0.006332
# 2 0.003127 0.021262 -0.009847 0.002010 0.009753 0.000151
# 3 -0.008701 -0.009847 0.018350 -0.000294 -0.008684 -0.000960
# 4 -0.000423 0.002010 -0.000294 0.028571 0.002571 0.000457
# 5 0.002812 0.009753 -0.008684 0.002571 0.035209 0.000126
# 6 0.006332 0.000151 -0.000960 0.000457 0.000126 0.042476
#
#
# Mechanical properties :
#
#
# Convention : Reuss Voigt Hill
#
# Bulk Modulus (GPa) = 43.69481 54.47374 49.08428
# Shear Modulus (GPa) = 25.19476 31.16262 28.17869
#
# Velocity S-wave (km/s) = 3.64815 4.05728 3.85814
# Velocity P-wave (km/s) = 6.38960 7.12209 6.76577
#
# Compressibility (1/GPa) = 0.02288601
#
# Stress axis : x y z
#
# Youngs Moduli (GPa) = 70.84356 47.03254 54.49565
#
# Poissons Ratio (x) = -0.14707 0.47418
# Poissons Ratio (y) = -0.22153 0.53660
# Poissons Ratio (z) = 0.61642 0.46311
#
# Static dielectric constant tensor:
#      x y z
#    x 3.613770 -0.214190 -0.287890 
#    y -0.214190 3.425330 0.155300 
#    z -0.287890 0.155300 3.777820 
# 
# 
# High freq. dielectric constant tensor:
#      x y z
#    x 1.742440 -0.013130 -0.003410 
#    y -0.013130 1.712900 0.004990 
#    z -0.003410 0.004990 1.744990 
# 
# From -- ./inp_files/70245.got.cif
#   From: 2010.06.25/outbox.cif.g09.slc.cpg/sg2_36_cif.got.tgz:70245.got - 2010.06.27 13:26:56.
