data_PCOD8009999
_publ_section_title
;
Structure prediction by ZEFSAII (Michael W. Deem and Ramdas Pophale) SiO2 
 PCOD8009999
Probable space group: P -1
;
_chemical_formula_sum "Si O2"
_cell_formula_units_Z 16
_cell_length_a 15.248420
_cell_length_b 5.605241
_cell_length_c 23.363170
_cell_angle_alpha 92.901774
_cell_angle_beta 159.451375
_cell_angle_gamma 88.559967
_cell_volume 698.594525
_symmetry_space_group_name_H-M "P -1"
_symmetry_group_IT_number 2
_symmetry_cell_setting 'triclinic'
loop_
_space_group_symop_operation_xyz
x,y,z
-x,-y,-z
loop_
_atom_site_type_symbol
_atom_site_label
_atom_site_fract_x
_atom_site_fract_y
_atom_site_fract_z
Si Si1 0.020788 0.487634 0.349425
Si Si2 0.954853 0.200251 0.199575
Si Si3 0.466272 0.727923 0.331655
Si Si4 0.134986 0.848885 0.035318
Si Si5 0.294299 0.860071 0.454416
Si Si6 0.230891 0.504892 0.683860
Si Si7 0.754633 0.578639 0.716121
Si Si8 0.473727 0.977268 0.144718
O O1 0.892537 0.285036 0.226553
O O2 0.851005 0.516010 0.300744
O O3 0.303204 0.436572 0.538677
O O4 0.049599 0.728175 0.332705
O O5 0.070859 0.425277 0.234075
O O6 0.706269 0.069581 0.020308
O O7 0.182768 0.024451 0.339157
O O8 0.303559 0.679314 0.174353
O O9 0.313549 0.672823 0.297313
O O10 0.566614 0.000734 0.405781
O O11 0.314538 0.010502 0.105135
O O12 0.918309 0.718301 0.865452
O O13 0.000000 0.000000 0.000000
O O14 0.489724 0.692359 0.541511
O O15 0.376173 0.264777 0.757837
O O16 0.000000 0.500000 0.500000
O O17 0.374913 0.766900 0.768035
#
# Coordination Sequence:
#
# PCOD8009999 Si02
#       8
#     2   2   2   2   2   2   2   2
#     4  10  25  42  70  96 135 187 236 295 347 413
#     4  10  24  43  64 101 141 183 236 283 349 420
#     4  10  21  37  63  98 135 177 235 282 352 414
#     4  11  22  41  68 101 141 181 228 289 352 425
#     4  10  21  38  63  95 133 182 229 283 340 415
#     4  12  28  51  78 105 140 182 238 297 357 415
#     4  10  21  38  61  99 135 189 224 287 348 416
#     4  11  29  47  75 108 141 186 233 294 353 420
#
# _framework density 22.903126
#
# number of rings (size 3 to 8) (size 9 to 14) (size 15 to 20)
#    0.000    1.500    1.250    1.875    7.000    9.500 
#    0.000    0.000    0.000    0.000    0.000    0.000 
#    0.000    0.000    0.000    0.000    0.000    0.000 
#
# Total GULP energy -198247.865354 kJ/mol
# GULP energy per Si atom -12390.491585 kJ/mol
# Density = 2.285100 g / cm^3
# Si number density = 22.903126 Si / 1000 Ang^3
#
#
#
# Elastic Constant Matrix: (Units=GPa)
#
#
# Indices 1 2 3 4 5 6 
#
# 1 130.3013 31.7284 39.8388 5.0940 5.0319 -3.7108
# 2 31.7284 101.3640 34.8944 13.0318 11.4656 10.5838
# 3 39.8388 34.8944 125.2371 10.0540 -17.4845 4.7127
# 4 5.0940 13.0318 10.0540 28.0592 8.1071 4.6805
# 5 5.0319 11.4656 -17.4845 8.1071 37.2555 -2.7340
# 6 -3.7108 10.5838 4.7127 4.6805 -2.7340 28.1870
#
#
#
# Elastic Compliance Matrix: (Units=1/GPa)
#
#
# Indices 1 2 3 4 5 6 
#
# 1 0.009103 -0.001988 -0.002710 0.000408 -0.001820 0.002154
# 2 -0.001988 0.013005 -0.003361 -0.002190 -0.005181 -0.004722
# 3 -0.002710 -0.003361 0.011164 -0.004221 0.007593 0.000476
# 4 0.000408 -0.002190 -0.004221 0.042380 -0.011063 -0.006528
# 5 -0.001820 -0.005181 0.007593 -0.011063 0.035070 0.005675
# 6 0.002154 -0.004722 0.000476 -0.006528 0.005675 0.039089
#
#
# Mechanical properties :
#
#
# Convention : Reuss Voigt Hill
#
# Bulk Modulus (GPa) = 58.29192 63.31395 60.80294
# Shear Modulus (GPa) = 29.12958 35.39638 32.26298
#
# Velocity S-wave (km/s) = 3.57018 3.93553 3.75730
# Velocity P-wave (km/s) = 6.51933 6.95381 6.74007
#
# Compressibility (1/GPa) = 0.01715504
#
# Stress axis : x y z
#
# Youngs Moduli (GPa) = 109.85738 76.89081 89.57066
#
# Poissons Ratio (x) = 0.15285 0.24271
# Poissons Ratio (y) = 0.21839 0.30106
# Poissons Ratio (z) = 0.29768 0.25844
#
# Static dielectric constant tensor:
#      x y z
#    x 3.762970 0.041540 0.371220 
#    y 0.041540 4.357560 0.176940 
#    z 0.371220 0.176940 3.843490 
# 
# 
# High freq. dielectric constant tensor:
#      x y z
#    x 1.907620 0.009840 -0.015580 
#    y 0.009840 1.899330 0.007800 
#    z -0.015580 0.007800 1.914190 
# 
# From -- ./inp_files/72279.got.cif
#   From: 2010.06.25/outbox.cif.g09.slc.cpg/sg2_37_cif.got.tgz:72279.got - 2010.06.27 13:26:56.
