data_PCOD8009717
_publ_section_title
;
Structure prediction by ZEFSAII (Michael W. Deem and Ramdas Pophale) SiO2 
 PCOD8009717
Probable space group: P -1
;
_chemical_formula_sum "Si O2"
_cell_formula_units_Z 16
_cell_length_a 14.192444
_cell_length_b 13.436502
_cell_length_c 21.636977
_cell_angle_alpha 156.979811
_cell_angle_beta 29.717646
_cell_angle_gamma 147.502028
_cell_volume 778.908142
_symmetry_space_group_name_H-M "P -1"
_symmetry_group_IT_number 2
_symmetry_cell_setting 'triclinic'
loop_
_space_group_symop_operation_xyz
x,y,z
-x,-y,-z
loop_
_atom_site_type_symbol
_atom_site_label
_atom_site_fract_x
_atom_site_fract_y
_atom_site_fract_z
Si Si1 0.302824 0.534682 0.392437
Si Si2 0.579054 0.458298 0.998733
Si Si3 0.969012 0.288282 0.680289
Si Si4 0.033548 0.274705 0.768421
Si Si5 0.261507 0.464435 0.861937
Si Si6 0.803807 0.932299 0.222848
Si Si7 0.033754 0.330732 0.536303
Si Si8 0.813038 0.678617 0.791969
O O1 0.508877 0.470360 0.224927
O O2 0.225126 0.404557 0.427415
O O3 0.170558 0.400756 0.334304
O O4 0.312078 0.842940 0.567146
O O5 0.738524 0.283445 0.804575
O O6 0.500000 0.500000 0.000000
O O7 0.676893 0.736799 0.133701
O O8 0.401221 0.297312 0.050571
O O9 0.077761 0.437534 0.643082
O O10 0.056985 0.416507 0.768552
O O11 0.000000 0.000000 0.500000
O O12 0.207897 0.423930 0.797431
O O13 0.046371 0.977066 0.588242
O O14 0.823260 0.293936 0.926980
O O15 0.166707 0.209839 0.811233
O O16 0.018379 0.057418 0.143362
O O17 0.860816 0.446674 0.673281
#
# Coordination Sequence:
#
# PCOD8009717 Si02
#       8
#     2   2   2   2   2   2   2   2
#     4  11  22  38  63  96 126 162 213 261 326 371
#     4  12  24  42  67  96 124 171 214 259 317 376
#     4  10  21  41  64  84 127 173 208 256 319 378
#     4  10  21  37  60  85 120 170 212 256 318 372
#     4  11  21  36  61  91 121 166 210 258 319 376
#     4  11  23  39  65  96 133 159 204 275 315 375
#     4  10  21  38  60  86 124 165 211 261 311 376
#     4  11  22  40  66  99 127 162 210 265 320 375
#
# _framework density 20.541575000000002
#
# number of rings (size 3 to 8) (size 9 to 14) (size 15 to 20)
#    0.000    1.250    3.750    3.375    1.750    1.000 
#    0.000    5.625    0.000    0.000    0.000    0.000 
#    0.000    0.000    0.000    0.000    0.000    0.000 
#
# Total GULP energy -198319.162662 kJ/mol
# GULP energy per Si atom -12394.947666 kJ/mol
# Density = 2.049482 g / cm^3
# Si number density = 20.541575 Si / 1000 Ang^3
#
#
#
# Elastic Constant Matrix: (Units=GPa)
#
#
# Indices 1 2 3 4 5 6 
#
# 1 173.5344 42.2657 33.3615 -4.2398 19.4635 -19.4389
# 2 42.2657 93.5021 14.2316 -14.0606 9.0817 -8.6993
# 3 33.3615 14.2316 54.3676 -11.2514 0.2110 -0.4435
# 4 -4.2398 -14.0606 -11.2514 18.6056 -0.4017 7.0927
# 5 19.4635 9.0817 0.2110 -0.4017 37.6667 -2.8185
# 6 -19.4389 -8.6993 -0.4435 7.0927 -2.8185 32.4989
#
#
#
# Elastic Compliance Matrix: (Units=1/GPa)
#
#
# Indices 1 2 3 4 5 6 
#
# 1 0.008332 -0.003005 -0.005445 -0.005663 -0.003232 0.005061
# 2 -0.003005 0.013616 0.000342 0.009953 -0.001661 -0.000464
# 3 -0.005445 0.000342 0.025015 0.016574 0.002301 -0.006241
# 4 -0.005663 0.009953 0.016574 0.076561 -0.000037 -0.017209
# 5 -0.003232 -0.001661 0.002301 -0.000037 0.028617 0.000143
# 6 0.005061 -0.000464 -0.006241 -0.017209 0.000143 0.037356
#
#
# Mechanical properties :
#
#
# Convention : Reuss Voigt Hill
#
# Bulk Modulus (GPa) = 32.52187 55.68017 44.10102
# Shear Modulus (GPa) = 23.15236 33.19059 28.17148
#
# Velocity S-wave (km/s) = 3.36087 4.02403 3.70731
# Velocity P-wave (km/s) = 5.56122 6.98251 6.31199
#
# Compressibility (1/GPa) = 0.03074854
#
# Stress axis : x y z
#
# Youngs Moduli (GPa) = 120.01792 73.44366 39.97617
#
# Poissons Ratio (x) = 0.22066 0.21765
# Poissons Ratio (y) = 0.36060 -0.01367
# Poissons Ratio (z) = 0.65344 -0.02511
#
# Static dielectric constant tensor:
#      x y z
#    x 4.327680 -0.270930 0.168100 
#    y -0.270930 3.442810 -0.243440 
#    z 0.168100 -0.243440 3.918550 
# 
# 
# High freq. dielectric constant tensor:
#      x y z
#    x 1.825180 -0.013500 0.000300 
#    y -0.013500 1.770380 -0.019440 
#    z 0.000300 -0.019440 1.812370 
# 
# From -- ./inp_files/597209.got.cif
#   From: 2010.06.25/outbox.cif.g09.slc.cpg/sg2_299_cif.got.tgz:597209.got - 2010.06.27 13:26:56.
