data_PCOD8009573
_publ_section_title
;
Structure prediction by ZEFSAII (Michael W. Deem and Ramdas Pophale) SiO2 
 PCOD8009573
Probable space group: P -1
;
_chemical_formula_sum "Si O2"
_cell_formula_units_Z 16
_cell_length_a 5.426885
_cell_length_b 23.406740
_cell_length_c 16.277279
_cell_angle_alpha 23.198239
_cell_angle_beta 61.517907
_cell_angle_gamma 67.747042
_cell_volume 705.193452
_symmetry_space_group_name_H-M "P -1"
_symmetry_group_IT_number 2
_symmetry_cell_setting 'triclinic'
loop_
_space_group_symop_operation_xyz
x,y,z
-x,-y,-z
loop_
_atom_site_type_symbol
_atom_site_label
_atom_site_fract_x
_atom_site_fract_y
_atom_site_fract_z
Si Si1 0.539829 0.195191 0.497651
Si Si2 0.292142 0.608382 0.305388
Si Si3 0.033329 0.699066 0.559923
Si Si4 0.284020 0.181999 0.262862
Si Si5 0.146687 0.720337 0.024608
Si Si6 0.244704 0.575740 0.535422
Si Si7 0.913020 0.414324 0.044459
Si Si8 0.840930 0.958754 0.703841
O O1 0.202045 0.196425 0.557294
O O2 0.637071 0.293322 0.270613
O O3 0.729275 0.249070 0.476852
O O4 0.588815 0.028789 0.693211
O O5 0.289469 0.743844 0.062571
O O6 0.349484 0.662654 0.318960
O O7 0.517276 0.516583 0.353469
O O8 0.000000 0.500000 0.500000
O O9 0.202821 0.695080 0.452870
O O10 0.860533 0.534809 0.825896
O O11 0.235901 0.082187 0.322337
O O12 0.158904 0.332675 0.076874
O O13 0.628433 0.227620 0.154180
O O14 0.134503 0.083516 0.492664
O O15 0.042706 0.545485 0.266716
O O16 0.891646 0.814724 0.936660
O O17 0.000000 0.500000 0.000000
#
# Coordination Sequence:
#
# PCOD8009573 Si02
#       8
#     2   2   2   2   2   2   2   2
#     4  10  24  38  57  84 120 170 202 253 293 360
#     4   9  20  37  60  91 119 147 189 254 321 365
#     4  11  22  38  61  85 122 159 203 249 313 362
#     4  10  21  37  57  86 122 164 205 252 296 351
#     4  11  20  34  63  87 119 155 198 255 305 361
#     4  10  22  37  60  95 118 148 197 254 318 372
#     4   9  19  36  55  86 121 157 206 247 306 359
#     4  10  22  39  54  85 122 164 216 243 288 357
#
# _framework density 22.68881
#
# number of rings (size 3 to 8) (size 9 to 14) (size 15 to 20)
#    0.000    2.000    0.000    3.000    8.750    0.000 
#   15.750    0.000    0.000    1.500    0.000    0.000 
#    0.000    0.000    0.000    0.000    0.000    0.000 
#
# Total GULP energy -198271.605192 kJ/mol
# GULP energy per Si atom -12391.975324 kJ/mol
# Density = 2.263717 g / cm^3
# Si number density = 22.688810 Si / 1000 Ang^3
#
#
#
# Elastic Constant Matrix: (Units=GPa)
#
#
# Indices 1 2 3 4 5 6 
#
# 1 64.7532 30.7657 -3.6229 -3.7185 16.5824 -12.9943
# 2 30.7657 158.5249 18.8738 -13.1646 14.4504 -9.0820
# 3 -3.6229 18.8738 38.8855 -3.9842 11.9248 1.4786
# 4 -3.7185 -13.1646 -3.9842 32.0150 -2.8464 -0.0402
# 5 16.5824 14.4504 11.9248 -2.8464 34.8662 0.0712
# 6 -12.9943 -9.0820 1.4786 -0.0402 0.0712 29.7635
#
#
#
# Elastic Compliance Matrix: (Units=1/GPa)
#
#
# Indices 1 2 3 4 5 6 
#
# 1 0.022169 -0.003547 0.007079 0.000991 -0.011431 0.008273
# 2 -0.003547 0.007704 -0.003875 0.002275 0.000003 0.000998
# 3 0.007079 -0.003875 0.032342 0.002129 -0.012649 0.000335
# 4 0.000991 0.002275 0.002129 0.032598 0.000516 0.001064
# 5 -0.011431 0.000003 -0.012649 0.000516 0.038494 -0.004452
# 6 0.008273 0.000998 0.000335 0.001064 -0.004452 0.037510
#
#
# Mechanical properties :
#
#
# Convention : Reuss Voigt Hill
#
# Bulk Modulus (GPa) = 16.25267 39.35517 27.80392
# Shear Modulus (GPa) = 26.04006 33.73874 29.88940
#
# Velocity S-wave (km/s) = 3.39145 3.86037 3.63349
# Velocity P-wave (km/s) = 4.74498 6.10355 5.46663
#
# Compressibility (1/GPa) = 0.06152837
#
# Stress axis : x y z
#
# Youngs Moduli (GPa) = 45.10791 129.80697 30.91994
#
# Poissons Ratio (x) = 0.46043 -0.21890
# Poissons Ratio (y) = 0.16000 0.11983
# Poissons Ratio (z) = -0.31934 0.50306
#
# Static dielectric constant tensor:
#      x y z
#    x 3.351160 -0.341760 0.264460 
#    y -0.341760 3.783860 0.524020 
#    z 0.264460 0.524020 4.365110 
# 
# 
# High freq. dielectric constant tensor:
#      x y z
#    x 1.887620 -0.007420 0.007070 
#    y -0.007420 1.895550 0.002570 
#    z 0.007070 0.002570 1.868260 
# 
# From -- ./inp_files/97935.got.cif
#   From: 2010.06.25/outbox.cif.g09.slc.cpg/sg2_49_cif.got.tgz:97935.got - 2010.06.27 13:26:56.
