data_PCOD8009842
_publ_section_title
;
Structure prediction by ZEFSAII (Michael W. Deem and Ramdas Pophale) SiO2 
 PCOD8009842
Probable space group: P -1
;
_chemical_formula_sum "Si O2"
_cell_formula_units_Z 16
_cell_length_a 12.006155
_cell_length_b 9.921103
_cell_length_c 9.172166
_cell_angle_alpha 98.608864
_cell_angle_beta 55.463808
_cell_angle_gamma 121.277106
_cell_volume 752.787774
_symmetry_space_group_name_H-M "P -1"
_symmetry_group_IT_number 2
_symmetry_cell_setting 'triclinic'
loop_
_space_group_symop_operation_xyz
x,y,z
-x,-y,-z
loop_
_atom_site_type_symbol
_atom_site_label
_atom_site_fract_x
_atom_site_fract_y
_atom_site_fract_z
Si Si1 0.121349 0.512730 0.210584
Si Si2 0.126722 0.071253 0.548168
Si Si3 0.873386 0.006363 0.959564
Si Si4 0.234855 0.624641 0.465077
Si Si5 0.322256 0.424341 0.561997
Si Si6 0.630529 0.043118 0.689763
Si Si7 0.140381 0.275317 0.959469
Si Si8 0.308374 0.849836 0.013575
O O1 0.208912 0.561165 0.308690
O O2 0.933908 0.432284 0.348071
O O3 0.161185 0.386942 0.096694
O O4 0.178861 0.659341 0.076420
O O5 0.250354 0.264995 0.487094
O O6 0.021790 0.020016 0.763032
O O7 0.234169 0.994362 0.448628
O O8 0.000000 0.000000 0.500000
O O9 0.952268 0.144711 0.047208
O O10 0.758761 0.035942 0.951871
O O11 0.778079 0.826798 0.072040
O O12 0.323064 0.559199 0.484608
O O13 0.344417 0.819535 0.420071
O O14 0.500000 0.500000 0.500000
O O15 0.215316 0.382757 0.777993
O O16 0.448674 0.887183 0.798346
O O17 0.637623 0.114208 0.854654
#
# Coordination Sequence:
#
# PCOD8009842 Si02
#       8
#     2   2   2   2   2   2   2   2
#     4  10  21  40  69  98 123 170 228 271 330 398
#     4  11  22  41  72  95 127 180 225 269 330 405
#     4  10  21  39  64  92 128 172 221 272 324 404
#     4  10  23  41  69  95 131 173 224 279 323 402
#     4  11  27  44  61  97 142 173 215 280 339 393
#     4  10  22  39  62  98 129 163 222 281 332 385
#     4  10  23  40  63  92 129 173 220 264 332 403
#     4  10  21  37  61  96 131 162 212 282 334 385
#
# _framework density 21.25433
#
# number of rings (size 3 to 8) (size 9 to 14) (size 15 to 20)
#    0.000    1.750    1.250    2.250    8.750    2.000 
#    0.000    1.250    0.000    0.000    0.000    0.000 
#    0.000    0.000    0.000    0.000    0.000    0.000 
#
# Total GULP energy -198296.985285 kJ/mol
# GULP energy per Si atom -12393.561580 kJ/mol
# Density = 2.120595 g / cm^3
# Si number density = 21.254330 Si / 1000 Ang^3
#
#
#
# Elastic Constant Matrix: (Units=GPa)
#
#
# Indices 1 2 3 4 5 6 
#
# 1 116.2712 51.6875 47.9804 -19.1201 0.3760 -26.3971
# 2 51.6875 123.9729 57.8560 -16.6097 2.5360 -18.3779
# 3 47.9804 57.8560 83.1672 -11.3477 -10.5134 -7.1802
# 4 -19.1201 -16.6097 -11.3477 34.4683 -4.2889 5.2382
# 5 0.3760 2.5360 -10.5134 -4.2889 28.1006 -3.3918
# 6 -26.3971 -18.3779 -7.1802 5.2382 -3.3918 39.3302
#
#
#
# Elastic Compliance Matrix: (Units=1/GPa)
#
#
# Indices 1 2 3 4 5 6 
#
# 1 0.013959 -0.001424 -0.006037 0.003896 -0.000877 0.007007
# 2 -0.001424 0.013399 -0.008420 0.001955 -0.003657 0.003193
# 3 -0.006037 -0.008420 0.022447 0.001619 0.009085 -0.003320
# 4 0.003896 0.001955 0.001619 0.033349 0.005449 -0.000148
# 5 -0.000877 -0.003657 0.009085 0.005449 0.040415 0.002121
# 6 0.007007 0.003193 -0.003320 -0.000148 0.002121 0.031217
#
#
# Mechanical properties :
#
#
# Convention : Reuss Voigt Hill
#
# Bulk Modulus (GPa) = 55.42053 70.93990 63.18021
# Shear Modulus (GPa) = 25.96577 31.43896 28.70236
#
# Velocity S-wave (km/s) = 3.49903 3.85018 3.67880
# Velocity P-wave (km/s) = 6.51581 7.29482 6.91629
#
# Compressibility (1/GPa) = 0.01804386
#
# Stress axis : x y z
#
# Youngs Moduli (GPa) = 71.63825 74.63085 44.54997
#
# Poissons Ratio (x) = 0.10627 0.26894
# Poissons Ratio (y) = 0.10201 0.37510
# Poissons Ratio (z) = 0.43247 0.62837
#
# Static dielectric constant tensor:
#      x y z
#    x 3.794220 0.020720 0.033090 
#    y 0.020720 4.283500 -0.313120 
#    z 0.033090 -0.313120 3.992630 
# 
# 
# High freq. dielectric constant tensor:
#      x y z
#    x 1.820830 -0.008220 0.007170 
#    y -0.008220 1.842850 -0.012910 
#    z 0.007170 -0.012910 1.831800 
# 
# From -- ./inp_files/244443.got.cif
#   From: 2010.06.25/outbox.cif.g09.slc.cpg/sg2_123_cif.got.tgz:244443.got - 2010.06.27 13:26:56.
