data_PCOD8009634
_publ_section_title
;
Structure prediction by ZEFSAII (Michael W. Deem and Ramdas Pophale) SiO2 
 PCOD8009634
Probable space group: P -1
;
_chemical_formula_sum "Si O2"
_cell_formula_units_Z 12
_cell_length_a 9.568391
_cell_length_b 14.259919
_cell_length_c 5.064573
_cell_angle_alpha 66.822063
_cell_angle_beta 76.497669
_cell_angle_gamma 113.710213
_cell_volume 514.796236
_symmetry_space_group_name_H-M "P -1"
_symmetry_group_IT_number 2
_symmetry_cell_setting 'triclinic'
loop_
_space_group_symop_operation_xyz
x,y,z
-x,-y,-z
loop_
_atom_site_type_symbol
_atom_site_label
_atom_site_fract_x
_atom_site_fract_y
_atom_site_fract_z
Si Si1 0.058278 0.895578 0.865092
Si Si2 0.260841 0.701473 0.902071
Si Si3 0.579572 0.143511 0.840294
Si Si4 0.213759 0.044843 0.114842
Si Si5 0.900129 0.620221 0.207146
Si Si6 0.673074 0.500426 0.937111
O O1 0.176570 0.993310 0.483338
O O2 0.164507 0.935550 0.048996
O O3 0.885009 0.891941 0.990910
O O4 0.002261 0.763488 0.940651
O O5 0.288391 0.770795 0.538413
O O6 0.325970 0.805642 0.979544
O O7 0.362784 0.633805 0.950189
O O8 0.055157 0.597475 0.147634
O O9 0.500000 0.000000 0.000000
O O10 0.414108 0.153192 0.888472
O O11 0.811180 0.593876 0.559976
O O12 0.752206 0.540836 0.148528
O O13 0.500000 0.500000 0.000000
#
# Coordination Sequence:
#
# PCOD8009634 Si02
#       6
#     2   2   2   2   2   2
#     4  10  21  37  63  90 128 174 210 264 329 384
#     4  12  26  44  70  99 136 178 221 273 335 392
#     4  12  24  41  69  99 138 173 223 268 332 396
#     4  10  21  37  58  95 131 166 218 261 319 390
#     4  12  24  46  70  93 135 173 226 273 336 393
#     4  12  28  45  70  99 132 173 230 278 334 388
#
# _framework density 23.310193999999999
#
# number of rings (size 3 to 8) (size 9 to 14) (size 15 to 20)
#    0.000    0.667    0.000    8.000    4.667    0.000 
#    0.000    0.000    0.000    0.000    0.000    0.000 
#    0.000    0.000    0.000    0.000    0.000    0.000 
#
# Total GULP energy -148840.749856 kJ/mol
# GULP energy per Si atom -12403.395821 kJ/mol
# Density = 2.325714 g / cm^3
# Si number density = 23.310194 Si / 1000 Ang^3
#
#
#
# Elastic Constant Matrix: (Units=GPa)
#
#
# Indices 1 2 3 4 5 6 
#
# 1 104.8791 31.4764 25.8012 -1.7611 -23.7991 -1.3473
# 2 31.4764 112.4121 8.0979 11.0776 1.3966 6.4204
# 3 25.8012 8.0979 96.9812 12.3037 -14.9263 -0.6161
# 4 -1.7611 11.0776 12.3037 37.1170 -0.9718 5.8625
# 5 -23.7991 1.3966 -14.9263 -0.9718 37.7078 -2.9858
# 6 -1.3473 6.4204 -0.6161 5.8625 -2.9858 40.6044
#
#
#
# Elastic Compliance Matrix: (Units=1/GPa)
#
#
# Indices 1 2 3 4 5 6 
#
# 1 0.013065 -0.003909 -0.002289 0.002554 0.007646 0.001210
# 2 -0.003909 0.010421 0.000097 -0.003163 -0.003018 -0.001541
# 3 -0.002289 0.000097 0.011945 -0.004159 0.003247 0.000929
# 4 0.002554 -0.003163 -0.004159 0.029995 0.000558 -0.003768
# 5 0.007646 -0.003018 0.003247 0.000558 0.033004 0.003127
# 6 0.001210 -0.001541 0.000929 -0.003768 0.003127 0.025700
#
#
# Mechanical properties :
#
#
# Convention : Reuss Voigt Hill
#
# Bulk Modulus (GPa) = 43.05109 49.44706 46.24907
# Shear Modulus (GPa) = 34.70404 39.67896 37.19150
#
# Velocity S-wave (km/s) = 3.86267 4.13027 3.99871
# Velocity P-wave (km/s) = 6.19698 6.63356 6.41898
#
# Compressibility (1/GPa) = 0.02322822
#
# Stress axis : x y z
#
# Youngs Moduli (GPa) = 76.54288 95.96280 83.71447
#
# Poissons Ratio (x) = 0.37513 0.19161
# Poissons Ratio (y) = 0.29922 -0.00811
# Poissons Ratio (z) = 0.17520 -0.00929
#
# Static dielectric constant tensor:
#      x y z
#    x 4.646300 -0.055630 -0.268520 
#    y -0.055630 4.193840 0.136970 
#    z -0.268520 0.136970 4.052430 
# 
# 
# High freq. dielectric constant tensor:
#      x y z
#    x 1.942080 -0.001030 -0.008400 
#    y -0.001030 1.925630 0.014630 
#    z -0.008400 0.014630 1.921500 
# 
# From -- ./inp_files/36889.got.cif
#   From: 2010.06.25/outbox.cif.g09.slc.cpg/sg2_19_cif.got.tgz:36889.got - 2010.06.27 13:26:56.
