data_PCOD8009027
_publ_section_title
;
Structure prediction by ZEFSAII (Michael W. Deem and Ramdas Pophale) SiO2 
 PCOD8009027
Probable space group: P -1
;
_chemical_formula_sum "Si O2"
_cell_formula_units_Z 16
_cell_length_a 8.462041
_cell_length_b 10.934784
_cell_length_c 14.753675
_cell_angle_alpha 62.271940
_cell_angle_beta 94.863177
_cell_angle_gamma 136.202323
_cell_volume 762.899961
_symmetry_space_group_name_H-M "P -1"
_symmetry_group_IT_number 2
_symmetry_cell_setting 'triclinic'
loop_
_space_group_symop_operation_xyz
x,y,z
-x,-y,-z
loop_
_atom_site_type_symbol
_atom_site_label
_atom_site_fract_x
_atom_site_fract_y
_atom_site_fract_z
Si Si1 0.380837 0.284708 0.521664
Si Si2 0.971839 0.555427 0.725044
Si Si3 0.634614 0.073918 0.885896
Si Si4 0.846754 0.287628 0.124628
Si Si5 0.970454 0.891462 0.771397
Si Si6 0.939779 0.797200 0.212707
Si Si7 0.363138 0.404083 0.293411
Si Si8 0.159918 0.546308 0.570541
O O1 0.500000 0.500000 0.500000
O O2 0.299074 0.261392 0.423002
O O3 0.571034 0.285872 0.520481
O O4 0.164509 0.077455 0.642908
O O5 0.748317 0.297341 0.791061
O O6 0.827751 0.600720 0.696519
O O7 0.133019 0.649608 0.791980
O O8 0.164463 0.656479 0.617185
O O9 0.863702 0.116547 0.886103
O O10 0.439776 0.901041 0.857295
O O11 0.500000 0.000000 0.000000
O O12 0.955959 0.206308 0.147860
O O13 0.000000 0.500000 0.000000
O O14 0.705577 0.706365 0.769627
O O15 0.946621 0.985452 0.817632
O O16 0.657946 0.638982 0.219205
O O17 0.933048 0.669591 0.330266
O O18 0.000000 0.500000 0.500000
#
# Coordination Sequence:
#
# PCOD8009027 Si02
#       8
#     2   2   2   2   2   2   2   2
#     4  11  20  37  62  93 134 168 213 262 315 387
#     4  10  22  41  66  95 130 175 211 269 325 389
#     4  11  23  42  71  91 124 169 218 275 337 373
#     4  11  24  45  68  93 129 169 223 276 326 384
#     4  11  23  41  67  94 126 177 212 266 326 381
#     4  10  23  40  65  96 127 167 214 270 320 393
#     4  10  21  40  62  90 136 168 210 259 321 391
#     4  10  21  35  64  97 132 175 210 260 321 386
#
# _framework density 20.972607
#
# number of rings (size 3 to 8) (size 9 to 14) (size 15 to 20)
#    0.000    1.500    3.750    1.875    3.500    3.000 
#    0.000    5.625    0.000    0.000    0.000    0.000 
#    0.000    0.000    0.000    0.000    0.000    0.000 
#
# Total GULP energy -198303.346990 kJ/mol
# GULP energy per Si atom -12393.959187 kJ/mol
# Density = 2.092487 g / cm^3
# Si number density = 20.972607 Si / 1000 Ang^3
#
#
#
# Elastic Constant Matrix: (Units=GPa)
#
#
# Indices 1 2 3 4 5 6 
#
# 1 117.5904 50.2448 37.5413 14.5666 -12.0153 2.0245
# 2 50.2448 127.5532 26.1316 10.7479 1.4546 0.7432
# 3 37.5413 26.1316 54.0860 12.0971 -9.3239 0.3760
# 4 14.5666 10.7479 12.0971 29.4931 -4.5835 3.9960
# 5 -12.0153 1.4546 -9.3239 -4.5835 37.9942 1.9439
# 6 2.0245 0.7432 0.3760 3.9960 1.9439 32.5619
#
#
#
# Elastic Compliance Matrix: (Units=1/GPa)
#
#
# Indices 1 2 3 4 5 6 
#
# 1 0.012441 -0.003514 -0.006095 -0.001924 0.002368 -0.000528
# 2 -0.003514 0.009851 -0.002432 -0.001249 -0.002252 0.000309
# 3 -0.006095 -0.002432 0.025933 -0.006251 0.003741 0.000679
# 4 -0.001924 -0.001249 -0.006251 0.038959 0.002847 -0.004731
# 5 0.002368 -0.002252 0.003741 0.002847 0.028528 -0.002192
# 6 -0.000528 0.000309 0.000679 -0.004731 -0.002192 0.031440
#
#
# Mechanical properties :
#
#
# Convention : Reuss Voigt Hill
#
# Bulk Modulus (GPa) = 41.41872 58.56279 49.99075
# Shear Modulus (GPa) = 27.88901 32.36395 30.12648
#
# Velocity S-wave (km/s) = 3.65057 3.93256 3.79419
# Velocity P-wave (km/s) = 6.12868 6.97167 6.56372
#
# Compressibility (1/GPa) = 0.02414367
#
# Stress axis : x y z
#
# Youngs Moduli (GPa) = 80.38062 101.51014 38.56093
#
# Poissons Ratio (x) = 0.35667 0.23504
# Poissons Ratio (y) = 0.28243 0.09377
# Poissons Ratio (z) = 0.48995 0.24684
#
# Static dielectric constant tensor:
#      x y z
#    x 1.998880 -1.216820 0.334800 
#    y -1.216820 4.003520 0.277490 
#    z 0.334800 0.277490 3.616300 
# 
# 
# High freq. dielectric constant tensor:
#      x y z
#    x 1.832540 -0.001750 -0.000220 
#    y -0.001750 1.827300 0.006100 
#    z -0.000220 0.006100 1.808710 
# 
# From -- ./inp_files/406584.got.cif
#   From: 2010.06.25/outbox.cif.g09.slc.cpg/sg2_204_cif.got.tgz:406584.got - 2010.06.27 13:26:56.
