data_PCOD8009624
_publ_section_title
;
Structure prediction by ZEFSAII (Michael W. Deem and Ramdas Pophale) SiO2 
 PCOD8009624
Probable space group: P -1
;
_chemical_formula_sum "Si O2"
_cell_formula_units_Z 14
_cell_length_a 17.166460
_cell_length_b 8.549137
_cell_length_c 7.457501
_cell_angle_alpha 34.913850
_cell_angle_beta 88.146314
_cell_angle_gamma 84.187413
_cell_volume 620.706710
_symmetry_space_group_name_H-M "P -1"
_symmetry_group_IT_number 2
_symmetry_cell_setting 'triclinic'
loop_
_space_group_symop_operation_xyz
x,y,z
-x,-y,-z
loop_
_atom_site_type_symbol
_atom_site_label
_atom_site_fract_x
_atom_site_fract_y
_atom_site_fract_z
Si Si1 0.811625 0.215071 0.542118
Si Si2 0.713197 0.754497 0.108214
Si Si3 0.407875 0.739745 0.825897
Si Si4 0.741087 0.863956 0.403842
Si Si5 0.834989 0.318670 0.041134
Si Si6 0.564598 0.810666 0.848550
Si Si7 0.944764 0.280148 0.757408
O O1 0.736022 0.441988 0.339777
O O2 0.851806 0.223904 0.334625
O O3 0.872639 0.286511 0.619602
O O4 0.776560 0.929826 0.847149
O O5 0.713069 0.761445 0.314867
O O6 0.622232 0.832334 0.990861
O O7 0.476693 0.738792 0.975240
O O8 0.326886 0.930655 0.689176
O O9 0.445823 0.882595 0.521051
O O10 0.395257 0.427234 0.070895
O O11 0.807731 0.058946 0.181860
O O12 0.772605 0.598160 0.772483
O O13 0.914208 0.354506 0.892468
O O14 0.000000 0.500000 0.500000
O O15 0.000000 0.000000 0.000000
#
# Coordination Sequence:
#
# PCOD8009624 Si02
#       7
#     2   2   2   2   2   2   2
#     4  12  25  44  69  98 130 172 217 261 322 388
#     4  12  22  40  65  95 132 170 222 273 316 375
#     4  10  21  37  58  89 129 172 219 269 321 376
#     4  12  22  40  65  95 132 170 222 273 316 375
#     4  12  25  44  69  98 130 172 217 261 322 388
#     4  10  21  37  58  89 129 172 219 269 321 376
#     4  12  26  46  70  98 135 162 207 268 326 388
#
# _framework density 22.554936000000001
#
# number of rings (size 3 to 8) (size 9 to 14) (size 15 to 20)
#    0.000    0.571    2.857    6.857    0.000    1.714 
#    0.000    0.000    0.000    8.571    0.000    0.000 
#    0.000    0.000    0.000    0.000    0.000    0.000 
#
# Total GULP energy -173515.286916 kJ/mol
# GULP energy per Si atom -12393.949065 kJ/mol
# Density = 2.250360 g / cm^3
# Si number density = 22.554936 Si / 1000 Ang^3
#
#
#
# Elastic Constant Matrix: (Units=GPa)
#
#
# Indices 1 2 3 4 5 6 
#
# 1 43.2692 -8.2369 7.1475 0.3420 11.1081 15.3538
# 2 -8.2369 58.6141 11.2090 1.4860 2.1973 -2.4986
# 3 7.1475 11.2090 95.7779 -9.6404 6.8317 3.8498
# 4 0.3420 1.4860 -9.6404 35.9656 -0.8049 1.1827
# 5 11.1081 2.1973 6.8317 -0.8049 33.9829 -9.5469
# 6 15.3538 -2.4986 3.8498 1.1827 -9.5469 38.4106
#
#
#
# Elastic Compliance Matrix: (Units=1/GPa)
#
#
# Indices 1 2 3 4 5 6 
#
# 1 0.034662 0.005021 -0.001383 -0.000700 -0.016286 -0.017417
# 2 0.005021 0.018318 -0.002425 -0.001476 -0.002710 -0.001201
# 3 -0.001383 -0.002425 0.011339 0.003152 -0.001969 -0.001328
# 4 -0.000700 -0.001476 0.003152 0.028752 0.000092 -0.000995
# 5 -0.016286 -0.002710 -0.001969 0.000092 0.039947 0.016457
# 6 -0.017417 -0.001201 -0.001328 -0.000995 0.016457 0.037172
#
#
# Mechanical properties :
#
#
# Convention : Reuss Voigt Hill
#
# Bulk Modulus (GPa) = 14.98246 24.21116 19.59681
# Shear Modulus (GPa) = 26.31407 34.17462 30.24434
#
# Velocity S-wave (km/s) = 3.41935 3.89674 3.66583
# Velocity P-wave (km/s) = 4.71661 5.56810 5.15995
#
# Compressibility (1/GPa) = 0.06674472
#
# Stress axis : x y z
#
# Youngs Moduli (GPa) = 28.84995 54.59105 88.19121
#
# Poissons Ratio (x) = -0.27412 0.12197
# Poissons Ratio (y) = -0.14486 0.21390
# Poissons Ratio (z) = 0.03990 0.13241
#
# Static dielectric constant tensor:
#      x y z
#    x 4.165510 0.154310 -0.051920 
#    y 0.154310 3.872760 -0.078650 
#    z -0.051920 -0.078650 4.244210 
# 
# 
# High freq. dielectric constant tensor:
#      x y z
#    x 1.892360 0.010430 0.002860 
#    y 0.010430 1.874240 -0.016240 
#    z 0.002860 -0.016240 1.907490 
# 
# From -- ./inp_files/328278.got.cif
#   From: 2010.06.25/outbox.cif.g09.slc.cpg/sg2_165_cif.got.tgz:328278.got - 2010.06.27 13:26:56.
