data_PCOD8009340
_publ_section_title
;
Structure prediction by ZEFSAII (Michael W. Deem and Ramdas Pophale) SiO2 
 PCOD8009340
Probable space group: P -1
;
_chemical_formula_sum "Si O2"
_cell_formula_units_Z 14
_cell_length_a 12.137671
_cell_length_b 11.161335
_cell_length_c 7.805555
_cell_angle_alpha 69.444125
_cell_angle_beta 83.592415
_cell_angle_gamma 46.837713
_cell_volume 709.290454
_symmetry_space_group_name_H-M "P -1"
_symmetry_group_IT_number 2
_symmetry_cell_setting 'triclinic'
loop_
_space_group_symop_operation_xyz
x,y,z
-x,-y,-z
loop_
_atom_site_type_symbol
_atom_site_label
_atom_site_fract_x
_atom_site_fract_y
_atom_site_fract_z
Si Si1 0.601089 0.565399 0.763793
Si Si2 0.598997 0.280567 0.962590
Si Si3 0.903189 0.450243 0.863231
Si Si4 0.925136 0.926259 0.093330
Si Si5 0.950794 0.171839 0.506594
Si Si6 0.907674 0.466633 0.242070
Si Si7 0.357276 0.459139 0.608317
O O1 0.657758 0.380112 0.909771
O O2 0.743697 0.548394 0.748359
O O3 0.546307 0.614610 0.549456
O O4 0.468045 0.711937 0.845548
O O5 0.473317 0.374116 0.788266
O O6 0.743695 0.074025 0.008269
O O7 0.009679 0.239676 0.950399
O O8 0.988755 0.498479 0.725644
O O9 0.863265 0.526824 0.022943
O O10 0.959447 0.874021 0.311379
O O11 0.000000 0.000000 0.000000
O O12 0.997610 0.257951 0.340244
O O13 0.763295 0.323553 0.485021
O O14 0.000000 0.000000 0.500000
O O15 0.749829 0.581986 0.324108
#
# Coordination Sequence:
#
# PCOD8009340 Si02
#       7
#     2   2   2   2   2   2   2
#     4  11  21  37  65  84 126 172 206 252 311 382
#     4  11  24  38  58  96 130 158 209 257 320 365
#     4  11  19  42  65  91 124 168 216 252 313 371
#     4  12  23  38  60  95 123 164 206 265 310 362
#     4  10  21  36  61  93 123 150 213 263 301 360
#     4   9  22  37  68  91 123 166 213 259 304 377
#     4  10  21  41  60  94 120 172 203 252 318 375
#
# _framework density 19.738035
#
# number of rings (size 3 to 8) (size 9 to 14) (size 15 to 20)
#    0.857    0.571    4.286    1.286    4.000    2.286 
#    2.571    0.714    0.000    1.714    0.000    0.000 
#    0.000    0.000    0.000    0.000    0.000    0.000 
#
# Total GULP energy -173472.183623 kJ/mol
# GULP energy per Si atom -12390.870259 kJ/mol
# Density = 1.969311 g / cm^3
# Si number density = 19.738035 Si / 1000 Ang^3
#
#
#
# Elastic Constant Matrix: (Units=GPa)
#
#
# Indices 1 2 3 4 5 6 
#
# 1 113.2087 36.4569 31.0574 -3.2565 -13.3419 -0.0360
# 2 36.4569 73.8794 28.3576 5.9634 -2.0874 -8.8355
# 3 31.0574 28.3576 94.8378 15.2901 3.0367 -9.3581
# 4 -3.2565 5.9634 15.2901 34.8952 -1.9647 -2.1719
# 5 -13.3419 -2.0874 3.0367 -1.9647 37.5115 -6.7637
# 6 -0.0360 -8.8355 -9.3581 -2.1719 -6.7637 28.7204
#
#
#
# Elastic Compliance Matrix: (Units=1/GPa)
#
#
# Indices 1 2 3 4 5 6 
#
# 1 0.011915 -0.004956 -0.003254 0.003538 0.004173 -0.001320
# 2 -0.004956 0.017804 -0.002961 -0.001925 0.000160 0.004398
# 3 -0.003254 -0.002961 0.013758 -0.005792 -0.002272 0.002595
# 4 0.003538 -0.001925 -0.005792 0.032095 0.003438 0.000762
# 5 0.004173 0.000160 -0.002272 0.003438 0.029700 0.006569
# 6 -0.001320 0.004398 0.002595 0.000762 0.006569 0.038620
#
#
# Mechanical properties :
#
#
# Convention : Reuss Voigt Hill
#
# Bulk Modulus (GPa) = 47.31774 52.62995 49.97384
# Shear Modulus (GPa) = 28.85502 32.62904 30.74203
#
# Velocity S-wave (km/s) = 3.82763 4.07025 3.95080
# Velocity P-wave (km/s) = 6.59994 6.98651 6.79598
#
# Compressibility (1/GPa) = 0.02113372
#
# Stress axis : x y z
#
# Youngs Moduli (GPa) = 83.92681 56.16791 72.68426
#
# Poissons Ratio (x) = 0.27837 0.23653
# Poissons Ratio (y) = 0.41595 0.21524
# Poissons Ratio (z) = 0.27312 0.16633
#
# Static dielectric constant tensor:
#      x y z
#    x 3.660310 0.106220 -0.277760 
#    y 0.106220 3.498640 0.250940 
#    z -0.277760 0.250940 3.193680 
# 
# 
# High freq. dielectric constant tensor:
#      x y z
#    x 1.768310 -0.008220 -0.000690 
#    y -0.008220 1.738400 0.019370 
#    z -0.000690 0.019370 1.775310 
# 
# From -- ./inp_files/256864.got.cif
#   From: 2010.06.25/outbox.cif.g09.slc.cpg/sg2_129_cif.got.tgz:256864.got - 2010.06.27 13:26:56.
