data_PCOD8009040
_publ_section_title
;
Structure prediction by ZEFSAII (Michael W. Deem and Ramdas Pophale) SiO2 
 PCOD8009040
Probable space group: P -1
;
_chemical_formula_sum "Si O2"
_cell_formula_units_Z 16
_cell_length_a 8.170871
_cell_length_b 16.250225
_cell_length_c 9.318123
_cell_angle_alpha 81.966742
_cell_angle_beta 66.566442
_cell_angle_gamma 129.219515
_cell_volume 734.305350
_symmetry_space_group_name_H-M "P -1"
_symmetry_group_IT_number 2
_symmetry_cell_setting 'triclinic'
loop_
_space_group_symop_operation_xyz
x,y,z
-x,-y,-z
loop_
_atom_site_type_symbol
_atom_site_label
_atom_site_fract_x
_atom_site_fract_y
_atom_site_fract_z
Si Si1 0.800332 0.786740 0.004447
Si Si2 0.304672 0.812081 0.134916
Si Si3 0.193173 0.906874 0.597119
Si Si4 0.189329 0.739416 0.505590
Si Si5 0.561501 0.275884 0.079119
Si Si6 0.080103 0.907365 0.165507
Si Si7 0.310879 0.129471 0.494440
Si Si8 0.356813 0.526393 0.120844
O O1 0.564174 0.633311 0.146967
O O2 0.910150 0.867613 0.090043
O O3 0.683137 0.817633 0.932210
O O4 0.045057 0.832602 0.816243
O O5 0.256327 0.744491 0.315641
O O6 0.088938 0.810794 0.201115
O O7 0.236833 0.726661 0.044320
O O8 0.613468 0.952893 0.985184
O O9 0.107005 0.808383 0.532141
O O10 0.500000 0.000000 0.500000
O O11 0.156974 0.989351 0.534559
O O12 0.454889 0.808817 0.487269
O O13 0.932455 0.594709 0.679140
O O14 0.451470 0.223511 0.288676
O O15 0.688477 0.413885 0.993061
O O16 0.915752 0.888815 0.358991
O O17 0.500000 0.500000 0.000000
#
# Coordination Sequence:
#
# PCOD8009040 Si02
#       8
#     2   2   2   2   2   2   2   2
#     4  10  22  43  64  92 134 179 216 263 337 382
#     4  11  26  41  68 102 135 171 223 274 338 398
#     4  10  21  35  67  99 129 169 215 264 335 391
#     4  11  23  44  70  96 134 181 223 273 332 389
#     4  10  25  43  68 102 127 179 220 272 328 395
#     4  11  25  43  65 101 141 172 212 281 339 396
#     4  11  25  41  71 102 138 169 223 274 336 403
#     4  10  23  44  72  93 134 177 231 271 323 393
#
# _framework density 21.789300999999998
#
# number of rings (size 3 to 8) (size 9 to 14) (size 15 to 20)
#    0.750    0.750    1.250    3.000   10.500    3.500 
#    0.000    0.625    0.000    0.000    0.000    0.000 
#    0.000    0.000    0.000    0.000    0.000    0.000 
#
# Total GULP energy -198271.567754 kJ/mol
# GULP energy per Si atom -12391.972985 kJ/mol
# Density = 2.173971 g / cm^3
# Si number density = 21.789301 Si / 1000 Ang^3
#
#
#
# Elastic Constant Matrix: (Units=GPa)
#
#
# Indices 1 2 3 4 5 6 
#
# 1 89.5190 23.8875 43.0816 0.0986 -6.6940 -25.8093
# 2 23.8875 65.6828 35.8567 -8.2610 -9.8272 -27.7831
# 3 43.0816 35.8567 156.5409 -2.3928 -1.2384 -18.2448
# 4 0.0986 -8.2610 -2.3928 38.4110 -2.1860 0.1921
# 5 -6.6940 -9.8272 -1.2384 -2.1860 35.8777 4.1270
# 6 -25.8093 -27.7831 -18.2448 0.1921 4.1270 35.1558
#
#
#
# Elastic Compliance Matrix: (Units=1/GPa)
#
#
# Indices 1 2 3 4 5 6 
#
# 1 0.015601 0.000608 -0.003250 -0.000059 0.001807 0.010036
# 2 0.000608 0.026634 -0.003950 0.005697 0.005460 0.018773
# 3 -0.003250 -0.003950 0.008033 -0.000409 -0.001300 -0.001184
# 4 -0.000059 0.005697 -0.000409 0.027373 0.002769 0.003772
# 5 0.001807 0.005460 -0.001300 0.002769 0.029660 0.001470
# 6 0.010036 0.018773 -0.001184 0.003772 0.001470 0.049841
#
#
# Mechanical properties :
#
#
# Convention : Reuss Voigt Hill
#
# Bulk Modulus (GPa) = 26.96503 57.48824 42.22663
# Shear Modulus (GPa) = 27.36935 35.81670 31.59302
#
# Velocity S-wave (km/s) = 3.54798 4.05875 3.81193
# Velocity P-wave (km/s) = 5.40245 6.95741 6.22864
#
# Compressibility (1/GPa) = 0.03708507
#
# Stress axis : x y z
#
# Youngs Moduli (GPa) = 64.09797 37.54602 124.49074
#
# Poissons Ratio (x) = -0.02284 0.40458
# Poissons Ratio (y) = -0.03899 0.49171
# Poissons Ratio (z) = 0.20831 0.14830
#
# Static dielectric constant tensor:
#      x y z
#    x 4.204340 -0.382200 -0.117710 
#    y -0.382200 3.983140 -0.036220 
#    z -0.117710 -0.036220 3.838170 
# 
# 
# High freq. dielectric constant tensor:
#      x y z
#    x 1.857320 -0.018310 -0.013240 
#    y -0.018310 1.842050 0.004510 
#    z -0.013240 0.004510 1.861610 
# 
# From -- ./inp_files/215113.got.cif
#   From: 2010.06.25/outbox.cif.g09.slc.cpg/sg2_108_cif.got.tgz:215113.got - 2010.06.27 13:26:56.
