data_PCOD8009700
_publ_section_title
;
Structure prediction by ZEFSAII (Michael W. Deem and Ramdas Pophale) SiO2 
 PCOD8009700
Probable space group: P -1
;
_chemical_formula_sum "Si O2"
_cell_formula_units_Z 16
_cell_length_a 11.854115
_cell_length_b 9.018913
_cell_length_c 13.910573
_cell_angle_alpha 115.715283
_cell_angle_beta 109.509923
_cell_angle_gamma 122.913081
_cell_volume 739.827196
_symmetry_space_group_name_H-M "P -1"
_symmetry_group_IT_number 2
_symmetry_cell_setting 'triclinic'
loop_
_space_group_symop_operation_xyz
x,y,z
-x,-y,-z
loop_
_atom_site_type_symbol
_atom_site_label
_atom_site_fract_x
_atom_site_fract_y
_atom_site_fract_z
Si Si1 0.721724 0.285773 0.882725
Si Si2 0.751544 0.740794 0.537666
Si Si3 0.338151 0.430932 0.325610
Si Si4 0.741528 0.205307 0.405590
Si Si5 0.041280 0.345708 0.771907
Si Si6 0.111497 0.854850 0.047505
Si Si7 0.092566 0.375762 0.576081
Si Si8 0.878434 0.493862 0.719733
O O1 0.735925 0.100897 0.841290
O O2 0.497865 0.085037 0.724107
O O3 0.764878 0.399205 0.034510
O O4 0.882713 0.550334 0.931782
O O5 0.559065 0.623132 0.403927
O O6 0.672893 0.561327 0.559648
O O7 0.843320 0.725447 0.478718
O O8 0.927900 0.064604 0.707330
O O9 0.291317 0.561791 0.309211
O O10 0.171705 0.109800 0.155135
O O11 0.767567 0.323406 0.343725
O O12 0.860931 0.451945 0.588131
O O13 0.853856 0.152497 0.422738
O O14 0.130339 0.408873 0.709720
O O15 0.868854 0.299955 0.709188
O O16 0.095194 0.808232 0.912753
#
# Coordination Sequence:
#
# PCOD8009700 Si02
#       8
#     2   2   2   2   2   2   2   2
#     4  10  21  37  60  91 123 157 200 242 303 356
#     4  11  22  38  63  91 119 159 202 242 302 353
#     4  11  22  37  64  90 122 157 196 248 299 363
#     4  10  21  38  62  88 118 159 204 245 294 354
#     4  10  22  40  62  87 123 159 198 248 293 352
#     4  10  21  37  59  90 129 157 187 251 303 357
#     4  10  21  40  61  84 120 161 202 249 290 349
#     4  10  22  38  59  90 119 156 196 243 301 351
#
# _framework density 21.626671999999999
#
# number of rings (size 3 to 8) (size 9 to 14) (size 15 to 20)
#    0.000    1.750    2.500    1.500    1.750    3.500 
#    0.000    3.125    0.000    0.000    0.000    0.000 
#    0.000    0.000    0.000    0.000    0.000    0.000 
#
# Total GULP energy -198209.019398 kJ/mol
# GULP energy per Si atom -12388.063712 kJ/mol
# Density = 2.157745 g / cm^3
# Si number density = 21.626672 Si / 1000 Ang^3
#
#
#
# Elastic Constant Matrix: (Units=GPa)
#
#
# Indices 1 2 3 4 5 6 
#
# 1 153.1359 16.5865 45.7583 -1.8563 -4.1746 -5.8679
# 2 16.5865 42.2988 22.1467 -11.0126 -7.3530 9.7830
# 3 45.7583 22.1467 85.9633 -9.5341 -2.2999 9.9241
# 4 -1.8563 -11.0126 -9.5341 24.3375 -1.1981 1.8824
# 5 -4.1746 -7.3530 -2.2999 -1.1981 30.1507 5.9198
# 6 -5.8679 9.7830 9.9241 1.8824 5.9198 21.0936
#
#
#
# Elastic Compliance Matrix: (Units=1/GPa)
#
#
# Indices 1 2 3 4 5 6 
#
# 1 0.008573 -0.003668 -0.004882 -0.003552 -0.001626 0.007157
# 2 -0.003668 0.039559 -0.003021 0.018971 0.014307 -0.023654
# 3 -0.004882 -0.003021 0.016694 0.005572 0.001813 -0.008817
# 4 -0.003552 0.018971 0.005572 0.053671 0.010656 -0.020188
# 5 -0.001626 0.014307 0.001813 0.010656 0.040997 -0.020397
# 6 0.007157 -0.023654 -0.008817 -0.020188 -0.020397 0.072043
#
#
# Mechanical properties :
#
#
# Convention : Reuss Voigt Hill
#
# Bulk Modulus (GPa) = 23.99076 50.04232 37.01654
# Shear Modulus (GPa) = 18.61679 28.24347 23.43013
#
# Velocity S-wave (km/s) = 2.93717 3.61772 3.29506
# Velocity P-wave (km/s) = 4.75603 6.37495 5.62404
#
# Compressibility (1/GPa) = 0.04168272
#
# Stress axis : x y z
#
# Youngs Moduli (GPa) = 116.64383 25.27900 59.90043
#
# Poissons Ratio (x) = 0.09273 0.29244
# Poissons Ratio (y) = 0.42788 0.18098
# Poissons Ratio (z) = 0.56946 0.07637
#
# Static dielectric constant tensor:
#      x y z
#    x 4.040010 -0.120870 -0.089750 
#    y -0.120870 3.743460 -0.312270 
#    z -0.089750 -0.312270 3.906080 
# 
# 
# High freq. dielectric constant tensor:
#      x y z
#    x 1.850300 -0.013770 -0.012420 
#    y -0.013770 1.834810 -0.023040 
#    z -0.012420 -0.023040 1.840030 
# 
# From -- ./inp_files/274030.got.cif
#   From: 2010.06.25/outbox.cif.g09.slc.cpg/sg2_138_cif.got.tgz:274030.got - 2010.06.27 13:26:56.
