data_PCOD8009090
_publ_section_title
;
Structure prediction by ZEFSAII (Michael W. Deem and Ramdas Pophale) SiO2 
 PCOD8009090
Probable space group: P -1
;
_chemical_formula_sum "Si O2"
_cell_formula_units_Z 16
_cell_length_a 26.811852
_cell_length_b 5.158732
_cell_length_c 8.201440
_cell_angle_alpha 78.011001
_cell_angle_beta 51.122160
_cell_angle_gamma 102.670852
_cell_volume 767.348974
_symmetry_space_group_name_H-M "P -1"
_symmetry_group_IT_number 2
_symmetry_cell_setting 'triclinic'
loop_
_space_group_symop_operation_xyz
x,y,z
-x,-y,-z
loop_
_atom_site_type_symbol
_atom_site_label
_atom_site_fract_x
_atom_site_fract_y
_atom_site_fract_z
Si Si1 0.116694 0.317327 0.504736
Si Si2 0.466948 0.626077 0.783270
Si Si3 0.676222 0.816209 0.698309
Si Si4 0.443759 0.690568 0.452857
Si Si5 0.169446 0.238619 0.080402
Si Si6 0.193667 0.958870 0.362524
Si Si7 0.019355 0.822612 0.351295
Si Si8 0.305820 0.575674 0.555657
O O1 0.158419 0.602573 0.497172
O O2 0.029997 0.207349 0.703799
O O3 0.139251 0.064847 0.549634
O O4 0.140810 0.396818 0.253311
O O5 0.435325 0.605190 0.670772
O O6 0.525882 0.504144 0.681950
O O7 0.502422 0.962504 0.731615
O O8 0.402981 0.433762 0.061253
O O9 0.705725 0.688105 0.510417
O O10 0.728183 0.888963 0.737271
O O11 0.670974 0.112384 0.621905
O O12 0.365071 0.610070 0.561999
O O13 0.230669 0.487304 0.812550
O O14 0.201606 0.050751 0.142826
O O15 0.105310 0.014592 0.120323
O O16 0.000000 0.500000 0.500000
O O17 0.000000 0.000000 0.500000
#
# Coordination Sequence:
#
# PCOD8009090 Si02
#       8
#     2   2   2   2   2   2   2   2
#     4   9  18  33  61  90 106 149 198 255 283 335
#     4  10  22  43  65  88 114 151 197 240 293 338
#     4  12  26  40  58  86 124 163 191 234 289 361
#     4  10  22  42  66  89 113 147 198 250 282 344
#     4   9  22  35  63  86 117 150 196 248 289 343
#     4  10  20  37  59  82 114 153 199 242 280 345
#     4  10  16  31  56  94 112 138 194 259 292 328
#     4  12  26  39  58  89 125 157 191 235 298 347
#
# _framework density 20.851006999999999
#
# number of rings (size 3 to 8) (size 9 to 14) (size 15 to 20)
#    0.750    1.000    1.250    3.000    1.750    3.000 
#    4.500    0.000    0.000    4.500    0.000    0.000 
#    0.000    0.000    0.000    0.000    0.000    0.000 
#
# Total GULP energy -198326.807740 kJ/mol
# GULP energy per Si atom -12395.425484 kJ/mol
# Density = 2.080355 g / cm^3
# Si number density = 20.851007 Si / 1000 Ang^3
#
#
#
# Elastic Constant Matrix: (Units=GPa)
#
#
# Indices 1 2 3 4 5 6 
#
# 1 71.5017 16.9383 49.4803 -8.1100 -19.8236 -8.4600
# 2 16.9383 105.7770 9.1329 -9.7842 -0.3998 -14.2428
# 3 49.4803 9.1329 73.0413 -11.7758 -18.7044 2.5986
# 4 -8.1100 -9.7842 -11.7758 22.8475 3.5077 -0.6455
# 5 -19.8236 -0.3998 -18.7044 3.5077 20.0273 -3.2391
# 6 -8.4600 -14.2428 2.5986 -0.6455 -3.2391 34.0046
#
#
#
# Elastic Compliance Matrix: (Units=1/GPa)
#
#
# Indices 1 2 3 4 5 6 
#
# 1 0.033076 -0.002376 -0.018136 -0.001036 0.017598 0.010276
# 2 -0.002376 0.010705 0.000326 0.004319 -0.001982 0.003761
# 3 -0.018136 0.000326 0.029149 0.007483 0.007031 -0.005791
# 4 -0.001036 0.004319 0.007483 0.049516 -0.002348 0.001696
# 5 0.017598 -0.001982 0.007031 -0.002348 0.075939 0.010200
# 6 0.010276 0.003761 -0.005791 0.001696 0.010200 0.034986
#
#
# Mechanical properties :
#
#
# Convention : Reuss Voigt Hill
#
# Bulk Modulus (GPa) = 30.71420 44.60256 37.65838
# Shear Modulus (GPa) = 17.56882 27.02712 22.29797
#
# Velocity S-wave (km/s) = 2.90589 3.60419 3.27371
# Velocity P-wave (km/s) = 5.10110 6.22557 5.69117
#
# Compressibility (1/GPa) = 0.03255823
#
# Stress axis : x y z
#
# Youngs Moduli (GPa) = 30.23306 93.41763 34.30669
#
# Poissons Ratio (x) = 0.22199 0.62218
# Poissons Ratio (y) = 0.07184 -0.01120
# Poissons Ratio (z) = 0.54830 -0.03049
#
# Static dielectric constant tensor:
#      x y z
#    x 3.952530 0.016470 -0.259370 
#    y 0.016470 3.844210 -0.104840 
#    z -0.259370 -0.104840 3.393970 
# 
# 
# High freq. dielectric constant tensor:
#      x y z
#    x 1.827310 -0.001830 -0.022210 
#    y -0.001830 1.826960 -0.011110 
#    z -0.022210 -0.011110 1.778740 
# 
# From -- ./inp_files/355975.got.cif
#   From: 2010.06.25/outbox.cif.g09.slc.cpg/sg2_178_cif.got.tgz:355975.got - 2010.06.27 13:26:56.
