data_PCOD8009352
_publ_section_title
;
Structure prediction by ZEFSAII (Michael W. Deem and Ramdas Pophale) SiO2 
 PCOD8009352
Probable space group: P -1
;
_chemical_formula_sum "Si O2"
_cell_formula_units_Z 16
_cell_length_a 7.748722
_cell_length_b 13.206986
_cell_length_c 18.240572
_cell_angle_alpha 26.235003
_cell_angle_beta 107.351072
_cell_angle_gamma 113.680880
_cell_volume 746.767703
_symmetry_space_group_name_H-M "P -1"
_symmetry_group_IT_number 2
_symmetry_cell_setting 'triclinic'
loop_
_space_group_symop_operation_xyz
x,y,z
-x,-y,-z
loop_
_atom_site_type_symbol
_atom_site_label
_atom_site_fract_x
_atom_site_fract_y
_atom_site_fract_z
Si Si1 0.631605 0.040474 0.600399
Si Si2 0.108090 0.124089 0.061490
Si Si3 0.215772 0.870296 0.078042
Si Si4 0.437675 0.776041 0.031116
Si Si5 0.963557 0.880900 0.334928
Si Si6 0.570427 0.899746 0.314619
Si Si7 0.208604 0.643168 0.367147
Si Si8 0.569019 0.391252 0.247490
O O1 0.503646 0.053408 0.645690
O O2 0.654722 0.262036 0.404254
O O3 0.845644 0.048098 0.639348
O O4 0.526088 0.787093 0.713687
O O5 0.175932 0.887839 0.233828
O O6 0.272091 0.380379 0.917353
O O7 0.980714 0.093746 0.139055
O O8 0.985620 0.095525 0.990143
O O9 0.296703 0.821150 0.043043
O O10 0.196822 0.643778 0.275985
O O11 0.345518 0.104498 0.987241
O O12 0.412036 0.493322 0.200146
O O13 0.410286 0.878675 0.881949
O O14 0.775664 0.856827 0.375959
O O15 0.936130 0.620688 0.459026
O O16 0.417532 0.661551 0.413741
#
# Coordination Sequence:
#
# PCOD8009352 Si02
#       8
#     2   2   2   2   2   2   2   2
#     4  11  27  48  69  94 131 176 226 282 327 386
#     4  12  22  41  67  97 137 176 220 269 327 405
#     4  10  21  36  62 103 130 172 215 266 323 395
#     4  10  21  40  65  94 136 169 219 265 326 390
#     4  12  25  42  68 103 137 173 218 272 336 398
#     4  11  23  45  66 102 136 176 216 272 336 389
#     4  11  23  40  64 102 138 176 214 267 337 389
#     4  11  25  48  69  91 128 178 226 278 330 385
#
# _framework density 21.425671000000001
#
# number of rings (size 3 to 8) (size 9 to 14) (size 15 to 20)
#    0.000    1.000    5.000    1.875    3.500    2.000 
#    2.250    2.500    0.000    0.000    0.000    0.000 
#    0.000    0.000    0.000    0.000    0.000    0.000 
#
# Total GULP energy -198264.171579 kJ/mol
# GULP energy per Si atom -12391.510724 kJ/mol
# Density = 2.137691 g / cm^3
# Si number density = 21.425671 Si / 1000 Ang^3
#
#
#
# Elastic Constant Matrix: (Units=GPa)
#
#
# Indices 1 2 3 4 5 6 
#
# 1 79.5203 47.2897 40.3438 -0.6502 -3.4776 16.0549
# 2 47.2897 121.6059 68.7947 10.5830 -0.9491 8.6958
# 3 40.3438 68.7947 131.7667 -10.5908 -14.0060 2.8340
# 4 -0.6502 10.5830 -10.5908 21.2300 -3.1340 3.6332
# 5 -3.4776 -0.9491 -14.0060 -3.1340 30.1437 3.8334
# 6 16.0549 8.6958 2.8340 3.6332 3.8334 26.3607
#
#
#
# Elastic Compliance Matrix: (Units=1/GPa)
#
#
# Indices 1 2 3 4 5 6 
#
# 1 0.019552 -0.006286 -0.001716 0.005198 0.003178 -0.010829
# 2 -0.006286 0.016451 -0.008438 -0.013815 -0.005826 0.002060
# 3 -0.001716 -0.008438 0.014343 0.012519 0.007571 -0.000540
# 4 0.005198 -0.013815 0.012519 0.064328 0.014051 -0.010864
# 5 0.003178 -0.005826 0.007571 0.014051 0.039417 -0.008496
# 6 -0.010829 0.002060 -0.000540 -0.010864 -0.008496 0.046642
#
#
# Mechanical properties :
#
#
# Convention : Reuss Voigt Hill
#
# Bulk Modulus (GPa) = 57.25698 71.74991 64.50345
# Shear Modulus (GPa) = 20.88263 27.31120 24.09691
#
# Velocity S-wave (km/s) = 3.12533 3.57416 3.35726
# Velocity P-wave (km/s) = 6.30913 7.11290 6.72304
#
# Compressibility (1/GPa) = 0.01746512
#
# Stress axis : x y z
#
# Youngs Moduli (GPa) = 51.14626 60.78680 69.72147
#
# Poissons Ratio (x) = 0.38209 0.11965
# Poissons Ratio (y) = 0.32149 0.58834
# Poissons Ratio (z) = 0.08777 0.51295
#
# Static dielectric constant tensor:
#      x y z
#    x 4.065400 -0.050490 -0.203490 
#    y -0.050490 3.751190 0.209800 
#    z -0.203490 0.209800 4.047020 
# 
# 
# High freq. dielectric constant tensor:
#      x y z
#    x 1.851960 -0.002290 -0.004150 
#    y -0.002290 1.832760 0.019890 
#    z -0.004150 0.019890 1.841310 
# 
# From -- ./inp_files/558887.got.cif
#   From: 2010.06.25/outbox.cif.g09.slc.cpg/sg2_280_cif.got.tgz:558887.got - 2010.06.27 13:26:56.
