data_PCOD8009792
_publ_section_title
;
Structure prediction by ZEFSAII (Michael W. Deem and Ramdas Pophale) SiO2 
 PCOD8009792
Probable space group: P -1
;
_chemical_formula_sum "Si O2"
_cell_formula_units_Z 16
_cell_length_a 12.545476
_cell_length_b 12.052593
_cell_length_c 9.389214
_cell_angle_alpha 45.007474
_cell_angle_beta 48.970931
_cell_angle_gamma 64.585766
_cell_volume 755.775072
_symmetry_space_group_name_H-M "P -1"
_symmetry_group_IT_number 2
_symmetry_cell_setting 'triclinic'
loop_
_space_group_symop_operation_xyz
x,y,z
-x,-y,-z
loop_
_atom_site_type_symbol
_atom_site_label
_atom_site_fract_x
_atom_site_fract_y
_atom_site_fract_z
Si Si1 0.246470 0.745241 0.481298
Si Si2 0.649395 0.940000 0.956597
Si Si3 0.665603 0.071513 0.120096
Si Si4 0.473448 0.365960 0.761211
Si Si5 0.808606 0.570781 0.660646
Si Si6 0.897020 0.327014 0.597501
Si Si7 0.564944 0.798438 0.635155
Si Si8 0.657579 0.384530 0.188181
O O1 0.379491 0.720474 0.277423
O O2 0.115426 0.675801 0.562801
O O3 0.263805 0.665731 0.690487
O O4 0.236752 0.934917 0.333724
O O5 0.654751 0.760886 0.059308
O O6 0.500000 0.000000 0.000000
O O7 0.666612 0.946163 0.105541
O O8 0.525154 0.174640 0.164093
O O9 0.657057 0.959958 0.369320
O O10 0.808411 0.183338 0.883854
O O11 0.500000 0.500000 0.500000
O O12 0.425075 0.455548 0.862550
O O13 0.847614 0.494439 0.544832
O O14 0.667196 0.660336 0.690533
O O15 0.938339 0.687093 0.495921
O O16 0.779887 0.426795 0.927802
O O17 0.451884 0.752591 0.649283
#
# Coordination Sequence:
#
# PCOD8009792 Si02
#       8
#     2   2   2   2   2   2   2   2
#     4   9  19  34  58  81 116 152 197 237 294 351
#     4   9  17  30  52  82 113 154 181 236 292 356
#     4  10  21  37  61  86 119 152 203 241 299 351
#     4   9  17  29  51  86 116 144 185 245 299 338
#     4  11  24  38  60  84 127 158 200 240 301 355
#     4  10  22  42  58  85 118 171 194 237 297 367
#     4  11  22  36  60  95 116 151 195 259 294 346
#     4  11  21  36  58  93 118 148 195 258 296 343
#
# _framework density 21.17032
#
# number of rings (size 3 to 8) (size 9 to 14) (size 15 to 20)
#    0.000    2.000    1.250    3.375    5.250    2.000 
#    0.000    0.000    0.000    3.000    0.000    0.000 
#    0.000    0.000    0.000    0.000    0.000    0.000 
#
# Total GULP energy -198244.061381 kJ/mol
# GULP energy per Si atom -12390.253836 kJ/mol
# Density = 2.112214 g / cm^3
# Si number density = 21.170320 Si / 1000 Ang^3
#
#
#
# Elastic Constant Matrix: (Units=GPa)
#
#
# Indices 1 2 3 4 5 6 
#
# 1 89.1274 15.4496 43.4371 -8.9807 -10.1549 20.8817
# 2 15.4496 77.6503 10.6796 -16.9658 -3.9605 13.9178
# 3 43.4371 10.6796 90.4098 -12.6091 -8.0669 -0.1421
# 4 -8.9807 -16.9658 -12.6091 29.2399 6.8385 -4.2797
# 5 -10.1549 -3.9605 -8.0669 6.8385 23.0753 -4.6056
# 6 20.8817 13.9178 -0.1421 -4.2797 -4.6056 21.9999
#
#
#
# Elastic Compliance Matrix: (Units=1/GPa)
#
#
# Indices 1 2 3 4 5 6 
#
# 1 0.020848 0.000737 -0.010083 -0.000934 0.002047 -0.020073
# 2 0.000737 0.016361 -0.001323 0.008106 -0.001696 -0.009837
# 3 -0.010083 -0.001323 0.016929 0.004650 0.002249 0.011892
# 4 -0.000934 0.008106 0.004650 0.043222 -0.009774 0.002150
# 5 0.002047 -0.001696 0.002249 -0.009774 0.049132 0.007529
# 6 -0.020073 -0.009837 0.011892 0.002150 0.007529 0.072802
#
#
# Mechanical properties :
#
#
# Convention : Reuss Voigt Hill
#
# Bulk Modulus (GPa) = 30.48677 44.03557 37.26117
# Shear Modulus (GPa) = 19.87555 27.37110 23.62333
#
# Velocity S-wave (km/s) = 3.06737 3.59959 3.34409
# Velocity P-wave (km/s) = 5.19394 6.17429 5.70521
#
# Compressibility (1/GPa) = 0.03280111
#
# Stress axis : x y z
#
# Youngs Moduli (GPa) = 47.96621 61.12000 59.06972
#
# Poissons Ratio (x) = -0.04504 0.59557
# Poissons Ratio (y) = -0.03535 0.07815
# Poissons Ratio (z) = 0.48362 0.08086
#
# Static dielectric constant tensor:
#      x y z
#    x 3.564410 0.388360 -0.115330 
#    y 0.388360 4.529970 -0.256100 
#    z -0.115330 -0.256100 3.823030 
# 
# 
# High freq. dielectric constant tensor:
#      x y z
#    x 1.800560 0.029200 0.009970 
#    y 0.029200 1.827200 -0.017880 
#    z 0.009970 -0.017880 1.828730 
# 
# From -- ./inp_files/261438.got.cif
#   From: 2010.06.25/outbox.cif.g09.slc.cpg/sg2_131_cif.got.tgz:261438.got - 2010.06.27 13:26:56.
