data_PCOD8009231
_publ_section_title
;
Structure prediction by ZEFSAII (Michael W. Deem and Ramdas Pophale) SiO2 
 PCOD8009231
Probable space group: P -1
;
_chemical_formula_sum "Si O2"
_cell_formula_units_Z 16
_cell_length_a 24.497605
_cell_length_b 11.094333
_cell_length_c 20.506893
_cell_angle_alpha 36.239683
_cell_angle_beta 15.234307
_cell_angle_gamma 43.015073
_cell_volume 825.132245
_symmetry_space_group_name_H-M "P -1"
_symmetry_group_IT_number 2
_symmetry_cell_setting 'triclinic'
loop_
_space_group_symop_operation_xyz
x,y,z
-x,-y,-z
loop_
_atom_site_type_symbol
_atom_site_label
_atom_site_fract_x
_atom_site_fract_y
_atom_site_fract_z
Si Si1 0.128773 0.026571 0.247983
Si Si2 0.248930 0.039892 0.714605
Si Si3 0.424913 0.407218 0.804751
Si Si4 0.672697 0.519058 0.850601
Si Si5 0.580231 0.484595 0.728622
Si Si6 0.129480 0.850047 0.187433
Si Si7 0.390164 0.138723 0.649678
Si Si8 0.043587 0.688668 0.595820
O O1 0.939239 0.120044 0.454402
O O2 0.096165 0.991415 0.224683
O O3 0.111739 0.797987 0.399312
O O4 0.366069 0.197154 0.917807
O O5 0.395016 0.271614 0.421785
O O6 0.268257 0.016220 0.780039
O O7 0.365345 0.881451 0.615026
O O8 0.000000 0.000000 0.000000
O O9 0.510084 0.349998 0.801431
O O10 0.589380 0.608586 0.489747
O O11 0.204029 0.467247 0.051481
O O12 0.712893 0.290206 0.913975
O O13 0.897884 0.698606 0.494081
O O14 0.500000 0.500000 0.000000
O O15 0.588040 0.591890 0.984372
O O16 0.812231 0.462336 0.489664
O O17 0.237524 0.031108 0.931764
#
# Coordination Sequence:
#
# PCOD8009231 Si02
#       8
#     2   2   2   2   2   2   2   2
#     4   9  20  40  59  86 120 160 189 244 294 340
#     4  10  21  36  59  86 117 152 199 241 291 347
#     4   9  20  37  59  89 114 152 201 237 292 341
#     4  11  25  39  59  89 117 159 193 246 306 351
#     4  11  20  36  62  87 111 151 200 246 295 341
#     4  11  23  42  58  84 128 151 198 241 297 363
#     4  10  21  37  59  87 117 160 191 241 295 351
#     4   9  19  37  58  86 117 146 200 246 282 338
#
# _framework density 19.390830000000001
#
# number of rings (size 3 to 8) (size 9 to 14) (size 15 to 20)
#    0.750    1.250    1.250    2.250    1.750    2.000 
#    2.250    0.000    0.000    1.500    0.000    0.000 
#    0.000    0.000    0.000    0.000    0.000    0.000 
#
# Total GULP energy -198302.313204 kJ/mol
# GULP energy per Si atom -12393.894575 kJ/mol
# Density = 1.934670 g / cm^3
# Si number density = 19.390830 Si / 1000 Ang^3
#
#
#
# Elastic Constant Matrix: (Units=GPa)
#
#
# Indices 1 2 3 4 5 6 
#
# 1 106.4656 26.0464 53.8885 -2.0862 13.9243 -6.1113
# 2 26.0464 31.7440 10.2155 -1.4757 8.2842 -7.8276
# 3 53.8885 10.2155 99.1436 -8.0345 11.0229 -8.8131
# 4 -2.0862 -1.4757 -8.0345 32.0277 -6.7952 -5.4748
# 5 13.9243 8.2842 11.0229 -6.7952 37.0964 0.2684
# 6 -6.1113 -7.8276 -8.8131 -5.4748 0.2684 27.0028
#
#
#
# Elastic Compliance Matrix: (Units=1/GPa)
#
#
# Indices 1 2 3 4 5 6 
#
# 1 0.016057 -0.010955 -0.007819 -0.002200 -0.001642 -0.002523
# 2 -0.010955 0.044156 0.003417 0.002903 -0.006320 0.012087
# 3 -0.007819 0.003417 0.014910 0.003889 -0.001582 0.004891
# 4 -0.002200 0.002903 0.003889 0.034793 0.005333 0.008614
# 5 -0.001642 -0.006320 -0.001582 0.005333 0.030445 -0.001941
# 6 -0.002523 0.012087 0.004891 0.008614 -0.001941 0.043328
#
#
# Mechanical properties :
#
#
# Convention : Reuss Voigt Hill
#
# Bulk Modulus (GPa) = 22.51767 46.40600 34.46183
# Shear Modulus (GPa) = 21.81439 29.03892 25.42665
#
# Velocity S-wave (km/s) = 3.35772 3.87403 3.62508
# Velocity P-wave (km/s) = 5.16431 6.63285 5.94411
#
# Compressibility (1/GPa) = 0.04440957
#
# Stress axis : x y z
#
# Youngs Moduli (GPa) = 62.27705 22.64706 67.06885
#
# Poissons Ratio (x) = 0.24810 0.52441
# Poissons Ratio (y) = 0.68224 -0.22918
# Poissons Ratio (z) = 0.48694 -0.07739
#
# Static dielectric constant tensor:
#      x y z
#    x 3.515240 -0.064810 0.005620 
#    y -0.064810 3.324890 -0.059860 
#    z 0.005620 -0.059860 3.449980 
# 
# 
# High freq. dielectric constant tensor:
#      x y z
#    x 1.750530 -0.009110 0.001730 
#    y -0.009110 1.738830 -0.009330 
#    z 0.001730 -0.009330 1.752050 
# 
# From -- ./inp_files/577779.got.cif
#   From: 2010.06.25/outbox.cif.g09.slc.cpg/sg2_289_cif.got.tgz:577779.got - 2010.06.27 13:26:56.
