data_PCOD8009647
_publ_section_title
;
Structure prediction by ZEFSAII (Michael W. Deem and Ramdas Pophale) SiO2 
 PCOD8009647
Probable space group: P -1
;
_chemical_formula_sum "Si O2"
_cell_formula_units_Z 16
_cell_length_a 8.554859
_cell_length_b 20.220045
_cell_length_c 20.458699
_cell_angle_alpha 160.455071
_cell_angle_beta 140.224039
_cell_angle_gamma 41.322650
_cell_volume 751.535685
_symmetry_space_group_name_H-M "P -1"
_symmetry_group_IT_number 2
_symmetry_cell_setting 'triclinic'
loop_
_space_group_symop_operation_xyz
x,y,z
-x,-y,-z
loop_
_atom_site_type_symbol
_atom_site_label
_atom_site_fract_x
_atom_site_fract_y
_atom_site_fract_z
Si Si1 0.079246 0.230182 0.498413
Si Si2 0.857252 0.701604 0.561738
Si Si3 0.548221 0.099524 0.846824
Si Si4 0.555761 0.223348 0.713933
Si Si5 0.040320 0.341885 0.923494
Si Si6 0.196719 0.467248 0.229789
Si Si7 0.717746 0.312003 0.218463
Si Si8 0.798229 0.224487 0.917947
O O1 0.027568 0.318232 0.491679
O O2 0.318025 0.326119 0.693727
O O3 0.854281 0.308397 0.547970
O O4 0.108840 0.992823 0.284922
O O5 0.785576 0.490963 0.362578
O O6 0.060893 0.773531 0.742782
O O7 0.612737 0.863997 0.634520
O O8 0.679403 0.221535 0.947959
O O9 0.256356 0.165005 0.809944
O O10 0.654895 0.138719 0.988901
O O11 0.796667 0.236608 0.759073
O O12 0.595550 0.322463 0.890572
O O13 0.500000 0.000000 0.500000
O O14 0.000000 0.500000 0.000000
O O15 0.119184 0.459958 0.122350
O O16 0.482487 0.389518 0.259362
O O17 0.038403 0.336145 0.102557
#
# Coordination Sequence:
#
# PCOD8009647 Si02
#       8
#     2   2   2   2   2   2   2   2
#     4  10  21  37  59  83 117 155 198 233 295 353
#     4  10  22  40  61  85 115 156 200 250 295 357
#     4  10  21  40  63  84 121 156 198 243 302 351
#     4   9  20  37  56  82 122 159 192 238 291 354
#     4  10  23  36  59  93 121 157 205 244 292 363
#     4  10  22  36  59  83 119 153 191 245 297 345
#     4  10  22  39  60  88 116 150 201 251 305 343
#     4   9  20  38  57  86 115 157 194 238 288 362
#
# _framework density 21.289742
#
# number of rings (size 3 to 8) (size 9 to 14) (size 15 to 20)
#    0.000    2.250    0.000    1.125    7.000    5.500 
#    0.000    8.125    0.000    0.000    0.000    0.000 
#    0.000    0.000    0.000    0.000    0.000    0.000 
#
# Total GULP energy -198380.248175 kJ/mol
# GULP energy per Si atom -12398.765511 kJ/mol
# Density = 2.124129 g / cm^3
# Si number density = 21.289742 Si / 1000 Ang^3
#
#
#
# Elastic Constant Matrix: (Units=GPa)
#
#
# Indices 1 2 3 4 5 6 
#
# 1 95.5761 33.2740 5.4543 7.5460 -11.3690 -3.8384
# 2 33.2740 90.9443 8.5331 6.4929 -3.5594 2.7287
# 3 5.4543 8.5331 33.4646 -2.9004 -9.4960 -2.9356
# 4 7.5460 6.4929 -2.9004 16.0194 -5.2379 -1.7728
# 5 -11.3690 -3.5594 -9.4960 -5.2379 40.4013 4.1462
# 6 -3.8384 2.7287 -2.9356 -1.7728 4.1462 35.2064
#
#
#
# Elastic Compliance Matrix: (Units=1/GPa)
#
#
# Indices 1 2 3 4 5 6 
#
# 1 0.012581 -0.004263 -0.000434 -0.003324 0.002508 0.001203
# 2 -0.004263 0.013231 -0.003612 -0.004638 -0.001292 -0.001873
# 3 -0.000434 -0.003612 0.034583 0.011118 0.008859 0.002633
# 4 -0.003324 -0.004638 0.011118 0.071589 0.010209 0.003327
# 5 0.002508 -0.001292 0.008859 0.010209 0.028932 -0.001781
# 6 0.001203 -0.001873 0.002633 0.003327 -0.001781 0.029277
#
#
# Mechanical properties :
#
#
# Convention : Reuss Voigt Hill
#
# Bulk Modulus (GPa) = 22.84342 34.94533 28.89438
# Shear Modulus (GPa) = 22.58320 29.84031 26.21176
#
# Velocity S-wave (km/s) = 3.26046 3.74789 3.51264
# Velocity P-wave (km/s) = 4.99271 5.93117 5.48206
#
# Compressibility (1/GPa) = 0.04377628
#
# Stress axis : x y z
#
# Youngs Moduli (GPa) = 79.48594 75.57960 28.91630
#
# Poissons Ratio (x) = 0.32219 0.01256
# Poissons Ratio (y) = 0.33884 0.10444
# Poissons Ratio (z) = 0.03452 0.27299
#
# Static dielectric constant tensor:
#      x y z
#    x 3.894840 -0.030340 -0.076040 
#    y -0.030340 3.992580 -0.113550 
#    z -0.076040 -0.113550 3.750120 
# 
# 
# High freq. dielectric constant tensor:
#      x y z
#    x 1.837260 0.003760 -0.008600 
#    y 0.003760 1.832670 0.001140 
#    z -0.008600 0.001140 1.831460 
# 
# From -- ./inp_files/269685.got.cif
#   From: 2010.06.25/outbox.cif.g09.slc.cpg/sg2_135_cif.got.tgz:269685.got - 2010.06.27 13:26:56.
