data_PCOD8009166
_publ_section_title
;
Structure prediction by ZEFSAII (Michael W. Deem and Ramdas Pophale) SiO2 
 PCOD8009166
Probable space group: P -1
;
_chemical_formula_sum "Si O2"
_cell_formula_units_Z 16
_cell_length_a 14.936196
_cell_length_b 15.211067
_cell_length_c 9.405862
_cell_angle_alpha 141.216589
_cell_angle_beta 120.901815
_cell_angle_gamma 41.844376
_cell_volume 881.357657
_symmetry_space_group_name_H-M "P -1"
_symmetry_group_IT_number 2
_symmetry_cell_setting 'triclinic'
loop_
_space_group_symop_operation_xyz
x,y,z
-x,-y,-z
loop_
_atom_site_type_symbol
_atom_site_label
_atom_site_fract_x
_atom_site_fract_y
_atom_site_fract_z
Si Si1 0.410902 0.673349 0.550045
Si Si2 0.102018 0.466767 0.847675
Si Si3 0.131219 0.524139 0.269561
Si Si4 0.122726 0.836448 0.573042
Si Si5 0.410697 0.191785 0.748052
Si Si6 0.102599 0.763979 0.139495
Si Si7 0.434074 0.182691 0.091892
Si Si8 0.595348 0.486213 0.944417
O O1 0.500000 0.500000 0.500000
O O2 0.260408 0.806538 0.662234
O O3 0.471683 0.773902 0.723925
O O4 0.411958 0.609539 0.314771
O O5 0.254334 0.287967 0.704854
O O6 0.991136 0.440566 0.694685
O O7 0.107533 0.504414 0.063410
O O8 0.055634 0.642023 0.938472
O O9 0.124829 0.698133 0.502272
O O10 0.277651 0.342310 0.212974
O O11 0.107615 0.800257 0.354029
O O12 0.000920 0.044064 0.784494
O O13 0.500000 0.000000 0.500000
O O14 0.441419 0.155200 0.894272
O O15 0.446776 0.318143 0.883849
O O16 0.250170 0.650030 0.043515
O O17 0.500000 0.000000 0.000000
O O18 0.500000 0.500000 0.000000
#
# Coordination Sequence:
#
# PCOD8009166 Si02
#       8
#     2   2   2   2   2   2   2   2
#     4  11  19  37  56  78 112 143 174 226 273 311
#     4   8  16  30  49  71 104 138 170 219 262 304
#     4   9  16  30  48  75 104 133 176 219 261 312
#     4   9  16  28  51  75 102 135 172 221 265 307
#     4  10  21  38  55  80 113 143 178 223 267 316
#     4   8  16  30  47  76 103 131 176 218 261 308
#     4  11  23  35  54  84 110 142 182 219 269 323
#     4  10  21  36  58  82 108 143 180 221 269 319
#
# _framework density 18.153811000000001
#
# number of rings (size 3 to 8) (size 9 to 14) (size 15 to 20)
#    0.000    2.500    2.500    1.500    3.500    1.000 
#    4.500    0.000    0.000    3.000    0.000    0.000 
#    0.000    0.000    0.000    0.000    0.000    0.000 
#
# Total GULP energy -198300.742179 kJ/mol
# GULP energy per Si atom -12393.796386 kJ/mol
# Density = 1.811249 g / cm^3
# Si number density = 18.153811 Si / 1000 Ang^3
#
#
#
# Elastic Constant Matrix: (Units=GPa)
#
#
# Indices 1 2 3 4 5 6 
#
# 1 167.8362 75.1028 57.8689 24.4145 23.2943 -13.5535
# 2 75.1028 124.5006 47.2241 38.3673 13.5989 -2.8014
# 3 57.8689 47.2241 79.1537 26.8515 14.9697 -6.9185
# 4 24.4145 38.3673 26.8515 33.8391 0.8211 2.9486
# 5 23.2943 13.5989 14.9697 0.8211 30.3698 -0.3054
# 6 -13.5535 -2.8014 -6.9185 2.9486 -0.3054 29.8718
#
#
#
# Elastic Compliance Matrix: (Units=1/GPa)
#
#
# Indices 1 2 3 4 5 6 
#
# 1 0.009861 -0.004136 -0.003940 0.000524 -0.003753 0.003084
# 2 -0.004136 0.015464 -0.000896 -0.013829 -0.002930 0.000701
# 3 -0.003940 -0.000896 0.022748 -0.014428 -0.007352 0.004746
# 4 0.000524 -0.013829 -0.014428 0.056890 0.011264 -0.009901
# 5 -0.003753 -0.002930 -0.007352 0.011264 0.040393 -0.004379
# 6 0.003084 0.000701 0.004746 -0.009901 -0.004379 0.036973
#
#
# Mechanical properties :
#
#
# Convention : Reuss Voigt Hill
#
# Bulk Modulus (GPa) = 33.19030 81.32022 57.25526
# Shear Modulus (GPa) = 23.77353 31.56912 27.67132
#
# Velocity S-wave (km/s) = 3.62271 4.17463 3.90843
# Velocity P-wave (km/s) = 5.98509 8.25404 7.20938
#
# Compressibility (1/GPa) = 0.03012928
#
# Stress axis : x y z
#
# Youngs Moduli (GPa) = 101.40643 64.66506 43.95928
#
# Poissons Ratio (x) = 0.26747 0.17321
# Poissons Ratio (y) = 0.41944 0.03938
# Poissons Ratio (z) = 0.39958 0.05792
#
# Static dielectric constant tensor:
#      x y z
#    x 3.638460 -0.159710 0.185430 
#    y -0.159710 3.435450 0.290480 
#    z 0.185430 0.290480 3.102260 
# 
# 
# High freq. dielectric constant tensor:
#      x y z
#    x 1.710410 -0.012660 0.020070 
#    y -0.012660 1.699800 0.025550 
#    z 0.020070 0.025550 1.673320 
# 
# From -- ./inp_files/201435.got.cif
#   From: 2010.06.25/outbox.cif.g09.slc.cpg/sg2_101_cif.got.tgz:201435.got - 2010.06.27 13:26:56.
