data_PCOD8009441
_publ_section_title
;
Structure prediction by ZEFSAII (Michael W. Deem and Ramdas Pophale) SiO2 
 PCOD8009441
Probable space group: P -1
;
_chemical_formula_sum "Si O2"
_cell_formula_units_Z 16
_cell_length_a 19.675153
_cell_length_b 11.412566
_cell_length_c 8.492930
_cell_angle_alpha 129.219941
_cell_angle_beta 34.161423
_cell_angle_gamma 135.101726
_cell_volume 750.717231
_symmetry_space_group_name_H-M "P -1"
_symmetry_group_IT_number 2
_symmetry_cell_setting 'triclinic'
loop_
_space_group_symop_operation_xyz
x,y,z
-x,-y,-z
loop_
_atom_site_type_symbol
_atom_site_label
_atom_site_fract_x
_atom_site_fract_y
_atom_site_fract_z
Si Si1 0.602752 0.877348 0.627847
Si Si2 0.278673 0.256107 0.974792
Si Si3 0.053095 0.306160 0.581952
Si Si4 0.081656 0.518410 0.203120
Si Si5 0.189647 0.320957 0.645569
Si Si6 0.797833 0.977586 0.782951
Si Si7 0.525782 0.563803 0.682201
Si Si8 0.333399 0.852422 0.028520
O O1 0.706499 0.832603 0.289517
O O2 0.546322 0.756011 0.787321
O O3 0.480890 0.860076 0.731630
O O4 0.675683 0.064035 0.715494
O O5 0.399479 0.441458 0.922914
O O6 0.140684 0.277700 0.248555
O O7 0.276096 0.143460 0.033954
O O8 0.151798 0.381141 0.604219
O O9 0.994046 0.434631 0.752315
O O10 0.935696 0.127037 0.701802
O O11 0.000000 0.500000 0.500000
O O12 0.096279 0.349567 0.982928
O O13 0.228865 0.661444 0.070905
O O14 0.168058 0.128385 0.509275
O O15 0.343414 0.440308 0.492886
O O16 0.697909 0.051663 0.973345
O O17 0.500000 0.500000 0.500000
#
# Coordination Sequence:
#
# PCOD8009441 Si02
#       8
#     2   2   2   2   2   2   2   2
#     4  10  21  39  63  87 125 164 195 258 304 362
#     4  10  21  37  65  92 120 157 209 249 303 365
#     4  10  24  41  63  89 128 161 205 256 302 369
#     4  11  25  38  62  92 122 166 207 252 303 370
#     4  11  21  42  62  87 125 163 200 255 313 348
#     4  10  22  42  64  90 122 163 204 252 302 370
#     4  10  21  36  64  91 123 155 201 261 301 360
#     4  10  22  42  59  87 127 160 199 252 313 350
#
# _framework density 21.312951999999999
#
# number of rings (size 3 to 8) (size 9 to 14) (size 15 to 20)
#    0.000    1.750    1.250    3.375    5.250    4.500 
#    0.000    2.500    0.000    0.000    0.000    0.000 
#    0.000    0.000    0.000    0.000    0.000    0.000 
#
# Total GULP energy -198313.543435 kJ/mol
# GULP energy per Si atom -12394.596465 kJ/mol
# Density = 2.126444 g / cm^3
# Si number density = 21.312952 Si / 1000 Ang^3
#
#
#
# Elastic Constant Matrix: (Units=GPa)
#
#
# Indices 1 2 3 4 5 6 
#
# 1 99.0665 36.7933 26.5839 -14.9710 -18.0865 13.0027
# 2 36.7933 74.2344 28.9405 -2.9125 3.2300 -9.0121
# 3 26.5839 28.9405 95.3232 -1.1647 -1.1706 -7.1813
# 4 -14.9710 -2.9125 -1.1647 31.6900 1.4597 1.1501
# 5 -18.0865 3.2300 -1.1706 1.4597 33.4531 -2.0082
# 6 13.0027 -9.0121 -7.1813 1.1501 -2.0082 31.0578
#
#
#
# Elastic Compliance Matrix: (Units=1/GPa)
#
#
# Indices 1 2 3 4 5 6 
#
# 1 0.019004 -0.009744 -0.002958 0.007912 0.010100 -0.011107
# 2 -0.009744 0.020760 -0.003019 -0.002826 -0.006710 0.009076
# 3 -0.002958 -0.003019 0.012453 -0.001306 -0.000620 0.003250
# 4 0.007912 -0.002826 -0.001306 0.035066 0.002641 -0.005562
# 5 0.010100 -0.006710 -0.000620 0.002641 0.035617 -0.004113
# 6 -0.011107 0.009076 0.003250 -0.005562 -0.004113 0.040173
#
#
# Mechanical properties :
#
#
# Convention : Reuss Voigt Hill
#
# Bulk Modulus (GPa) = 48.12970 50.36218 49.24594
# Shear Modulus (GPa) = 24.82141 30.99395 27.90768
#
# Velocity S-wave (km/s) = 3.41635 3.81757 3.62252
# Velocity P-wave (km/s) = 6.18007 6.56605 6.37598
#
# Compressibility (1/GPa) = 0.02077719
#
# Stress axis : x y z
#
# Youngs Moduli (GPa) = 52.62025 48.17003 80.30027
#
# Poissons Ratio (x) = 0.46935 0.23751
# Poissons Ratio (y) = 0.51271 0.24240
# Poissons Ratio (z) = 0.15564 0.14541
#
# Static dielectric constant tensor:
#      x y z
#    x 3.922910 -0.008810 -0.238250 
#    y -0.008810 4.255730 0.054380 
#    z -0.238250 0.054380 3.834910 
# 
# 
# High freq. dielectric constant tensor:
#      x y z
#    x 1.843400 0.004810 -0.021500 
#    y 0.004810 1.834490 0.013860 
#    z -0.021500 0.013860 1.820290 
# 
# From -- ./inp_files/346327.got.cif
#   From: 2010.06.25/outbox.cif.g09.slc.cpg/sg2_174_cif.got.tgz:346327.got - 2010.06.27 13:26:56.
