data_PCOD8009763
_publ_section_title
;
Structure prediction by ZEFSAII (Michael W. Deem and Ramdas Pophale) SiO2 
 PCOD8009763
Probable space group: P -1
;
_chemical_formula_sum "Si O2"
_cell_formula_units_Z 16
_cell_length_a 16.466642
_cell_length_b 7.095934
_cell_length_c 7.875904
_cell_angle_alpha 121.070895
_cell_angle_beta 106.156661
_cell_angle_gamma 55.224081
_cell_volume 647.280311
_symmetry_space_group_name_H-M "P -1"
_symmetry_group_IT_number 2
_symmetry_cell_setting 'triclinic'
loop_
_space_group_symop_operation_xyz
x,y,z
-x,-y,-z
loop_
_atom_site_type_symbol
_atom_site_label
_atom_site_fract_x
_atom_site_fract_y
_atom_site_fract_z
Si Si1 0.385867 0.528045 0.772710
Si Si2 0.905377 0.531366 0.811989
Si Si3 0.184243 0.584829 0.594714
Si Si4 0.103784 0.744688 0.977272
Si Si5 0.881807 0.855703 0.228599
Si Si6 0.567331 0.271404 0.555356
Si Si7 0.690652 0.427739 0.897797
Si Si8 0.678218 0.940177 0.184128
O O1 0.300031 0.486388 0.628358
O O2 0.494137 0.289154 0.670158
O O3 0.383967 0.527647 0.973039
O O4 0.370544 0.803566 0.838644
O O5 0.829199 0.575841 0.638412
O O6 0.017052 0.367067 0.727072
O O7 0.902660 0.395718 0.923573
O O8 0.881410 0.807610 0.999255
O O9 0.139511 0.568718 0.743123
O O10 0.123357 0.877177 0.627444
O O11 0.195474 0.786498 0.090259
O O12 0.000000 0.000000 0.000000
O O13 0.789940 0.854646 0.259475
O O14 0.500000 0.500000 0.500000
O O15 0.618051 0.000559 0.356392
O O16 0.656465 0.317608 0.675516
O O17 0.678837 0.705511 0.977483
#
# Coordination Sequence:
#
# PCOD8009763 Si02
#       8
#     2   2   2   2   2   2   2   2
#     4   9  22  42  64  95 132 163 224 272 321 403
#     4  11  22  39  65  86 129 174 204 270 328 369
#     4  10  22  41  63  89 127 173 207 265 330 380
#     4  11  23  39  64  99 126 169 227 256 325 403
#     4  10  21  37  60  92 121 162 221 256 310 399
#     4  10  23  41  67 100 123 170 224 264 334 402
#     4  11  23  43  66  91 137 172 207 284 327 378
#     4  10  22  40  66  94 128 170 219 265 327 400
#
# _framework density 24.718813000000001
#
# number of rings (size 3 to 8) (size 9 to 14) (size 15 to 20)
#    0.000    1.750    2.500    0.750    5.250    2.500 
#    0.000   15.000    0.000    0.000    0.000    0.000 
#    0.000    0.000    0.000    0.000    0.000    0.000 
#
# Total GULP energy -198218.233545 kJ/mol
# GULP energy per Si atom -12388.639597 kJ/mol
# Density = 2.466255 g / cm^3
# Si number density = 24.718813 Si / 1000 Ang^3
#
#
#
# Elastic Constant Matrix: (Units=GPa)
#
#
# Indices 1 2 3 4 5 6 
#
# 1 94.5286 14.4992 7.7119 -0.9805 -19.3841 -20.2346
# 2 14.4992 46.3911 10.1978 -3.2103 -3.3832 -15.9520
# 3 7.7119 10.1978 101.0608 -13.6756 18.8322 -14.0876
# 4 -0.9805 -3.2103 -13.6756 35.6485 -3.5572 -7.7280
# 5 -19.3841 -3.3832 18.8322 -3.5572 36.3773 -0.4421
# 6 -20.2346 -15.9520 -14.0876 -7.7280 -0.4421 40.9462
#
#
#
# Elastic Compliance Matrix: (Units=1/GPa)
#
#
# Indices 1 2 3 4 5 6 
#
# 1 0.013968 -0.001099 -0.001326 0.002012 0.008302 0.006488
# 2 -0.001099 0.026143 -0.001102 0.004392 0.002969 0.010124
# 3 -0.001326 -0.001102 0.012614 0.004915 -0.006808 0.004110
# 4 0.002012 0.004392 0.004915 0.032921 0.002285 0.010634
# 5 0.008302 0.002969 -0.006808 0.002285 0.035983 0.003737
# 6 0.006488 0.010124 0.004110 0.010634 0.003737 0.035034
#
#
# Mechanical properties :
#
#
# Convention : Reuss Voigt Hill
#
# Bulk Modulus (GPa) = 21.89482 34.08871 27.99177
# Shear Modulus (GPa) = 27.94245 36.56585 32.25415
#
# Velocity S-wave (km/s) = 3.36581 3.85030 3.61618
# Velocity P-wave (km/s) = 4.89711 5.79543 5.36510
#
# Compressibility (1/GPa) = 0.04567289
#
# Stress axis : x y z
#
# Youngs Moduli (GPa) = 71.59460 38.25096 79.27667
#
# Poissons Ratio (x) = 0.04202 0.10508
# Poissons Ratio (y) = 0.07865 0.08735
# Poissons Ratio (z) = 0.09490 0.04215
#
# Static dielectric constant tensor:
#      x y z
#    x 4.903280 -0.250950 -0.501480 
#    y -0.250950 4.385050 0.355490 
#    z -0.501480 0.355490 4.401500 
# 
# 
# High freq. dielectric constant tensor:
#      x y z
#    x 2.001380 -0.015940 -0.008440 
#    y -0.015940 1.968820 0.006160 
#    z -0.008440 0.006160 1.964740 
# 
# From -- ./inp_files/329632.got.cif
#   From: 2010.06.25/outbox.cif.g09.slc.cpg/sg2_165_cif.got.tgz:329632.got - 2010.06.27 13:26:56.
