data_PCOD8009330
_publ_section_title
;
Structure prediction by ZEFSAII (Michael W. Deem and Ramdas Pophale) SiO2 
 PCOD8009330
Probable space group: P -1
;
_chemical_formula_sum "Si O2"
_cell_formula_units_Z 16
_cell_length_a 11.426362
_cell_length_b 8.776757
_cell_length_c 13.598893
_cell_angle_alpha 71.324044
_cell_angle_beta 139.354483
_cell_angle_gamma 92.180367
_cell_volume 793.804607
_symmetry_space_group_name_H-M "P -1"
_symmetry_group_IT_number 2
_symmetry_cell_setting 'triclinic'
loop_
_space_group_symop_operation_xyz
x,y,z
-x,-y,-z
loop_
_atom_site_type_symbol
_atom_site_label
_atom_site_fract_x
_atom_site_fract_y
_atom_site_fract_z
Si Si1 0.254199 0.137170 0.601070
Si Si2 0.899724 0.427533 0.365680
Si Si3 0.511218 0.054643 0.384075
Si Si4 0.171239 0.036300 0.051495
Si Si5 0.691175 0.033465 0.143026
Si Si6 0.350349 0.627808 0.623018
Si Si7 0.572226 0.261305 0.852871
Si Si8 0.047975 0.271537 0.745684
O O1 0.333499 0.091374 0.550939
O O2 0.366384 0.237680 0.715386
O O3 0.035468 0.258028 0.432217
O O4 0.281124 0.964966 0.720701
O O5 0.722928 0.382102 0.309325
O O6 0.844557 0.586174 0.221093
O O7 0.000000 0.500000 0.500000
O O8 0.301417 0.091178 0.200558
O O9 0.500000 0.000000 0.500000
O O10 0.571548 0.220047 0.379719
O O11 0.286498 0.861706 0.108131
O O12 0.088452 0.196462 0.894960
O O13 0.000000 0.000000 0.000000
O O14 0.874164 0.879231 0.253192
O O15 0.666612 0.211583 0.033242
O O16 0.500000 0.000000 0.000000
O O17 0.534264 0.457759 0.760649
O O18 0.179408 0.642660 0.434117
#
# Coordination Sequence:
#
# PCOD8009330 Si02
#       8
#     2   2   2   2   2   2   2   2
#     4  10  17  35  58  88 122 164 195 236 299 368
#     4  10  16  31  61  97 125 146 196 247 300 365
#     4  11  26  43  58  84 127 164 204 255 303 352
#     4  10  22  43  65  84 114 168 217 242 296 368
#     4   9  15  28  54  89 120 152 191 241 293 350
#     4  11  20  37  63  92 129 151 193 257 313 347
#     4   9  18  33  61  93 119 153 200 253 298 362
#     4  10  18  34  64  92 120 154 199 251 294 363
#
# _framework density 20.156092999999998
#
# number of rings (size 3 to 8) (size 9 to 14) (size 15 to 20)
#    0.000    2.000    5.000    2.250    0.000    0.500 
#    2.250    5.000    2.750    0.000    0.000    0.000 
#    0.000    0.000    0.000    0.000    0.000    0.000 
#
# Total GULP energy -198221.546880 kJ/mol
# GULP energy per Si atom -12388.846680 kJ/mol
# Density = 2.011022 g / cm^3
# Si number density = 20.156093 Si / 1000 Ang^3
#
#
#
# Elastic Constant Matrix: (Units=GPa)
#
#
# Indices 1 2 3 4 5 6 
#
# 1 126.1895 48.1564 70.2305 -10.1874 -26.8903 19.4723
# 2 48.1564 81.2507 45.1919 -21.1236 -11.6656 22.9122
# 3 70.2305 45.1919 113.3164 -27.8171 -12.2597 5.3163
# 4 -10.1874 -21.1236 -27.8171 30.8922 1.6917 -0.5229
# 5 -26.8903 -11.6656 -12.2597 1.6917 34.1287 -1.4836
# 6 19.4723 22.9122 5.3163 -0.5229 -1.4836 33.0097
#
#
#
# Elastic Compliance Matrix: (Units=1/GPa)
#
#
# Indices 1 2 3 4 5 6 
#
# 1 0.016515 -0.003367 -0.009065 -0.005587 0.008637 -0.005646
# 2 -0.003367 0.023402 -0.003518 0.011337 0.002939 -0.013379
# 3 -0.009065 -0.003518 0.018106 0.011112 -0.002176 0.004951
# 4 -0.005587 0.011337 0.011112 0.048146 0.000836 -0.005562
# 5 0.008637 0.002939 -0.002176 0.000836 0.036063 -0.005150
# 6 -0.005646 -0.013379 0.004951 -0.005562 -0.005150 0.041794
#
#
# Mechanical properties :
#
#
# Convention : Reuss Voigt Hill
#
# Bulk Modulus (GPa) = 38.27945 71.99044 55.13495
# Shear Modulus (GPa) = 22.25849 30.08464 26.17156
#
# Velocity S-wave (km/s) = 3.32671 3.86759 3.60730
# Velocity P-wave (km/s) = 5.81281 7.46581 6.69056
#
# Compressibility (1/GPa) = 0.02612368
#
# Stress axis : x y z
#
# Youngs Moduli (GPa) = 60.54999 42.73219 55.22974
#
# Poissons Ratio (x) = 0.14387 0.50067
# Poissons Ratio (y) = 0.20386 0.19428
# Poissons Ratio (z) = 0.54890 0.15032
#
# Static dielectric constant tensor:
#      x y z
#    x 2.986370 0.188940 0.409110 
#    y 0.188940 3.514330 -0.484770 
#    z 0.409110 -0.484770 3.841890 
# 
# 
# High freq. dielectric constant tensor:
#      x y z
#    x 1.781340 0.009520 -0.000250 
#    y 0.009520 1.753350 -0.026030 
#    z -0.000250 -0.026030 1.789450 
# 
# From -- ./inp_files/328575.got.cif
#   From: 2010.06.25/outbox.cif.g09.slc.cpg/sg2_165_cif.got.tgz:328575.got - 2010.06.27 13:26:56.
