data_PCOD8009986
_publ_section_title
;
Structure prediction by ZEFSAII (Michael W. Deem and Ramdas Pophale) SiO2 
 PCOD8009986
Probable space group: P -1
;
_chemical_formula_sum "Si O2"
_cell_formula_units_Z 16
_cell_length_a 14.864253
_cell_length_b 12.697609
_cell_length_c 14.475989
_cell_angle_alpha 129.062430
_cell_angle_beta 27.450529
_cell_angle_gamma 142.690519
_cell_volume 734.890748
_symmetry_space_group_name_H-M "P -1"
_symmetry_group_IT_number 2
_symmetry_cell_setting 'triclinic'
loop_
_space_group_symop_operation_xyz
x,y,z
-x,-y,-z
loop_
_atom_site_type_symbol
_atom_site_label
_atom_site_fract_x
_atom_site_fract_y
_atom_site_fract_z
Si Si1 0.983887 0.407093 0.055228
Si Si2 0.570881 0.462193 0.153603
Si Si3 0.189047 0.420526 0.191316
Si Si4 0.252671 0.557199 0.549930
Si Si5 0.785077 0.263512 0.701314
Si Si6 0.259194 0.989976 0.966102
Si Si7 0.849570 0.787662 0.737079
Si Si8 0.396870 0.844157 0.436973
O O1 0.753398 0.360146 0.304296
O O2 0.924476 0.224328 0.984201
O O3 0.000000 0.500000 0.000000
O O4 0.256242 0.545436 0.937665
O O5 0.447588 0.521921 0.363107
O O6 0.338590 0.269586 0.211281
O O7 0.750883 0.596535 0.978605
O O8 0.231015 0.602174 0.270149
O O9 0.322783 0.385324 0.129754
O O10 0.887272 0.243094 0.387581
O O11 0.365256 0.687394 0.431505
O O12 0.954164 0.373192 0.698853
O O13 0.485005 0.083463 0.891104
O O14 0.901531 0.184691 0.502282
O O15 0.399033 0.075561 0.787780
O O16 0.077671 0.036139 0.183307
O O17 0.500000 0.000000 0.500000
#
# Coordination Sequence:
#
# PCOD8009986 Si02
#       8
#     2   2   2   2   2   2   2   2
#     4  12  27  48  66  85 121 174 223 270 317 368
#     4  11  22  40  65  93 127 165 212 253 315 380
#     4  11  19  35  62  98 139 170 196 241 316 391
#     4  10  22  41  66  93 129 166 203 259 319 380
#     4  10  21  37  63  95 134 167 203 248 309 385
#     4  12  23  39  63  94 131 164 213 259 314 380
#     4  11  22  35  64 101 132 166 205 253 314 387
#     4  11  20  35  59  94 139 170 195 244 318 386
#
# _framework density 21.771944000000001
#
# number of rings (size 3 to 8) (size 9 to 14) (size 15 to 20)
#    0.000    1.000    6.250    1.500    3.500    2.500 
#    0.000    5.000    0.000    3.000    0.000    0.000 
#    0.000    0.000    0.000    0.000    0.000    0.000 
#
# Total GULP energy -198221.296011 kJ/mol
# GULP energy per Si atom -12388.831001 kJ/mol
# Density = 2.172239 g / cm^3
# Si number density = 21.771944 Si / 1000 Ang^3
#
#
#
# Elastic Constant Matrix: (Units=GPa)
#
#
# Indices 1 2 3 4 5 6 
#
# 1 105.3633 26.8873 32.1819 9.6134 -2.1314 -10.5096
# 2 26.8873 85.2867 50.6086 30.5288 9.3906 5.3550
# 3 32.1819 50.6086 96.1719 44.8571 2.2202 -4.9381
# 4 9.6134 30.5288 44.8571 38.6421 2.4526 2.6407
# 5 -2.1314 9.3906 2.2202 2.4526 12.0503 -2.9366
# 6 -10.5096 5.3550 -4.9381 2.6407 -2.9366 24.1941
#
#
#
# Elastic Compliance Matrix: (Units=1/GPa)
#
#
# Indices 1 2 3 4 5 6 
#
# 1 0.011944 -0.004140 -0.003093 0.003054 0.006739 0.005958
# 2 -0.004140 0.022277 -0.007731 -0.005787 -0.017890 -0.009847
# 3 -0.003093 -0.007731 0.028795 -0.027781 0.008334 0.010289
# 4 0.003054 -0.005787 -0.027781 0.062994 -0.005230 -0.010573
# 5 0.006739 -0.017890 0.008334 -0.005230 0.102924 0.021651
# 6 0.005958 -0.009847 0.010289 -0.010573 0.021651 0.051982
#
#
# Mechanical properties :
#
#
# Convention : Reuss Voigt Hill
#
# Bulk Modulus (GPa) = 30.22085 56.24191 43.23138
# Shear Modulus (GPa) = 15.53407 26.78691 21.16049
#
# Velocity S-wave (km/s) = 2.67402 3.51143 3.12094
# Velocity P-wave (km/s) = 4.84197 6.50604 5.73468
#
# Compressibility (1/GPa) = 0.03308974
#
# Stress axis : x y z
#
# Youngs Moduli (GPa) = 83.72504 44.88847 34.72835
#
# Poissons Ratio (x) = 0.18582 0.10740
# Poissons Ratio (y) = 0.34659 0.26849
# Poissons Ratio (z) = 0.25892 0.34704
#
# Static dielectric constant tensor:
#      x y z
#    x 5.550490 -0.704620 0.670310 
#    y -0.704620 4.406580 -0.294840 
#    z 0.670310 -0.294840 4.577720 
# 
# 
# High freq. dielectric constant tensor:
#      x y z
#    x 1.835890 0.033430 -0.017100 
#    y 0.033430 1.822690 0.027810 
#    z -0.017100 0.027810 1.869550 
# 
# From -- ./inp_files/532661.got.cif
#   From: 2010.06.25/outbox.cif.g09.slc.cpg/sg2_267_cif.got.tgz:532661.got - 2010.06.27 13:26:56.
