data_PCOD8009058
_publ_section_title
;
Structure prediction by ZEFSAII (Michael W. Deem and Ramdas Pophale) SiO2 
 PCOD8009058
Probable space group: P -1
;
_chemical_formula_sum "Si O2"
_cell_formula_units_Z 16
_cell_length_a 12.098819
_cell_length_b 21.601437
_cell_length_c 8.877324
_cell_angle_alpha 79.594797
_cell_angle_beta 128.504296
_cell_angle_gamma 142.063400
_cell_volume 852.817337
_symmetry_space_group_name_H-M "P -1"
_symmetry_group_IT_number 2
_symmetry_cell_setting 'triclinic'
loop_
_space_group_symop_operation_xyz
x,y,z
-x,-y,-z
loop_
_atom_site_type_symbol
_atom_site_label
_atom_site_fract_x
_atom_site_fract_y
_atom_site_fract_z
Si Si1 0.664536 0.296023 0.389250
Si Si2 0.245437 0.580123 0.846470
Si Si3 0.269620 0.129940 0.415675
Si Si4 0.626653 0.915411 0.958495
Si Si5 0.236014 0.898776 0.935012
Si Si6 0.062223 0.462735 0.167976
Si Si7 0.372228 0.294259 0.600878
Si Si8 0.370244 0.815914 0.120506
O O1 0.595881 0.328332 0.205651
O O2 0.444536 0.218510 0.376127
O O3 0.612167 0.207663 0.303919
O O4 0.009726 0.432787 0.672121
O O5 0.051307 0.563723 0.750991
O O6 0.489572 0.648436 0.138802
O O7 0.329932 0.204366 0.565554
O O8 0.377627 0.104669 0.580604
O O9 0.919814 0.987709 0.153443
O O10 0.506272 0.867033 0.046954
O O11 0.712987 0.021889 0.943684
O O12 0.935699 0.789336 0.631772
O O13 0.240924 0.833454 0.051927
O O14 0.500000 0.000000 0.000000
O O15 0.413333 0.588461 0.392757
O O16 0.000000 0.500000 0.000000
O O17 0.898387 0.337634 0.021215
#
# Coordination Sequence:
#
# PCOD8009058 Si02
#       8
#     2   2   2   2   2   2   2   2
#     4  11  20  32  52  87 117 142 176 228 285 322
#     4  10  19  32  56  87 113 142 176 235 278 322
#     4  11  19  32  57  84 110 142 189 228 268 327
#     4  10  21  36  53  80 115 149 182 225 270 329
#     4   9  22  37  56  81 111 145 187 227 267 324
#     4  10  16  31  56  84 107 130 176 236 270 315
#     4  10  18  36  58  85 109 138 186 234 270 320
#     4  11  19  36  58  82 107 147 184 232 278 311
#
# _framework density 18.761346
#
# number of rings (size 3 to 8) (size 9 to 14) (size 15 to 20)
#    0.000    1.750    5.000    1.500    0.000    2.500 
#    0.000    0.625    0.000    7.500    3.250    0.000 
#    0.000    0.000    0.000    0.000    0.000    0.000 
#
# Total GULP energy -198294.643558 kJ/mol
# GULP energy per Si atom -12393.415222 kJ/mol
# Density = 1.871864 g / cm^3
# Si number density = 18.761346 Si / 1000 Ang^3
#
#
#
# Elastic Constant Matrix: (Units=GPa)
#
#
# Indices 1 2 3 4 5 6 
#
# 1 68.3579 41.4642 62.2506 -1.6382 5.8895 -10.9404
# 2 41.4642 93.1241 47.2489 3.6227 4.4442 -18.4440
# 3 62.2506 47.2489 109.6933 7.5459 7.6843 -15.0761
# 4 -1.6382 3.6227 7.5459 30.6544 -1.7961 -4.0903
# 5 5.8895 4.4442 7.6843 -1.7961 33.8991 2.4391
# 6 -10.9404 -18.4440 -15.0761 -4.0903 2.4391 38.9292
#
#
#
# Elastic Compliance Matrix: (Units=1/GPa)
#
#
# Indices 1 2 3 4 5 6 
#
# 1 0.034656 -0.006888 -0.017016 0.006889 -0.000944 0.000669
# 2 -0.006888 0.015918 -0.002168 -0.001135 -0.000797 0.004697
# 3 -0.017016 -0.002168 0.020442 -0.005573 -0.001806 0.001635
# 4 0.006889 -0.001135 -0.005573 0.034979 0.001867 0.002798
# 5 -0.000944 -0.000797 -0.001806 0.001867 0.030496 -0.003057
# 6 0.000669 0.004697 0.001635 0.002798 -0.003057 0.029220
#
#
# Mechanical properties :
#
#
# Convention : Reuss Voigt Hill
#
# Bulk Modulus (GPa) = 52.99096 63.67809 58.33452
# Shear Modulus (GPa) = 22.30702 28.71065 25.50883
#
# Velocity S-wave (km/s) = 3.45191 3.91616 3.69134
# Velocity P-wave (km/s) = 6.64783 7.37992 7.02342
#
# Compressibility (1/GPa) = 0.01887114
#
# Stress axis : x y z
#
# Youngs Moduli (GPa) = 28.85465 62.82334 48.92004
#
# Poissons Ratio (x) = 0.43271 0.83244
# Poissons Ratio (y) = 0.19874 0.10606
# Poissons Ratio (z) = 0.49100 0.13621
#
# Static dielectric constant tensor:
#      x y z
#    x 3.847120 -0.221310 0.138970 
#    y -0.221310 4.069700 0.196150 
#    z 0.138970 0.196150 3.529360 
# 
# 
# High freq. dielectric constant tensor:
#      x y z
#    x 1.700350 0.007550 -0.006820 
#    y 0.007550 1.737360 0.025400 
#    z -0.006820 0.025400 1.716350 
# 
# From -- ./inp_files/203684.got.cif
#   From: 2010.06.25/outbox.cif.g09.slc.cpg/sg2_102_cif.got.tgz:203684.got - 2010.06.27 13:26:56.
