data_PCOD8009620
_publ_section_title
;
Structure prediction by ZEFSAII (Michael W. Deem and Ramdas Pophale) SiO2 
 PCOD8009620
Probable space group: P -1
;
_chemical_formula_sum "Si O2"
_cell_formula_units_Z 16
_cell_length_a 17.674867
_cell_length_b 12.688966
_cell_length_c 7.467666
_cell_angle_alpha 81.389588
_cell_angle_beta 106.456718
_cell_angle_gamma 153.699469
_cell_volume 689.926774
_symmetry_space_group_name_H-M "P -1"
_symmetry_group_IT_number 2
_symmetry_cell_setting 'triclinic'
loop_
_space_group_symop_operation_xyz
x,y,z
-x,-y,-z
loop_
_atom_site_type_symbol
_atom_site_label
_atom_site_fract_x
_atom_site_fract_y
_atom_site_fract_z
Si Si1 0.444651 0.307080 0.118194
Si Si2 0.832707 0.266319 0.327036
Si Si3 0.917176 0.849537 0.709733
Si Si4 0.063497 0.806962 0.822412
Si Si5 0.705818 0.958421 0.560841
Si Si6 0.227118 0.370209 0.946263
Si Si7 0.901846 0.558717 0.131484
Si Si8 0.651452 0.685847 0.406160
O O1 0.442541 0.246395 0.332076
O O2 0.564174 0.388824 0.034982
O O3 0.548051 0.545746 0.178387
O O4 0.240633 0.070603 0.975019
O O5 0.895990 0.243310 0.259067
O O6 0.779114 0.305093 0.164600
O O7 0.000000 0.500000 0.500000
O O8 0.667517 0.021956 0.406933
O O9 0.802712 0.776967 0.506180
O O10 0.980987 0.814166 0.673276
O O11 0.790363 0.674847 0.842610
O O12 0.094510 0.131410 0.810600
O O13 0.915289 0.583411 0.920419
O O14 0.735986 0.905635 0.435953
O O15 0.897188 0.208540 0.718877
O O16 0.186553 0.442528 0.849394
O O17 0.500000 0.500000 0.500000
#
# Coordination Sequence:
#
# PCOD8009620 Si02
#       8
#     2   2   2   2   2   2   2   2
#     4  10  23  37  58  90 129 160 194 249 310 358
#     4  10  21  37  65  88 115 160 214 251 297 352
#     4  10  22  39  62  88 125 160 201 249 295 370
#     4  10  22  40  63  93 121 156 207 250 302 363
#     4   9  19  38  54  86 123 160 201 245 292 365
#     4  10  21  37  62  89 123 159 205 247 303 356
#     4   9  18  39  63  86 117 159 207 252 292 351
#     4  10  21  37  58  88 129 162 190 244 305 359
#
# _framework density 23.190867000000001
#
# number of rings (size 3 to 8) (size 9 to 14) (size 15 to 20)
#    0.000    2.250    1.250    0.375    7.000    5.000 
#    0.000    1.250    0.000    4.500    0.000    0.000 
#    0.000    0.000    0.000    0.000    0.000    0.000 
#
# Total GULP energy -198224.074332 kJ/mol
# GULP energy per Si atom -12389.004646 kJ/mol
# Density = 2.313808 g / cm^3
# Si number density = 23.190867 Si / 1000 Ang^3
#
#
#
# Elastic Constant Matrix: (Units=GPa)
#
#
# Indices 1 2 3 4 5 6 
#
# 1 112.9548 40.4926 19.7380 -22.3653 4.5870 -22.3197
# 2 40.4926 73.3368 6.3717 -23.9617 12.6816 -10.7767
# 3 19.7380 6.3717 59.1022 4.1075 -5.8095 -11.4916
# 4 -22.3653 -23.9617 4.1075 27.7174 -5.5266 5.1314
# 5 4.5870 12.6816 -5.8095 -5.5266 35.6960 -3.8386
# 6 -22.3197 -10.7767 -11.4916 5.1314 -3.8386 41.5402
#
#
#
# Elastic Compliance Matrix: (Units=1/GPa)
#
#
# Indices 1 2 3 4 5 6 
#
# 1 0.013138 -0.004225 -0.003514 0.006839 0.000753 0.004216
# 2 -0.004225 0.022014 -0.002431 0.014838 -0.005329 0.000443
# 3 -0.003514 -0.002431 0.020140 -0.007971 0.003831 0.004391
# 4 0.006839 0.014838 -0.007971 0.056100 0.001076 -0.001511
# 5 0.000753 -0.005329 0.003831 0.001076 0.030902 0.002805
# 6 0.004216 0.000443 0.004391 -0.001511 0.002805 0.028114
#
#
# Mechanical properties :
#
#
# Convention : Reuss Voigt Hill
#
# Bulk Modulus (GPa) = 28.61026 42.06650 35.33838
# Shear Modulus (GPa) = 24.70356 32.91016 28.80686
#
# Velocity S-wave (km/s) = 3.26732 3.77118 3.52826
# Velocity P-wave (km/s) = 5.15728 6.09434 5.64529
#
# Compressibility (1/GPa) = 0.03495250
#
# Stress axis : x y z
#
# Youngs Moduli (GPa) = 76.11274 45.42462 49.65289
#
# Poissons Ratio (x) = 0.19192 0.17447
# Poissons Ratio (y) = 0.32158 0.12072
# Poissons Ratio (z) = 0.26745 0.11044
#
# Static dielectric constant tensor:
#      x y z
#    x 3.879750 -0.026020 -0.019360 
#    y -0.026020 4.505290 -0.576320 
#    z -0.019360 -0.576320 4.512760 
# 
# 
# High freq. dielectric constant tensor:
#      x y z
#    x 1.902800 -0.013170 -0.009180 
#    y -0.013170 1.923770 -0.030710 
#    z -0.009180 -0.030710 1.917630 
# 
# From -- ./inp_files/216767.got.cif
#   From: 2010.06.25/outbox.cif.g09.slc.cpg/sg2_109_cif.got.tgz:216767.got - 2010.06.27 13:26:56.
