data_PCOD8009299
_publ_section_title
;
Structure prediction by ZEFSAII (Michael W. Deem and Ramdas Pophale) SiO2 
 PCOD8009299
Probable space group: P -1
;
_chemical_formula_sum "Si O2"
_cell_formula_units_Z 16
_cell_length_a 11.065602
_cell_length_b 12.752433
_cell_length_c 14.702345
_cell_angle_alpha 20.319001
_cell_angle_beta 93.118671
_cell_angle_gamma 88.655348
_cell_volume 702.570052
_symmetry_space_group_name_H-M "P -1"
_symmetry_group_IT_number 2
_symmetry_cell_setting 'triclinic'
loop_
_space_group_symop_operation_xyz
x,y,z
-x,-y,-z
loop_
_atom_site_type_symbol
_atom_site_label
_atom_site_fract_x
_atom_site_fract_y
_atom_site_fract_z
Si Si1 0.378224 0.468945 0.464707
Si Si2 0.356142 0.401448 0.157036
Si Si3 0.000870 0.811903 0.560245
Si Si4 0.214176 0.881196 0.254747
Si Si5 0.735261 0.468972 0.278812
Si Si6 0.946538 0.153240 0.094739
Si Si7 0.635444 0.248048 0.291077
Si Si8 0.318565 0.812151 0.997916
O O1 0.500000 0.500000 0.500000
O O2 0.251127 0.637295 0.373357
O O3 0.380787 0.625203 0.239832
O O4 0.376369 0.111197 0.744743
O O5 0.495792 0.257755 0.245710
O O6 0.353107 0.597801 0.086938
O O7 0.291089 0.110065 0.404415
O O8 0.290819 0.609674 0.900711
O O9 0.142783 0.681002 0.649209
O O10 0.000000 0.000000 0.500000
O O11 0.937886 0.022776 0.302146
O O12 0.936369 0.520065 0.806083
O O13 0.281788 0.719930 0.478347
O O14 0.066992 0.975414 0.188706
O O15 0.269606 0.174532 0.989445
O O16 0.626163 0.439053 0.229545
O O17 0.831158 0.095581 0.077167
#
# Coordination Sequence:
#
# PCOD8009299 Si02
#       8
#     2   2   2   2   2   2   2   2
#     4  12  28  45  69  95 121 166 215 267 336 371
#     4  10  23  37  58  89 125 159 211 248 303 378
#     4  10  21  36  60  94 130 167 208 251 301 371
#     4  10  23  43  62  93 124 161 217 261 305 382
#     4  10  21  36  65  89 122 171 201 256 313 358
#     4  10  23  41  63  93 127 166 212 254 318 369
#     4  10  21  38  58  88 123 171 202 244 307 374
#     4  12  26  44  68  95 128 167 207 276 317 369
#
# _framework density 22.773530000000001
#
# number of rings (size 3 to 8) (size 9 to 14) (size 15 to 20)
#    0.000    1.500    0.000    3.750    7.000    1.000 
#    0.000    0.000    0.000    0.000    0.000    0.000 
#    0.000    0.000    0.000    0.000    0.000    0.000 
#
# Total GULP energy -198404.135124 kJ/mol
# GULP energy per Si atom -12400.258445 kJ/mol
# Density = 2.272170 g / cm^3
# Si number density = 22.773530 Si / 1000 Ang^3
#
#
#
# Elastic Constant Matrix: (Units=GPa)
#
#
# Indices 1 2 3 4 5 6 
#
# 1 43.7496 3.3276 18.9439 1.4650 -0.8186 9.8065
# 2 3.3276 87.7803 43.2735 9.7922 4.6864 -2.3013
# 3 18.9439 43.2735 169.9088 21.2545 -15.7961 0.5845
# 4 1.4650 9.7922 21.2545 45.8270 1.3836 6.2755
# 5 -0.8186 4.6864 -15.7961 1.3836 16.7511 -8.5188
# 6 9.8065 -2.3013 0.5845 6.2755 -8.5188 38.8772
#
#
#
# Elastic Compliance Matrix: (Units=1/GPa)
#
#
# Indices 1 2 3 4 5 6 
#
# 1 0.026249 0.000947 -0.004102 0.002243 -0.007346 -0.008475
# 2 0.000947 0.014012 -0.004392 -0.000576 -0.008538 -0.001121
# 3 -0.004102 -0.004392 0.009056 -0.004022 0.011878 0.003891
# 4 0.002243 -0.000576 -0.004022 0.024897 -0.008887 -0.006506
# 5 -0.007346 -0.008538 0.011878 -0.008887 0.084390 0.021095
# 6 -0.008475 -0.001121 0.003891 -0.006506 0.021095 0.033407
#
#
# Mechanical properties :
#
#
# Convention : Reuss Voigt Hill
#
# Bulk Modulus (GPa) = 29.22140 48.05876 38.64008
# Shear Modulus (GPa) = 22.88194 36.01730 29.44962
#
# Velocity S-wave (km/s) = 3.17323 3.98118 3.59994
# Velocity P-wave (km/s) = 5.12689 6.50244 5.85520
#
# Compressibility (1/GPa) = 0.03422150
#
# Stress axis : x y z
#
# Youngs Moduli (GPa) = 38.09717 71.36692 110.43012
#
# Poissons Ratio (x) = -0.06758 0.45300
# Poissons Ratio (y) = -0.03608 0.48503
# Poissons Ratio (z) = 0.15628 0.31345
#
# Static dielectric constant tensor:
#      x y z
#    x 4.171430 -0.072360 -0.122680 
#    y -0.072360 4.049090 0.328010 
#    z -0.122680 0.328010 4.840630 
# 
# 
# High freq. dielectric constant tensor:
#      x y z
#    x 1.893590 -0.004920 0.000600 
#    y -0.004920 1.896180 0.008210 
#    z 0.000600 0.008210 1.921680 
# 
# From -- ./inp_files/364494.got.cif
#   From: 2010.06.25/outbox.cif.g09.slc.cpg/sg2_183_cif.got.tgz:364494.got - 2010.06.27 13:26:56.
