data_PCOD8009758
_publ_section_title
;
Structure prediction by ZEFSAII (Michael W. Deem and Ramdas Pophale) SiO2 
 PCOD8009758
Probable space group: P -1
;
_chemical_formula_sum "Si O2"
_cell_formula_units_Z 16
_cell_length_a 17.432613
_cell_length_b 9.781667
_cell_length_c 9.173946
_cell_angle_alpha 139.411099
_cell_angle_beta 66.997973
_cell_angle_gamma 133.249961
_cell_volume 713.094669
_symmetry_space_group_name_H-M "P -1"
_symmetry_group_IT_number 2
_symmetry_cell_setting 'triclinic'
loop_
_space_group_symop_operation_xyz
x,y,z
-x,-y,-z
loop_
_atom_site_type_symbol
_atom_site_label
_atom_site_fract_x
_atom_site_fract_y
_atom_site_fract_z
Si Si1 0.311962 0.605754 0.115839
Si Si2 0.855224 0.809359 0.310686
Si Si3 0.207202 0.825245 0.329744
Si Si4 0.666396 0.774954 0.682351
Si Si5 0.541318 0.292371 0.160442
Si Si6 0.210255 0.231991 0.154002
Si Si7 0.023242 0.608454 0.735611
Si Si8 0.900003 0.694820 0.483691
O O1 0.306346 0.849875 0.355409
O O2 0.294012 0.430190 0.125387
O O3 0.207348 0.449851 0.958658
O O4 0.414686 0.675897 0.011183
O O5 0.835114 0.700091 0.403447
O O6 0.806180 0.958615 0.426171
O O7 0.983256 0.001204 0.339835
O O8 0.088680 0.521088 0.198955
O O9 0.247999 0.922317 0.210418
O O10 0.635232 0.538081 0.397519
O O11 0.557582 0.707542 0.767413
O O12 0.722801 0.789473 0.797226
O O13 0.500000 0.000000 0.000000
O O14 0.167743 0.376102 0.376159
O O15 0.104406 0.937871 0.933363
O O16 0.084485 0.529076 0.721767
O O17 0.000000 0.500000 0.500000
#
# Coordination Sequence:
#
# PCOD8009758 Si02
#       8
#     2   2   2   2   2   2   2   2
#     4  12  24  39  69  92 130 172 212 267 340 376
#     4  10  21  38  61  92 128 172 222 260 306 381
#     4  11  21  40  66  95 130 176 217 259 312 393
#     4  11  25  44  70  96 129 164 225 278 323 382
#     4  11  24  47  73  94 119 169 224 277 332 393
#     4  12  25  42  63 102 140 171 211 273 320 388
#     4  11  25  39  63  99 143 179 214 255 321 387
#     4  10  21  37  60  91 131 176 218 259 305 382
#
# _framework density 22.437415999999999
#
# number of rings (size 3 to 8) (size 9 to 14) (size 15 to 20)
#    0.000    1.000    3.750    3.000    1.750    3.500 
#    0.000    0.625    0.000    0.000    0.000    0.000 
#    0.000    0.000    0.000    0.000    0.000    0.000 
#
# Total GULP energy -198243.525777 kJ/mol
# GULP energy per Si atom -12390.220361 kJ/mol
# Density = 2.238635 g / cm^3
# Si number density = 22.437416 Si / 1000 Ang^3
#
#
#
# Elastic Constant Matrix: (Units=GPa)
#
#
# Indices 1 2 3 4 5 6 
#
# 1 80.9670 42.5842 26.9557 -11.3914 -8.4371 3.8768
# 2 42.5842 175.8572 31.9765 -28.6527 -4.9699 -1.7440
# 3 26.9557 31.9765 49.5552 -10.9496 -6.5209 2.0102
# 4 -11.3914 -28.6527 -10.9496 31.4788 0.0401 -8.6350
# 5 -8.4371 -4.9699 -6.5209 0.0401 34.0042 -5.8251
# 6 3.8768 -1.7440 2.0102 -8.6350 -5.8251 36.3465
#
#
#
# Elastic Compliance Matrix: (Units=1/GPa)
#
#
# Indices 1 2 3 4 5 6 
#
# 1 0.016324 -0.002510 -0.006697 0.001049 0.002247 -0.000882
# 2 -0.002510 0.007719 -0.002342 0.005918 0.000434 0.002243
# 3 -0.006697 -0.002342 0.026837 0.005004 0.003279 0.000832
# 4 0.001049 0.005918 0.005004 0.042156 0.003838 0.010526
# 5 0.002247 0.000434 0.003279 0.003838 0.031609 0.005577
# 6 -0.000882 0.002243 0.000832 0.010526 0.005577 0.031063
#
#
# Mechanical properties :
#
#
# Convention : Reuss Voigt Hill
#
# Bulk Modulus (GPa) = 35.99365 56.60135 46.29750
# Shear Modulus (GPa) = 26.58646 34.02345 30.30495
#
# Velocity S-wave (km/s) = 3.44600 3.89829 3.67910
# Velocity P-wave (km/s) = 5.64888 6.74857 6.22306
#
# Compressibility (1/GPa) = 0.02778268
#
# Stress axis : x y z
#
# Youngs Moduli (GPa) = 61.25904 129.55682 37.26205
#
# Poissons Ratio (x) = 0.32513 0.24955
# Poissons Ratio (y) = 0.15373 0.08726
# Poissons Ratio (z) = 0.41026 0.30341
#
# Static dielectric constant tensor:
#      x y z
#    x 4.162530 0.323580 -0.332380 
#    y 0.323580 4.436270 -0.080400 
#    z -0.332380 -0.080400 3.959270 
# 
# 
# High freq. dielectric constant tensor:
#      x y z
#    x 1.882890 0.003540 -0.034280 
#    y 0.003540 1.896860 -0.006760 
#    z -0.034280 -0.006760 1.869130 
# 
# From -- ./inp_files/329572.got.cif
#   From: 2010.06.25/outbox.cif.g09.slc.cpg/sg2_165_cif.got.tgz:329572.got - 2010.06.27 13:26:56.
