data_PCOD8009652
_publ_section_title
;
Structure prediction by ZEFSAII (Michael W. Deem and Ramdas Pophale) SiO2 
 PCOD8009652
Probable space group: P -1
;
_chemical_formula_sum "Si O2"
_cell_formula_units_Z 16
_cell_length_a 9.912977
_cell_length_b 6.834667
_cell_length_c 19.887721
_cell_angle_alpha 85.794216
_cell_angle_beta 65.294264
_cell_angle_gamma 45.566130
_cell_volume 822.630004
_symmetry_space_group_name_H-M "P -1"
_symmetry_group_IT_number 2
_symmetry_cell_setting 'triclinic'
loop_
_space_group_symop_operation_xyz
x,y,z
-x,-y,-z
loop_
_atom_site_type_symbol
_atom_site_label
_atom_site_fract_x
_atom_site_fract_y
_atom_site_fract_z
Si Si1 0.100564 0.813485 0.085933
Si Si2 0.659878 0.253760 0.090753
Si Si3 0.317647 0.214286 0.588771
Si Si4 0.702335 0.882000 0.603126
Si Si5 0.249590 0.913770 0.174360
Si Si6 0.609830 0.815879 0.914307
Si Si7 0.953958 0.880107 0.648139
Si Si8 0.970124 0.769863 0.427009
O O1 0.127505 0.956248 0.132093
O O2 0.181899 0.525507 0.104126
O O3 0.250106 0.722106 0.993680
O O4 0.845611 0.044273 0.113625
O O5 0.467491 0.575163 0.153491
O O6 0.571354 0.126381 0.092044
O O7 0.143267 0.205616 0.618400
O O8 0.184505 0.544776 0.595076
O O9 0.500000 0.000000 0.500000
O O10 0.440596 0.105741 0.638215
O O11 0.746272 0.959203 0.660419
O O12 0.805686 0.908618 0.520413
O O13 0.807334 0.564133 0.593731
O O14 0.306711 0.086324 0.150435
O O15 0.082160 0.051860 0.267263
O O16 0.500000 0.000000 0.000000
O O17 0.967043 0.068629 0.600625
#
# Coordination Sequence:
#
# PCOD8009652 Si02
#       8
#     2   2   2   2   2   2   2   2
#     4  10  21  37  59  85 111 143 190 236 276 335
#     4  10  21  37  59  85 110 144 191 234 278 333
#     4   9  20  37  57  84 112 143 189 236 275 334
#     4   9  19  36  58  83 110 142 191 234 272 336
#     4  11  23  39  54  83 121 149 186 234 286 331
#     4  11  19  37  61  82 111 151 186 233 280 329
#     4  11  23  36  57  84 116 152 186 232 286 336
#     4   9  19  37  58  82 111 147 186 231 281 331
#
# _framework density 19.449814
#
# number of rings (size 3 to 8) (size 9 to 14) (size 15 to 20)
#    0.000    2.000    2.500    1.875    0.000    9.500 
#    0.000    2.500    0.000    0.000    0.000    0.000 
#    0.000    0.000    0.000    0.000    0.000    0.000 
#
# Total GULP energy -198395.403973 kJ/mol
# GULP energy per Si atom -12399.712748 kJ/mol
# Density = 1.940555 g / cm^3
# Si number density = 19.449814 Si / 1000 Ang^3
#
#
#
# Elastic Constant Matrix: (Units=GPa)
#
#
# Indices 1 2 3 4 5 6 
#
# 1 118.2998 68.1563 10.8611 5.9837 0.9009 -18.8033
# 2 68.1563 106.4842 32.0056 3.4508 -11.5773 0.4434
# 3 10.8611 32.0056 56.2604 8.0535 1.6601 6.0031
# 4 5.9837 3.4508 8.0535 13.9548 3.0676 0.8627
# 5 0.9009 -11.5773 1.6601 3.0676 14.3823 -3.4098
# 6 -18.8033 0.4434 6.0031 0.8627 -3.4098 41.6402
#
#
#
# Elastic Compliance Matrix: (Units=1/GPa)
#
#
# Indices 1 2 3 4 5 6 
#
# 1 0.016927 -0.013081 0.004468 -0.004907 -0.009527 0.006460
# 2 -0.013081 0.023226 -0.011270 0.002237 0.019635 -0.002968
# 3 0.004468 -0.011270 0.025495 -0.011430 -0.010367 -0.002150
# 4 -0.004907 0.002237 -0.011430 0.083369 -0.015199 -0.003563
# 5 -0.009527 0.019635 -0.010367 -0.015199 0.091507 0.004791
# 6 0.006460 -0.002968 -0.002150 -0.003563 0.004791 0.027740
#
#
# Mechanical properties :
#
#
# Convention : Reuss Voigt Hill
#
# Bulk Modulus (GPa) = 38.63839 55.89892 47.26865
# Shear Modulus (GPa) = 15.78996 25.33022 20.56009
#
# Velocity S-wave (km/s) = 2.85236 3.61271 3.25481
# Velocity P-wave (km/s) = 5.54587 6.79740 6.20328
#
# Compressibility (1/GPa) = 0.02588100
#
# Stress axis : x y z
#
# Youngs Moduli (GPa) = 59.07840 43.05578 39.22334
#
# Poissons Ratio (x) = 0.56320 -0.17525
# Poissons Ratio (y) = 0.77279 0.44206
# Poissons Ratio (z) = -0.26396 0.48525
#
# Static dielectric constant tensor:
#      x y z
#    x 3.994220 -0.129700 0.130830 
#    y -0.129700 3.655320 0.024580 
#    z 0.130830 0.024580 3.224310 
# 
# 
# High freq. dielectric constant tensor:
#      x y z
#    x 1.771440 0.000150 0.010350 
#    y 0.000150 1.763070 0.003150 
#    z 0.010350 0.003150 1.725420 
# 
# From -- ./inp_files/104576.got.cif
#   From: 2010.06.25/outbox.cif.g09.slc.cpg/sg2_53_cif.got.tgz:104576.got - 2010.06.27 13:26:56.
