data_PCOD8009488
_publ_section_title
;
Structure prediction by ZEFSAII (Michael W. Deem and Ramdas Pophale) SiO2 
 PCOD8009488
Probable space group: P -1
;
_chemical_formula_sum "Si O2"
_cell_formula_units_Z 14
_cell_length_a 29.894831
_cell_length_b 8.979904
_cell_length_c 5.321078
_cell_angle_alpha 77.493930
_cell_angle_beta 62.262277
_cell_angle_gamma 34.345002
_cell_volume 671.843787
_symmetry_space_group_name_H-M "P -1"
_symmetry_group_IT_number 2
_symmetry_cell_setting 'triclinic'
loop_
_space_group_symop_operation_xyz
x,y,z
-x,-y,-z
loop_
_atom_site_type_symbol
_atom_site_label
_atom_site_fract_x
_atom_site_fract_y
_atom_site_fract_z
Si Si1 0.113249 0.264253 0.693441
Si Si2 0.041492 0.555771 0.276742
Si Si3 0.656842 0.819528 0.166014
Si Si4 0.228051 0.673130 0.658761
Si Si5 0.083129 0.863586 0.677759
Si Si6 0.818610 0.622094 0.746226
Si Si7 0.409097 0.129352 0.185657
O O1 0.184639 0.224553 0.491440
O O2 0.056280 0.390230 0.526498
O O3 0.170498 0.971956 0.730971
O O4 0.040459 0.490071 0.021102
O O5 0.130012 0.448101 0.109110
O O6 0.949553 0.890144 0.440294
O O7 0.732151 0.489036 0.117252
O O8 0.592456 0.981645 0.527422
O O9 0.713749 0.833819 0.994744
O O10 0.593630 0.959027 0.034055
O O11 0.168622 0.681340 0.706588
O O12 0.317577 0.469798 0.315531
O O13 0.116189 0.673759 0.434306
O O14 0.000000 0.000000 0.000000
O O15 0.500000 0.000000 0.000000
#
# Coordination Sequence:
#
# PCOD8009488 Si02
#       7
#     2   2   2   2   2   2   2
#     4  10  24  38  57  85 129 167 201 250 306 354
#     4  10  23  36  57  83 126 167 206 242 295 345
#     4  10  21  36  67  91 114 155 201 251 303 363
#     4  10  25  38  65  90 124 163 204 248 314 360
#     4  12  20  40  60  91 123 169 215 255 286 353
#     4  10  21  38  62  88 121 163 211 254 294 353
#     4  10  22  41  66  95 118 149 202 258 308 366
#
# _framework density 20.838176000000001
#
# number of rings (size 3 to 8) (size 9 to 14) (size 15 to 20)
#    1.714    0.000    2.857    1.714    4.000    2.286 
#    0.000    0.000    0.000    1.714    0.000    0.000 
#    0.000    0.000    0.000    0.000    0.000    0.000 
#
# Total GULP energy -173489.991275 kJ/mol
# GULP energy per Si atom -12392.142234 kJ/mol
# Density = 2.079075 g / cm^3
# Si number density = 20.838176 Si / 1000 Ang^3
#
#
#
# Elastic Constant Matrix: (Units=GPa)
#
#
# Indices 1 2 3 4 5 6 
#
# 1 139.1863 27.9657 65.8818 -9.2198 -1.8396 -19.9093
# 2 27.9657 42.7545 13.5390 -6.8623 -1.4146 4.4102
# 3 65.8818 13.5390 118.4223 -15.5943 -8.1535 -13.8323
# 4 -9.2198 -6.8623 -15.5943 29.0481 -5.0698 -1.1937
# 5 -1.8396 -1.4146 -8.1535 -5.0698 49.5059 -0.7070
# 6 -19.9093 4.4102 -13.8323 -1.1937 -0.7070 39.0457
#
#
#
# Elastic Compliance Matrix: (Units=1/GPa)
#
#
# Indices 1 2 3 4 5 6 
#
# 1 0.011639 -0.006547 -0.005292 -0.000606 -0.000620 0.004770
# 2 -0.006547 0.029049 0.000292 0.004862 0.001042 -0.006349
# 3 -0.005292 0.000292 0.012485 0.005601 0.002469 0.001908
# 4 -0.000606 0.004862 0.005601 0.039380 0.005106 0.002423
# 5 -0.000620 0.001042 0.002469 0.005106 0.021150 0.000980
# 6 0.004770 -0.006349 0.001908 0.002423 0.000980 0.029528
#
#
# Mechanical properties :
#
#
# Convention : Reuss Voigt Hill
#
# Bulk Modulus (GPa) = 33.24578 57.23735 45.24157
# Shear Modulus (GPa) = 28.35247 36.38505 32.36876
#
# Velocity S-wave (km/s) = 3.69264 4.18314 3.94552
# Velocity P-wave (km/s) = 5.84548 7.13153 6.52029
#
# Compressibility (1/GPa) = 0.03007901
#
# Stress axis : x y z
#
# Youngs Moduli (GPa) = 85.91964 34.42447 80.09326
#
# Poissons Ratio (x) = 0.22537 0.42384
# Poissons Ratio (y) = 0.56251 -0.02335
# Poissons Ratio (z) = 0.45467 -0.01004
#
# Static dielectric constant tensor:
#      x y z
#    x 4.012330 0.032660 -0.138570 
#    y 0.032660 3.493020 -0.279460 
#    z -0.138570 -0.279460 3.738650 
# 
# 
# High freq. dielectric constant tensor:
#      x y z
#    x 1.838060 -0.005300 -0.009560 
#    y -0.005300 1.773160 -0.028990 
#    z -0.009560 -0.028990 1.817050 
# 
# From -- ./inp_files/81313.got.cif
#   From: 2010.06.25/outbox.cif.g09.slc.cpg/sg2_41_cif.got.tgz:81313.got - 2010.06.27 13:26:56.
