data_PCOD8009053
_publ_section_title
;
Structure prediction by ZEFSAII (Michael W. Deem and Ramdas Pophale) SiO2 
 PCOD8009053
Probable space group: P -1
;
_chemical_formula_sum "Si O2"
_cell_formula_units_Z 16
_cell_length_a 24.667611
_cell_length_b 7.833630
_cell_length_c 9.122122
_cell_angle_alpha 33.835014
_cell_angle_beta 127.460103
_cell_angle_gamma 116.632942
_cell_volume 772.597191
_symmetry_space_group_name_H-M "P -1"
_symmetry_group_IT_number 2
_symmetry_cell_setting 'triclinic'
loop_
_space_group_symop_operation_xyz
x,y,z
-x,-y,-z
loop_
_atom_site_type_symbol
_atom_site_label
_atom_site_fract_x
_atom_site_fract_y
_atom_site_fract_z
Si Si1 0.964986 0.134731 0.111289
Si Si2 0.164784 0.855358 0.288001
Si Si3 0.165368 0.558545 0.804990
Si Si4 0.320471 0.715307 0.655267
Si Si5 0.679081 0.564554 0.836513
Si Si6 0.437909 0.672248 0.367019
Si Si7 0.437837 0.401058 0.875953
Si Si8 0.038191 0.597161 0.762338
O O1 0.971950 0.263399 0.192906
O O2 0.889440 0.253457 0.838526
O O3 0.985441 0.766794 0.431617
O O4 0.019634 0.249654 0.002203
O O5 0.145509 0.790924 0.470920
O O6 0.241518 0.690520 0.497924
O O7 0.160571 0.214698 0.989099
O O8 0.115028 0.627807 0.811411
O O9 0.242978 0.581387 0.969181
O O10 0.365959 0.561611 0.708087
O O11 0.332898 0.065124 0.462743
O O12 0.341236 0.512705 0.977076
O O13 0.633725 0.399216 0.767124
O O14 0.500000 0.500000 0.500000
O O15 0.446579 0.532488 0.638999
O O16 0.440426 0.035294 0.126152
O O17 0.500000 0.500000 0.000000
#
# Coordination Sequence:
#
# PCOD8009053 Si02
#       8
#     2   2   2   2   2   2   2   2
#     4  10  21  36  53  77 110 146 184 231 284 336
#     4  10  21  36  57  82 109 145 187 234 284 335
#     4  10  21  36  57  82 109 145 187 234 284 335
#     4  10  21  40  60  84 119 153 190 238 289 340
#     4  10  21  40  60  84 119 153 190 238 289 340
#     4  12  24  40  63  91 120 155 195 235 284 338
#     4  12  24  40  63  91 120 155 195 235 284 338
#     4  10  21  36  53  77 110 146 184 231 284 336
#
# _framework density 20.709368999999999
#
# number of rings (size 3 to 8) (size 9 to 14) (size 15 to 20)
#    0.000    1.500    0.000    5.250    0.000    4.000 
#    0.000    3.750    0.000    0.000    0.000    0.000 
#    0.000    0.000    0.000    0.000    0.000    0.000 
#
# Total GULP energy -198345.083607 kJ/mol
# GULP energy per Si atom -12396.567725 kJ/mol
# Density = 2.066223 g / cm^3
# Si number density = 20.709369 Si / 1000 Ang^3
#
#
#
# Elastic Constant Matrix: (Units=GPa)
#
#
# Indices 1 2 3 4 5 6 
#
# 1 152.7844 43.5590 65.4087 9.3349 -8.5399 6.0953
# 2 43.5590 102.1021 62.2366 5.6900 -0.6207 22.1390
# 3 65.4087 62.2366 128.8525 7.7584 -12.3968 12.4871
# 4 9.3349 5.6900 7.7584 38.3649 3.3690 4.1737
# 5 -8.5399 -0.6207 -12.3968 3.3690 34.1133 -3.9701
# 6 6.0953 22.1390 12.4871 4.1737 -3.9701 25.4716
#
#
#
# Elastic Compliance Matrix: (Units=1/GPa)
#
#
# Indices 1 2 3 4 5 6 
#
# 1 0.008638 -0.001857 -0.003447 -0.001416 0.001209 0.001657
# 2 -0.001857 0.017148 -0.006621 0.000908 -0.004044 -0.011993
# 3 -0.003447 -0.006621 0.013075 -0.001285 0.004012 0.001006
# 4 -0.001416 0.000908 -0.001285 0.027433 -0.004091 -0.004953
# 5 0.001209 -0.004044 0.004012 -0.004091 0.032214 0.006951
# 6 0.001657 -0.011993 0.001006 -0.004953 0.006951 0.050688
#
#
# Mechanical properties :
#
#
# Convention : Reuss Voigt Hill
#
# Bulk Modulus (GPa) = 66.62402 80.68307 73.65355
# Shear Modulus (GPa) = 28.08197 33.75895 30.92046
#
# Velocity S-wave (km/s) = 3.68639 4.04187 3.86821
# Velocity P-wave (km/s) = 7.09648 7.79914 7.45609
#
# Compressibility (1/GPa) = 0.01500960
#
# Stress axis : x y z
#
# Youngs Moduli (GPa) = 115.76290 58.31674 76.48453
#
# Poissons Ratio (x) = 0.10831 0.26364
# Poissons Ratio (y) = 0.21501 0.50642
# Poissons Ratio (z) = 0.39904 0.38613
#
# Static dielectric constant tensor:
#      x y z
#    x 3.942860 0.348130 -0.075850 
#    y 0.348130 3.775640 -0.002990 
#    z -0.075850 -0.002990 4.304820 
# 
# 
# High freq. dielectric constant tensor:
#      x y z
#    x 1.819550 0.016740 -0.009940 
#    y 0.016740 1.796640 -0.002550 
#    z -0.009940 -0.002550 1.835440 
# 
# From -- ./inp_files/351975.got.cif
#   From: 2010.06.25/outbox.cif.g09.slc.cpg/sg2_176_cif.got.tgz:351975.got - 2010.06.27 13:26:56.
