data_PCOD8009102
_publ_section_title
;
Structure prediction by ZEFSAII (Michael W. Deem and Ramdas Pophale) SiO2 
 PCOD8009102
Probable space group: P -1
;
_chemical_formula_sum "Si O2"
_cell_formula_units_Z 16
_cell_length_a 8.029153
_cell_length_b 15.550798
_cell_length_c 13.932919
_cell_angle_alpha 26.994568
_cell_angle_beta 111.970610
_cell_angle_gamma 112.930498
_cell_volume 725.728867
_symmetry_space_group_name_H-M "P -1"
_symmetry_group_IT_number 2
_symmetry_cell_setting 'triclinic'
loop_
_space_group_symop_operation_xyz
x,y,z
-x,-y,-z
loop_
_atom_site_type_symbol
_atom_site_label
_atom_site_fract_x
_atom_site_fract_y
_atom_site_fract_z
Si Si1 0.329907 0.433393 0.717396
Si Si2 0.099950 0.777625 0.827254
Si Si3 0.954501 0.690369 0.080894
Si Si4 0.982741 0.801565 0.577983
Si Si5 0.527229 0.101594 0.132995
Si Si6 0.840780 0.092906 0.675491
Si Si7 0.885516 0.604459 0.477114
Si Si8 0.350985 0.256175 0.558789
O O1 0.244856 0.414366 0.825510
O O2 0.160244 0.423583 0.617161
O O3 0.454875 0.631605 0.535992
O O4 0.443374 0.258363 0.895768
O O5 0.040211 0.691131 0.795237
O O6 0.038191 0.983966 0.613201
O O7 0.318196 0.791433 0.869967
O O8 0.995765 0.650846 0.016895
O O9 0.103328 0.599787 0.266499
O O10 0.960356 0.916206 0.879552
O O11 0.793374 0.694504 0.601767
O O12 0.136238 0.804909 0.525207
O O13 0.370901 0.973834 0.287105
O O14 0.625399 0.968075 0.215312
O O15 0.926903 0.249366 0.616908
O O16 0.718744 0.694391 0.400692
#
# Coordination Sequence:
#
# PCOD8009102 Si02
#       8
#     2   2   2   2   2   2   2   2
#     4  11  23  37  56  82 112 147 185 227 273 321
#     4   9  17  35  59  81 109 146 180 221 276 327
#     4  10  21  37  57  81 112 145 184 228 268 324
#     4   8  17  35  59  81 108 146 181 219 275 330
#     4  10  21  36  56  82 115 143 180 230 270 322
#     4   9  20  37  56  84 113 142 182 227 271 323
#     4  11  22  37  58  80 110 150 186 223 273 325
#     4  10  21  37  56  82 112 142 184 230 269 323
#
# _framework density 22.046800999999999
#
# number of rings (size 3 to 8) (size 9 to 14) (size 15 to 20)
#    0.000    2.250    0.000    3.000    0.000    4.000 
#    0.000    7.500    0.000    0.000    0.000    0.000 
#    0.000    0.000    0.000    0.000    0.000    0.000 
#
# Total GULP energy -198338.360870 kJ/mol
# GULP energy per Si atom -12396.147554 kJ/mol
# Density = 2.199662 g / cm^3
# Si number density = 22.046801 Si / 1000 Ang^3
#
#
#
# Elastic Constant Matrix: (Units=GPa)
#
#
# Indices 1 2 3 4 5 6 
#
# 1 94.5389 11.2763 13.2943 14.5106 -5.2372 6.7146
# 2 11.2763 57.7660 13.5175 23.8917 -0.7026 4.6014
# 3 13.2943 13.5175 73.9122 18.4282 9.7923 -3.6449
# 4 14.5106 23.8917 18.4282 28.1834 -5.7489 2.5783
# 5 -5.2372 -0.7026 9.7923 -5.7489 28.1705 -3.5454
# 6 6.7146 4.6014 -3.6449 2.5783 -3.5454 29.8314
#
#
#
# Elastic Compliance Matrix: (Units=1/GPa)
#
#
# Indices 1 2 3 4 5 6 
#
# 1 0.011712 0.000253 -0.001188 -0.004999 0.001295 -0.002234
# 2 0.000253 0.027541 0.001903 -0.025608 -0.005469 -0.002509
# 3 -0.001188 0.001903 0.018583 -0.015303 -0.009449 0.002444
# 4 -0.004999 -0.025608 -0.015303 0.073665 0.018666 -0.000943
# 5 0.001295 -0.005469 -0.009449 0.018666 0.043061 0.002902
# 6 -0.002234 -0.002509 0.002444 -0.000943 0.002902 0.035137
#
#
# Mechanical properties :
#
#
# Convention : Reuss Voigt Hill
#
# Bulk Modulus (GPa) = 16.73001 33.59927 25.16464
# Shear Modulus (GPa) = 21.95989 29.77899 25.86944
#
# Velocity S-wave (km/s) = 3.15946 3.67920 3.42919
# Velocity P-wave (km/s) = 4.57324 5.77250 5.20750
#
# Compressibility (1/GPa) = 0.05977281
#
# Stress axis : x y z
#
# Youngs Moduli (GPa) = 85.37993 36.30914 53.81235
#
# Poissons Ratio (x) = -0.00919 0.06395
# Poissons Ratio (y) = -0.02161 -0.10242
# Poissons Ratio (z) = 0.10146 -0.06910
#
# Static dielectric constant tensor:
#      x y z
#    x 4.064000 -0.126300 0.070790 
#    y -0.126300 3.936430 0.053040 
#    z 0.070790 0.053040 4.125310 
# 
# 
# High freq. dielectric constant tensor:
#      x y z
#    x 1.875420 -0.012500 0.002090 
#    y -0.012500 1.846820 -0.014940 
#    z 0.002090 -0.014940 1.866900 
# 
# From -- ./inp_files/313309.got.cif
#   From: 2010.06.25/outbox.cif.g09.slc.cpg/sg2_157_cif.got.tgz:313309.got - 2010.06.27 13:26:56.
