data_PCOD8009631
_publ_section_title
;
Structure prediction by ZEFSAII (Michael W. Deem and Ramdas Pophale) SiO2 
 PCOD8009631
Probable space group: P -1
;
_chemical_formula_sum "Si O2"
_cell_formula_units_Z 16
_cell_length_a 18.219346
_cell_length_b 5.358235
_cell_length_c 24.722904
_cell_angle_alpha 102.427073
_cell_angle_beta 19.289406
_cell_angle_gamma 93.419273
_cell_volume 697.366758
_symmetry_space_group_name_H-M "P -1"
_symmetry_group_IT_number 2
_symmetry_cell_setting 'triclinic'
loop_
_space_group_symop_operation_xyz
x,y,z
-x,-y,-z
loop_
_atom_site_type_symbol
_atom_site_label
_atom_site_fract_x
_atom_site_fract_y
_atom_site_fract_z
Si Si1 0.904700 0.100930 0.851678
Si Si2 0.000498 0.556696 0.337467
Si Si3 0.843637 0.708475 0.966078
Si Si4 0.550572 0.937897 0.024405
Si Si5 0.975349 0.703430 0.574378
Si Si6 0.095751 0.669951 0.900996
Si Si7 0.637444 0.344154 0.541450
Si Si8 0.651802 0.148013 0.636026
O O1 0.918524 0.890928 0.881301
O O2 0.176296 0.964759 0.627622
O O3 0.852784 0.415380 0.922561
O O4 0.688140 0.117819 0.962152
O O5 0.791388 0.526097 0.445708
O O6 0.034320 0.419670 0.366293
O O7 0.906430 0.889373 0.425067
O O8 0.261347 0.401653 0.116122
O O9 0.018266 0.640175 0.893034
O O10 0.558593 0.914243 0.192185
O O11 0.286772 0.013172 0.240041
O O12 0.500000 0.000000 0.000000
O O13 0.000000 0.500000 0.500000
O O14 0.231549 0.729201 0.393818
O O15 0.394407 0.513960 0.682685
O O16 0.000000 0.500000 0.000000
O O17 0.000000 0.000000 0.000000
O O18 0.535102 0.334767 0.672575
#
# Coordination Sequence:
#
# PCOD8009631 Si02
#       8
#     2   2   2   2   2   2   2   2
#     4  11  27  47  69 104 145 183 225 291 356 403
#     4   9  21  39  62  92 127 175 231 278 342 408
#     4  12  27  45  71 105 144 180 227 293 357 401
#     4   9  20  44  64  93 137 182 236 281 338 418
#     4  10  21  37  58  92 131 170 229 286 347 402
#     4  12  25  45  75 107 137 181 237 284 338 423
#     4  10  24  44  70  96 135 181 230 277 340 420
#     4  11  23  40  69  93 131 182 232 281 342 420
#
# _framework density 22.943451
#
# number of rings (size 3 to 8) (size 9 to 14) (size 15 to 20)
#    0.000    1.500    1.250    3.000    8.750    2.000 
#    4.500    0.000    0.000    0.000    0.000    0.000 
#    0.000    0.000    0.000    0.000    0.000    0.000 
#
# Total GULP energy -198234.335933 kJ/mol
# GULP energy per Si atom -12389.645996 kJ/mol
# Density = 2.289123 g / cm^3
# Si number density = 22.943451 Si / 1000 Ang^3
#
#
#
# Elastic Constant Matrix: (Units=GPa)
#
#
# Indices 1 2 3 4 5 6 
#
# 1 135.7773 37.4567 48.5578 -1.1922 -20.3944 27.4277
# 2 37.4567 87.6593 11.4551 9.5299 5.8975 2.7365
# 3 48.5578 11.4551 138.0431 5.8676 -17.8794 5.4228
# 4 -1.1922 9.5299 5.8676 33.4418 0.9456 9.6633
# 5 -20.3944 5.8975 -17.8794 0.9456 32.8055 3.3981
# 6 27.4277 2.7365 5.4228 9.6633 3.3981 25.6482
#
#
#
# Elastic Compliance Matrix: (Units=1/GPa)
#
#
# Indices 1 2 3 4 5 6 
#
# 1 0.017148 -0.008070 -0.003308 0.009496 0.012312 -0.021987
# 2 -0.008070 0.015901 0.000304 -0.007792 -0.008619 0.010946
# 3 -0.003308 0.000304 0.008719 -0.002457 0.002478 0.002259
# 4 0.009496 -0.007792 -0.002457 0.039849 0.007385 -0.024797
# 5 0.012312 -0.008619 0.002478 0.007385 0.043026 -0.021254
# 6 -0.021987 0.010946 0.002259 -0.024797 -0.021254 0.073014
#
#
# Mechanical properties :
#
#
# Convention : Reuss Voigt Hill
#
# Bulk Modulus (GPa) = 50.96304 61.82431 56.39368
# Shear Modulus (GPa) = 22.09013 35.97976 29.03495
#
# Velocity S-wave (km/s) = 3.10628 3.96434 3.56125
# Velocity P-wave (km/s) = 5.92672 6.92528 6.44537
#
# Compressibility (1/GPa) = 0.01962206
#
# Stress axis : x y z
#
# Youngs Moduli (GPa) = 58.31488 62.88740 114.69143
#
# Poissons Ratio (x) = 0.50747 0.37936
# Poissons Ratio (y) = 0.47058 -0.03485
# Poissons Ratio (z) = 0.19288 -0.01911
#
# Static dielectric constant tensor:
#      x y z
#    x 4.359010 0.132410 -0.221600 
#    y 0.132410 3.936760 0.206820 
#    z -0.221600 0.206820 4.703210 
# 
# 
# High freq. dielectric constant tensor:
#      x y z
#    x 1.920190 0.011700 -0.004710 
#    y 0.011700 1.886530 0.010520 
#    z -0.004710 0.010520 1.920760 
# 
# From -- ./inp_files/552838.got.cif
#   From: 2010.06.25/outbox.cif.g09.slc.cpg/sg2_277_cif.got.tgz:552838.got - 2010.06.27 13:26:56.
