data_PCOD8009339
_publ_section_title
;
Structure prediction by ZEFSAII (Michael W. Deem and Ramdas Pophale) SiO2 
 PCOD8009339
Probable space group: P -1
;
_chemical_formula_sum "Si O2"
_cell_formula_units_Z 16
_cell_length_a 11.443272
_cell_length_b 25.995408
_cell_length_c 5.172634
_cell_angle_alpha 103.371669
_cell_angle_beta 113.804206
_cell_angle_gamma 30.952277
_cell_volume 702.169984
_symmetry_space_group_name_H-M "P -1"
_symmetry_group_IT_number 2
_symmetry_cell_setting 'triclinic'
loop_
_space_group_symop_operation_xyz
x,y,z
-x,-y,-z
loop_
_atom_site_type_symbol
_atom_site_label
_atom_site_fract_x
_atom_site_fract_y
_atom_site_fract_z
Si Si1 0.057520 0.419329 0.905763
Si Si2 0.371440 0.302656 0.528461
Si Si3 0.415163 0.410546 0.606180
Si Si4 0.210390 0.065813 0.048769
Si Si5 0.607590 0.505297 0.912864
Si Si6 0.811667 0.337856 0.670467
Si Si7 0.084324 0.937569 0.250902
Si Si8 0.766832 0.877729 0.381822
O O1 0.233259 0.348940 0.732024
O O2 0.771960 0.500451 0.687565
O O3 0.192269 0.344848 0.186825
O O4 0.000000 0.500000 0.000000
O O5 0.440937 0.338558 0.560936
O O6 0.618412 0.178624 0.613578
O O7 0.693142 0.337277 0.767648
O O8 0.282418 0.481865 0.828546
O O9 0.111168 0.142082 0.268236
O O10 0.489770 0.954428 0.269006
O O11 0.217410 0.084831 0.787065
O O12 0.048225 0.071397 0.900278
O O13 0.822907 0.395625 0.826618
O O14 0.375019 0.606774 0.661620
O O15 0.500000 0.500000 0.000000
O O16 0.087324 0.225858 0.699920
O O17 0.000000 0.000000 0.500000
O O18 0.000000 0.000000 0.000000
#
# Coordination Sequence:
#
# PCOD8009339 Si02
#       8
#     2   2   2   2   2   2   2   2
#     4  10  22  39  61  95 130 157 213 270 309 377
#     4  11  24  41  65  95 123 174 223 266 325 379
#     4  10  21  36  65  89 128 168 212 265 312 386
#     4  10  23  44  68 100 127 166 219 288 325 383
#     4   9  21  37  51  90 127 161 200 250 307 387
#     4  10  21  36  61  92 129 167 206 254 328 391
#     4  12  26  46  68  96 139 175 226 280 338 404
#     4  10  22  41  72  99 129 163 224 273 331 387
#
# _framework density 22.786507
#
# number of rings (size 3 to 8) (size 9 to 14) (size 15 to 20)
#    0.000    1.750    0.000    3.750   10.500    0.000 
#    2.250    3.750    0.000    0.000    0.000    0.000 
#    0.000    0.000    0.000    0.000    0.000    0.000 
#
# Total GULP energy -198219.342485 kJ/mol
# GULP energy per Si atom -12388.708905 kJ/mol
# Density = 2.273464 g / cm^3
# Si number density = 22.786507 Si / 1000 Ang^3
#
#
#
# Elastic Constant Matrix: (Units=GPa)
#
#
# Indices 1 2 3 4 5 6 
#
# 1 37.4653 8.9607 0.3572 -6.6197 -10.7453 -11.5760
# 2 8.9607 153.1734 46.2700 -3.6622 -3.7298 -15.4864
# 3 0.3572 46.2700 121.8849 12.7892 -12.8384 -11.4468
# 4 -6.6197 -3.6622 12.7892 31.7183 0.6347 -3.2902
# 5 -10.7453 -3.7298 -12.8384 0.6347 33.3850 2.2146
# 6 -11.5760 -15.4864 -11.4468 -3.2902 2.2146 28.6277
#
#
#
# Elastic Compliance Matrix: (Units=1/GPa)
#
#
# Indices 1 2 3 4 5 6 
#
# 1 0.036095 -0.000704 0.001903 0.008022 0.011121 0.015037
# 2 -0.000704 0.007823 -0.003000 0.002300 -0.000754 0.003070
# 3 0.001903 -0.003000 0.010436 -0.003978 0.004198 0.002537
# 4 0.008022 0.002300 -0.003978 0.035794 0.000164 0.006998
# 5 0.011121 -0.000754 0.004198 0.000164 0.034855 0.003090
# 6 0.015037 0.003070 0.002537 0.006998 0.003090 0.044253
#
#
# Mechanical properties :
#
#
# Convention : Reuss Voigt Hill
#
# Bulk Modulus (GPa) = 19.70347 47.07770 33.39059
# Shear Modulus (GPa) = 26.34733 35.87527 31.11130
#
# Velocity S-wave (km/s) = 3.40408 3.97219 3.69906
# Velocity P-wave (km/s) = 4.91082 6.46087 5.73842
#
# Compressibility (1/GPa) = 0.05075248
#
# Stress axis : x y z
#
# Youngs Moduli (GPa) = 27.70500 127.82807 95.82586
#
# Poissons Ratio (x) = 0.08993 -0.18238
# Poissons Ratio (y) = 0.01949 0.28748
# Poissons Ratio (z) = -0.05273 0.38349
#
# Static dielectric constant tensor:
#      x y z
#    x 3.911050 0.003280 -0.013570 
#    y 0.003280 4.297030 0.185420 
#    z -0.013570 0.185420 4.869400 
# 
# 
# High freq. dielectric constant tensor:
#      x y z
#    x 1.896460 -0.008630 -0.009800 
#    y -0.008630 1.899410 0.008110 
#    z -0.009800 0.008110 1.919930 
# 
# From -- ./inp_files/84466.got.cif
#   From: 2010.06.25/outbox.cif.g09.slc.cpg/sg2_43_cif.got.tgz:84466.got - 2010.06.27 13:26:56.
