data_PCOD8009421
_publ_section_title
;
Structure prediction by ZEFSAII (Michael W. Deem and Ramdas Pophale) SiO2 
 PCOD8009421
Probable space group: P -1
;
_chemical_formula_sum "Si O2"
_cell_formula_units_Z 14
_cell_length_a 14.934241
_cell_length_b 15.688102
_cell_length_c 15.317831
_cell_angle_alpha 152.634205
_cell_angle_beta 28.082572
_cell_angle_gamma 155.020680
_cell_volume 639.096609
_symmetry_space_group_name_H-M "P -1"
_symmetry_group_IT_number 2
_symmetry_cell_setting 'triclinic'
loop_
_space_group_symop_operation_xyz
x,y,z
-x,-y,-z
loop_
_atom_site_type_symbol
_atom_site_label
_atom_site_fract_x
_atom_site_fract_y
_atom_site_fract_z
Si Si1 0.662630 0.911274 0.278791
Si Si2 0.053815 0.760293 0.959648
Si Si3 0.509123 0.925562 0.020285
Si Si4 0.826204 0.874975 0.932919
Si Si5 0.134786 0.739934 0.310844
Si Si6 0.336187 0.186216 0.626059
Si Si7 0.669051 0.630591 0.662757
O O1 0.584397 0.744380 0.277957
O O2 0.500000 0.000000 0.500000
O O3 0.646776 0.785231 0.087211
O O4 0.939132 0.108630 0.230665
O O5 0.903022 0.490628 0.833050
O O6 0.899332 0.830826 0.205023
O O7 0.282827 0.858775 0.910547
O O8 0.117572 0.877758 0.916132
O O9 0.537711 0.718991 0.804441
O O10 0.260617 0.822568 0.184811
O O11 0.500000 0.000000 0.000000
O O12 0.710584 0.718334 0.806153
O O13 0.888857 0.703411 0.481617
O O14 0.291501 0.941398 0.428246
O O15 0.522399 0.360919 0.554805
#
# Coordination Sequence:
#
# PCOD8009421 Si02
#       7
#     2   2   2   2   2   2   2
#     4  10  21  36  63  95 131 172 223 268 316 374
#     4  10  22  44  69  93 135 174 217 269 328 388
#     4  11  25  45  71 101 130 166 218 276 328 393
#     4   9  21  41  59  94 136 168 221 275 310 379
#     4  12  23  43  72  93 128 180 214 261 337 386
#     4  11  23  44  66  98 133 177 223 262 323 395
#     4  11  23  43  68  96 132 175 220 264 329 399
#
# _framework density 21.905923000000001
#
# number of rings (size 3 to 8) (size 9 to 14) (size 15 to 20)
#    0.000    1.429    5.714    0.857    6.000    1.714 
#    0.000    5.714    0.000    0.000    0.000    0.000 
#    0.000    0.000    0.000    0.000    0.000    0.000 
#
# Total GULP energy -173490.426981 kJ/mol
# GULP energy per Si atom -12392.173356 kJ/mol
# Density = 2.185606 g / cm^3
# Si number density = 21.905923 Si / 1000 Ang^3
#
#
#
# Elastic Constant Matrix: (Units=GPa)
#
#
# Indices 1 2 3 4 5 6 
#
# 1 105.5180 48.7260 48.7961 -13.6194 -13.3870 -16.5666
# 2 48.7260 134.7244 60.9653 0.4674 -1.4272 -21.3048
# 3 48.7961 60.9653 124.1432 -15.1790 -9.2149 -11.6010
# 4 -13.6194 0.4674 -15.1790 56.4594 1.2759 3.6005
# 5 -13.3870 -1.4272 -9.2149 1.2759 18.6349 -4.3248
# 6 -16.5666 -21.3048 -11.6010 3.6005 -4.3248 26.6139
#
#
#
# Elastic Compliance Matrix: (Units=1/GPa)
#
#
# Indices 1 2 3 4 5 6 
#
# 1 0.014805 -0.002912 -0.002667 0.002183 0.010603 0.007150
# 2 -0.002912 0.011249 -0.004306 -0.002246 -0.001976 0.005298
# 3 -0.002667 -0.004306 0.011804 0.002470 0.003485 0.000271
# 4 0.002183 -0.002246 0.002470 0.019015 0.000900 -0.001789
# 5 0.010603 -0.001976 0.003485 0.000900 0.066798 0.017270
# 6 0.007150 0.005298 0.000271 -0.001789 0.017270 0.049432
#
#
# Mechanical properties :
#
#
# Convention : Reuss Voigt Hill
#
# Bulk Modulus (GPa) = 55.28648 75.70672 65.49660
# Shear Modulus (GPa) = 25.13796 34.06817 29.60307
#
# Velocity S-wave (km/s) = 3.39121 3.94789 3.68009
# Velocity P-wave (km/s) = 6.37391 7.44419 6.92974
#
# Compressibility (1/GPa) = 0.01808760
#
# Stress axis : x y z
#
# Youngs Moduli (GPa) = 67.54634 88.89698 84.71713
#
# Poissons Ratio (x) = 0.25889 0.22593
# Poissons Ratio (y) = 0.19671 0.36478
# Poissons Ratio (z) = 0.18014 0.38278
#
# Static dielectric constant tensor:
#      x y z
#    x 3.644670 -0.072670 -0.108170 
#    y -0.072670 4.248710 -0.103840 
#    z -0.108170 -0.103840 4.092720 
# 
# 
# High freq. dielectric constant tensor:
#      x y z
#    x 1.829240 -0.006470 -0.011820 
#    y -0.006470 1.863270 -0.016510 
#    z -0.011820 -0.016510 1.869350 
# 
# From -- ./inp_files/534527.got.cif
#   From: 2010.06.25/outbox.cif.g09.slc.cpg/sg2_268_cif.got.tgz:534527.got - 2010.06.27 13:26:56.
