data_PCOD8009788
_publ_section_title
;
Structure prediction by ZEFSAII (Michael W. Deem and Ramdas Pophale) SiO2 
 PCOD8009788
Probable space group: P -1
;
_chemical_formula_sum "Si O2"
_cell_formula_units_Z 16
_cell_length_a 11.177364
_cell_length_b 13.392306
_cell_length_c 13.315467
_cell_angle_alpha 22.523230
_cell_angle_beta 107.967783
_cell_angle_gamma 108.275461
_cell_volume 724.029411
_symmetry_space_group_name_H-M "P -1"
_symmetry_group_IT_number 2
_symmetry_cell_setting 'triclinic'
loop_
_space_group_symop_operation_xyz
x,y,z
-x,-y,-z
loop_
_atom_site_type_symbol
_atom_site_label
_atom_site_fract_x
_atom_site_fract_y
_atom_site_fract_z
Si Si1 0.629018 0.932385 0.346686
Si Si2 0.325640 0.511015 0.533700
Si Si3 0.640308 0.155755 0.575097
Si Si4 0.903409 0.944450 0.435859
Si Si5 0.007156 0.444689 0.934917
Si Si6 0.920132 0.722753 0.230391
Si Si7 0.404223 0.629989 0.231914
Si Si8 0.221681 0.360880 0.930478
O O1 0.508570 0.938191 0.383422
O O2 0.758662 0.965955 0.413523
O O3 0.632758 0.655302 0.553725
O O4 0.629904 0.151079 0.058068
O O5 0.323853 0.750826 0.389567
O O6 0.207571 0.297063 0.717596
O O7 0.327386 0.653250 0.294046
O O8 0.445776 0.340909 0.736329
O O9 0.670622 0.405017 0.279024
O O10 0.717048 0.913522 0.786984
O O11 0.931157 0.664577 0.655138
O O12 0.000000 0.000000 0.500000
O O13 0.934825 0.162341 0.155629
O O14 0.151502 0.437768 0.942736
O O15 0.000000 0.500000 0.000000
O O16 0.883788 0.661179 0.162940
O O17 0.000000 0.500000 0.500000
O O18 0.000000 0.000000 0.000000
#
# Coordination Sequence:
#
# PCOD8009788 Si02
#       8
#     2   2   2   2   2   2   2   2
#     4  11  21  37  60  93 117 155 208 248 302 357
#     4   9  21  39  54  83 125 165 204 248 300 334
#     4  10  21  37  61  85 120 158 198 247 292 362
#     4  10  22  40  63  87 120 151 184 249 313 365
#     4  10  22  41  65  87 114 153 198 247 306 370
#     4  11  23  35  52  80 120 161 200 238 280 353
#     4  10  22  35  60  85 119 162 207 256 289 344
#     4  11  22  40  61  85 117 162 201 243 307 352
#
# _framework density 22.098552000000002
#
# number of rings (size 3 to 8) (size 9 to 14) (size 15 to 20)
#    0.000    1.750    0.000    5.250    0.000   11.500 
#    0.000    0.000    0.000   18.000    0.000    0.000 
#    0.000    0.000    0.000    0.000    0.000    0.000 
#
# Total GULP energy -198311.299741 kJ/mol
# GULP energy per Si atom -12394.456234 kJ/mol
# Density = 2.204825 g / cm^3
# Si number density = 22.098552 Si / 1000 Ang^3
#
#
#
# Elastic Constant Matrix: (Units=GPa)
#
#
# Indices 1 2 3 4 5 6 
#
# 1 184.1180 56.0047 64.6496 -3.2712 -14.0688 4.6769
# 2 56.0047 48.4830 28.8166 2.7452 -3.1450 1.1177
# 3 64.6496 28.8166 186.1222 -26.6223 -1.7921 3.6549
# 4 -3.2712 2.7452 -26.6223 14.8592 0.1115 2.6517
# 5 -14.0688 -3.1450 -1.7921 0.1115 45.0142 -3.6151
# 6 4.6769 1.1177 3.6549 2.6517 -3.6151 47.7496
#
#
#
# Elastic Compliance Matrix: (Units=1/GPa)
#
#
# Indices 1 2 3 4 5 6 
#
# 1 0.009016 -0.009461 -0.001472 0.001162 0.002058 -0.000458
# 2 -0.009461 0.035229 -0.004657 -0.017176 -0.000528 0.001372
# 3 -0.001472 -0.004657 0.009064 0.017036 -0.000582 -0.001431
# 4 0.001162 -0.017176 0.017036 0.102467 -0.000957 -0.006779
# 5 0.002058 -0.000528 -0.000582 -0.000957 0.022933 0.001645
# 6 -0.000458 0.001372 -0.001431 -0.006779 0.001645 0.021566
#
#
# Mechanical properties :
#
#
# Convention : Reuss Voigt Hill
#
# Bulk Modulus (GPa) = 45.18830 79.74057 62.46443
# Shear Modulus (GPa) = 20.93534 39.47476 30.20505
#
# Velocity S-wave (km/s) = 3.08126 4.23106 3.70108
# Velocity P-wave (km/s) = 5.75776 7.74800 6.82581
#
# Compressibility (1/GPa) = 0.02212962
#
# Stress axis : x y z
#
# Youngs Moduli (GPa) = 110.91996 28.38544 110.32348
#
# Poissons Ratio (x) = 0.26856 0.16236
# Poissons Ratio (y) = 1.04944 0.51376
# Poissons Ratio (z) = 0.16323 0.13219
#
# Static dielectric constant tensor:
#      x y z
#    x 4.466650 0.256210 -0.371640 
#    y 0.256210 2.518110 5.065140 
#    z -0.371640 5.065140 -19.638720 
# 
# 
# High freq. dielectric constant tensor:
#      x y z
#    x 1.883500 0.004720 -0.006350 
#    y 0.004720 1.824390 -0.011550 
#    z -0.006350 -0.011550 1.893980 
# 
# From -- ./inp_files/522084.got.cif
#   From: 2010.06.25/outbox.cif.g09.slc.cpg/sg2_262_cif.got.tgz:522084.got - 2010.06.27 13:26:56.
