data_PCOD8009144
_publ_section_title
;
Structure prediction by ZEFSAII (Michael W. Deem and Ramdas Pophale) SiO2 
 PCOD8009144
Probable space group: P -1
;
_chemical_formula_sum "Si O2"
_cell_formula_units_Z 16
_cell_length_a 12.379307
_cell_length_b 9.964603
_cell_length_c 11.182395
_cell_angle_alpha 106.654151
_cell_angle_beta 49.497373
_cell_angle_gamma 131.408491
_cell_volume 761.534391
_symmetry_space_group_name_H-M "P -1"
_symmetry_group_IT_number 2
_symmetry_cell_setting 'triclinic'
loop_
_space_group_symop_operation_xyz
x,y,z
-x,-y,-z
loop_
_atom_site_type_symbol
_atom_site_label
_atom_site_fract_x
_atom_site_fract_y
_atom_site_fract_z
Si Si1 0.962768 0.968280 0.259113
Si Si2 0.501268 0.780313 0.021748
Si Si3 0.875701 0.526961 0.666676
Si Si4 0.745215 0.726365 0.713580
Si Si5 0.700718 0.356358 0.094602
Si Si6 0.983102 0.743376 0.867616
Si Si7 0.170235 0.849818 0.993082
Si Si8 0.418657 0.319652 0.439032
O O1 0.742026 0.855614 0.408483
O O2 0.045528 0.117191 0.128505
O O3 0.069213 0.064335 0.332982
O O4 0.994754 0.825702 0.164826
O O5 0.307298 0.664571 0.200609
O O6 0.638377 0.966324 0.045753
O O7 0.588326 0.680334 0.910918
O O8 0.454534 0.804870 0.927775
O O9 0.796707 0.598301 0.658709
O O10 0.000000 0.500000 0.500000
O O11 0.012903 0.668263 0.709665
O O12 0.678143 0.696052 0.618869
O O13 0.849154 0.326933 0.004850
O O14 0.588748 0.322688 0.288188
O O15 0.803037 0.562661 0.022615
O O16 0.162164 0.856263 0.855690
O O17 0.500000 0.500000 0.500000
#
# Coordination Sequence:
#
# PCOD8009144 Si02
#       8
#     2   2   2   2   2   2   2   2
#     4  10  22  40  61  86 116 155 196 236 287 349
#     4   9  20  37  58  84 115 154 194 234 288 354
#     4  10  21  36  57  85 118 154 194 240 289 340
#     4   9  20  38  58  80 115 160 194 229 287 356
#     4  10  22  40  60  86 119 154 193 239 289 345
#     4  10  22  40  60  85 118 156 194 235 287 352
#     4  11  21  36  63  89 112 150 197 244 287 337
#     4  11  23  37  58  89 120 151 191 243 292 339
#
# _framework density 21.010214000000001
#
# number of rings (size 3 to 8) (size 9 to 14) (size 15 to 20)
#    0.000    2.000    0.000    2.625    0.000    9.000 
#    0.000    2.500    0.000    1.500    0.000    0.000 
#    0.000    0.000    0.000    0.000    0.000    0.000 
#
# Total GULP energy -198213.028821 kJ/mol
# GULP energy per Si atom -12388.314301 kJ/mol
# Density = 2.096239 g / cm^3
# Si number density = 21.010214 Si / 1000 Ang^3
#
#
#
# Elastic Constant Matrix: (Units=GPa)
#
#
# Indices 1 2 3 4 5 6 
#
# 1 101.4995 59.3400 37.5632 12.2909 9.6349 0.5853
# 2 59.3400 89.5456 57.9813 7.5773 -0.2193 6.9561
# 3 37.5632 57.9813 127.8911 8.9342 -19.9762 -13.0040
# 4 12.2909 7.5773 8.9342 26.1665 -0.1761 -1.9393
# 5 9.6349 -0.2193 -19.9762 -0.1761 31.6500 12.7907
# 6 0.5853 6.9561 -13.0040 -1.9393 12.7907 42.0777
#
#
#
# Elastic Compliance Matrix: (Units=1/GPa)
#
#
# Indices 1 2 3 4 5 6 
#
# 1 0.018012 -0.011465 -0.000554 -0.004742 -0.007349 0.003489
# 2 -0.011465 0.024671 -0.008376 0.000603 0.001136 -0.006825
# 3 -0.000554 -0.008376 0.013347 -0.001582 0.007212 0.003252
# 4 -0.004742 0.000603 -0.001582 0.040908 0.000144 0.001319
# 5 -0.007349 0.001136 0.007212 0.000144 0.042780 -0.010854
# 6 0.003489 -0.006825 0.003252 0.001319 -0.010854 0.029211
#
#
# Mechanical properties :
#
#
# Convention : Reuss Voigt Hill
#
# Bulk Modulus (GPa) = 65.62183 69.85615 67.73899
# Shear Modulus (GPa) = 23.27764 30.91562 27.09663
#
# Velocity S-wave (km/s) = 3.33215 3.84012 3.59512
# Velocity P-wave (km/s) = 6.79010 7.27893 7.03876
#
# Compressibility (1/GPa) = 0.01523883
#
# Stress axis : x y z
#
# Youngs Moduli (GPa) = 55.51881 40.53422 74.92317
#
# Poissons Ratio (x) = 0.46472 0.04154
# Poissons Ratio (y) = 0.63652 0.62756
# Poissons Ratio (z) = 0.03078 0.33952
#
# Static dielectric constant tensor:
#      x y z
#    x 4.023320 0.194830 -0.000590 
#    y 0.194830 3.784380 0.152720 
#    z -0.000590 0.152720 3.759810 
# 
# 
# High freq. dielectric constant tensor:
#      x y z
#    x 1.830050 0.018650 0.002970 
#    y 0.018650 1.820200 0.015630 
#    z 0.002970 0.015630 1.806040 
# 
# From -- ./inp_files/419526.got.cif
#   From: 2010.06.25/outbox.cif.g09.slc.cpg/sg2_210_cif.got.tgz:419526.got - 2010.06.27 13:26:56.
