data_PCOD8009176
_publ_section_title
;
Structure prediction by ZEFSAII (Michael W. Deem and Ramdas Pophale) SiO2 
 PCOD8009176
Probable space group: P -1
;
_chemical_formula_sum "Si O2"
_cell_formula_units_Z 12
_cell_length_a 7.021365
_cell_length_b 17.411825
_cell_length_c 17.647176
_cell_angle_alpha 156.966935
_cell_angle_beta 47.664038
_cell_angle_gamma 134.213701
_cell_volume 601.138809
_symmetry_space_group_name_H-M "P -1"
_symmetry_group_IT_number 2
_symmetry_cell_setting 'triclinic'
loop_
_space_group_symop_operation_xyz
x,y,z
-x,-y,-z
loop_
_atom_site_type_symbol
_atom_site_label
_atom_site_fract_x
_atom_site_fract_y
_atom_site_fract_z
Si Si1 0.714255 0.843025 0.726116
Si Si2 0.845230 0.353282 0.550864
Si Si3 0.765510 0.285485 0.152487
Si Si4 0.027520 0.297856 0.769858
Si Si5 0.406112 0.054965 0.494618
Si Si6 0.614507 0.603777 0.385110
O O1 0.419813 0.771071 0.775075
O O2 0.705366 0.779074 0.582783
O O3 0.906993 0.732465 0.620110
O O4 0.829461 0.086261 0.919891
O O5 0.663596 0.178858 0.493125
O O6 0.685299 0.404588 0.568579
O O7 0.954404 0.558953 0.757445
O O8 0.614734 0.384572 0.219660
O O9 0.732249 0.150815 0.701490
O O10 0.193271 0.188873 0.682367
O O11 0.179653 0.343586 0.691041
O O12 0.000000 0.500000 0.000000
O O13 0.500000 0.000000 0.500000
#
# Coordination Sequence:
#
# PCOD8009176 Si02
#       6
#     2   2   2   2   2   2
#     4  10  22  39  58  83 115 147 186 233 281 332
#     4  10  21  36  58  85 112 147 189 229 277 334
#     4  10  22  38  58  85 113 147 188 231 280 333
#     4  10  23  39  57  85 116 148 188 230 277 332
#     4  10  21  38  58  83 113 148 188 232 278 328
#     4  10  21  38  59  82 114 150 183 231 281 329
#
# _framework density 19.962112999999999
#
# number of rings (size 3 to 8) (size 9 to 14) (size 15 to 20)
#    0.000    2.000    0.000    4.000    0.000   12.667 
#    0.000    3.333    0.000    0.000    0.000    0.000 
#    0.000    0.000    0.000    0.000    0.000    0.000 
#
# Total GULP energy -148823.421187 kJ/mol
# GULP energy per Si atom -12401.951766 kJ/mol
# Density = 1.991668 g / cm^3
# Si number density = 19.962113 Si / 1000 Ang^3
#
#
#
# Elastic Constant Matrix: (Units=GPa)
#
#
# Indices 1 2 3 4 5 6 
#
# 1 139.8789 32.4630 65.6760 14.6090 -0.6775 -3.2182
# 2 32.4630 76.2026 39.6462 11.4795 16.8238 1.2671
# 3 65.6760 39.6462 162.8826 24.4101 9.3702 -3.5636
# 4 14.6090 11.4795 24.4101 36.2578 -0.3646 0.8869
# 5 -0.6775 16.8238 9.3702 -0.3646 18.6676 6.0939
# 6 -3.2182 1.2671 -3.5636 0.8869 6.0939 34.2644
#
#
#
# Elastic Compliance Matrix: (Units=1/GPa)
#
#
# Indices 1 2 3 4 5 6 
#
# 1 0.009537 -0.003429 -0.003231 -0.000525 0.005116 -0.000210
# 2 -0.003429 0.020086 -0.001826 -0.003981 -0.018061 0.002060
# 3 -0.003231 -0.001826 0.008719 -0.004058 -0.003377 0.001376
# 4 -0.000525 -0.003981 -0.004058 0.031913 0.007011 -0.002397
# 5 0.005116 -0.018061 -0.003377 0.007011 0.076079 -0.012915
# 6 -0.000210 0.002060 0.001376 -0.002397 -0.012915 0.031591
#
#
# Mechanical properties :
#
#
# Convention : Reuss Voigt Hill
#
# Bulk Modulus (GPa) = 46.79252 72.72606 59.75929
# Shear Modulus (GPa) = 24.75000 33.91655 29.33328
#
# Velocity S-wave (km/s) = 3.52497 4.12642 3.83750
# Velocity P-wave (km/s) = 6.32920 7.69508 7.04532
#
# Compressibility (1/GPa) = 0.02137094
#
# Stress axis : x y z
#
# Youngs Moduli (GPa) = 104.85997 49.78499 114.69144
#
# Poissons Ratio (x) = 0.17069 0.37056
# Poissons Ratio (y) = 0.35952 0.20943
# Poissons Ratio (z) = 0.33879 0.09091
#
# Static dielectric constant tensor:
#      x y z
#    x 3.826360 0.074490 -0.151450 
#    y 0.074490 3.666260 0.183620 
#    z -0.151450 0.183620 3.671140 
# 
# 
# High freq. dielectric constant tensor:
#      x y z
#    x 1.786430 0.003780 -0.005840 
#    y 0.003780 1.784420 0.014810 
#    z -0.005840 0.014810 1.774320 
# 
# From -- ./inp_files/484566.got.cif
#   From: 2010.06.25/outbox.cif.g09.slc.cpg/sg2_243_cif.got.tgz:484566.got - 2010.06.27 13:26:56.
