data_PCOD8009936
_publ_section_title
;
Structure prediction by ZEFSAII (Michael W. Deem and Ramdas Pophale) SiO2 
 PCOD8009936
Probable space group: P -1
;
_chemical_formula_sum "Si O2"
_cell_formula_units_Z 14
_cell_length_a 12.365019
_cell_length_b 10.219647
_cell_length_c 5.295481
_cell_angle_alpha 100.655812
_cell_angle_beta 102.656022
_cell_angle_gamma 83.980114
_cell_volume 640.204623
_symmetry_space_group_name_H-M "P -1"
_symmetry_group_IT_number 2
_symmetry_cell_setting 'triclinic'
loop_
_space_group_symop_operation_xyz
x,y,z
-x,-y,-z
loop_
_atom_site_type_symbol
_atom_site_label
_atom_site_fract_x
_atom_site_fract_y
_atom_site_fract_z
Si Si1 0.940982 0.650224 0.046090
Si Si2 0.291858 0.848085 0.379713
Si Si3 0.312911 0.562808 0.410161
Si Si4 0.954490 0.073849 0.752784
Si Si5 0.427992 0.879021 0.968858
Si Si6 0.526189 0.605353 0.844831
Si Si7 0.876900 0.571264 0.484808
O O1 0.854859 0.649710 0.238401
O O2 0.020465 0.769535 0.173625
O O3 0.874342 0.673841 0.757351
O O4 0.000000 0.500000 0.000000
O O5 0.268321 0.691348 0.270090
O O6 0.176900 0.935275 0.328631
O O7 0.341230 0.867531 0.691512
O O8 0.367420 0.898769 0.212923
O O9 0.429090 0.605792 0.590686
O O10 0.349272 0.432364 0.212925
O O11 0.219512 0.530861 0.557124
O O12 0.000000 0.000000 0.500000
O O13 0.000000 0.000000 0.000000
O O14 0.518825 0.754063 0.003056
O O15 0.500000 0.000000 0.000000
O O16 0.500000 0.500000 0.000000
O O17 0.000000 0.500000 0.500000
#
# Coordination Sequence:
#
# PCOD8009936 Si02
#       7
#     2   2   2   2   2   2   2
#     4  10  22  41  65  94 132 169 218 273 331 385
#     4  11  23  44  72  92 130 188 223 263 348 405
#     4  10  22  39  68  99 130 176 221 277 333 406
#     4  12  26  47  69  98 141 181 234 281 327 419
#     4  11  24  44  68  98 135 173 222 279 340 405
#     4  10  21  41  65  99 131 167 227 279 330 395
#     4  10  21  37  62  99 132 167 215 273 332 391
#
# _framework density 21.868008
#
# number of rings (size 3 to 8) (size 9 to 14) (size 15 to 20)
#    0.000    1.429    1.429    3.857    2.000    5.714 
#    7.714    0.000    0.000    0.000    0.000    0.000 
#    0.000    0.000    0.000    0.000    0.000    0.000 
#
# Total GULP energy -173459.212532 kJ/mol
# GULP energy per Si atom -12389.943752 kJ/mol
# Density = 2.181824 g / cm^3
# Si number density = 21.868008 Si / 1000 Ang^3
#
#
#
# Elastic Constant Matrix: (Units=GPa)
#
#
# Indices 1 2 3 4 5 6 
#
# 1 109.8489 49.1869 25.4554 -5.0702 -29.0276 1.2294
# 2 49.1869 130.0996 34.7868 0.7809 -11.4130 7.1495
# 3 25.4554 34.7868 139.0197 -16.6657 -22.1381 0.6275
# 4 -5.0702 0.7809 -16.6657 37.1215 7.9796 -2.4294
# 5 -29.0276 -11.4130 -22.1381 7.9796 39.0296 -6.1945
# 6 1.2294 7.1495 0.6275 -2.4294 -6.1945 41.3436
#
#
#
# Elastic Compliance Matrix: (Units=1/GPa)
#
#
# Indices 1 2 3 4 5 6 
#
# 1 0.013416 -0.004402 0.000085 0.000145 0.008981 0.001715
# 2 -0.004402 0.009885 -0.002090 -0.001537 -0.001551 -0.001870
# 3 0.000085 -0.002090 0.008698 0.003189 0.003892 0.000997
# 4 0.000145 -0.001537 0.003189 0.029441 -0.004347 0.001292
# 5 0.008981 -0.001551 0.003892 -0.004347 0.035744 0.005042
# 6 0.001715 -0.001870 0.000997 0.001292 0.005042 0.025276
#
#
# Mechanical properties :
#
#
# Convention : Reuss Voigt Hill
#
# Bulk Modulus (GPa) = 52.12605 66.42516 59.27561
# Shear Modulus (GPa) = 35.29306 41.46821 38.38063
#
# Velocity S-wave (km/s) = 4.02171 4.35937 4.19394
# Velocity P-wave (km/s) = 6.74196 7.46862 7.11457
#
# Compressibility (1/GPa) = 0.01918427
#
# Stress axis : x y z
#
# Youngs Moduli (GPa) = 74.54023 101.15827 114.96385
#
# Poissons Ratio (x) = 0.44530 -0.00975
# Poissons Ratio (y) = 0.32812 0.24032
# Poissons Ratio (z) = -0.00632 0.21147
#
# Static dielectric constant tensor:
#      x y z
#    x 4.617560 -0.171430 -0.898360 
#    y -0.171430 3.955630 0.644850 
#    z -0.898360 0.644850 3.631300 
# 
# 
# High freq. dielectric constant tensor:
#      x y z
#    x 1.854060 0.002160 -0.013010 
#    y 0.002160 1.850410 -0.008210 
#    z -0.013010 -0.008210 1.874840 
# 
# From -- ./inp_files/60961.got.cif
#   From: 2010.06.25/outbox.cif.g09.slc.cpg/sg2_31_cif.got.tgz:60961.got - 2010.06.27 13:26:56.
