data_PCOD8009785
_publ_section_title
;
Structure prediction by ZEFSAII (Michael W. Deem and Ramdas Pophale) SiO2 
 PCOD8009785
Probable space group: P -1
;
_chemical_formula_sum "Si O2"
_cell_formula_units_Z 12
_cell_length_a 13.673840
_cell_length_b 11.286567
_cell_length_c 5.085003
_cell_angle_alpha 77.189629
_cell_angle_beta 102.017722
_cell_angle_gamma 53.206316
_cell_volume 551.276630
_symmetry_space_group_name_H-M "P -1"
_symmetry_group_IT_number 2
_symmetry_cell_setting 'triclinic'
loop_
_space_group_symop_operation_xyz
x,y,z
-x,-y,-z
loop_
_atom_site_type_symbol
_atom_site_label
_atom_site_fract_x
_atom_site_fract_y
_atom_site_fract_z
Si Si1 0.065005 0.595913 0.244059
Si Si2 0.576194 0.272942 0.470503
Si Si3 0.305473 0.943646 0.865001
Si Si4 0.707692 0.400796 0.707048
Si Si5 0.889197 0.711885 0.600979
Si Si6 0.909693 0.062665 0.174433
O O1 0.186035 0.592746 0.364512
O O2 0.993687 0.641704 0.458756
O O3 0.133154 0.411934 0.287072
O O4 0.955486 0.722892 0.891687
O O5 0.610417 0.195505 0.241320
O O6 0.654636 0.337240 0.513500
O O7 0.415423 0.426960 0.312507
O O8 0.610314 0.141731 0.775033
O O9 0.156462 0.014839 0.812442
O O10 0.261906 0.112687 0.649894
O O11 0.792194 0.259642 0.044225
O O12 0.000000 0.000000 0.500000
O O13 0.000000 0.000000 0.000000
#
# Coordination Sequence:
#
# PCOD8009785 Si02
#       6
#     2   2   2   2   2   2
#     4  10  21  37  61  84 112 149 183 233 287 329
#     4  10  24  37  58  81 113 156 186 227 276 327
#     4  11  21  38  55  81 116 147 186 233 276 328
#     4  10  22  40  57  83 116 148 191 227 275 341
#     4  10  21  38  59  86 113 144 187 234 283 334
#     4  11  21  32  54  82 106 138 177 227 280 322
#
# _framework density 21.767655999999999
#
# number of rings (size 3 to 8) (size 9 to 14) (size 15 to 20)
#    0.000    1.667    0.000    5.000    0.000   11.333 
#    0.000    1.667    0.000    0.000    0.000    0.000 
#    0.000    0.000    0.000    0.000    0.000    0.000 
#
# Total GULP energy -148692.604992 kJ/mol
# GULP energy per Si atom -12391.050416 kJ/mol
# Density = 2.171811 g / cm^3
# Si number density = 21.767656 Si / 1000 Ang^3
#
#
#
# Elastic Constant Matrix: (Units=GPa)
#
#
# Indices 1 2 3 4 5 6 
#
# 1 50.6676 2.7835 17.8783 -3.7840 1.6955 4.9763
# 2 2.7835 52.7896 23.2637 -10.5339 -4.0226 -4.0406
# 3 17.8783 23.2637 121.0452 -7.0059 -0.2453 -9.8536
# 4 -3.7840 -10.5339 -7.0059 49.3221 -7.7318 -6.4130
# 5 1.6955 -4.0226 -0.2453 -7.7318 26.1799 -3.8732
# 6 4.9763 -4.0406 -9.8536 -6.4130 -3.8732 24.5243
#
#
#
# Elastic Compliance Matrix: (Units=1/GPa)
#
#
# Indices 1 2 3 4 5 6 
#
# 1 0.021751 -0.000211 -0.003700 -0.000112 -0.002448 -0.006351
# 2 -0.000211 0.022494 -0.003555 0.005822 0.005862 0.004769
# 3 -0.003700 -0.003555 0.009927 0.001082 0.000781 0.004560
# 4 -0.000112 0.005822 0.001082 0.024356 0.009479 0.009283
# 5 -0.002448 0.005862 0.000781 0.009479 0.043714 0.011159
# 6 -0.006351 0.004769 0.004560 0.009283 0.011159 0.048872
#
#
# Mechanical properties :
#
#
# Convention : Reuss Voigt Hill
#
# Bulk Modulus (GPa) = 25.48487 34.70593 30.09540
# Shear Modulus (GPa) = 25.10956 32.04371 28.57664
#
# Velocity S-wave (km/s) = 3.40004 3.84093 3.62719
# Velocity P-wave (km/s) = 5.21026 5.97066 5.60337
#
# Compressibility (1/GPa) = 0.03923897
#
# Stress axis : x y z
#
# Youngs Moduli (GPa) = 45.97455 44.45575 100.73972
#
# Poissons Ratio (x) = 0.00938 0.37279
# Poissons Ratio (y) = 0.00970 0.35812
# Poissons Ratio (z) = 0.17013 0.15804
#
# Static dielectric constant tensor:
#      x y z
#    x 3.908080 0.154450 -0.103930 
#    y 0.154450 3.983310 -0.395780 
#    z -0.103930 -0.395780 4.165520 
# 
# 
# High freq. dielectric constant tensor:
#      x y z
#    x 1.827810 -0.007390 -0.013840 
#    y -0.007390 1.859060 -0.014890 
#    z -0.013840 -0.014890 1.870430 
# 
# From -- ./inp_files/54565.got.cif
#   From: 2010.06.25/outbox.cif.g09.slc.cpg/sg2_28_cif.got.tgz:54565.got - 2010.06.27 13:26:56.
