data_PCOD8009905
_publ_section_title
;
Structure prediction by ZEFSAII (Michael W. Deem and Ramdas Pophale) SiO2 
 PCOD8009905
Probable space group: P -1
;
_chemical_formula_sum "Si O2"
_cell_formula_units_Z 14
_cell_length_a 11.791929
_cell_length_b 13.531608
_cell_length_c 22.063525
_cell_angle_alpha 162.362880
_cell_angle_beta 139.976042
_cell_angle_gamma 46.799013
_cell_volume 667.260871
_symmetry_space_group_name_H-M "P -1"
_symmetry_group_IT_number 2
_symmetry_cell_setting 'triclinic'
loop_
_space_group_symop_operation_xyz
x,y,z
-x,-y,-z
loop_
_atom_site_type_symbol
_atom_site_label
_atom_site_fract_x
_atom_site_fract_y
_atom_site_fract_z
Si Si1 0.846347 0.705694 0.671833
Si Si2 0.641087 0.477258 0.716905
Si Si3 0.253701 0.281796 0.490363
Si Si4 0.786086 0.382272 0.843743
Si Si5 0.622275 0.965522 0.173951
Si Si6 0.226424 0.863012 0.898519
Si Si7 0.504284 0.201051 0.373995
O O1 0.882039 0.781980 0.659143
O O2 0.707765 0.926839 0.768166
O O3 0.053131 0.838311 0.859262
O O4 0.764646 0.311064 0.418629
O O5 0.441765 0.501941 0.669802
O O6 0.725216 0.290994 0.695954
O O7 0.629951 0.297070 0.541229
O O8 0.768371 0.850047 0.982207
O O9 0.183917 0.493655 0.636920
O O10 0.282277 0.940061 0.331197
O O11 0.692389 0.663300 0.997300
O O12 0.000000 0.500000 0.000000
O O13 0.592224 0.934255 0.216927
O O14 0.420206 0.967780 0.070898
O O15 0.500000 0.500000 0.500000
#
# Coordination Sequence:
#
# PCOD8009905 Si02
#       7
#     2   2   2   2   2   2   2
#     4  10  21  37  62  93 123 152 206 249 301 364
#     4  11  21  39  64  88 124 162 198 252 308 352
#     4  11  21  38  58  91 126 156 203 251 299 364
#     4  12  25  40  62  89 125 163 208 248 301 360
#     4  11  22  42  62  91 124 158 201 255 304 355
#     4  12  20  35  67  91 119 159 202 249 307 349
#     4   9  19  41  61  90 127 153 196 258 301 359
#
# _framework density 20.981297000000001
#
# number of rings (size 3 to 8) (size 9 to 14) (size 15 to 20)
#    0.000    1.143    5.714    3.857    0.000    0.571 
#    0.000    3.571    0.000    0.000    0.000    0.000 
#    0.000    0.000    0.000    0.000    0.000    0.000 
#
# Total GULP energy -173444.320336 kJ/mol
# GULP energy per Si atom -12388.880024 kJ/mol
# Density = 2.093354 g / cm^3
# Si number density = 20.981297 Si / 1000 Ang^3
#
#
#
# Elastic Constant Matrix: (Units=GPa)
#
#
# Indices 1 2 3 4 5 6 
#
# 1 122.5106 46.5697 53.2622 -9.3633 3.5089 5.7099
# 2 46.5697 59.4161 31.0546 -3.3147 1.9027 6.2587
# 3 53.2622 31.0546 79.5083 4.5654 24.7125 -4.1738
# 4 -9.3633 -3.3147 4.5654 31.8467 -3.7996 4.3922
# 5 3.5089 1.9027 24.7125 -3.7996 37.3197 -15.3574
# 6 5.7099 6.2587 -4.1738 4.3922 -15.3574 29.3039
#
#
#
# Elastic Compliance Matrix: (Units=1/GPa)
#
#
# Indices 1 2 3 4 5 6 
#
# 1 0.015267 -0.006599 -0.009788 0.006001 0.005617 -0.000915
# 2 -0.006599 0.026151 -0.006888 0.002659 0.002272 -0.004489
# 3 -0.009788 -0.006888 0.028170 -0.009737 -0.018782 -0.000993
# 4 0.006001 0.002659 -0.009737 0.036375 0.007550 -0.004619
# 5 0.005617 0.002272 -0.018782 0.007550 0.047353 0.019430
# 6 -0.000915 -0.004489 -0.000993 -0.004619 0.019430 0.045996
#
#
# Mechanical properties :
#
#
# Convention : Reuss Voigt Hill
#
# Bulk Modulus (GPa) = 43.40868 58.13423 50.77145
# Shear Modulus (GPa) = 19.72062 28.39730 24.05896
#
# Velocity S-wave (km/s) = 3.06913 3.68293 3.38995
# Velocity P-wave (km/s) = 5.77006 6.77149 6.29073
#
# Compressibility (1/GPa) = 0.02303687
#
# Stress axis : x y z
#
# Youngs Moduli (GPa) = 65.50105 38.23934 35.49909
#
# Poissons Ratio (x) = 0.25233 0.34748
# Poissons Ratio (y) = 0.43222 0.24453
# Poissons Ratio (z) = 0.64116 0.26341
#
# Static dielectric constant tensor:
#      x y z
#    x 4.315750 0.200100 0.001390 
#    y 0.200100 3.856730 -0.196470 
#    z 0.001390 -0.196470 3.844290 
# 
# 
# High freq. dielectric constant tensor:
#      x y z
#    x 1.834660 0.004320 0.016250 
#    y 0.004320 1.805610 -0.019360 
#    z 0.016250 -0.019360 1.809250 
# 
# From -- ./inp_files/217438.got.cif
#   From: 2010.06.25/outbox.cif.g09.slc.cpg/sg2_109_cif.got.tgz:217438.got - 2010.06.27 13:26:56.
