data_PCOD8009262
_publ_section_title
;
Structure prediction by ZEFSAII (Michael W. Deem and Ramdas Pophale) SiO2 
 PCOD8009262
Probable space group: P -1
;
_chemical_formula_sum "Si O2"
_cell_formula_units_Z 16
_cell_length_a 26.707540
_cell_length_b 30.288571
_cell_length_c 5.091743
_cell_angle_alpha 118.343328
_cell_angle_beta 117.227141
_cell_angle_gamma 11.976221
_cell_volume 751.692345
_symmetry_space_group_name_H-M "P -1"
_symmetry_group_IT_number 2
_symmetry_cell_setting 'triclinic'
loop_
_space_group_symop_operation_xyz
x,y,z
-x,-y,-z
loop_
_atom_site_type_symbol
_atom_site_label
_atom_site_fract_x
_atom_site_fract_y
_atom_site_fract_z
Si Si1 0.944494 0.216297 0.121028
Si Si2 0.329624 0.544003 0.368901
Si Si3 0.687931 0.968451 0.140987
Si Si4 0.848116 0.206409 0.151717
Si Si5 0.194471 0.855735 0.371207
Si Si6 0.906531 0.464875 0.216328
Si Si7 0.640844 0.073549 0.824797
Si Si8 0.139739 0.430014 0.097947
O O1 0.855215 0.319031 0.470516
O O2 0.942705 0.157088 0.985239
O O3 0.751490 0.401987 0.962336
O O4 0.211998 0.002707 0.085777
O O5 0.324561 0.609363 0.564128
O O6 0.601924 0.292430 0.386821
O O7 0.723585 0.960098 0.492756
O O8 0.891252 0.751552 0.959418
O O9 0.424395 0.171142 0.066703
O O10 0.704721 0.998298 0.053803
O O11 0.703938 0.280714 0.935434
O O12 0.086488 0.987930 0.277565
O O13 0.000000 0.000000 0.500000
O O14 0.944781 0.456305 0.568291
O O15 0.642379 0.667810 0.145879
O O16 0.927044 0.490643 0.122681
O O17 0.000000 0.500000 0.000000
#
# Coordination Sequence:
#
# PCOD8009262 Si02
#       8
#     2   2   2   2   2   2   2   2
#     4  10  22  42  60  84 117 152 194 254 301 352
#     4  10  23  40  60  84 116 150 187 239 305 359
#     4  10  21  38  62  89 118 166 210 245 304 362
#     4   9  23  38  59  88 111 154 187 236 297 366
#     4  11  22  38  62  86 119 150 191 236 299 378
#     4  10  21  38  61  88 121 166 208 244 304 357
#     4  10  21  41  61  83 119 158 206 257 300 355
#     4  10  21  36  59  93 131 161 202 255 297 353
#
# _framework density 21.285305000000001
#
# number of rings (size 3 to 8) (size 9 to 14) (size 15 to 20)
#    0.750    1.250    0.000    3.000    3.500    2.000 
#    2.250    2.500    0.000    0.000    0.000    0.000 
#    0.000    0.000    0.000    0.000    0.000    0.000 
#
# Total GULP energy -198328.324821 kJ/mol
# GULP energy per Si atom -12395.520301 kJ/mol
# Density = 2.123686 g / cm^3
# Si number density = 21.285305 Si / 1000 Ang^3
#
#
#
# Elastic Constant Matrix: (Units=GPa)
#
#
# Indices 1 2 3 4 5 6 
#
# 1 90.6061 38.3103 9.4473 -18.8923 -16.2276 -15.7174
# 2 38.3103 105.4522 24.9307 -0.7934 1.3848 -3.1899
# 3 9.4473 24.9307 62.0763 -3.3643 -22.0754 6.0238
# 4 -18.8923 -0.7934 -3.3643 37.9130 3.3169 -0.3301
# 5 -16.2276 1.3848 -22.0754 3.3169 31.0533 1.1061
# 6 -15.7174 -3.1899 6.0238 -0.3301 1.1061 23.5227
#
#
#
# Elastic Compliance Matrix: (Units=1/GPa)
#
#
# Indices 1 2 3 4 5 6 
#
# 1 0.019959 -0.007951 0.003954 0.009154 0.012234 0.010799
# 2 -0.007951 0.014442 -0.008390 -0.003505 -0.010362 -0.000768
# 3 0.003954 -0.008390 0.027432 0.002254 0.021933 -0.006520
# 4 0.009154 -0.003505 0.002254 0.030844 0.003057 0.005353
# 5 0.012234 -0.010362 0.021933 0.003057 0.054372 -0.001362
# 6 0.010799 -0.000768 -0.006520 0.005353 -0.001362 0.051432
#
#
# Mechanical properties :
#
#
# Convention : Reuss Voigt Hill
#
# Bulk Modulus (GPa) = 26.98419 44.83457 35.90938
# Shear Modulus (GPa) = 21.22178 30.86089 26.04133
#
# Velocity S-wave (km/s) = 3.16098 3.81184 3.50157
# Velocity P-wave (km/s) = 5.10170 6.36262 5.76672
#
# Compressibility (1/GPa) = 0.03705874
#
# Stress axis : x y z
#
# Youngs Moduli (GPa) = 50.10174 69.24417 36.45426
#
# Poissons Ratio (x) = 0.55057 -0.14415
# Poissons Ratio (y) = 0.39837 0.30586
# Poissons Ratio (z) = -0.19812 0.58097
#
# Static dielectric constant tensor:
#      x y z
#    x 3.692060 -0.027340 -0.280830 
#    y -0.027340 3.786950 -0.153940 
#    z -0.280830 -0.153940 4.049570 
# 
# 
# High freq. dielectric constant tensor:
#      x y z
#    x 1.823100 -0.001770 -0.027270 
#    y -0.001770 1.833090 -0.007580 
#    z -0.027270 -0.007580 1.834350 
# 
# From -- ./inp_files/127855.got.cif
#   From: 2010.06.25/outbox.cif.g09.slc.cpg/sg2_64_cif.got.tgz:127855.got - 2010.06.27 13:26:56.
