data_PCOD8009635
_publ_section_title
;
Structure prediction by ZEFSAII (Michael W. Deem and Ramdas Pophale) SiO2 
 PCOD8009635
Probable space group: P -1
;
_chemical_formula_sum "Si O2"
_cell_formula_units_Z 14
_cell_length_a 15.654750
_cell_length_b 12.214545
_cell_length_c 12.145669
_cell_angle_alpha 46.201213
_cell_angle_beta 40.186411
_cell_angle_gamma 25.743687
_cell_volume 650.852019
_symmetry_space_group_name_H-M "P -1"
_symmetry_group_IT_number 2
_symmetry_cell_setting 'triclinic'
loop_
_space_group_symop_operation_xyz
x,y,z
-x,-y,-z
loop_
_atom_site_type_symbol
_atom_site_label
_atom_site_fract_x
_atom_site_fract_y
_atom_site_fract_z
Si Si1 0.147934 0.512445 0.364909
Si Si2 0.338731 0.542609 0.698629
Si Si3 0.052544 0.280932 0.133196
Si Si4 0.541884 0.041024 0.165022
Si Si5 0.778490 0.062478 0.355796
Si Si6 0.323158 0.003148 0.268657
Si Si7 0.407453 0.217979 0.513476
O O1 0.370989 0.299870 0.221758
O O2 0.202141 0.474269 0.469286
O O3 0.000000 0.500000 0.500000
O O4 0.013040 0.786452 0.271139
O O5 0.500000 0.500000 0.500000
O O6 0.229909 0.746428 0.759891
O O7 0.148373 0.649693 0.733987
O O8 0.485275 0.270611 0.790917
O O9 0.116853 0.212579 0.245553
O O10 0.000000 0.500000 0.000000
O O11 0.257948 0.040261 0.020997
O O12 0.421539 0.077088 0.152537
O O13 0.649445 0.804739 0.296547
O O14 0.586699 0.186005 0.376131
O O15 0.754567 0.008234 0.536445
O O16 0.500000 0.000000 0.500000
#
# Coordination Sequence:
#
# PCOD8009635 Si02
#       7
#     2   2   2   2   2   2   2
#     4  11  19  35  62  93 121 157 206 260 302 355
#     4  10  24  43  59  89 129 162 212 249 306 371
#     4  12  25  39  65  93 125 168 203 253 317 363
#     4  10  21  37  58  96 122 152 207 260 299 362
#     4  10  21  37  62  90 122 161 204 256 303 358
#     4  10  21  40  62  93 125 158 208 255 302 365
#     4   9  18  34  57  89 119 151 206 248 294 354
#
# _framework density 21.510266999999999
#
# number of rings (size 3 to 8) (size 9 to 14) (size 15 to 20)
#    0.000    1.714    5.714    0.429    2.000    3.429 
#    0.000    0.714    0.000    4.286    0.000    0.000 
#    0.000    0.000    0.000    0.000    0.000    0.000 
#
# Total GULP energy -173519.973669 kJ/mol
# GULP energy per Si atom -12394.283834 kJ/mol
# Density = 2.146131 g / cm^3
# Si number density = 21.510267 Si / 1000 Ang^3
#
#
#
# Elastic Constant Matrix: (Units=GPa)
#
#
# Indices 1 2 3 4 5 6 
#
# 1 167.3656 54.7633 29.5766 -9.7760 -7.2132 -21.9592
# 2 54.7633 103.4581 12.2591 5.5936 1.3953 2.7776
# 3 29.5766 12.2591 59.4990 18.2613 -8.8543 -8.3929
# 4 -9.7760 5.5936 18.2613 24.4115 -4.8672 1.9761
# 5 -7.2132 1.3953 -8.8543 -4.8672 26.0625 0.3087
# 6 -21.9592 2.7776 -8.3929 1.9761 0.3087 45.5331
#
#
#
# Elastic Compliance Matrix: (Units=1/GPa)
#
#
# Indices 1 2 3 4 5 6 
#
# 1 0.009892 -0.005196 -0.005965 0.009885 0.002793 0.003540
# 2 -0.005196 0.012742 0.001003 -0.006098 -0.002885 -0.002814
# 3 -0.005965 0.001003 0.027486 -0.022764 0.003346 0.003094
# 4 0.009885 -0.006098 -0.022764 0.064998 0.007490 -0.001928
# 5 0.002793 -0.002885 0.003346 0.007490 0.041814 0.001531
# 6 0.003540 -0.002814 0.003094 -0.001928 0.001531 0.024484
#
#
# Mechanical properties :
#
#
# Convention : Reuss Voigt Hill
#
# Bulk Modulus (GPa) = 33.55361 58.16898 45.86129
# Shear Modulus (GPa) = 23.62203 34.78299 29.20251
#
# Velocity S-wave (km/s) = 3.31747 4.02561 3.68857
# Velocity P-wave (km/s) = 5.50517 6.97915 6.28551
#
# Compressibility (1/GPa) = 0.02980305
#
# Stress axis : x y z
#
# Youngs Moduli (GPa) = 101.09654 78.48343 36.38174
#
# Poissons Ratio (x) = 0.40781 0.21702
# Poissons Ratio (y) = 0.52532 -0.03650
# Poissons Ratio (z) = 0.60305 -0.07873
#
# Static dielectric constant tensor:
#      x y z
#    x 4.340080 -0.045670 0.194630 
#    y -0.045670 4.868320 0.053000 
#    z 0.194630 0.053000 3.622120 
# 
# 
# High freq. dielectric constant tensor:
#      x y z
#    x 1.847960 -0.008660 0.008600 
#    y -0.008660 1.854870 0.019030 
#    z 0.008600 0.019030 1.801060 
# 
# From -- ./inp_files/451226.got.cif
#   From: 2010.06.25/outbox.cif.g09.slc.cpg/sg2_226_cif.got.tgz:451226.got - 2010.06.27 13:26:56.
