data_PCOD8009811
_publ_section_title
;
Structure prediction by ZEFSAII (Michael W. Deem and Ramdas Pophale) SiO2 
 PCOD8009811
Probable space group: P -1
;
_chemical_formula_sum "Si O2"
_cell_formula_units_Z 16
_cell_length_a 19.878524
_cell_length_b 14.547112
_cell_length_c 17.417708
_cell_angle_alpha 140.429177
_cell_angle_beta 159.209683
_cell_angle_gamma 29.159115
_cell_volume 840.296277
_symmetry_space_group_name_H-M "P -1"
_symmetry_group_IT_number 2
_symmetry_cell_setting 'triclinic'
loop_
_space_group_symop_operation_xyz
x,y,z
-x,-y,-z
loop_
_atom_site_type_symbol
_atom_site_label
_atom_site_fract_x
_atom_site_fract_y
_atom_site_fract_z
Si Si1 0.350662 0.685457 0.159183
Si Si2 0.195356 0.030400 0.306268
Si Si3 0.691757 0.803181 0.215482
Si Si4 0.059649 0.928127 0.787191
Si Si5 0.558672 0.837787 0.267236
Si Si6 0.759677 0.474818 0.329284
Si Si7 0.168158 0.980818 0.555282
Si Si8 0.363402 0.722799 0.737446
O O1 0.505275 0.611218 0.197069
O O2 0.468858 0.507618 0.229058
O O3 0.364062 0.834342 0.309370
O O4 0.058892 0.791501 0.896666
O O5 0.369047 0.081186 0.539510
O O6 0.123073 0.986637 0.279693
O O7 0.620577 0.870715 0.271339
O O8 0.993786 0.608130 0.409689
O O9 0.651962 0.970574 0.232207
O O10 0.512888 0.772887 0.971786
O O11 0.208061 0.700269 0.785447
O O12 0.258925 0.955111 0.030824
O O13 0.892448 0.055391 0.615859
O O14 0.727341 0.606370 0.310850
O O15 0.317756 0.786781 0.641075
O O16 0.904218 0.165784 0.433372
#
# Coordination Sequence:
#
# PCOD8009811 Si02
#       8
#     2   2   2   2   2   2   2   2
#     4  11  23  43  57  87 121 160 189 242 287 357
#     4  11  25  40  60  82 127 154 195 234 298 348
#     4  11  20  34  59  94 117 145 193 244 295 342
#     4  11  21  39  59  90 117 149 196 248 285 345
#     4  12  21  34  61  87 117 159 189 240 293 349
#     4  11  21  35  61  89 121 148 197 240 293 349
#     4  10  21  37  61  90 115 150 196 250 285 339
#     4  11  21  38  61  87 119 154 193 244 296 331
#
# _framework density 19.040903
#
# number of rings (size 3 to 8) (size 9 to 14) (size 15 to 20)
#    0.000    1.000    7.500    1.875    1.750    0.500 
#    2.250    0.625    0.000    0.750    0.000    0.000 
#    0.000    0.000    0.000    0.000    0.000    0.000 
#
# Total GULP energy -198435.022832 kJ/mol
# GULP energy per Si atom -12402.188927 kJ/mol
# Density = 1.899757 g / cm^3
# Si number density = 19.040903 Si / 1000 Ang^3
#
#
#
# Elastic Constant Matrix: (Units=GPa)
#
#
# Indices 1 2 3 4 5 6 
#
# 1 76.3811 34.1294 15.5287 -0.3473 -2.0250 15.1211
# 2 34.1294 72.4772 46.2652 3.3281 -5.0742 8.1496
# 3 15.5287 46.2652 84.6628 23.2274 -5.9446 5.6929
# 4 -0.3473 3.3281 23.2274 28.5164 6.3701 -6.1607
# 5 -2.0250 -5.0742 -5.9446 6.3701 31.6963 -2.2865
# 6 15.1211 8.1496 5.6929 -6.1607 -2.2865 35.4998
#
#
#
# Elastic Compliance Matrix: (Units=1/GPa)
#
#
# Indices 1 2 3 4 5 6 
#
# 1 0.018020 -0.009623 0.003131 -0.002653 0.000269 -0.006412
# 2 -0.009623 0.028363 -0.017066 0.011254 -0.001379 0.002189
# 3 0.003131 -0.017066 0.027843 -0.023398 0.006996 -0.005491
# 4 -0.002653 0.011254 -0.023398 0.058322 -0.013645 0.011541
# 5 0.000269 -0.001379 0.006996 -0.013645 0.035327 -0.001012
# 6 -0.006412 0.002189 -0.005491 0.011541 -0.001012 0.033216
#
#
# Mechanical properties :
#
#
# Convention : Reuss Voigt Hill
#
# Bulk Modulus (GPa) = 36.88562 47.26308 42.07435
# Shear Modulus (GPa) = 19.43685 28.31569 23.87627
#
# Velocity S-wave (km/s) = 3.19845 3.86047 3.54495
# Velocity P-wave (km/s) = 5.74926 6.68930 6.23702
#
# Compressibility (1/GPa) = 0.02711084
#
# Stress axis : x y z
#
# Youngs Moduli (GPa) = 55.49482 35.25669 35.91553
#
# Poissons Ratio (x) = 0.33926 -0.11246
# Poissons Ratio (y) = 0.53400 0.61294
# Poissons Ratio (z) = -0.17376 0.60170
#
# Static dielectric constant tensor:
#      x y z
#    x 3.591460 0.235970 -0.027180 
#    y 0.235970 3.233190 0.004680 
#    z -0.027180 0.004680 3.707380 
# 
# 
# High freq. dielectric constant tensor:
#      x y z
#    x 1.746910 0.019790 0.001990 
#    y 0.019790 1.703460 0.006930 
#    z 0.001990 0.006930 1.752990 
# 
# From -- ./inp_files/464588.got.cif
#   From: 2010.06.25/outbox.cif.g09.slc.cpg/sg2_233_cif.got.tgz:464588.got - 2010.06.27 13:26:56.
