data_PCOD8009285
_publ_section_title
;
Structure prediction by ZEFSAII (Michael W. Deem and Ramdas Pophale) SiO2 
 PCOD8009285
Probable space group: P -1
;
_chemical_formula_sum "Si O2"
_cell_formula_units_Z 14
_cell_length_a 9.991547
_cell_length_b 15.750882
_cell_length_c 9.493849
_cell_angle_alpha 110.966893
_cell_angle_beta 137.520498
_cell_angle_gamma 42.086779
_cell_volume 614.166626
_symmetry_space_group_name_H-M "P -1"
_symmetry_group_IT_number 2
_symmetry_cell_setting 'triclinic'
loop_
_space_group_symop_operation_xyz
x,y,z
-x,-y,-z
loop_
_atom_site_type_symbol
_atom_site_label
_atom_site_fract_x
_atom_site_fract_y
_atom_site_fract_z
Si Si1 0.801782 0.622437 0.082171
Si Si2 0.467617 0.379813 0.574487
Si Si3 0.263349 0.651442 0.970046
Si Si4 0.439255 0.865440 0.152297
Si Si5 0.776660 0.101760 0.691465
Si Si6 0.770496 0.905226 0.543971
Si Si7 0.865791 0.404662 0.909608
O O1 0.544646 0.747061 0.062119
O O2 0.115243 0.501655 0.338730
O O3 0.851946 0.676439 0.024592
O O4 0.701466 0.559803 0.902594
O O5 0.622146 0.232349 0.549266
O O6 0.624198 0.417966 0.658985
O O7 0.533647 0.351354 0.777904
O O8 0.084775 0.768925 0.783501
O O9 0.500000 0.500000 0.000000
O O10 0.030627 0.675448 0.907183
O O11 0.420805 0.840477 0.284837
O O12 0.687667 0.861340 0.331834
O O13 0.115165 0.017683 0.943235
O O14 0.803532 0.996539 0.565402
O O15 0.500000 0.000000 0.500000
#
# Coordination Sequence:
#
# PCOD8009285 Si02
#       7
#     2   2   2   2   2   2   2
#     4  11  22  41  62  85 112 164 196 236 293 348
#     4  10  22  37  62  84 119 152 195 240 290 345
#     4  10  21  36  60  90 116 146 190 249 290 335
#     4  10  22  36  62  86 120 155 193 232 297 348
#     4  10  22  37  57  93 120 154 186 245 295 338
#     4  10  21  38  57  88 124 149 186 242 293 344
#     4   9  25  39  59  86 123 146 199 250 284 341
#
# _framework density 22.795117000000001
#
# number of rings (size 3 to 8) (size 9 to 14) (size 15 to 20)
#    0.857    1.143    0.000    3.857    8.000    0.571 
#    0.000    0.714    0.000    4.286    0.000    0.000 
#    0.000    0.000    0.000    0.000    0.000    0.000 
#
# Total GULP energy -173433.653949 kJ/mol
# GULP energy per Si atom -12388.118139 kJ/mol
# Density = 2.274323 g / cm^3
# Si number density = 22.795117 Si / 1000 Ang^3
#
#
#
# Elastic Constant Matrix: (Units=GPa)
#
#
# Indices 1 2 3 4 5 6 
#
# 1 68.0387 47.3446 26.7322 3.0722 8.9842 12.6247
# 2 47.3446 133.6325 33.5834 -2.7598 5.9987 20.7915
# 3 26.7322 33.5834 65.8419 0.1069 10.8303 14.7861
# 4 3.0722 -2.7598 0.1069 24.2432 1.5397 9.4504
# 5 8.9842 5.9987 10.8303 1.5397 14.0672 5.8084
# 6 12.6247 20.7915 14.7861 9.4504 5.8084 34.6308
#
#
#
# Elastic Compliance Matrix: (Units=1/GPa)
#
#
# Indices 1 2 3 4 5 6 
#
# 1 0.022043 -0.006388 -0.004385 -0.002918 -0.007549 -0.000266
# 2 -0.006388 0.011052 -0.002442 0.003756 0.002800 -0.004759
# 3 -0.004385 -0.002442 0.021062 0.002770 -0.010654 -0.004897
# 4 -0.002918 0.003756 0.002770 0.048071 -0.000790 -0.015359
# 5 -0.007549 0.002800 -0.010654 -0.000790 0.086591 -0.008688
# 6 -0.000266 -0.004759 -0.004897 -0.015359 -0.008688 0.039569
#
#
# Mechanical properties :
#
#
# Convention : Reuss Voigt Hill
#
# Bulk Modulus (GPa) = 36.06578 53.64818 44.85698
# Shear Modulus (GPa) = 18.93504 25.24512 22.09008
#
# Velocity S-wave (km/s) = 2.88525 3.33149 3.11637
# Velocity P-wave (km/s) = 5.19188 6.19552 5.71577
#
# Compressibility (1/GPa) = 0.02772711
#
# Stress axis : x y z
#
# Youngs Moduli (GPa) = 45.36539 90.47964 47.47968
#
# Poissons Ratio (x) = 0.57795 0.20822
# Poissons Ratio (y) = 0.28977 0.11594
# Poissons Ratio (z) = 0.19895 0.22095
#
# Static dielectric constant tensor:
#      x y z
#    x 3.968910 0.421680 0.186240 
#    y 0.421680 4.502940 0.238440 
#    z 0.186240 0.238440 3.382480 
# 
# 
# High freq. dielectric constant tensor:
#      x y z
#    x 1.862490 0.025930 0.015860 
#    y 0.025930 1.911080 0.013410 
#    z 0.015860 0.013410 1.886530 
# 
# From -- ./inp_files/436811.got.cif
#   From: 2010.06.25/outbox.cif.g09.slc.cpg/sg2_219_cif.got.tgz:436811.got - 2010.06.27 13:26:56.
