data_PCOD8009261
_publ_section_title
;
Structure prediction by ZEFSAII (Michael W. Deem and Ramdas Pophale) SiO2 
 PCOD8009261
Probable space group: P -1
;
_chemical_formula_sum "Si O2"
_cell_formula_units_Z 16
_cell_length_a 11.636794
_cell_length_b 21.037342
_cell_length_c 10.775861
_cell_angle_alpha 44.355870
_cell_angle_beta 25.575215
_cell_angle_gamma 41.398332
_cell_volume 746.251401
_symmetry_space_group_name_H-M "P -1"
_symmetry_group_IT_number 2
_symmetry_cell_setting 'triclinic'
loop_
_space_group_symop_operation_xyz
x,y,z
-x,-y,-z
loop_
_atom_site_type_symbol
_atom_site_label
_atom_site_fract_x
_atom_site_fract_y
_atom_site_fract_z
Si Si1 0.232350 0.191774 0.844396
Si Si2 0.494459 0.978906 0.891567
Si Si3 0.054497 0.885268 0.110973
Si Si4 0.885376 0.142035 0.629935
Si Si5 0.673932 0.542515 0.608758
Si Si6 0.634277 0.782393 0.581520
Si Si7 0.336840 0.738955 0.545564
Si Si8 0.691856 0.576089 0.829727
O O1 0.252194 0.253000 0.618535
O O2 0.452302 0.200861 0.721536
O O3 0.329055 0.082927 0.845677
O O4 0.916715 0.226268 0.156481
O O5 0.799065 0.929960 0.602275
O O6 0.322471 0.910265 0.136052
O O7 0.500000 0.000000 0.000000
O O8 0.162746 0.836949 0.206948
O O9 0.782329 0.854274 0.393830
O O10 0.295806 0.838110 0.839332
O O11 0.000000 0.000000 0.000000
O O12 0.796811 0.239093 0.494323
O O13 0.518329 0.626032 0.544171
O O14 0.617144 0.583537 0.746027
O O15 0.009968 0.505317 0.310655
O O16 0.553185 0.455386 0.823825
O O17 0.692950 0.679238 0.737642
#
# Coordination Sequence:
#
# PCOD8009261 Si02
#       8
#     2   2   2   2   2   2   2   2
#     4  12  23  35  59  93 124 157 200 253 311 365
#     4  12  21  38  58  89 125 156 200 255 308 374
#     4  12  26  45  64  87 126 173 216 257 288 352
#     4  12  24  41  61  87 123 169 209 248 315 362
#     4  10  21  36  59  93 130 151 193 255 331 369
#     4  12  24  42  65  90 123 166 216 251 303 367
#     4  12  22  37  59  92 128 155 192 254 321 375
#     4  10  21  37  62  90 124 161 196 253 312 385
#
# _framework density 21.440497000000001
#
# number of rings (size 3 to 8) (size 9 to 14) (size 15 to 20)
#    0.000    0.500    3.750    6.000    3.500    0.000 
#    0.000    0.000    0.000    4.500    0.000    0.000 
#    0.000    0.000    0.000    0.000    0.000    0.000 
#
# Total GULP energy -198342.770309 kJ/mol
# GULP energy per Si atom -12396.423144 kJ/mol
# Density = 2.139170 g / cm^3
# Si number density = 21.440497 Si / 1000 Ang^3
#
#
#
# Elastic Constant Matrix: (Units=GPa)
#
#
# Indices 1 2 3 4 5 6 
#
# 1 70.1252 13.0411 9.3240 -6.9561 5.2978 -16.0661
# 2 13.0411 114.1510 27.1510 -15.6439 -6.7249 -21.6178
# 3 9.3240 27.1510 107.7565 -2.3049 -17.0526 -0.6076
# 4 -6.9561 -15.6439 -2.3049 36.6398 0.1471 -3.1415
# 5 5.2978 -6.7249 -17.0526 0.1471 26.6910 -4.2710
# 6 -16.0661 -21.6178 -0.6076 -3.1415 -4.2710 30.3861
#
#
#
# Elastic Compliance Matrix: (Units=1/GPa)
#
#
# Indices 1 2 3 4 5 6 
#
# 1 0.017250 0.000744 -0.002009 0.004304 -0.003002 0.009633
# 2 0.000744 0.012162 -0.002484 0.006026 0.002901 0.010027
# 3 -0.002009 -0.002484 0.011091 -0.000923 0.006579 -0.001778
# 4 0.004304 0.006026 -0.000923 0.031477 0.001502 0.010010
# 5 -0.003002 0.002901 0.006579 0.001502 0.044102 0.006962
# 6 0.009633 0.010027 -0.001778 0.010010 0.006962 0.047115
#
#
# Mechanical properties :
#
#
# Convention : Reuss Voigt Hill
#
# Bulk Modulus (GPa) = 30.29815 43.45166 36.87490
# Shear Modulus (GPa) = 27.51864 34.91115 31.21490
#
# Velocity S-wave (km/s) = 3.58647 4.03957 3.81975
# Velocity P-wave (km/s) = 5.59574 6.48596 6.05723
#
# Compressibility (1/GPa) = 0.03300532
#
# Stress axis : x y z
#
# Youngs Moduli (GPa) = 57.97239 82.22501 90.15985
#
# Poissons Ratio (x) = -0.06121 0.18112
# Poissons Ratio (y) = -0.04316 0.22399
# Poissons Ratio (z) = 0.11646 0.20427
#
# Static dielectric constant tensor:
#      x y z
#    x 3.613620 0.347860 -0.001680 
#    y 0.347860 3.264880 -0.419670 
#    z -0.001680 -0.419670 4.088340 
# 
# 
# High freq. dielectric constant tensor:
#      x y z
#    x 1.810560 -0.021240 -0.012250 
#    y -0.021240 1.839340 -0.009030 
#    z -0.012250 -0.009030 1.864170 
# 
# From -- ./inp_files/439227.got.cif
#   From: 2010.06.25/outbox.cif.g09.slc.cpg/sg2_220_cif.got.tgz:439227.got - 2010.06.27 13:26:56.
