data_PCOD8009085
_publ_section_title
;
Structure prediction by ZEFSAII (Michael W. Deem and Ramdas Pophale) SiO2 
 PCOD8009085
Probable space group: P -1
;
_chemical_formula_sum "Si O2"
_cell_formula_units_Z 16
_cell_length_a 14.670663
_cell_length_b 15.170974
_cell_length_c 14.600100
_cell_angle_alpha 128.106408
_cell_angle_beta 51.609762
_cell_angle_gamma 160.876466
_cell_volume 828.542020
_symmetry_space_group_name_H-M "P -1"
_symmetry_group_IT_number 2
_symmetry_cell_setting 'triclinic'
loop_
_space_group_symop_operation_xyz
x,y,z
-x,-y,-z
loop_
_atom_site_type_symbol
_atom_site_label
_atom_site_fract_x
_atom_site_fract_y
_atom_site_fract_z
Si Si1 0.866556 0.723738 0.058212
Si Si2 0.842251 0.213569 0.985110
Si Si3 0.585682 0.700237 0.242980
Si Si4 0.735847 0.220189 0.870706
Si Si5 0.020807 0.763582 0.616726
Si Si6 0.733026 0.145738 0.309310
Si Si7 0.862981 0.305305 0.643308
Si Si8 0.633121 0.820718 0.086051
O O1 0.692842 0.670083 0.181781
O O2 0.021084 0.787052 0.080521
O O3 0.659996 0.461720 0.962119
O O4 0.099127 0.985902 0.015519
O O5 0.754097 0.139716 0.885515
O O6 0.052209 0.496177 0.057424
O O7 0.571994 0.994542 0.077619
O O8 0.629575 0.754742 0.142407
O O9 0.261970 0.425185 0.294992
O O10 0.752537 0.939930 0.349747
O O11 0.802268 0.221120 0.732597
O O12 0.124061 0.765186 0.628390
O O13 0.977222 0.658155 0.481517
O O14 0.947150 0.417143 0.299843
O O15 0.431335 0.937821 0.383525
O O16 0.670438 0.986497 0.179901
#
# Coordination Sequence:
#
# PCOD8009085 Si02
#       8
#     2   2   2   2   2   2   2   2
#     4  12  21  35  57  77 105 144 179 210 261 316
#     4  10  21  36  55  81 108 131 164 215 270 319
#     4  11  23  37  51  75 110 144 180 219 252 296
#     4  10  21  36  55  81 108 131 164 215 270 319
#     4  11  23  37  51  75 110 144 180 219 252 296
#     4  11  21  34  53  81 109 137 174 216 261 315
#     4  12  21  35  57  77 105 144 179 210 261 316
#     4  11  21  34  53  81 109 137 174 216 261 315
#
# _framework density 19.311031
#
# number of rings (size 3 to 8) (size 9 to 14) (size 15 to 20)
#    0.000    1.000    0.000   10.500    0.000    0.000 
#    0.000    0.000    0.000    1.500    0.000    0.000 
#    0.000    0.000    0.000    0.000    0.000    0.000 
#
# Total GULP energy -198471.012607 kJ/mol
# GULP energy per Si atom -12404.438288 kJ/mol
# Density = 1.926708 g / cm^3
# Si number density = 19.311031 Si / 1000 Ang^3
#
#
#
# Elastic Constant Matrix: (Units=GPa)
#
#
# Indices 1 2 3 4 5 6 
#
# 1 106.9768 27.0107 56.2384 -6.0291 -7.3411 8.2312
# 2 27.0107 97.8161 9.7758 -7.5863 1.7398 12.1091
# 3 56.2384 9.7758 88.4900 -7.6351 -0.9286 0.1680
# 4 -6.0291 -7.5863 -7.6351 30.8148 3.8193 -4.8241
# 5 -7.3411 1.7398 -0.9286 3.8193 16.8718 -3.1118
# 6 8.2312 12.1091 0.1680 -4.8241 -3.1118 25.0208
#
#
#
# Elastic Compliance Matrix: (Units=1/GPa)
#
#
# Indices 1 2 3 4 5 6 
#
# 1 0.015931 -0.003264 -0.009811 -0.001400 0.006481 -0.003059
# 2 -0.003264 0.011864 0.000926 0.002264 -0.003978 -0.004733
# 3 -0.009811 0.000926 0.017700 0.003603 -0.003671 0.002899
# 4 -0.001400 0.002264 0.003603 0.035398 -0.007697 0.005208
# 5 0.006481 -0.003978 -0.003671 -0.007697 0.065230 0.006446
# 6 -0.003059 -0.004733 0.002899 0.005208 0.006446 0.045050
#
#
# Mechanical properties :
#
#
# Convention : Reuss Voigt Hill
#
# Bulk Modulus (GPa) = 47.17368 53.25917 50.21642
# Shear Modulus (GPa) = 22.46827 27.89201 25.18014
#
# Velocity S-wave (km/s) = 3.41470 3.80459 3.61491
# Velocity P-wave (km/s) = 6.32679 6.85124 6.59423
#
# Compressibility (1/GPa) = 0.02119826
#
# Stress axis : x y z
#
# Youngs Moduli (GPa) = 62.77151 84.28769 56.49575
#
# Poissons Ratio (x) = 0.27509 0.55428
# Poissons Ratio (y) = 0.20487 -0.05232
# Poissons Ratio (z) = 0.61585 -0.07806
#
# Static dielectric constant tensor:
#      x y z
#    x 3.510480 0.071120 0.041730 
#    y 0.071120 3.778090 -0.057190 
#    z 0.041730 -0.057190 3.366520 
# 
# 
# High freq. dielectric constant tensor:
#      x y z
#    x 1.729300 0.009230 -0.004530 
#    y 0.009230 1.777520 -0.003060 
#    z -0.004530 -0.003060 1.733010 
# 
# From -- ./inp_files/521217.got.cif
#   From: 2010.06.25/outbox.cif.g09.slc.cpg/sg2_261_cif.got.tgz:521217.got - 2010.06.27 13:26:56.
