data_PCOD8009956
_publ_section_title
;
Structure prediction by ZEFSAII (Michael W. Deem and Ramdas Pophale) SiO2 
 PCOD8009956
Probable space group: P -1
;
_chemical_formula_sum "Si O2"
_cell_formula_units_Z 16
_cell_length_a 23.028818
_cell_length_b 8.767479
_cell_length_c 9.100190
_cell_angle_alpha 147.434465
_cell_angle_beta 129.245645
_cell_angle_gamma 61.011682
_cell_volume 760.702465
_symmetry_space_group_name_H-M "P -1"
_symmetry_group_IT_number 2
_symmetry_cell_setting 'triclinic'
loop_
_space_group_symop_operation_xyz
x,y,z
-x,-y,-z
loop_
_atom_site_type_symbol
_atom_site_label
_atom_site_fract_x
_atom_site_fract_y
_atom_site_fract_z
Si Si1 0.095377 0.271174 0.918831
Si Si2 0.808642 0.159990 0.430170
Si Si3 0.200776 0.884060 0.273849
Si Si4 0.334104 0.701670 0.861483
Si Si5 0.108437 0.377774 0.546993
Si Si6 0.496664 0.814830 0.201444
Si Si7 0.017373 0.759915 0.538007
Si Si8 0.340834 0.067405 0.456341
O O1 0.028609 0.352140 0.771456
O O2 0.156405 0.115911 0.798001
O O3 0.060331 0.073935 0.834871
O O4 0.133474 0.561883 0.287686
O O5 0.794727 0.130521 0.556355
O O6 0.729973 0.189880 0.251755
O O7 0.151558 0.131674 0.345955
O O8 0.284595 0.966303 0.414800
O O9 0.163448 0.583229 0.906835
O O10 0.324113 0.360408 0.588741
O O11 0.413536 0.818660 0.998865
O O12 0.331261 0.826660 0.121340
O O13 0.079372 0.549734 0.503475
O O14 0.038226 0.221166 0.398441
O O15 0.574612 0.911475 0.315983
O O16 0.500000 0.000000 0.500000
O O17 0.500000 0.500000 0.000000
#
# Coordination Sequence:
#
# PCOD8009956 Si02
#       8
#     2   2   2   2   2   2   2   2
#     4  11  25  41  63  84 118 152 202 245 304 344
#     4  12  24  41  58  90 124 157 190 248 299 351
#     4  12  24  41  58  90 124 157 190 248 299 351
#     4  10  21  37  63  90 118 156 198 239 285 348
#     4  11  25  41  63  84 118 152 202 245 304 344
#     4   8  16  34  57  88 119 148 192 241 281 332
#     4  10  24  44  62  86 110 158 200 254 294 358
#     4  10  21  37  63  90 118 156 198 239 285 348
#
# _framework density 21.033187999999999
#
# number of rings (size 3 to 8) (size 9 to 14) (size 15 to 20)
#    0.000    1.500    2.500    1.500    5.250    6.000 
#    0.000    0.625    0.000    0.000    0.000   14.000 
#    0.000    0.000    0.000    0.000    0.000    0.000 
#
# Total GULP energy -198353.457279 kJ/mol
# GULP energy per Si atom -12397.091080 kJ/mol
# Density = 2.098532 g / cm^3
# Si number density = 21.033188 Si / 1000 Ang^3
#
#
#
# Elastic Constant Matrix: (Units=GPa)
#
#
# Indices 1 2 3 4 5 6 
#
# 1 103.0164 18.6512 19.0590 -0.9104 29.8220 4.2832
# 2 18.6512 56.1189 20.8810 -6.3198 19.5033 15.0203
# 3 19.0590 20.8810 65.9705 5.9966 10.3539 -8.5852
# 4 -0.9104 -6.3198 5.9966 30.5885 -11.6468 0.8520
# 5 29.8220 19.5033 10.3539 -11.6468 32.5675 -0.0846
# 6 4.2832 15.0203 -8.5852 0.8520 -0.0846 21.7556
#
#
#
# Elastic Compliance Matrix: (Units=1/GPa)
#
#
# Indices 1 2 3 4 5 6 
#
# 1 0.014428 0.002788 -0.003023 -0.004104 -0.015403 -0.005858
# 2 0.002788 0.038460 -0.014642 0.004422 -0.019435 -0.033129
# 3 -0.003023 -0.014642 0.023861 -0.007915 0.001173 0.020435
# 4 -0.004104 0.004422 -0.007915 0.042372 0.018761 -0.006955
# 5 -0.015403 -0.019435 0.001173 0.018761 0.062828 0.016423
# 6 -0.005858 -0.033129 0.020435 -0.006955 0.016423 0.078392
#
#
# Mechanical properties :
#
#
# Convention : Reuss Voigt Hill
#
# Bulk Modulus (GPa) = 21.27824 38.03202 29.65513
# Shear Modulus (GPa) = 16.35273 28.08328 22.21801
#
# Velocity S-wave (km/s) = 2.79135 3.65799 3.25365
# Velocity P-wave (km/s) = 4.53070 5.99686 5.31458
#
# Compressibility (1/GPa) = 0.04699636
#
# Stress axis : x y z
#
# Youngs Moduli (GPa) = 69.31006 26.00089 41.90975
#
# Poissons Ratio (x) = -0.07250 0.12668
# Poissons Ratio (y) = -0.19327 0.61365
# Poissons Ratio (z) = 0.20950 0.38071
#
# Static dielectric constant tensor:
#      x y z
#    x 4.172760 -0.358340 0.320970 
#    y -0.358340 3.840260 0.079470 
#    z 0.320970 0.079470 3.942550 
# 
# 
# High freq. dielectric constant tensor:
#      x y z
#    x 1.831020 -0.020300 0.009240 
#    y -0.020300 1.811150 0.014070 
#    z 0.009240 0.014070 1.834170 
# 
# From -- ./inp_files/343981.got.cif
#   From: 2010.06.25/outbox.cif.g09.slc.cpg/sg2_172_cif.got.tgz:343981.got - 2010.06.27 13:26:56.
