data_PCOD8009052
_publ_section_title
;
Structure prediction by ZEFSAII (Michael W. Deem and Ramdas Pophale) SiO2 
 PCOD8009052
Probable space group: P -1
;
_chemical_formula_sum "Si O2"
_cell_formula_units_Z 16
_cell_length_a 14.543864
_cell_length_b 11.426770
_cell_length_c 16.458898
_cell_angle_alpha 140.919203
_cell_angle_beta 48.819409
_cell_angle_gamma 151.306488
_cell_volume 825.622353
_symmetry_space_group_name_H-M "P -1"
_symmetry_group_IT_number 2
_symmetry_cell_setting 'triclinic'
loop_
_space_group_symop_operation_xyz
x,y,z
-x,-y,-z
loop_
_atom_site_type_symbol
_atom_site_label
_atom_site_fract_x
_atom_site_fract_y
_atom_site_fract_z
Si Si1 0.856004 0.216104 0.223425
Si Si2 0.490414 0.661503 0.888492
Si Si3 0.687539 0.641413 0.007960
Si Si4 0.780308 0.677124 0.693872
Si Si5 0.419796 0.867672 0.563940
Si Si6 0.147693 0.706503 0.916118
Si Si7 0.227620 0.579498 0.277621
Si Si8 0.112881 0.340901 0.856686
O O1 0.681184 0.072500 0.304997
O O2 0.853182 0.317699 0.193610
O O3 0.039732 0.478912 0.313270
O O4 0.851668 0.989054 0.087341
O O5 0.345827 0.422334 0.912208
O O6 0.613946 0.636450 0.768679
O O7 0.340407 0.568118 0.859483
O O8 0.640091 0.989336 0.011569
O O9 0.500000 0.500000 0.000000
O O10 0.739772 0.506712 0.867035
O O11 0.722596 0.475479 0.542888
O O12 0.789244 0.574099 0.717170
O O13 0.990234 0.009539 0.733967
O O14 0.500000 0.000000 0.500000
O O15 0.610049 0.070827 0.618268
O O16 0.093133 0.443897 0.843531
O O17 0.985848 0.667664 0.014470
#
# Coordination Sequence:
#
# PCOD8009052 Si02
#       8
#     2   2   2   2   2   2   2   2
#     4  12  22  35  57  81 114 145 175 223 277 323
#     4  11  19  34  57  80 110 145 173 220 275 324
#     4  12  17  32  55  82 116 138 164 218 281 331
#     4  10  21  36  53  77 109 140 187 223 257 319
#     4  10  22  38  54  78 111 145 182 225 266 323
#     4  10  21  37  54  84 112 137 180 226 267 323
#     4  11  21  34  55  85 110 142 175 218 279 333
#     4  10  21  36  58  80 107 145 183 221 268 318
#
# _framework density 19.37932
#
# number of rings (size 3 to 8) (size 9 to 14) (size 15 to 20)
#    0.000    1.250    3.750    3.750    0.000    3.000 
#    0.000    0.625    0.000    1.500    0.000    0.000 
#    0.000    0.000    0.000    0.000    0.000    0.000 
#
# Total GULP energy -198319.410592 kJ/mol
# GULP energy per Si atom -12394.963162 kJ/mol
# Density = 1.933521 g / cm^3
# Si number density = 19.379320 Si / 1000 Ang^3
#
#
#
# Elastic Constant Matrix: (Units=GPa)
#
#
# Indices 1 2 3 4 5 6 
#
# 1 80.3705 41.9616 31.1535 10.6194 9.6412 14.7785
# 2 41.9616 85.1429 35.8898 13.5838 9.3703 15.1872
# 3 31.1535 35.8898 89.6409 13.1117 11.5861 3.0015
# 4 10.6194 13.5838 13.1117 37.5338 0.8748 9.8548
# 5 9.6412 9.3703 11.5861 0.8748 13.7995 9.6441
# 6 14.7785 15.1872 3.0015 9.8548 9.6441 36.0573
#
#
#
# Elastic Compliance Matrix: (Units=1/GPa)
#
#
# Indices 1 2 3 4 5 6 
#
# 1 0.018168 -0.006604 -0.003024 -0.000743 -0.003297 -0.003328
# 2 -0.006604 0.017926 -0.004269 -0.002169 -0.001370 -0.003529
# 3 -0.003024 -0.004269 0.015989 -0.004547 -0.012528 0.006300
# 4 -0.000743 -0.002169 -0.004547 0.031577 0.010729 -0.009903
# 5 -0.003297 -0.001370 -0.012528 0.010729 0.105171 -0.028091
# 6 -0.003328 -0.003529 0.006300 -0.009903 -0.028091 0.040280
#
#
# Mechanical properties :
#
#
# Convention : Reuss Voigt Hill
#
# Bulk Modulus (GPa) = 41.17156 52.57380 46.87268
# Shear Modulus (GPa) = 18.86789 27.22140 23.04465
#
# Velocity S-wave (km/s) = 3.12366 3.75195 3.45213
# Velocity P-wave (km/s) = 5.85669 6.77917 6.33475
#
# Compressibility (1/GPa) = 0.02428861
#
# Stress axis : x y z
#
# Youngs Moduli (GPa) = 55.04103 55.78598 62.54269
#
# Poissons Ratio (x) = 0.36843 0.18910
# Poissons Ratio (y) = 0.36351 0.26701
# Poissons Ratio (z) = 0.16642 0.23816
#
# Static dielectric constant tensor:
#      x y z
#    x 3.469040 0.265200 0.072760 
#    y 0.265200 3.741380 0.318280 
#    z 0.072760 0.318280 3.902070 
# 
# 
# High freq. dielectric constant tensor:
#      x y z
#    x 1.740250 0.021250 0.006890 
#    y 0.021250 1.760930 0.009950 
#    z 0.006890 0.009950 1.739920 
# 
# From -- ./inp_files/434232.got.cif
#   From: 2010.06.25/outbox.cif.g09.slc.cpg/sg2_218_cif.got.tgz:434232.got - 2010.06.27 13:26:56.
