data_PCOD8009512
_publ_section_title
;
Structure prediction by ZEFSAII (Michael W. Deem and Ramdas Pophale) SiO2 
 PCOD8009512
Probable space group: P -1
;
_chemical_formula_sum "Si O2"
_cell_formula_units_Z 16
_cell_length_a 15.524264
_cell_length_b 14.350749
_cell_length_c 9.010741
_cell_angle_alpha 90.546861
_cell_angle_beta 38.369352
_cell_angle_gamma 118.020289
_cell_volume 831.451451
_symmetry_space_group_name_H-M "P -1"
_symmetry_group_IT_number 2
_symmetry_cell_setting 'triclinic'
loop_
_space_group_symop_operation_xyz
x,y,z
-x,-y,-z
loop_
_atom_site_type_symbol
_atom_site_label
_atom_site_fract_x
_atom_site_fract_y
_atom_site_fract_z
Si Si1 0.463491 0.342797 0.464641
Si Si2 0.977742 0.088776 0.852764
Si Si3 0.354535 0.402389 0.330924
Si Si4 0.248230 0.725280 0.663352
Si Si5 0.462702 0.124929 0.466492
Si Si6 0.240679 0.514642 0.676833
Si Si7 0.025385 0.119344 0.139782
Si Si8 0.359174 0.950793 0.328833
O O1 0.473088 0.402261 0.296951
O O2 0.451859 0.227869 0.437511
O O3 0.666041 0.470130 0.289583
O O4 0.265656 0.271718 0.836816
O O5 0.144887 0.243254 0.556731
O O6 0.007556 0.103900 0.987839
O O7 0.014789 0.003050 0.735862
O O8 0.736597 0.000197 0.159890
O O9 0.297761 0.474476 0.469233
O O10 0.500000 0.500000 0.000000
O O11 0.332436 0.797240 0.713643
O O12 0.329056 0.661220 0.518883
O O13 0.329503 0.833713 0.430546
O O14 0.003736 0.606713 0.984459
O O15 0.471085 0.071837 0.301337
O O16 0.859732 0.110944 0.427185
O O17 0.500000 0.000000 0.000000
#
# Coordination Sequence:
#
# PCOD8009512 Si02
#       8
#     2   2   2   2   2   2   2   2
#     4   9  18  36  60  78  98 138 186 224 259 307
#     4   8  15  31  55  77  97 129 176 220 257 305
#     4  11  21  32  52  82 112 137 165 219 279 322
#     4  10  21  37  55  75 104 145 187 218 250 310
#     4   9  18  36  60  78  98 138 186 224 259 307
#     4  10  21  37  55  75 104 145 187 218 250 310
#     4   8  15  31  55  77  97 129 176 220 257 305
#     4  11  21  32  52  82 112 137 165 219 279 322
#
# _framework density 19.243455999999998
#
# number of rings (size 3 to 8) (size 9 to 14) (size 15 to 20)
#    0.000    2.500    0.000    5.250    0.000    2.000 
#    0.000    5.000    0.000    9.000    0.000    0.000 
#    0.000    0.000    0.000    0.000    0.000    0.000 
#
# Total GULP energy -198271.588385 kJ/mol
# GULP energy per Si atom -12391.974274 kJ/mol
# Density = 1.919966 g / cm^3
# Si number density = 19.243456 Si / 1000 Ang^3
#
#
#
# Elastic Constant Matrix: (Units=GPa)
#
#
# Indices 1 2 3 4 5 6 
#
# 1 87.9050 49.5967 59.5843 -3.2343 -14.1879 -3.8906
# 2 49.5967 81.8369 44.7907 -9.1110 12.5203 -20.2260
# 3 59.5843 44.7907 97.4930 -4.6467 8.7709 -9.8825
# 4 -3.2343 -9.1110 -4.6467 24.3250 2.6279 -10.8759
# 5 -14.1879 12.5203 8.7709 2.6279 32.0183 -9.3642
# 6 -3.8906 -20.2260 -9.8825 -10.8759 -9.3642 19.4448
#
#
#
# Elastic Compliance Matrix: (Units=1/GPa)
#
#
# Indices 1 2 3 4 5 6 
#
# 1 0.050301 -0.038644 -0.022318 -0.036058 0.033109 -0.045698
# 2 -0.038644 0.061186 0.008727 0.058409 -0.024478 0.081229
# 3 -0.022318 0.008727 0.023705 0.014079 -0.016034 0.016813
# 4 -0.036058 0.058409 0.014079 0.114780 -0.018120 0.116169
# 5 0.033109 -0.024478 -0.016034 -0.018120 0.058776 -0.008816
# 6 -0.045698 0.081229 0.016813 0.116169 -0.008816 0.196052
#
#
# Mechanical properties :
#
#
# Convention : Reuss Voigt Hill
#
# Bulk Modulus (GPa) = 32.54800 63.90871 48.22836
# Shear Modulus (GPa) = 8.07087 22.70850 15.38969
#
# Velocity S-wave (km/s) = 2.05017 3.43893 2.83103
# Velocity P-wave (km/s) = 4.74919 7.00365 5.98355
#
# Compressibility (1/GPa) = 0.03072385
#
# Stress axis : x y z
#
# Youngs Moduli (GPa) = 19.88023 16.34352 42.18454
#
# Poissons Ratio (x) = 0.63158 0.94147
# Poissons Ratio (y) = 0.76825 -0.36815
# Poissons Ratio (z) = 0.44368 -0.14263
#
# Static dielectric constant tensor:
#      x y z
#    x 3.371470 -0.501910 -0.511680 
#    y -0.501910 3.828900 -0.251280 
#    z -0.511680 -0.251280 3.600260 
# 
# 
# High freq. dielectric constant tensor:
#      x y z
#    x 1.737270 -0.017130 -0.031450 
#    y -0.017130 1.762080 -0.017840 
#    z -0.031450 -0.017840 1.721800 
# 
# From -- ./inp_files/313062.got.cif
#   From: 2010.06.25/outbox.cif.g09.slc.cpg/sg2_157_cif.got.tgz:313062.got - 2010.06.27 13:26:56.
