data_PCOD8009707
_publ_section_title
;
Structure prediction by ZEFSAII (Michael W. Deem and Ramdas Pophale) SiO2 
 PCOD8009707
Probable space group: P -1
;
_chemical_formula_sum "Si O2"
_cell_formula_units_Z 16
_cell_length_a 6.291963
_cell_length_b 11.810053
_cell_length_c 11.958804
_cell_angle_alpha 100.025039
_cell_angle_beta 121.736265
_cell_angle_gamma 85.360314
_cell_volume 744.169154
_symmetry_space_group_name_H-M "P -1"
_symmetry_group_IT_number 2
_symmetry_cell_setting 'triclinic'
loop_
_space_group_symop_operation_xyz
x,y,z
-x,-y,-z
loop_
_atom_site_type_symbol
_atom_site_label
_atom_site_fract_x
_atom_site_fract_y
_atom_site_fract_z
Si Si1 0.345737 0.175774 0.700577
Si Si2 0.056404 0.655116 0.295676
Si Si3 0.547683 0.754203 0.510031
Si Si4 0.076366 0.754842 0.735802
Si Si5 0.628308 0.093303 0.319495
Si Si6 0.254963 0.554407 0.884999
Si Si7 0.155594 0.706203 0.081712
Si Si8 0.109971 0.118700 0.084413
O O1 0.404309 0.199641 0.592382
O O2 0.576970 0.227191 0.845848
O O3 0.094536 0.235494 0.683536
O O4 0.295300 0.039800 0.678473
O O5 0.326011 0.656783 0.432784
O O6 0.113339 0.653981 0.180757
O O7 0.896434 0.539020 0.247337
O O8 0.452637 0.863547 0.573322
O O9 0.800588 0.699734 0.621550
O O10 0.156173 0.824270 0.658338
O O11 0.275066 0.657898 0.815524
O O12 0.038853 0.844742 0.839974
O O13 0.403356 0.108561 0.174602
O O14 0.500000 0.500000 0.000000
O O15 0.113912 0.605666 0.961577
O O16 0.934195 0.794706 0.014935
O O17 0.000000 0.000000 0.000000
#
# Coordination Sequence:
#
# PCOD8009707 Si02
#       8
#     2   2   2   2   2   2   2   2
#     4  11  22  39  66  98 126 167 213 260 312 380
#     4  11  24  40  70  91 123 176 212 263 316 369
#     4  10  24  45  61  94 130 165 221 257 314 378
#     4  10  25  42  63  93 130 171 210 260 314 377
#     4  11  23  40  66  94 134 172 204 261 322 374
#     4  11  23  45  67  94 129 162 213 270 316 378
#     4  10  22  40  61  97 130 163 212 255 321 382
#     4  10  21  37  59  93 134 166 204 257 310 384
#
# _framework density 21.500489999999999
#
# number of rings (size 3 to 8) (size 9 to 14) (size 15 to 20)
#    0.000    1.500    2.500    1.500    3.500    4.000 
#    2.250    2.500    0.000    0.000    0.000    0.000 
#    0.000    0.000    0.000    0.000    0.000    0.000 
#
# Total GULP energy -198272.107284 kJ/mol
# GULP energy per Si atom -12392.006705 kJ/mol
# Density = 2.145155 g / cm^3
# Si number density = 21.500490 Si / 1000 Ang^3
#
#
#
# Elastic Constant Matrix: (Units=GPa)
#
#
# Indices 1 2 3 4 5 6 
#
# 1 68.6937 32.6561 23.2924 0.7654 14.1581 1.0152
# 2 32.6561 121.9866 40.1572 2.9599 10.8365 -6.6801
# 3 23.2924 40.1572 103.3833 7.2950 22.9188 -3.1174
# 4 0.7654 2.9599 7.2950 29.3230 3.0843 2.9946
# 5 14.1581 10.8365 22.9188 3.0843 34.0704 -1.2105
# 6 1.0152 -6.6801 -3.1174 2.9946 -1.2105 24.9615
#
#
#
# Elastic Compliance Matrix: (Units=1/GPa)
#
#
# Indices 1 2 3 4 5 6 
#
# 1 0.018121 -0.004047 -0.001453 0.001116 -0.005452 -0.002400
# 2 -0.004047 0.010423 -0.003162 -0.000497 0.000633 0.002649
# 3 -0.001453 -0.003162 0.012928 -0.002215 -0.006860 0.000761
# 4 0.001116 -0.000497 -0.002215 0.035396 -0.002190 -0.004808
# 5 -0.005452 0.000633 -0.006860 -0.002190 0.036283 0.001557
# 6 -0.002400 0.002649 0.000761 -0.004808 0.001557 0.041616
#
#
# Mechanical properties :
#
#
# Convention : Reuss Voigt Hill
#
# Bulk Modulus (GPa) = 41.41204 54.03053 47.72129
# Shear Modulus (GPa) = 27.75619 30.86819 29.31219
#
# Velocity S-wave (km/s) = 3.59689 3.79317 3.69633
# Velocity P-wave (km/s) = 6.04590 6.66098 6.36088
#
# Compressibility (1/GPa) = 0.02414757
#
# Stress axis : x y z
#
# Youngs Moduli (GPa) = 55.18604 95.94344 77.34931
#
# Poissons Ratio (x) = 0.38825 0.11241
# Poissons Ratio (y) = 0.22332 0.24459
# Poissons Ratio (z) = 0.08020 0.30339
#
# Static dielectric constant tensor:
#      x y z
#    x 3.207660 -0.596130 0.470960 
#    y -0.596130 3.344170 0.392550 
#    z 0.470960 0.392550 4.101020 
# 
# 
# High freq. dielectric constant tensor:
#      x y z
#    x 1.833740 -0.009600 0.006700 
#    y -0.009600 1.835500 0.009000 
#    z 0.006700 0.009000 1.864620 
# 
# From -- ./inp_files/69382.got.cif
#   From: 2010.06.25/outbox.cif.g09.slc.cpg/sg2_35_cif.got.tgz:69382.got - 2010.06.27 13:26:56.
