data_PCOD8009093
_publ_section_title
;
Structure prediction by ZEFSAII (Michael W. Deem and Ramdas Pophale) SiO2 
 PCOD8009093
Probable space group: P -1
;
_chemical_formula_sum "Si O2"
_cell_formula_units_Z 16
_cell_length_a 10.825046
_cell_length_b 12.024930
_cell_length_c 13.873560
_cell_angle_alpha 102.237626
_cell_angle_beta 149.631871
_cell_angle_gamma 67.077811
_cell_volume 810.495353
_symmetry_space_group_name_H-M "P -1"
_symmetry_group_IT_number 2
_symmetry_cell_setting 'triclinic'
loop_
_space_group_symop_operation_xyz
x,y,z
-x,-y,-z
loop_
_atom_site_type_symbol
_atom_site_label
_atom_site_fract_x
_atom_site_fract_y
_atom_site_fract_z
Si Si1 0.357761 0.120491 0.055316
Si Si2 0.138756 0.558147 0.677232
Si Si3 0.977141 0.890797 0.714079
Si Si4 0.062108 0.913089 0.120900
Si Si5 0.512021 0.710896 0.114113
Si Si6 0.209761 0.139537 0.751647
Si Si7 0.627815 0.761906 0.415652
Si Si8 0.241301 0.775928 0.686071
O O1 0.467013 0.229336 0.147157
O O2 0.613339 0.987553 0.209273
O O3 0.180886 0.120513 0.842374
O O4 0.171798 0.134723 0.027197
O O5 0.387098 0.437723 0.865957
O O6 0.259131 0.648098 0.724357
O O7 0.000000 0.500000 0.500000
O O8 0.895107 0.637074 0.603044
O O9 0.099547 0.889777 0.688938
O O10 0.695179 0.879688 0.508515
O O11 0.190461 0.771848 0.896423
O O12 0.921778 0.015022 0.758670
O O13 0.343428 0.788620 0.278669
O O14 0.000000 0.000000 0.000000
O O15 0.639918 0.767857 0.130729
O O16 0.599384 0.750714 0.280453
O O17 0.920919 0.201914 0.518519
#
# Coordination Sequence:
#
# PCOD8009093 Si02
#       8
#     2   2   2   2   2   2   2   2
#     4  11  23  36  55  85 117 159 191 232 300 348
#     4   9  19  35  64  91 113 152 192 247 291 335
#     4  11  20  35  61  89 115 148 195 238 296 345
#     4  12  23  40  57  79 124 162 191 240 283 351
#     4  11  18  38  62  91 117 148 192 250 295 329
#     4  11  19  38  56  85 125 146 187 248 291 345
#     4  10  21  36  55  85 116 153 192 234 287 343
#     4  11  21  36  60  91 118 149 192 243 297 342
#
# _framework density 19.741014
#
# number of rings (size 3 to 8) (size 9 to 14) (size 15 to 20)
#    0.000    1.250    7.500    1.500    0.000    2.000 
#    2.250    0.000    0.000    3.750    0.000    0.000 
#    0.000    0.000    0.000    0.000    0.000    0.000 
#
# Total GULP energy -198224.364299 kJ/mol
# GULP energy per Si atom -12389.022769 kJ/mol
# Density = 1.969608 g / cm^3
# Si number density = 19.741014 Si / 1000 Ang^3
#
#
#
# Elastic Constant Matrix: (Units=GPa)
#
#
# Indices 1 2 3 4 5 6 
#
# 1 92.5028 41.1224 21.3236 2.7319 25.3516 11.3729
# 2 41.1224 90.6111 27.8373 -1.0380 16.5498 5.7975
# 3 21.3236 27.8373 68.6887 -0.5797 9.2665 4.3556
# 4 2.7319 -1.0380 -0.5797 39.0802 -0.7038 5.1197
# 5 25.3516 16.5498 9.2665 -0.7038 37.3060 3.0291
# 6 11.3729 5.7975 4.3556 5.1197 3.0291 22.9144
#
#
#
# Elastic Compliance Matrix: (Units=1/GPa)
#
#
# Indices 1 2 3 4 5 6 
#
# 1 0.016321 -0.005130 -0.001579 -0.000754 -0.008009 -0.005275
# 2 -0.005130 0.015072 -0.004202 0.000704 -0.002115 -0.000346
# 3 -0.001579 -0.004202 0.016997 0.000403 -0.001170 -0.001319
# 4 -0.000754 0.000704 0.000403 0.026463 0.001081 -0.005936
# 5 -0.008009 -0.002115 -0.001170 0.001081 0.033492 0.000063
# 6 -0.005275 -0.000346 -0.001319 -0.005936 0.000063 0.047915
#
#
# Mechanical properties :
#
#
# Convention : Reuss Voigt Hill
#
# Bulk Modulus (GPa) = 37.64170 48.04103 42.84137
# Shear Modulus (GPa) = 26.74690 30.62807 28.68749
#
# Velocity S-wave (km/s) = 3.68488 3.94317 3.81621
# Velocity P-wave (km/s) = 6.10029 6.71714 6.41613
#
# Compressibility (1/GPa) = 0.02656628
#
# Stress axis : x y z
#
# Youngs Moduli (GPa) = 61.27128 66.34845 58.83546
#
# Poissons Ratio (x) = 0.34038 0.09290
# Poissons Ratio (y) = 0.31434 0.24725
# Poissons Ratio (z) = 0.09674 0.27882
#
# Static dielectric constant tensor:
#      x y z
#    x 3.531690 -0.059060 0.094090 
#    y -0.059060 3.850170 -0.073310 
#    z 0.094090 -0.073310 3.968590 
# 
# 
# High freq. dielectric constant tensor:
#      x y z
#    x 1.733630 0.008220 -0.001680 
#    y 0.008220 1.750300 0.018880 
#    z -0.001680 0.018880 1.789600 
# 
# From -- ./inp_files/518982.got.cif
#   From: 2010.06.25/outbox.cif.g09.slc.cpg/sg2_260_cif.got.tgz:518982.got - 2010.06.27 13:26:56.
