data_PCOD8009705
_publ_section_title
;
Structure prediction by ZEFSAII (Michael W. Deem and Ramdas Pophale) SiO2 
 PCOD8009705
Probable space group: P -1
;
_chemical_formula_sum "Si O2"
_cell_formula_units_Z 16
_cell_length_a 5.011816
_cell_length_b 14.973586
_cell_length_c 14.330881
_cell_angle_alpha 138.775140
_cell_angle_beta 83.463332
_cell_angle_gamma 89.493505
_cell_volume 696.770129
_symmetry_space_group_name_H-M "P -1"
_symmetry_group_IT_number 2
_symmetry_cell_setting 'triclinic'
loop_
_space_group_symop_operation_xyz
x,y,z
-x,-y,-z
loop_
_atom_site_type_symbol
_atom_site_label
_atom_site_fract_x
_atom_site_fract_y
_atom_site_fract_z
Si Si1 0.754619 0.723819 0.373939
Si Si2 0.925788 0.596652 0.668327
Si Si3 0.382683 0.977226 0.387461
Si Si4 0.770255 0.340399 0.995848
Si Si5 0.686391 0.830329 0.103985
Si Si6 0.719434 0.295194 0.763009
Si Si7 0.231146 0.090656 0.044817
Si Si8 0.591637 0.497643 0.299631
O O1 0.563033 0.711100 0.281962
O O2 0.645435 0.656077 0.419654
O O3 0.059514 0.659344 0.280811
O O4 0.784208 0.878575 0.524505
O O5 0.817615 0.758539 0.782926
O O6 0.709830 0.525074 0.679811
O O7 0.000000 0.500000 0.500000
O O8 0.201994 0.595283 0.714096
O O9 0.629285 0.942645 0.276185
O O10 0.194121 0.856373 0.310473
O O11 0.500000 0.000000 0.500000
O O12 0.598073 0.223832 0.945114
O O13 0.705612 0.391019 0.931431
O O14 0.086261 0.291196 0.965149
O O15 0.659924 0.469544 0.165713
O O16 0.767865 0.892100 0.052579
O O17 0.500000 0.000000 0.000000
O O18 0.000000 0.000000 0.000000
#
# Coordination Sequence:
#
# PCOD8009705 Si02
#       8
#     2   2   2   2   2   2   2   2
#     4  11  23  37  59  95 133 171 227 266 320 398
#     4  12  27  49  73  99 139 180 221 285 363 421
#     4   9  20  38  61  90 132 174 220 275 331 392
#     4  11  20  39  65  89 127 172 220 258 329 387
#     4  11  22  39  65  93 125 174 216 272 341 397
#     4  10  21  37  59  92 132 178 217 274 327 375
#     4  12  25  45  73 104 134 170 231 289 345 415
#     4  12  24  44  69  93 133 179 221 274 336 413
#
# _framework density 22.963097999999999
#
# number of rings (size 3 to 8) (size 9 to 14) (size 15 to 20)
#    0.000    1.000    2.500    5.250    0.000    6.000 
#    0.000    0.000    0.000    0.000    0.000    0.000 
#    0.000    0.000    0.000    0.000    0.000    0.000 
#
# Total GULP energy -198268.499840 kJ/mol
# GULP energy per Si atom -12391.781240 kJ/mol
# Density = 2.291083 g / cm^3
# Si number density = 22.963098 Si / 1000 Ang^3
#
#
#
# Elastic Constant Matrix: (Units=GPa)
#
#
# Indices 1 2 3 4 5 6 
#
# 1 91.2829 14.1517 15.8481 -5.3822 -2.7571 12.0381
# 2 14.1517 87.5548 34.2393 9.8573 -5.2856 16.1282
# 3 15.8481 34.2393 126.8610 -12.3129 -11.2785 3.7405
# 4 -5.3822 9.8573 -12.3129 34.4146 6.3626 -2.1703
# 5 -2.7571 -5.2856 -11.2785 6.3626 26.2596 -0.8458
# 6 12.0381 16.1282 3.7405 -2.1703 -0.8458 43.3556
#
#
#
# Elastic Compliance Matrix: (Units=1/GPa)
#
#
# Indices 1 2 3 4 5 6 
#
# 1 0.011753 -0.001256 -0.000877 0.001698 0.000108 -0.002633
# 2 -0.001256 0.015164 -0.004216 -0.006859 0.002603 -0.005221
# 3 -0.000877 -0.004216 0.009702 0.004204 0.002247 0.001229
# 4 0.001698 -0.006859 0.004204 0.034409 -0.007628 0.003291
# 5 0.000108 0.002603 0.002247 -0.007628 0.041405 -0.000766
# 6 -0.002633 -0.005221 0.001229 0.003291 -0.000766 0.025782
#
#
# Mechanical properties :
#
#
# Convention : Reuss Voigt Hill
#
# Bulk Modulus (GPa) = 41.80658 48.24190 45.02424
# Shear Modulus (GPa) = 31.46870 36.90326 34.18598
#
# Velocity S-wave (km/s) = 3.70591 4.01317 3.86260
# Velocity P-wave (km/s) = 6.04626 6.52136 6.28830
#
# Compressibility (1/GPa) = 0.02391968
#
# Stress axis : x y z
#
# Youngs Moduli (GPa) = 85.08746 65.94391 103.07476
#
# Poissons Ratio (x) = 0.08284 0.09041
# Poissons Ratio (y) = 0.10689 0.43459
# Poissons Ratio (z) = 0.07463 0.27803
#
# Static dielectric constant tensor:
#      x y z
#    x 4.022730 0.047510 0.069330 
#    y 0.047510 4.653530 0.381190 
#    z 0.069330 0.381190 5.043500 
# 
# 
# High freq. dielectric constant tensor:
#      x y z
#    x 1.909940 0.010260 -0.000270 
#    y 0.010260 1.903570 0.005090 
#    z -0.000270 0.005090 1.910220 
# 
# From -- ./inp_files/484475.got.cif
#   From: 2010.06.25/outbox.cif.g09.slc.cpg/sg2_243_cif.got.tgz:484475.got - 2010.06.27 13:26:56.
