data_PCOD8009861
_publ_section_title
;
Structure prediction by ZEFSAII (Michael W. Deem and Ramdas Pophale) SiO2 
 PCOD8009861
Probable space group: P -1
;
_chemical_formula_sum "Si O2"
_cell_formula_units_Z 10
_cell_length_a 9.612958
_cell_length_b 7.569371
_cell_length_c 12.393714
_cell_angle_alpha 78.288242
_cell_angle_beta 124.916155
_cell_angle_gamma 58.963430
_cell_volume 446.872653
_symmetry_space_group_name_H-M "P -1"
_symmetry_group_IT_number 2
_symmetry_cell_setting 'triclinic'
loop_
_space_group_symop_operation_xyz
x,y,z
-x,-y,-z
loop_
_atom_site_type_symbol
_atom_site_label
_atom_site_fract_x
_atom_site_fract_y
_atom_site_fract_z
Si Si1 0.806580 0.267445 0.127091
Si Si2 0.898525 0.356686 0.703723
Si Si3 0.052394 0.583901 0.652481
Si Si4 0.034190 0.763316 0.020496
Si Si5 0.582205 0.776134 0.332538
O O1 0.975431 0.230191 0.299061
O O2 0.803349 0.391393 0.000686
O O3 0.500000 0.500000 0.000000
O O4 0.946574 0.958878 0.208927
O O5 0.628489 0.599181 0.476824
O O6 0.104664 0.349418 0.766337
O O7 0.812592 0.449889 0.780640
O O8 0.303913 0.411851 0.703321
O O9 0.761683 0.808802 0.429708
O O10 0.737905 0.913167 0.858591
O O11 0.000000 0.000000 0.000000
#
# Coordination Sequence:
#
# PCOD8009861 Si02
#       5
#     2   2   2   2   2
#     4  11  23  37  60  90 115 153 202 236 284 352
#     4   9  21  41  62  84 117 159 183 242 299 326
#     4   9  20  41  59  89 118 149 196 236 286 351
#     4  10  21  37  62  87 117 154 194 240 287 345
#     4   9  20  41  61  86 119 152 193 237 290 346
#
# _framework density 22.377738999999998
#
# number of rings (size 3 to 8) (size 9 to 14) (size 15 to 20)
#    1.200    1.200    0.000    2.400    0.000    8.800 
#    0.000    2.000    0.000    0.000    0.000    0.000 
#    0.000    0.000    0.000    0.000    0.000    0.000 
#
# Total GULP energy -123891.521760 kJ/mol
# GULP energy per Si atom -12389.152176 kJ/mol
# Density = 2.232681 g / cm^3
# Si number density = 22.377739 Si / 1000 Ang^3
#
#
#
# Elastic Constant Matrix: (Units=GPa)
#
#
# Indices 1 2 3 4 5 6 
#
# 1 100.5015 27.6391 40.9261 14.3331 -12.9373 -27.6904
# 2 27.6391 62.4158 30.6596 21.9609 6.0564 -13.1606
# 3 40.9261 30.6596 73.4657 24.8951 -19.2494 -12.1914
# 4 14.3331 21.9609 24.8951 24.9790 -0.5838 -7.6793
# 5 -12.9373 6.0564 -19.2494 -0.5838 45.0592 9.7977
# 6 -27.6904 -13.1606 -12.1914 -7.6793 9.7977 42.3893
#
#
#
# Elastic Compliance Matrix: (Units=1/GPa)
#
#
# Indices 1 2 3 4 5 6 
#
# 1 0.015277 -0.002765 -0.007117 0.003101 0.000102 0.007612
# 2 -0.002765 0.027255 -0.006155 -0.015196 -0.008157 0.004018
# 3 -0.007117 -0.006155 0.029831 -0.021391 0.012271 -0.004692
# 4 0.003101 -0.015196 -0.021391 0.074688 -0.006588 0.006209
# 5 0.000102 -0.008157 0.012271 -0.006588 0.030012 -0.007067
# 6 0.007612 0.004018 -0.004692 0.006209 -0.007067 0.031220
#
#
# Mechanical properties :
#
#
# Convention : Reuss Voigt Hill
#
# Bulk Modulus (GPa) = 24.82134 48.31473 36.56804
# Shear Modulus (GPa) = 19.70158 31.62936 25.66547
#
# Velocity S-wave (km/s) = 2.97039 3.76364 3.39029
# Velocity P-wave (km/s) = 4.78334 6.36585 5.63047
#
# Compressibility (1/GPa) = 0.04028791
#
# Stress axis : x y z
#
# Youngs Moduli (GPa) = 65.45750 36.69062 33.52262
#
# Poissons Ratio (x) = 0.10144 0.23859
# Poissons Ratio (y) = 0.18097 0.20634
# Poissons Ratio (z) = 0.46589 0.22584
#
# Static dielectric constant tensor:
#      x y z
#    x 4.368480 -0.330430 -0.279020 
#    y -0.330430 4.167230 0.455740 
#    z -0.279020 0.455740 4.178680 
# 
# 
# High freq. dielectric constant tensor:
#      x y z
#    x 1.888810 -0.012620 -0.008710 
#    y -0.012620 1.851220 0.037550 
#    z -0.008710 0.037550 1.876410 
# 
# From -- ./inp_files/49314.got.cif
#   From: 2010.06.25/outbox.cif.g09.slc.cpg/sg2_25_cif.got.tgz:49314.got - 2010.06.27 13:26:56.
