data_PCOD8009944
_publ_section_title
;
Structure prediction by ZEFSAII (Michael W. Deem and Ramdas Pophale) SiO2 
 PCOD8009944
Probable space group: P -1
;
_chemical_formula_sum "Si O2"
_cell_formula_units_Z 14
_cell_length_a 11.070476
_cell_length_b 12.608693
_cell_length_c 11.551240
_cell_angle_alpha 102.980047
_cell_angle_beta 135.823597
_cell_angle_gamma 110.994508
_cell_volume 705.368992
_symmetry_space_group_name_H-M "P -1"
_symmetry_group_IT_number 2
_symmetry_cell_setting 'triclinic'
loop_
_space_group_symop_operation_xyz
x,y,z
-x,-y,-z
loop_
_atom_site_type_symbol
_atom_site_label
_atom_site_fract_x
_atom_site_fract_y
_atom_site_fract_z
Si Si1 0.484212 0.726364 0.699494
Si Si2 0.798885 0.603212 0.202578
Si Si3 0.705613 0.186234 0.240675
Si Si4 0.116189 0.248450 0.943719
Si Si5 0.368626 0.082948 0.368118
Si Si6 0.119391 0.603702 0.810654
Si Si7 0.232268 0.787224 0.155515
O O1 0.474640 0.823609 0.803860
O O2 0.597546 0.671326 0.822346
O O3 0.656567 0.840148 0.731607
O O4 0.191715 0.555127 0.413769
O O5 0.751898 0.453506 0.109847
O O6 0.031684 0.736790 0.492680
O O7 0.500000 0.500000 0.000000
O O8 0.908413 0.716247 0.192355
O O9 0.830209 0.321052 0.260594
O O10 0.500000 0.000000 0.000000
O O11 0.059598 0.317519 0.016863
O O12 0.897228 0.046291 0.764982
O O13 0.628038 0.230359 0.663415
O O14 0.413445 0.984115 0.317619
O O15 0.238624 0.738753 0.022653
#
# Coordination Sequence:
#
# PCOD8009944 Si02
#       7
#     2   2   2   2   2   2   2
#     4  11  21  39  61  86 121 158 195 246 298 345
#     4  11  23  43  63  87 120 158 201 249 295 348
#     4  11  24  41  64  86 121 159 201 244 299 354
#     4  10  21  37  63  85 120 153 197 242 290 355
#     4   9  20  38  59  85 122 154 195 241 295 351
#     4  11  23  38  62  87 120 156 197 243 300 353
#     4   9  20  37  59  87 118 150 200 235 300 345
#
# _framework density 19.847767000000001
#
# number of rings (size 3 to 8) (size 9 to 14) (size 15 to 20)
#    0.857    0.857    0.000    6.429    2.000    2.857 
#    2.571    1.429    0.000    0.000    0.000    0.000 
#    0.000    0.000    0.000    0.000    0.000    0.000 
#
# Total GULP energy -173473.005983 kJ/mol
# GULP energy per Si atom -12390.928999 kJ/mol
# Density = 1.980259 g / cm^3
# Si number density = 19.847767 Si / 1000 Ang^3
#
#
#
# Elastic Constant Matrix: (Units=GPa)
#
#
# Indices 1 2 3 4 5 6 
#
# 1 75.1830 33.9309 40.2389 -15.6372 12.6017 12.1794
# 2 33.9309 118.4586 30.9519 -21.9823 -4.0171 28.6726
# 3 40.2389 30.9519 72.6580 -19.7764 -1.4745 -8.7083
# 4 -15.6372 -21.9823 -19.7764 35.0511 0.5127 1.9640
# 5 12.6017 -4.0171 -1.4745 0.5127 28.9011 -5.1317
# 6 12.1794 28.6726 -8.7083 1.9640 -5.1317 36.9189
#
#
#
# Elastic Compliance Matrix: (Units=1/GPa)
#
#
# Indices 1 2 3 4 5 6 
#
# 1 0.028502 0.000555 -0.017061 0.004591 -0.016207 -0.016355
# 2 0.000555 0.014275 -0.006244 0.006434 -0.001039 -0.013229
# 3 -0.017061 -0.006244 0.029398 0.003842 0.011338 0.018783
# 4 0.004591 0.006434 0.003842 0.037273 -0.002994 -0.008004
# 5 -0.016207 -0.001039 0.011338 -0.002994 0.044857 0.015222
# 6 -0.016355 -0.013229 0.018783 -0.008004 0.015222 0.049728
#
#
# Mechanical properties :
#
#
# Convention : Reuss Voigt Hill
#
# Bulk Modulus (GPa) = 37.48671 52.94925 45.21798
# Shear Modulus (GPa) = 19.34795 30.91940 25.13367
#
# Velocity S-wave (km/s) = 3.12559 3.95121 3.56240
# Velocity P-wave (km/s) = 5.65278 6.89578 6.30498
#
# Compressibility (1/GPa) = 0.02667612
#
# Stress axis : x y z
#
# Youngs Moduli (GPa) = 35.08471 70.05261 34.01557
#
# Poissons Ratio (x) = -0.03885 0.58033
# Poissons Ratio (y) = -0.01946 0.21238
# Poissons Ratio (z) = 0.59857 0.43739
#
# Static dielectric constant tensor:
#      x y z
#    x 3.569700 0.041430 0.016130 
#    y 0.041430 3.660870 -0.103970 
#    z 0.016130 -0.103970 3.504680 
# 
# 
# High freq. dielectric constant tensor:
#      x y z
#    x 1.766440 0.016980 0.006740 
#    y 0.016980 1.779250 -0.014570 
#    z 0.006740 -0.014570 1.766970 
# 
# From -- ./inp_files/428477.got.cif
#   From: 2010.06.25/outbox.cif.g09.slc.cpg/sg2_215_cif.got.tgz:428477.got - 2010.06.27 13:26:56.
