data_PCOD8009806
_publ_section_title
;
Structure prediction by ZEFSAII (Michael W. Deem and Ramdas Pophale) SiO2 
 PCOD8009806
Probable space group: P -1
;
_chemical_formula_sum "Si O2"
_cell_formula_units_Z 14
_cell_length_a 10.417770
_cell_length_b 20.312285
_cell_length_c 16.114828
_cell_angle_alpha 19.525541
_cell_angle_beta 125.196892
_cell_angle_gamma 135.790078
_cell_volume 719.160439
_symmetry_space_group_name_H-M "P -1"
_symmetry_group_IT_number 2
_symmetry_cell_setting 'triclinic'
loop_
_space_group_symop_operation_xyz
x,y,z
-x,-y,-z
loop_
_atom_site_type_symbol
_atom_site_label
_atom_site_fract_x
_atom_site_fract_y
_atom_site_fract_z
Si Si1 0.854644 0.772319 0.279082
Si Si2 0.841745 0.249274 0.482929
Si Si3 0.590063 0.807089 0.800256
Si Si4 0.779935 0.051023 0.042883
Si Si5 0.178193 0.664552 0.804388
Si Si6 0.645782 0.342314 0.585260
Si Si7 0.779331 0.562830 0.194695
O O1 0.682819 0.523031 0.459487
O O2 0.970471 0.702694 0.459372
O O3 0.751173 0.848052 0.210324
O O4 0.000000 0.000000 0.000000
O O5 0.919523 0.419247 0.225152
O O6 0.739196 0.327235 0.412452
O O7 0.671684 0.950277 0.750483
O O8 0.344526 0.622494 0.926115
O O9 0.693951 0.027107 0.505464
O O10 0.657221 0.636108 0.014038
O O11 0.591282 0.905226 0.209232
O O12 0.785713 0.259423 0.745713
O O13 0.982458 0.191198 0.006719
O O14 0.000000 0.500000 0.000000
O O15 0.698179 0.488626 0.345675
#
# Coordination Sequence:
#
# PCOD8009806 Si02
#       7
#     2   2   2   2   2   2   2
#     4  12  20  37  63  85 122 169 195 239 299 343
#     4  10  21  37  61  89 116 156 197 240 294 355
#     4   9  21  40  62  85 115 152 190 248 300 351
#     4  11  22  38  55  84 125 162 206 242 281 351
#     4   9  20  44  64  85 119 148 193 252 298 355
#     4  11  24  37  57  87 125 165 199 245 290 345
#     4  12  21  39  60  87 124 154 199 245 293 353
#
# _framework density 19.467144999999999
#
# number of rings (size 3 to 8) (size 9 to 14) (size 15 to 20)
#    0.857    0.571    4.286    1.714    0.000    2.857 
#    2.571    2.143    0.000    0.000    0.000    0.000 
#    0.000    0.000    0.000    0.000    0.000    0.000 
#
# Total GULP energy -173570.260296 kJ/mol
# GULP energy per Si atom -12397.875735 kJ/mol
# Density = 1.942284 g / cm^3
# Si number density = 19.467145 Si / 1000 Ang^3
#
#
#
# Elastic Constant Matrix: (Units=GPa)
#
#
# Indices 1 2 3 4 5 6 
#
# 1 94.6847 30.2800 36.1118 6.3821 5.3384 11.8361
# 2 30.2800 57.7476 22.3442 15.3837 -20.0943 4.6659
# 3 36.1118 22.3442 63.7385 4.3205 3.5032 14.4350
# 4 6.3821 15.3837 4.3205 25.5013 3.8225 8.7439
# 5 5.3384 -20.0943 3.5032 3.8225 43.5044 -7.1635
# 6 11.8361 4.6659 14.4350 8.7439 -7.1635 36.0391
#
#
#
# Elastic Compliance Matrix: (Units=1/GPa)
#
#
# Indices 1 2 3 4 5 6 
#
# 1 0.016443 -0.011225 -0.004108 0.006505 -0.008356 -0.005541
# 2 -0.011225 0.045587 -0.012764 -0.032566 0.029052 0.016573
# 3 -0.004108 -0.012764 0.024963 0.009939 -0.010157 -0.011427
# 4 0.006505 -0.032566 0.009939 0.067591 -0.026459 -0.023559
# 5 -0.008356 0.029052 -0.010157 -0.026459 0.043558 0.018129
# 6 -0.005541 0.016573 -0.011427 -0.023559 0.018129 0.041318
#
#
# Mechanical properties :
#
#
# Convention : Reuss Voigt Hill
#
# Bulk Modulus (GPa) = 32.46766 43.73808 38.10287
# Shear Modulus (GPa) = 16.34409 29.50461 22.92435
#
# Velocity S-wave (km/s) = 2.90068 3.89731 3.43533
# Velocity P-wave (km/s) = 5.28517 6.53976 5.94565
#
# Compressibility (1/GPa) = 0.03079988
#
# Stress axis : x y z
#
# Youngs Moduli (GPa) = 60.81580 21.93618 40.05865
#
# Poissons Ratio (x) = 0.24624 0.16455
# Poissons Ratio (y) = 0.68267 0.51130
# Poissons Ratio (z) = 0.24982 0.27999
#
# Static dielectric constant tensor:
#      x y z
#    x 3.440880 0.055570 0.210490 
#    y 0.055570 3.538260 0.048290 
#    z 0.210490 0.048290 3.445570 
# 
# 
# High freq. dielectric constant tensor:
#      x y z
#    x 1.752550 0.010700 0.014280 
#    y 0.010700 1.753880 0.006400 
#    z 0.014280 0.006400 1.748170 
# 
# From -- ./inp_files/562340.got.cif
#   From: 2010.06.25/outbox.cif.g09.slc.cpg/sg2_282_cif.got.tgz:562340.got - 2010.06.27 13:26:56.
