data_PCOD8009926
_publ_section_title
;
Structure prediction by ZEFSAII (Michael W. Deem and Ramdas Pophale) SiO2 
 PCOD8009926
Probable space group: P -1
;
_chemical_formula_sum "Si O2"
_cell_formula_units_Z 14
_cell_length_a 14.765595
_cell_length_b 26.775730
_cell_length_c 26.153481
_cell_angle_alpha 11.053351
_cell_angle_beta 159.932469
_cell_angle_gamma 162.077890
_cell_volume 607.416387
_symmetry_space_group_name_H-M "P -1"
_symmetry_group_IT_number 2
_symmetry_cell_setting 'triclinic'
loop_
_space_group_symop_operation_xyz
x,y,z
-x,-y,-z
loop_
_atom_site_type_symbol
_atom_site_label
_atom_site_fract_x
_atom_site_fract_y
_atom_site_fract_z
Si Si1 0.247818 0.515709 0.816793
Si Si2 0.098109 0.015147 0.478465
Si Si3 0.331617 0.862069 0.293041
Si Si4 0.838479 0.707900 0.263432
Si Si5 0.952353 0.478078 0.119278
Si Si6 0.302613 0.663616 0.222459
Si Si7 0.314001 0.059052 0.245845
O O1 0.372375 0.843593 0.531429
O O2 0.963839 0.460372 0.754585
O O3 0.500000 0.500000 0.000000
O O4 0.171884 0.258916 0.993159
O O5 0.445023 0.093404 0.586644
O O6 0.936378 0.709979 0.668723
O O7 0.050329 0.259900 0.177589
O O8 0.000000 0.000000 0.500000
O O9 0.346159 0.642899 0.477251
O O10 0.001244 0.748720 0.253780
O O11 0.398524 0.161663 0.997402
O O12 0.070019 0.845395 0.292632
O O13 0.179783 0.612691 0.150944
O O14 0.624293 0.272117 0.171737
O O15 0.500000 0.500000 0.500000
O O16 0.500000 0.000000 0.000000
#
# Coordination Sequence:
#
# PCOD8009926 Si02
#       7
#     2   2   2   2   2   2   2
#     4  12  26  45  76 109 143 180 244 316 352 436
#     4  12  26  47  69 101 142 191 250 292 343 444
#     4  10  21  38  63  92 132 175 222 284 350 397
#     4  10  21  37  62  95 133 172 214 285 355 411
#     4  12  26  47  78  99 139 198 243 296 373 431
#     4  12  28  52  75 106 153 193 240 304 379 439
#     4  12  24  43  74 107 141 179 247 297 364 434
#
# _framework density 23.048439999999999
#
# number of rings (size 3 to 8) (size 9 to 14) (size 15 to 20)
#    0.000    0.571    2.857    5.143    6.000    0.000 
#   15.429    0.000    0.000    0.000    0.000    0.000 
#    0.000    0.000    0.000    0.000    0.000    0.000 
#
# Total GULP energy -173571.409255 kJ/mol
# GULP energy per Si atom -12397.957804 kJ/mol
# Density = 2.299598 g / cm^3
# Si number density = 23.048440 Si / 1000 Ang^3
#
#
#
# Elastic Constant Matrix: (Units=GPa)
#
#
# Indices 1 2 3 4 5 6 
#
# 1 121.4118 48.8352 81.4206 -0.7585 6.2885 -16.9464
# 2 48.8352 98.0419 59.7246 -1.5150 4.2137 -34.5728
# 3 81.4206 59.7246 239.4624 -5.4656 -2.0655 -10.6557
# 4 -0.7585 -1.5150 -5.4656 42.4392 -10.1570 9.9497
# 5 6.2885 4.2137 -2.0655 -10.1570 43.9296 -0.1310
# 6 -16.9464 -34.5728 -10.6557 9.9497 -0.1310 37.7213
#
#
#
# Elastic Compliance Matrix: (Units=1/GPa)
#
#
# Indices 1 2 3 4 5 6 
#
# 1 0.012094 -0.003391 -0.003232 -0.001158 -0.001821 0.001711
# 2 -0.003391 0.019796 -0.003154 -0.004313 -0.002509 0.016858
# 3 -0.003232 -0.003154 0.005975 0.001664 0.001422 -0.003089
# 4 -0.001158 -0.004313 0.001664 0.027961 0.007089 -0.011354
# 5 -0.001821 -0.002509 0.001422 0.007089 0.024957 -0.004499
# 6 0.001711 0.016858 -0.003089 -0.011354 -0.004499 0.044837
#
#
# Mechanical properties :
#
#
# Convention : Reuss Voigt Hill
#
# Bulk Modulus (GPa) = 54.61739 93.20855 73.91297
# Shear Modulus (GPa) = 31.00218 42.74707 36.87463
#
# Velocity S-wave (km/s) = 3.67152 4.31125 4.00418
# Velocity P-wave (km/s) = 6.45923 8.08150 7.31547
#
# Compressibility (1/GPa) = 0.01830919
#
# Stress axis : x y z
#
# Youngs Moduli (GPa) = 82.68534 50.51412 167.37747
#
# Poissons Ratio (x) = 0.17131 0.54101
# Poissons Ratio (y) = 0.28042 0.52795
# Poissons Ratio (z) = 0.26726 0.15933
#
# Static dielectric constant tensor:
#      x y z
#    x 4.215190 -0.228770 0.260630 
#    y -0.228770 4.277740 -0.103100 
#    z 0.260630 -0.103100 5.234810 
# 
# 
# High freq. dielectric constant tensor:
#      x y z
#    x 1.903850 -0.014390 0.012020 
#    y -0.014390 1.911760 -0.003960 
#    z 0.012020 -0.003960 1.944720 
# 
# From -- ./inp_files/619977.got.cif
#   From: 2010.06.25/outbox.cif.g09.slc.cpg/sg2_310_cif.got.tgz:619977.got - 2010.06.27 13:26:56.
