data_PCOD8009971
_publ_section_title
;
Structure prediction by ZEFSAII (Michael W. Deem and Ramdas Pophale) SiO2 
 PCOD8009971
Probable space group: P -1
;
_chemical_formula_sum "Si O2"
_cell_formula_units_Z 16
_cell_length_a 9.314560
_cell_length_b 11.126816
_cell_length_c 11.166730
_cell_angle_alpha 56.920515
_cell_angle_beta 59.101293
_cell_angle_gamma 88.678352
_cell_volume 777.047903
_symmetry_space_group_name_H-M "P -1"
_symmetry_group_IT_number 2
_symmetry_cell_setting 'triclinic'
loop_
_space_group_symop_operation_xyz
x,y,z
-x,-y,-z
loop_
_atom_site_type_symbol
_atom_site_label
_atom_site_fract_x
_atom_site_fract_y
_atom_site_fract_z
Si Si1 0.853946 0.333454 0.170846
Si Si2 0.241819 0.117550 0.585855
Si Si3 0.404183 0.281024 0.757464
Si Si4 0.870531 0.083543 0.462164
Si Si5 0.285232 0.886239 0.870782
Si Si6 0.522366 0.395973 0.383087
Si Si7 0.851842 0.022642 0.902571
Si Si8 0.387109 0.935309 0.220451
O O1 0.949374 0.231910 0.258533
O O2 0.777007 0.257924 0.114763
O O3 0.691526 0.345458 0.313045
O O4 0.000000 0.500000 0.000000
O O5 0.356546 0.297829 0.422562
O O6 0.030674 0.081199 0.716455
O O7 0.274416 0.042881 0.489242
O O8 0.320448 0.046514 0.698929
O O9 0.434521 0.350289 0.575150
O O10 0.427226 0.422898 0.761065
O O11 0.550214 0.204597 0.762582
O O12 0.202735 0.154157 0.931113
O O13 0.784820 0.135468 0.582951
O O14 0.000000 0.000000 0.500000
O O15 0.468896 0.919196 0.849567
O O16 0.131236 0.867934 0.047926
O O17 0.677501 0.013159 0.903532
#
# Coordination Sequence:
#
# PCOD8009971 Si02
#       8
#     2   2   2   2   2   2   2   2
#     4  11  25  42  66  94 129 169 216 270 324 380
#     4  11  21  37  64  95 122 167 215 265 307 380
#     4  10  22  37  61  90 128 165 201 259 317 375
#     4  11  22  40  63  92 124 167 211 262 319 375
#     4  10  21  37  63  92 123 161 220 261 301 377
#     4  11  22  38  61  92 127 161 205 265 318 367
#     4  11  22  38  65  93 131 166 213 256 319 383
#     4  11  20  42  64  91 128 168 211 259 319 384
#
# _framework density 20.59075
#
# number of rings (size 3 to 8) (size 9 to 14) (size 15 to 20)
#    0.000    1.250    5.000    2.625    3.500    3.000 
#    0.000    3.125    0.000    5.250    0.000    0.000 
#    0.000    0.000    0.000    0.000    0.000    0.000 
#
# Total GULP energy -198209.608849 kJ/mol
# GULP energy per Si atom -12388.100553 kJ/mol
# Density = 2.054388 g / cm^3
# Si number density = 20.590750 Si / 1000 Ang^3
#
#
#
# Elastic Constant Matrix: (Units=GPa)
#
#
# Indices 1 2 3 4 5 6 
#
# 1 91.5083 34.7928 28.9605 -12.9377 5.4875 0.8310
# 2 34.7928 123.1054 41.3861 -17.7554 3.4499 3.3838
# 3 28.9605 41.3861 67.6843 -16.3732 -1.0980 -0.5151
# 4 -12.9377 -17.7554 -16.3732 34.2282 7.2216 -2.1912
# 5 5.4875 3.4499 -1.0980 7.2216 29.5409 6.9721
# 6 0.8310 3.3838 -0.5151 -2.1912 6.9721 29.9651
#
#
#
# Elastic Compliance Matrix: (Units=1/GPa)
#
#
# Indices 1 2 3 4 5 6 
#
# 1 0.013538 -0.002020 -0.003890 0.002962 -0.003331 0.000777
# 2 -0.002020 0.010885 -0.005169 0.002700 -0.001584 -0.000696
# 3 -0.003890 -0.005169 0.021053 0.005941 0.000323 0.001413
# 4 0.002962 0.002700 0.005941 0.037198 -0.010912 0.004974
# 5 -0.003331 -0.001584 0.000323 -0.010912 0.039634 -0.009743
# 6 0.000777 -0.000696 0.001413 0.004974 -0.009743 0.036084
#
#
# Mechanical properties :
#
#
# Convention : Reuss Voigt Hill
#
# Bulk Modulus (GPa) = 42.88365 54.73075 48.80720
# Shear Modulus (GPa) = 26.55029 30.55742 28.55385
#
# Velocity S-wave (km/s) = 3.59476 3.85650 3.72793
# Velocity P-wave (km/s) = 6.17265 6.81675 6.50268
#
# Compressibility (1/GPa) = 0.02331891
#
# Stress axis : x y z
#
# Youngs Moduli (GPa) = 73.86515 91.87272 47.49975
#
# Poissons Ratio (x) = 0.18554 0.18475
# Poissons Ratio (y) = 0.14917 0.24554
# Poissons Ratio (z) = 0.28730 0.47492
#
# Static dielectric constant tensor:
#      x y z
#    x 3.653790 0.128880 0.077230 
#    y 0.128880 4.170070 0.104200 
#    z 0.077230 0.104200 3.776790 
# 
# 
# High freq. dielectric constant tensor:
#      x y z
#    x 1.791010 0.005440 -0.003760 
#    y 0.005440 1.814470 0.021290 
#    z -0.003760 0.021290 1.797940 
# 
# From -- ./inp_files/392030.got.cif
#   From: 2010.06.25/outbox.cif.g09.slc.cpg/sg2_197_cif.got.tgz:392030.got - 2010.06.27 13:26:56.
