data_PCOD8009294
_publ_section_title
;
Structure prediction by ZEFSAII (Michael W. Deem and Ramdas Pophale) SiO2 
 PCOD8009294
Probable space group: P -1
;
_chemical_formula_sum "Si O2"
_cell_formula_units_Z 16
_cell_length_a 18.304439
_cell_length_b 11.352508
_cell_length_c 21.474232
_cell_angle_alpha 40.948072
_cell_angle_beta 160.808450
_cell_angle_gamma 147.289069
_cell_volume 773.031349
_symmetry_space_group_name_H-M "P -1"
_symmetry_group_IT_number 2
_symmetry_cell_setting 'triclinic'
loop_
_space_group_symop_operation_xyz
x,y,z
-x,-y,-z
loop_
_atom_site_type_symbol
_atom_site_label
_atom_site_fract_x
_atom_site_fract_y
_atom_site_fract_z
Si Si1 0.214051 0.766796 0.378219
Si Si2 0.403047 0.634115 0.253380
Si Si3 0.184303 0.555040 0.565577
Si Si4 0.741638 0.468433 0.603002
Si Si5 0.906367 0.313827 0.907743
Si Si6 0.069191 0.875025 0.542128
Si Si7 0.165633 0.111391 0.024756
Si Si8 0.219457 0.915509 0.776074
O O1 0.171020 0.700514 0.443042
O O2 0.228202 0.592371 0.418460
O O3 0.500000 0.000000 0.500000
O O4 0.960200 0.774155 0.154681
O O5 0.466093 0.456727 0.395465
O O6 0.241959 0.669456 0.160239
O O7 0.680132 0.875850 0.372309
O O8 0.226794 0.527863 0.089527
O O9 0.509965 0.686822 0.788122
O O10 0.000000 0.500000 0.500000
O O11 0.033578 0.302493 0.523452
O O12 0.760976 0.313008 0.728274
O O13 0.994011 0.724937 0.717434
O O14 0.873864 0.082538 0.973333
O O15 0.165002 0.804907 0.707525
O O16 0.808269 0.883677 0.338906
O O17 0.000000 0.000000 0.000000
O O18 0.500000 0.000000 0.000000
#
# Coordination Sequence:
#
# PCOD8009294 Si02
#       8
#     2   2   2   2   2   2   2   2
#     4  12  24  43  69 103 134 182 240 288 335 412
#     4  10  23  39  63  93 132 174 212 284 344 403
#     4  12  27  46  68 101 146 187 225 288 353 415
#     4  11  21  37  63  93 126 164 221 272 329 402
#     4  11  22  41  63  96 131 172 227 277 338 403
#     4  10  22  39  61  90 130 167 215 266 340 403
#     4  12  25  42  72 101 135 187 237 286 340 414
#     4  10  21  36  60  93 118 160 209 273 324 388
#
# _framework density 20.697738000000001
#
# number of rings (size 3 to 8) (size 9 to 14) (size 15 to 20)
#    0.000    1.000    3.750    2.625    1.750    0.500 
#    0.000    6.250    0.000    0.000    0.000    0.000 
#    0.000    0.000    0.000    0.000    0.000    0.000 
#
# Total GULP energy -198211.281799 kJ/mol
# GULP energy per Si atom -12388.205112 kJ/mol
# Density = 2.065063 g / cm^3
# Si number density = 20.697738 Si / 1000 Ang^3
#
#
#
# Elastic Constant Matrix: (Units=GPa)
#
#
# Indices 1 2 3 4 5 6 
#
# 1 114.9311 35.0781 46.9992 0.7137 -0.9573 -16.4092
# 2 35.0781 84.5438 39.4519 4.3208 -0.7152 -21.3814
# 3 46.9992 39.4519 142.4199 1.5017 -4.3629 -18.4410
# 4 0.7137 4.3208 1.5017 34.5190 -1.8897 -3.4338
# 5 -0.9573 -0.7152 -4.3629 -1.8897 30.3839 -2.8848
# 6 -16.4092 -21.3814 -18.4410 -3.4338 -2.8848 37.1970
#
#
#
# Elastic Compliance Matrix: (Units=1/GPa)
#
#
# Indices 1 2 3 4 5 6 
#
# 1 0.010893 -0.002858 -0.002552 0.000444 0.000122 0.001948
# 2 -0.002858 0.015945 -0.002600 -0.001147 0.000462 0.006546
# 3 -0.002552 -0.002600 0.008868 0.000254 0.001328 0.001903
# 4 0.000444 -0.001147 0.000254 0.029461 0.002097 0.002545
# 5 0.000122 0.000462 0.001328 0.002097 0.033607 0.003778
# 6 0.001948 0.006546 0.001903 0.002545 0.003778 0.032977
#
#
# Mechanical properties :
#
#
# Convention : Reuss Voigt Hill
#
# Bulk Modulus (GPa) = 50.79491 64.99480 57.89486
# Shear Modulus (GPa) = 32.39747 35.11101 33.75424
#
# Velocity S-wave (km/s) = 3.96064 4.12317 4.04272
# Velocity P-wave (km/s) = 6.74612 7.35781 7.05859
#
# Compressibility (1/GPa) = 0.01968701
#
# Stress axis : x y z
#
# Youngs Moduli (GPa) = 91.80197 62.71469 112.76190
#
# Poissons Ratio (x) = 0.17923 0.28775
# Poissons Ratio (y) = 0.26236 0.29319
# Poissons Ratio (z) = 0.23426 0.16306
#
# Static dielectric constant tensor:
#      x y z
#    x 3.936560 -0.236550 0.162120 
#    y -0.236550 5.714970 -0.363280 
#    z 0.162120 -0.363280 4.433400 
# 
# 
# High freq. dielectric constant tensor:
#      x y z
#    x 1.801260 -0.010190 -0.004040 
#    y -0.010190 1.817660 0.003450 
#    z -0.004040 0.003450 1.824810 
# 
# From -- ./inp_files/532487.got.cif
#   From: 2010.06.25/outbox.cif.g09.slc.cpg/sg2_267_cif.got.tgz:532487.got - 2010.06.27 13:26:56.
