data_PCOD8009877
_publ_section_title
;
Structure prediction by ZEFSAII (Michael W. Deem and Ramdas Pophale) SiO2 
 PCOD8009877
Probable space group: P -1
;
_chemical_formula_sum "Si O2"
_cell_formula_units_Z 16
_cell_length_a 14.001374
_cell_length_b 8.719771
_cell_length_c 14.735234
_cell_angle_alpha 84.933108
_cell_angle_beta 127.859012
_cell_angle_gamma 52.634820
_cell_volume 766.294457
_symmetry_space_group_name_H-M "P -1"
_symmetry_group_IT_number 2
_symmetry_cell_setting 'triclinic'
loop_
_space_group_symop_operation_xyz
x,y,z
-x,-y,-z
loop_
_atom_site_type_symbol
_atom_site_label
_atom_site_fract_x
_atom_site_fract_y
_atom_site_fract_z
Si Si1 0.689472 0.616572 0.056612
Si Si2 0.446098 0.360176 0.211676
Si Si3 0.124173 0.503045 0.122962
Si Si4 0.714087 0.133040 0.862669
Si Si5 0.192914 0.113486 0.427124
Si Si6 0.474362 0.701918 0.446948
Si Si7 0.129946 0.506752 0.324596
Si Si8 0.632732 0.034925 0.987099
O O1 0.950316 0.304736 0.247122
O O2 0.646487 0.837468 0.989660
O O3 0.591931 0.613070 0.919784
O O4 0.553600 0.719315 0.062069
O O5 0.334300 0.332439 0.196379
O O6 0.331092 0.639571 0.162422
O O7 0.705508 0.077412 0.412410
O O8 0.186665 0.372783 0.265333
O O9 0.000000 0.500000 0.000000
O O10 0.974406 0.814284 0.042431
O O11 0.671849 0.122957 0.736685
O O12 0.570112 0.186269 0.848142
O O13 0.173919 0.316120 0.427847
O O14 0.365892 0.905412 0.457042
O O15 0.500000 0.500000 0.500000
O O16 0.714266 0.513412 0.567759
O O17 0.874792 0.835651 0.172144
#
# Coordination Sequence:
#
# PCOD8009877 Si02
#       8
#     2   2   2   2   2   2   2   2
#     4  10  23  45  68  89 124 163 215 269 306 367
#     4  12  23  39  61  92 129 166 206 254 320 374
#     4  11  21  37  62  91 122 164 209 258 311 378
#     4  11  23  38  61  91 123 169 207 251 319 372
#     4  11  23  39  62  97 124 164 208 253 316 379
#     4  12  22  38  57  92 134 159 198 260 309 380
#     4  10  21  37  62  89 124 160 203 261 317 367
#     4   9  22  46  65  89 118 163 218 263 311 369
#
# _framework density 20.879702999999999
#
# number of rings (size 3 to 8) (size 9 to 14) (size 15 to 20)
#    0.000    1.250    2.500    4.500    3.500    3.500 
#    2.250    2.500    0.000    0.000    0.000    0.000 
#    0.000    0.000    0.000    0.000    0.000    0.000 
#
# Total GULP energy -198340.013995 kJ/mol
# GULP energy per Si atom -12396.250875 kJ/mol
# Density = 2.083218 g / cm^3
# Si number density = 20.879703 Si / 1000 Ang^3
#
#
#
# Elastic Constant Matrix: (Units=GPa)
#
#
# Indices 1 2 3 4 5 6 
#
# 1 68.3922 10.7827 21.2432 -6.5689 0.0985 -7.6901
# 2 10.7827 55.9632 35.9888 -0.5153 2.6663 3.7462
# 3 21.2432 35.9888 102.7543 0.3667 -6.3544 -0.5095
# 4 -6.5689 -0.5153 0.3667 31.6448 -0.4256 -0.9472
# 5 0.0985 2.6663 -6.3544 -0.4256 31.2630 -2.5674
# 6 -7.6901 3.7462 -0.5095 -0.9472 -2.5674 33.6600
#
#
#
# Elastic Compliance Matrix: (Units=1/GPa)
#
#
# Indices 1 2 3 4 5 6 
#
# 1 0.016554 -0.001572 -0.002872 0.003562 -0.000125 0.004004
# 2 -0.001572 0.023951 -0.008329 0.000003 -0.004014 -0.003457
# 3 -0.002872 -0.008329 0.013466 -0.000819 0.003504 0.000719
# 4 0.003562 0.000003 -0.000819 0.032407 0.000406 0.001744
# 5 -0.000125 -0.004014 0.003504 0.000406 0.033295 0.003022
# 6 0.004004 -0.003457 0.000719 0.001744 0.003022 0.031299
#
#
# Mechanical properties :
#
#
# Convention : Reuss Voigt Hill
#
# Bulk Modulus (GPa) = 35.18069 40.34878 37.76473
# Shear Modulus (GPa) = 26.88262 29.91987 28.40125
#
# Velocity S-wave (km/s) = 3.59207 3.78956 3.69213
# Velocity P-wave (km/s) = 5.83864 6.20597 6.02510
#
# Compressibility (1/GPa) = 0.02842468
#
# Stress axis : x y z
#
# Youngs Moduli (GPa) = 60.40798 41.75261 74.26029
#
# Poissons Ratio (x) = 0.06562 0.21331
# Poissons Ratio (y) = 0.09494 0.61851
# Poissons Ratio (z) = 0.17352 0.34776
#
# Static dielectric constant tensor:
#      x y z
#    x 3.775340 -0.015640 -0.103100 
#    y -0.015640 3.644210 -0.075920 
#    z -0.103100 -0.075920 4.019320 
# 
# 
# High freq. dielectric constant tensor:
#      x y z
#    x 1.809770 0.007050 -0.008520 
#    y 0.007050 1.801970 -0.003770 
#    z -0.008520 -0.003770 1.823110 
# 
# From -- ./inp_files/208389.got.cif
#   From: 2010.06.25/outbox.cif.g09.slc.cpg/sg2_105_cif.got.tgz:208389.got - 2010.06.27 13:26:56.
