data_PCOD8009405
_publ_section_title
;
Structure prediction by ZEFSAII (Michael W. Deem and Ramdas Pophale) SiO2 
 PCOD8009405
Probable space group: P -1
;
_chemical_formula_sum "Si O2"
_cell_formula_units_Z 16
_cell_length_a 12.116722
_cell_length_b 8.115429
_cell_length_c 12.856895
_cell_angle_alpha 73.513537
_cell_angle_beta 54.284881
_cell_angle_gamma 49.297565
_cell_volume 768.479830
_symmetry_space_group_name_H-M "P -1"
_symmetry_group_IT_number 2
_symmetry_cell_setting 'triclinic'
loop_
_space_group_symop_operation_xyz
x,y,z
-x,-y,-z
loop_
_atom_site_type_symbol
_atom_site_label
_atom_site_fract_x
_atom_site_fract_y
_atom_site_fract_z
Si Si1 0.306743 0.689368 0.034298
Si Si2 0.545885 0.575652 0.561330
Si Si3 0.908600 0.406904 0.171195
Si Si4 0.051168 0.658020 0.069742
Si Si5 0.691034 0.091830 0.207627
Si Si6 0.771257 0.098355 0.569258
Si Si7 0.557082 0.831236 0.347813
Si Si8 0.940119 0.992963 0.703209
O O1 0.225382 0.583302 0.044770
O O2 0.189570 0.830660 0.171561
O O3 0.500000 0.500000 0.000000
O O4 0.312177 0.838733 0.921067
O O5 0.500000 0.500000 0.500000
O O6 0.382377 0.708199 0.707364
O O7 0.704870 0.350485 0.569407
O O8 0.585313 0.737634 0.467690
O O9 0.039019 0.461604 0.116462
O O10 0.712259 0.630433 0.229201
O O11 0.931257 0.251339 0.276975
O O12 0.951819 0.283142 0.059969
O O13 0.885301 0.884354 0.172521
O O14 0.561815 0.032154 0.301502
O O15 0.626849 0.080820 0.612819
O O16 0.934766 0.959939 0.424305
O O17 0.827846 0.996506 0.671541
#
# Coordination Sequence:
#
# PCOD8009405 Si02
#       8
#     2   2   2   2   2   2   2   2
#     4  12  27  41  63  92 127 165 203 261 313 367
#     4  10  21  36  63  91 121 161 203 249 303 360
#     4  10  21  42  64  95 122 162 207 253 313 363
#     4  10  24  40  65  93 127 159 205 259 306 376
#     4  11  23  41  62  96 125 160 207 258 309 365
#     4  10  23  40  63  90 125 166 205 254 297 384
#     4  10  22  38  66  93 124 160 207 257 307 363
#     4  11  23  42  62  91 124 167 209 245 320 362
#
# _framework density 20.820326000000001
#
# number of rings (size 3 to 8) (size 9 to 14) (size 15 to 20)
#    0.000    1.500    2.500    1.500    8.750    1.000 
#    0.000    1.250    0.000    3.750    0.000    0.000 
#    0.000    0.000    0.000    0.000    0.000    0.000 
#
# Total GULP energy -198380.534114 kJ/mol
# GULP energy per Si atom -12398.783382 kJ/mol
# Density = 2.077294 g / cm^3
# Si number density = 20.820326 Si / 1000 Ang^3
#
#
#
# Elastic Constant Matrix: (Units=GPa)
#
#
# Indices 1 2 3 4 5 6 
#
# 1 129.0059 36.9212 49.2609 1.4638 -9.9961 -16.2949
# 2 36.9212 52.8855 35.0613 12.0233 7.7595 -9.6539
# 3 49.2609 35.0613 137.2009 11.3152 8.4145 5.5386
# 4 1.4638 12.0233 11.3152 37.4585 -0.2233 -0.7420
# 5 -9.9961 7.7595 8.4145 -0.2233 31.0203 1.8216
# 6 -16.2949 -9.6539 5.5386 -0.7420 1.8216 23.4243
#
#
#
# Elastic Compliance Matrix: (Units=1/GPa)
#
#
# Indices 1 2 3 4 5 6 
#
# 1 0.012249 -0.006604 -0.003582 0.002884 0.006224 0.006254
# 2 -0.006604 0.031938 -0.004935 -0.008357 -0.009438 0.010205
# 3 -0.003582 -0.004935 0.010385 -0.001563 -0.002346 -0.006848
# 4 0.002884 -0.008357 -0.001563 0.029752 0.003682 -0.000412
# 5 0.006224 -0.009438 -0.002346 0.003682 0.037372 -0.001795
# 6 0.006254 0.010205 -0.006848 -0.000412 -0.001795 0.052993
#
#
# Mechanical properties :
#
#
# Convention : Reuss Voigt Hill
#
# Bulk Modulus (GPa) = 41.10050 62.39769 51.74909
# Shear Modulus (GPa) = 23.46979 31.57055 27.52017
#
# Velocity S-wave (km/s) = 3.36110 3.89824 3.63959
# Velocity P-wave (km/s) = 5.90306 7.09199 6.52466
#
# Compressibility (1/GPa) = 0.02433061
#
# Stress axis : x y z
#
# Youngs Moduli (GPa) = 81.63949 31.31061 96.29233
#
# Poissons Ratio (x) = 0.20677 0.34495
# Poissons Ratio (y) = 0.53913 0.47516
# Poissons Ratio (z) = 0.29246 0.15450
#
# Static dielectric constant tensor:
#      x y z
#    x 3.607030 -0.024440 -0.123540 
#    y -0.024440 3.897020 -0.136100 
#    z -0.123540 -0.136100 4.102040 
# 
# 
# High freq. dielectric constant tensor:
#      x y z
#    x 1.798130 -0.003350 -0.007960 
#    y -0.003350 1.803330 0.005260 
#    z -0.007960 0.005260 1.839420 
# 
# From -- ./inp_files/392794.got.cif
#   From: 2010.06.25/outbox.cif.g09.slc.cpg/sg2_197_cif.got.tgz:392794.got - 2010.06.27 13:26:56.
