data_PCOD8009267
_publ_section_title
;
Structure prediction by ZEFSAII (Michael W. Deem and Ramdas Pophale) SiO2 
 PCOD8009267
Probable space group: P -1
;
_chemical_formula_sum "Si O2"
_cell_formula_units_Z 14
_cell_length_a 12.794776
_cell_length_b 15.627060
_cell_length_c 6.035462
_cell_angle_alpha 117.275687
_cell_angle_beta 101.908439
_cell_angle_gamma 41.607759
_cell_volume 692.969007
_symmetry_space_group_name_H-M "P -1"
_symmetry_group_IT_number 2
_symmetry_cell_setting 'triclinic'
loop_
_space_group_symop_operation_xyz
x,y,z
-x,-y,-z
loop_
_atom_site_type_symbol
_atom_site_label
_atom_site_fract_x
_atom_site_fract_y
_atom_site_fract_z
Si Si1 0.165494 0.887801 0.164082
Si Si2 0.871061 0.577079 0.845385
Si Si3 0.652126 0.630804 0.124760
Si Si4 0.538616 0.370087 0.272073
Si Si5 0.377771 0.823289 0.549238
Si Si6 0.099511 0.076973 0.999378
Si Si7 0.957491 0.382729 0.270967
O O1 0.253800 0.841124 0.379328
O O2 0.006925 0.930895 0.186488
O O3 0.277573 0.754034 0.880596
O O4 0.127179 0.018542 0.192101
O O5 0.905762 0.458563 0.575714
O O6 0.885523 0.662808 0.801272
O O7 0.698636 0.678315 0.012601
O O8 0.000000 0.500000 0.000000
O O9 0.514108 0.775843 0.388426
O O10 0.808420 0.491466 0.165076
O O11 0.580565 0.583104 0.921984
O O12 0.500000 0.500000 0.500000
O O13 0.518975 0.311360 0.398727
O O14 0.270093 0.973440 0.817714
O O15 0.008747 0.239005 0.159417
#
# Coordination Sequence:
#
# PCOD8009267 Si02
#       7
#     2   2   2   2   2   2   2
#     4   9  21  36  54  80 121 158 193 232 279 341
#     4   9  20  39  58  90 113 144 191 249 290 342
#     4  10  21  36  60  85 117 152 187 244 289 337
#     4  10  22  34  55  87 118 151 198 234 280 343
#     4  10  21  38  54  80 120 158 187 234 286 340
#     4  10  21  37  56  84 114 158 194 233 282 346
#     4  10  21  37  65  86 114 148 197 240 293 337
#
# _framework density 20.202922999999998
#
# number of rings (size 3 to 8) (size 9 to 14) (size 15 to 20)
#    0.000    2.286    0.000    1.286    6.000    3.429 
#    0.000    0.714    0.000   22.286    0.000    0.000 
#    0.000    0.000    0.000    0.000    0.000    0.000 
#
# Total GULP energy -173509.618684 kJ/mol
# GULP energy per Si atom -12393.544192 kJ/mol
# Density = 2.015694 g / cm^3
# Si number density = 20.202923 Si / 1000 Ang^3
#
#
#
# Elastic Constant Matrix: (Units=GPa)
#
#
# Indices 1 2 3 4 5 6 
#
# 1 105.2383 35.9911 47.3585 14.4996 -23.3608 -2.2263
# 2 35.9911 92.6961 44.3424 5.5857 5.8119 0.9536
# 3 47.3585 44.3424 89.7254 -7.5316 -8.3941 2.7980
# 4 14.4996 5.5857 -7.5316 23.8167 -6.6337 4.7188
# 5 -23.3608 5.8119 -8.3941 -6.6337 37.7246 -1.3351
# 6 -2.2263 0.9536 2.7980 4.7188 -1.3351 23.1005
#
#
#
# Elastic Compliance Matrix: (Units=1/GPa)
#
#
# Indices 1 2 3 4 5 6 
#
# 1 0.017642 -0.002610 -0.008485 -0.011834 0.007560 0.005690
# 2 -0.002610 0.016535 -0.008090 -0.007056 -0.007167 0.001073
# 3 -0.008485 -0.008090 0.021473 0.016012 0.003367 -0.006161
# 4 -0.011834 -0.007056 0.016012 0.060935 0.007513 -0.014802
# 5 0.007560 -0.007167 0.003367 0.007513 0.034401 0.001070
# 6 0.005690 0.001073 -0.006161 -0.014802 0.001070 0.047625
#
#
# Mechanical properties :
#
#
# Convention : Reuss Voigt Hill
#
# Bulk Modulus (GPa) = 57.87383 60.33820 59.10602
# Shear Modulus (GPa) = 20.59790 27.59289 24.09539
#
# Velocity S-wave (km/s) = 3.19650 3.69966 3.45725
# Velocity P-wave (km/s) = 6.50630 6.94125 6.72729
#
# Compressibility (1/GPa) = 0.01727897
#
# Stress axis : x y z
#
# Youngs Moduli (GPa) = 56.68169 60.47828 46.56974
#
# Poissons Ratio (x) = 0.15787 0.39516
# Poissons Ratio (y) = 0.14796 0.37675
# Poissons Ratio (z) = 0.48097 0.48927
#
# Static dielectric constant tensor:
#      x y z
#    x 4.085820 -0.193700 -0.363950 
#    y -0.193700 3.535130 -0.217620 
#    z -0.363950 -0.217620 3.802750 
# 
# 
# High freq. dielectric constant tensor:
#      x y z
#    x 1.786820 -0.019100 -0.021630 
#    y -0.019100 1.767940 -0.020780 
#    z -0.021630 -0.020780 1.796550 
# 
# From -- ./inp_files/34400.got.cif
#   From: 2010.06.25/outbox.cif.g09.slc.cpg/sg2_18_cif.got.tgz:34400.got - 2010.06.27 13:26:56.
