data_PCOD8009295
_publ_section_title
;
Structure prediction by ZEFSAII (Michael W. Deem and Ramdas Pophale) SiO2 
 PCOD8009295
Probable space group: P -1
;
_chemical_formula_sum "Si O2"
_cell_formula_units_Z 12
_cell_length_a 4.903190
_cell_length_b 13.001784
_cell_length_c 8.814169
_cell_angle_alpha 106.716796
_cell_angle_beta 81.898259
_cell_angle_gamma 112.506650
_cell_volume 496.867517
_symmetry_space_group_name_H-M "P -1"
_symmetry_group_IT_number 2
_symmetry_cell_setting 'triclinic'
loop_
_space_group_symop_operation_xyz
x,y,z
-x,-y,-z
loop_
_atom_site_type_symbol
_atom_site_label
_atom_site_fract_x
_atom_site_fract_y
_atom_site_fract_z
Si Si1 0.017305 0.223813 0.435947
Si Si2 0.303842 0.835116 0.244610
Si Si3 0.323885 0.626584 0.567103
Si Si4 0.906829 0.609108 0.042377
Si Si5 0.437637 0.483434 0.248870
Si Si6 0.045262 0.018256 0.683115
O O1 0.831438 0.199496 0.593494
O O2 0.912304 0.309727 0.377607
O O3 0.360725 0.282454 0.470985
O O4 0.970940 0.104299 0.298399
O O5 0.654348 0.880107 0.250112
O O6 0.188434 0.724409 0.097688
O O7 0.211622 0.937385 0.222173
O O8 0.238559 0.526387 0.400896
O O9 0.354569 0.572925 0.704169
O O10 0.649459 0.592563 0.181095
O O11 0.778827 0.613031 0.886098
O O12 0.000000 0.500000 0.000000
O O13 0.000000 0.000000 0.500000
#
# Coordination Sequence:
#
# PCOD8009295 Si02
#       6
#     2   2   2   2   2   2
#     4  11  20  37  62  91 122 160 203 255 313 358
#     4  11  21  37  61  93 125 159 204 259 305 357
#     4  11  23  39  65  91 129 159 204 254 310 367
#     4  11  24  40  65  88 128 165 211 246 309 370
#     4  10  25  40  59  95 123 169 204 251 307 372
#     4  10  21  36  60  93 125 157 205 258 309 357
#
# _framework density 24.151305000000001
#
# number of rings (size 3 to 8) (size 9 to 14) (size 15 to 20)
#    0.000    1.333    1.667    6.000    7.000    1.333 
#    0.000    0.000    0.000    6.000    0.000    0.000 
#    0.000    0.000    0.000    0.000    0.000    0.000 
#
# Total GULP energy -148808.968224 kJ/mol
# GULP energy per Si atom -12400.747352 kJ/mol
# Density = 2.409634 g / cm^3
# Si number density = 24.151305 Si / 1000 Ang^3
#
#
#
# Elastic Constant Matrix: (Units=GPa)
#
#
# Indices 1 2 3 4 5 6 
#
# 1 76.7787 21.9769 28.1842 14.9123 27.2617 -21.9249
# 2 21.9769 123.0824 53.4643 23.8314 21.9589 -29.2203
# 3 28.1842 53.4643 121.5288 14.1250 30.4341 -7.5333
# 4 14.9123 23.8314 14.1250 36.2955 10.3161 0.8656
# 5 27.2617 21.9589 30.4341 10.3161 36.9707 6.9690
# 6 -21.9249 -29.2203 -7.5333 0.8656 6.9690 48.0906
#
#
#
# Elastic Compliance Matrix: (Units=1/GPa)
#
#
# Indices 1 2 3 4 5 6 
#
# 1 0.027815 0.006256 -0.000673 -0.008630 -0.025065 0.020164
# 2 0.006256 0.015336 -0.003673 -0.008444 -0.010854 0.013320
# 3 -0.000673 -0.003673 0.011792 0.000116 -0.007126 0.000340
# 4 -0.008630 -0.008444 0.000116 0.035938 0.003170 -0.010153
# 5 -0.025065 -0.010854 -0.007126 0.003170 0.062279 -0.028221
# 6 0.020164 0.013320 0.000340 -0.010153 -0.028221 0.042406
#
#
# Mechanical properties :
#
#
# Convention : Reuss Voigt Hill
#
# Bulk Modulus (GPa) = 17.01707 58.73786 37.87747
# Shear Modulus (GPa) = 23.65915 38.78899 31.22407
#
# Velocity S-wave (km/s) = 3.13329 4.01194 3.59953
# Velocity P-wave (km/s) = 4.48902 6.77012 5.74394
#
# Compressibility (1/GPa) = 0.05876451
#
# Stress axis : x y z
#
# Youngs Moduli (GPa) = 35.95174 65.20415 84.79992
#
# Poissons Ratio (x) = -0.40790 0.05705
# Poissons Ratio (y) = -0.22490 0.31144
# Poissons Ratio (z) = 0.02419 0.23948
#
# Static dielectric constant tensor:
#      x y z
#    x 4.539570 -0.162380 0.157820 
#    y -0.162380 4.935810 0.228860 
#    z 0.157820 0.228860 4.135240 
# 
# 
# High freq. dielectric constant tensor:
#      x y z
#    x 1.972710 -0.003910 0.019200 
#    y -0.003910 1.960700 0.016310 
#    z 0.019200 0.016310 1.926290 
# 
# From -- ./inp_files/52535.got.cif
#   From: 2010.06.25/outbox.cif.g09.slc.cpg/sg2_27_cif.got.tgz:52535.got - 2010.06.27 13:26:56.
