data_PCOD8009663
_publ_section_title
;
Structure prediction by ZEFSAII (Michael W. Deem and Ramdas Pophale) SiO2 
 PCOD8009663
Probable space group: P -1
;
_chemical_formula_sum "Si O2"
_cell_formula_units_Z 12
_cell_length_a 5.109469
_cell_length_b 5.151826
_cell_length_c 21.797409
_cell_angle_alpha 77.873935
_cell_angle_beta 105.378776
_cell_angle_gamma 121.691582
_cell_volume 468.984139
_symmetry_space_group_name_H-M "P -1"
_symmetry_group_IT_number 2
_symmetry_cell_setting 'triclinic'
loop_
_space_group_symop_operation_xyz
x,y,z
-x,-y,-z
loop_
_atom_site_type_symbol
_atom_site_label
_atom_site_fract_x
_atom_site_fract_y
_atom_site_fract_z
Si Si1 0.801730 0.301789 0.879099
Si Si2 0.625433 0.280522 0.731675
Si Si3 0.483886 0.385777 0.072988
Si Si4 0.223001 0.747117 0.453303
Si Si5 0.179154 0.024139 0.573461
Si Si6 0.247710 0.619449 0.683908
O O1 0.632086 0.245031 0.806494
O O2 0.727138 0.522622 0.904007
O O3 0.172843 0.467497 0.883775
O O4 0.679302 0.980056 0.921449
O O5 0.506999 0.519708 0.697366
O O6 0.965218 0.385227 0.719903
O O7 0.386974 0.954254 0.705302
O O8 0.500000 0.500000 0.000000
O O9 0.448240 0.710705 0.418369
O O10 0.000000 0.500000 0.500000
O O11 0.010107 0.867504 0.397828
O O12 0.500000 0.000000 0.500000
O O13 0.129004 0.685244 0.606738
O O14 0.000000 0.000000 0.500000
#
# Coordination Sequence:
#
# PCOD8009663 Si02
#       6
#     2   2   2   2   2   2
#     4  12  24  44  71  99 144 190 231 285 342 406
#     4  12  26  47  69 101 136 187 238 285 343 406
#     4  12  25  44  72 110 145 184 231 284 342 406
#     4  10  21  37  59  86 120 159 204 254 329 422
#     4  10  23  42  65  95 130 172 218 286 363 420
#     4  12  27  46  71 101 137 178 240 298 343 422
#
# _framework density 25.587219999999999
#
# number of rings (size 3 to 8) (size 9 to 14) (size 15 to 20)
#    0.000    0.667    0.000    8.000    0.000    8.000 
#    0.000    0.000    0.000    0.000    0.000    0.000 
#    0.000    0.000    0.000    0.000    0.000    0.000 
#
# Total GULP energy -148735.762219 kJ/mol
# GULP energy per Si atom -12394.646852 kJ/mol
# Density = 2.552898 g / cm^3
# Si number density = 25.587220 Si / 1000 Ang^3
#
#
#
# Elastic Constant Matrix: (Units=GPa)
#
#
# Indices 1 2 3 4 5 6 
#
# 1 192.2404 38.6773 13.0456 -10.7641 17.0280 8.3124
# 2 38.6773 92.6242 -3.3362 -9.5215 10.0754 9.0799
# 3 13.0456 -3.3362 90.9227 -4.7532 2.4508 -5.3881
# 4 -10.7641 -9.5215 -4.7532 24.8368 -2.4358 -5.6028
# 5 17.0280 10.0754 2.4508 -2.4358 39.0377 -11.4538
# 6 8.3124 9.0799 -5.3881 -5.6028 -11.4538 48.7475
#
#
#
# Elastic Compliance Matrix: (Units=1/GPa)
#
#
# Indices 1 2 3 4 5 6 
#
# 1 0.005992 -0.002054 -0.000880 0.001159 -0.002291 -0.001142
# 2 -0.002054 0.012547 0.000876 0.003320 -0.002828 -0.002173
# 3 -0.000880 0.000876 0.011377 0.002484 0.000051 0.001542
# 4 0.001159 0.003320 0.002484 0.043944 0.002735 0.005152
# 5 -0.002291 -0.002828 0.000051 0.002735 0.029940 0.008272
# 6 -0.001142 -0.002173 0.001542 0.005152 0.008272 0.023819
#
#
# Mechanical properties :
#
#
# Convention : Reuss Voigt Hill
#
# Bulk Modulus (GPa) = 38.75927 52.50675 45.63301
# Shear Modulus (GPa) = 35.62902 44.35110 39.99006
#
# Velocity S-wave (km/s) = 3.73561 4.16784 3.95763
# Velocity P-wave (km/s) = 5.81267 6.61260 6.22550
#
# Compressibility (1/GPa) = 0.02580028
#
# Stress axis : x y z
#
# Youngs Moduli (GPa) = 166.89196 79.69825 87.89898
#
# Poissons Ratio (x) = 0.16366 0.07738
# Poissons Ratio (y) = 0.34271 -0.07701
# Poissons Ratio (z) = 0.14693 -0.06982
#
# Static dielectric constant tensor:
#      x y z
#    x 22.031570 -11.241880 -1.341760 
#    y -11.241880 11.681160 0.558100 
#    z -1.341760 0.558100 5.741840 
# 
# 
# High freq. dielectric constant tensor:
#      x y z
#    x 2.060780 0.000880 0.003550 
#    y 0.000880 2.043290 0.007660 
#    z 0.003550 0.007660 2.024750 
# 
# From -- ./inp_files/602615.got.cif
#   From: 2010.06.25/outbox.cif.g09.slc.cpg/sg2_302_cif.got.tgz:602615.got - 2010.06.27 13:26:56.
