data_PCOD8009821
_publ_section_title
;
Structure prediction by ZEFSAII (Michael W. Deem and Ramdas Pophale) SiO2 
 PCOD8009821
Probable space group: P -1
;
_chemical_formula_sum "Si O2"
_cell_formula_units_Z 16
_cell_length_a 20.895476
_cell_length_b 8.285337
_cell_length_c 5.728244
_cell_angle_alpha 57.519970
_cell_angle_beta 120.250988
_cell_angle_gamma 112.851749
_cell_volume 713.156831
_symmetry_space_group_name_H-M "P -1"
_symmetry_group_IT_number 2
_symmetry_cell_setting 'triclinic'
loop_
_space_group_symop_operation_xyz
x,y,z
-x,-y,-z
loop_
_atom_site_type_symbol
_atom_site_label
_atom_site_fract_x
_atom_site_fract_y
_atom_site_fract_z
Si Si1 0.408778 0.267840 0.570133
Si Si2 0.981216 0.897126 0.293504
Si Si3 0.662418 0.173277 0.271014
Si Si4 0.199139 0.674500 0.341291
Si Si5 0.707329 0.495523 0.726049
Si Si6 0.063487 0.594317 0.866739
Si Si7 0.849859 0.624570 0.137478
Si Si8 0.448118 0.566766 0.046422
O O1 0.358911 0.383763 0.559948
O O2 0.402186 0.370624 0.227321
O O3 0.496111 0.303326 0.770595
O O4 0.379069 0.040881 0.691281
O O5 0.891159 0.822434 0.179736
O O6 0.027488 0.718403 0.512298
O O7 0.000000 0.000000 0.500000
O O8 0.000000 0.000000 0.000000
O O9 0.740860 0.155361 0.561625
O O10 0.677156 0.293488 0.962764
O O11 0.610270 0.290454 0.248404
O O12 0.250154 0.544385 0.397699
O O13 0.152655 0.549548 0.551768
O O14 0.133566 0.738412 0.009882
O O15 0.765910 0.638104 0.887315
O O16 0.098019 0.420173 0.948354
O O17 0.000000 0.500000 0.000000
O O18 0.500000 0.500000 0.000000
#
# Coordination Sequence:
#
# PCOD8009821 Si02
#       8
#     2   2   2   2   2   2   2   2
#     4  10  21  38  60  87 127 162 208 263 315 384
#     4  12  27  41  63 100 135 164 220 290 343 402
#     4  10  21  38  60  94 123 162 215 263 317 391
#     4  10  21  39  66  86 120 167 221 265 328 396
#     4   9  21  40  59  85 124 168 211 262 327 390
#     4  11  22  42  70  88 121 179 223 264 338 413
#     4  10  22  42  64  86 124 170 217 267 332 404
#     4  10  21  37  61  91 124 167 204 256 321 384
#
# _framework density 22.435455999999999
#
# number of rings (size 3 to 8) (size 9 to 14) (size 15 to 20)
#    0.000    1.750    1.250    2.250    3.500    2.500 
#    4.500    0.000    0.000    0.000    0.000    0.000 
#    0.000    0.000    0.000    0.000    0.000    0.000 
#
# Total GULP energy -198229.919591 kJ/mol
# GULP energy per Si atom -12389.369974 kJ/mol
# Density = 2.238439 g / cm^3
# Si number density = 22.435456 Si / 1000 Ang^3
#
#
#
# Elastic Constant Matrix: (Units=GPa)
#
#
# Indices 1 2 3 4 5 6 
#
# 1 110.4745 23.3634 22.3913 -10.6740 -9.7859 8.4180
# 2 23.3634 121.5337 27.6341 -8.2064 -5.0576 28.9232
# 3 22.3913 27.6341 84.8804 -2.9499 3.8089 15.3144
# 4 -10.6740 -8.2064 -2.9499 27.8929 -0.9605 5.0215
# 5 -9.7859 -5.0576 3.8089 -0.9605 32.6451 10.8556
# 6 8.4180 28.9232 15.3144 5.0215 10.8556 37.0721
#
#
#
# Elastic Compliance Matrix: (Units=1/GPa)
#
#
# Indices 1 2 3 4 5 6 
#
# 1 0.010646 -0.000277 -0.002180 0.004509 0.004621 -0.003264
# 2 -0.000277 0.011894 -0.001917 0.005338 0.005741 -0.010828
# 3 -0.002180 -0.001917 0.013664 0.000595 -0.001424 -0.003317
# 4 0.004509 0.005338 0.000595 0.041889 0.007794 -0.013390
# 5 0.004621 0.005741 -0.001424 0.007794 0.039104 -0.017446
# 6 -0.003264 -0.010828 -0.003317 -0.013390 -0.017446 0.044457
#
#
# Mechanical properties :
#
#
# Convention : Reuss Voigt Hill
#
# Bulk Modulus (GPa) = 36.42426 51.51846 43.97136
# Shear Modulus (GPa) = 27.84680 35.75534 31.80107
#
# Velocity S-wave (km/s) = 3.52688 3.99645 3.76898
# Velocity P-wave (km/s) = 5.73198 6.65644 6.21143
#
# Compressibility (1/GPa) = 0.02745423
#
# Stress axis : x y z
#
# Youngs Moduli (GPa) = 93.93196 84.07735 73.18705
#
# Poissons Ratio (x) = 0.02332 0.15953
# Poissons Ratio (y) = 0.02605 0.14034
# Poissons Ratio (z) = 0.20475 0.16122
#
# Static dielectric constant tensor:
#      x y z
#    x 4.346810 0.312980 0.311250 
#    y 0.312980 4.148840 0.391340 
#    z 0.311250 0.391340 4.175100 
# 
# 
# High freq. dielectric constant tensor:
#      x y z
#    x 1.898410 0.021900 0.005380 
#    y 0.021900 1.872300 0.025420 
#    z 0.005380 0.025420 1.873950 
# 
# From -- ./inp_files/53353.got.cif
#   From: 2010.06.25/outbox.cif.g09.slc.cpg/sg2_27_cif.got.tgz:53353.got - 2010.06.27 13:26:56.
