data_PCOD8009947
_publ_section_title
;
Structure prediction by ZEFSAII (Michael W. Deem and Ramdas Pophale) SiO2 
 PCOD8009947
Probable space group: P -1
;
_chemical_formula_sum "Si O2"
_cell_formula_units_Z 14
_cell_length_a 12.642273
_cell_length_b 6.580822
_cell_length_c 23.460811
_cell_angle_alpha 125.323051
_cell_angle_beta 24.074018
_cell_angle_gamma 125.753441
_cell_volume 640.223071
_symmetry_space_group_name_H-M "P -1"
_symmetry_group_IT_number 2
_symmetry_cell_setting 'triclinic'
loop_
_space_group_symop_operation_xyz
x,y,z
-x,-y,-z
loop_
_atom_site_type_symbol
_atom_site_label
_atom_site_fract_x
_atom_site_fract_y
_atom_site_fract_z
Si Si1 0.809476 0.379385 0.854476
Si Si2 0.133359 0.134341 0.746478
Si Si3 0.850945 0.412069 0.380319
Si Si4 0.264418 0.096175 0.461133
Si Si5 0.325911 0.116310 0.304110
Si Si6 0.643784 0.357337 0.587673
Si Si7 0.674328 0.891554 0.010214
O O1 0.542296 0.180627 0.944975
O O2 0.015785 0.242679 0.764794
O O3 0.896067 0.477636 0.763738
O O4 0.759811 0.635412 0.952397
O O5 0.372579 0.345071 0.683579
O O6 0.253068 0.877269 0.633209
O O7 0.913249 0.081694 0.895183
O O8 0.891274 0.404674 0.428756
O O9 0.652713 0.620688 0.506663
O O10 0.388297 0.906660 0.407862
O O11 0.946551 0.039768 0.609628
O O12 0.373284 0.072557 0.340415
O O13 0.320539 0.415791 0.347320
O O14 0.567359 0.039991 0.138567
#
# Coordination Sequence:
#
# PCOD8009947 Si02
#       7
#     2   2   2   2   2   2   2
#     4  10  21  41  62  89 120 156 204 251 292 348
#     4  11  24  39  60  93 125 158 195 243 306 361
#     4  10  21  37  63  87 121 154 198 246 295 347
#     4  10  21  41  62  89 120 156 204 251 292 348
#     4  10  22  40  62  89 118 158 205 245 296 351
#     4  11  24  39  60  93 125 158 195 243 306 361
#     4  10  22  40  62  89 118 158 205 245 296 351
#
# _framework density 21.867376
#
# number of rings (size 3 to 8) (size 9 to 14) (size 15 to 20)
#    0.000    1.714    1.429    2.143    0.000    7.429 
#    0.000    1.429    0.000    0.000    0.000    0.000 
#    0.000    0.000    0.000    0.000    0.000    0.000 
#
# Total GULP energy -173450.678656 kJ/mol
# GULP energy per Si atom -12389.334190 kJ/mol
# Density = 2.181760 g / cm^3
# Si number density = 21.867376 Si / 1000 Ang^3
#
#
#
# Elastic Constant Matrix: (Units=GPa)
#
#
# Indices 1 2 3 4 5 6 
#
# 1 63.3378 34.7856 34.3917 5.7043 -3.7394 -14.6299
# 2 34.7856 102.3621 51.3174 16.7507 3.8368 -15.2740
# 3 34.3917 51.3174 122.3642 12.5750 26.6128 3.3390
# 4 5.7043 16.7507 12.5750 38.4201 6.4764 -0.9284
# 5 -3.7394 3.8368 26.6128 6.4764 24.4578 8.0771
# 6 -14.6299 -15.2740 3.3390 -0.9284 8.0771 32.8746
#
#
#
# Elastic Compliance Matrix: (Units=1/GPa)
#
#
# Indices 1 2 3 4 5 6 
#
# 1 0.024356 -0.003490 -0.007769 -0.001160 0.010598 0.007370
# 2 -0.003490 0.015243 -0.005674 -0.004600 0.002714 0.005309
# 3 -0.007769 -0.005674 0.016503 0.001074 -0.017394 -0.003466
# 4 -0.001160 -0.004600 0.001074 0.029277 -0.008421 0.000133
# 5 0.010598 0.002714 -0.017394 -0.008421 0.066125 -0.008740
# 6 0.007370 0.005309 -0.003466 0.000133 -0.008740 0.038668
#
#
# Mechanical properties :
#
#
# Convention : Reuss Voigt Hill
#
# Bulk Modulus (GPa) = 44.97207 58.78372 51.87790
# Shear Modulus (GPa) = 21.60311 30.32181 25.96246
#
# Velocity S-wave (km/s) = 3.14652 3.72778 3.44942
# Velocity P-wave (km/s) = 5.81475 6.74305 6.29603
#
# Compressibility (1/GPa) = 0.02223602
#
# Stress axis : x y z
#
# Youngs Moduli (GPa) = 41.05809 65.60407 60.59619
#
# Poissons Ratio (x) = 0.22894 0.47075
# Poissons Ratio (y) = 0.14328 0.34384
# Poissons Ratio (z) = 0.31896 0.37225
#
# Static dielectric constant tensor:
#      x y z
#    x 3.521540 -0.094770 0.209130 
#    y -0.094770 4.190990 0.100790 
#    z 0.209130 0.100790 3.944010 
# 
# 
# High freq. dielectric constant tensor:
#      x y z
#    x 1.823290 -0.005530 0.018700 
#    y -0.005530 1.883010 0.002590 
#    z 0.018700 0.002590 1.857720 
# 
# From -- ./inp_files/67183.got.cif
#   From: 2010.06.25/outbox.cif.g09.slc.cpg/sg2_34_cif.got.tgz:67183.got - 2010.06.27 13:26:56.
