data_PCOD8009145
_publ_section_title
;
Structure prediction by ZEFSAII (Michael W. Deem and Ramdas Pophale) SiO2 
 PCOD8009145
Probable space group: P -1
;
_chemical_formula_sum "Si O2"
_cell_formula_units_Z 14
_cell_length_a 13.412932
_cell_length_b 11.606735
_cell_length_c 10.643617
_cell_angle_alpha 65.877540
_cell_angle_beta 77.186052
_cell_angle_gamma 133.561244
_cell_volume 710.693984
_symmetry_space_group_name_H-M "P -1"
_symmetry_group_IT_number 2
_symmetry_cell_setting 'triclinic'
loop_
_space_group_symop_operation_xyz
x,y,z
-x,-y,-z
loop_
_atom_site_type_symbol
_atom_site_label
_atom_site_fract_x
_atom_site_fract_y
_atom_site_fract_z
Si Si1 0.604959 0.909267 0.081127
Si Si2 0.155494 0.994204 0.436590
Si Si3 0.304835 0.421953 0.245249
Si Si4 0.110276 0.760146 0.768634
Si Si5 0.528346 0.109581 0.625065
Si Si6 0.041712 0.424686 0.843068
Si Si7 0.555796 0.879149 0.837281
O O1 0.484781 0.646146 0.201269
O O2 0.472447 0.832688 0.261940
O O3 0.603645 0.988086 0.915227
O O4 0.847661 0.149998 0.946030
O O5 0.314752 0.285759 0.266861
O O6 0.239899 0.980501 0.324115
O O7 0.141385 0.922615 0.612747
O O8 0.926900 0.792782 0.541395
O O9 0.354520 0.565417 0.045515
O O10 0.005153 0.537863 0.808549
O O11 0.335875 0.948513 0.666303
O O12 0.959668 0.626186 0.989813
O O13 0.743197 0.380975 0.373259
O O14 0.511630 0.939877 0.721009
#
# Coordination Sequence:
#
# PCOD8009145 Si02
#       7
#     2   2   2   2   2   2   2
#     4   9  23  36  56  89 120 148 187 236 284 351
#     4  11  21  41  62  83 112 158 192 238 282 329
#     4   9  24  39  58  86 116 148 200 234 279 338
#     4  10  23  36  59  88 114 149 198 234 276 350
#     4  11  21  37  58  91 118 152 181 235 299 337
#     4  10  21  36  57  85 120 149 185 231 292 337
#     4  10  22  35  62  86 118 145 191 239 285 342
#
# _framework density 19.699055000000001
#
# number of rings (size 3 to 8) (size 9 to 14) (size 15 to 20)
#    0.857    1.143    1.429    1.286    8.000    0.571 
#    0.000    2.857    0.000    1.714    0.000    0.000 
#    0.000    0.000    0.000    0.000    0.000    0.000 
#
# Total GULP energy -173489.645246 kJ/mol
# GULP energy per Si atom -12392.117518 kJ/mol
# Density = 1.965422 g / cm^3
# Si number density = 19.699055 Si / 1000 Ang^3
#
#
#
# Elastic Constant Matrix: (Units=GPa)
#
#
# Indices 1 2 3 4 5 6 
#
# 1 55.3736 31.0544 31.6267 0.4153 2.2577 -3.2454
# 2 31.0544 100.1538 48.4804 -9.8144 -0.4684 1.5326
# 3 31.6267 48.4804 137.4157 6.2268 -7.7680 -6.1840
# 4 0.4153 -9.8144 6.2268 35.9409 -6.2176 -0.8077
# 5 2.2577 -0.4684 -7.7680 -6.2176 31.0479 -0.3324
# 6 -3.2454 1.5326 -6.1840 -0.8077 -0.3324 14.3351
#
#
#
# Elastic Compliance Matrix: (Units=1/GPa)
#
#
# Indices 1 2 3 4 5 6 
#
# 1 0.023671 -0.006047 -0.003199 -0.001776 -0.002921 0.004458
# 2 -0.006047 0.014348 -0.004049 0.004684 0.000534 -0.004374
# 3 -0.003199 -0.004049 0.009846 -0.002304 0.002215 0.003878
# 4 -0.001776 0.004684 -0.002304 0.030513 0.005733 -0.000045
# 5 -0.002921 0.000534 0.002215 0.005733 0.034145 0.001352
# 6 0.004458 -0.004374 0.003878 -0.000045 0.001352 0.072937
#
#
# Mechanical properties :
#
#
# Convention : Reuss Voigt Hill
#
# Bulk Modulus (GPa) = 47.00253 57.25178 52.12715
# Shear Modulus (GPa) = 22.81623 28.38356 25.59990
#
# Velocity S-wave (km/s) = 3.40698 3.79998 3.60884
# Velocity P-wave (km/s) = 6.27605 6.95554 6.62451
#
# Compressibility (1/GPa) = 0.02127545
#
# Stress axis : x y z
#
# Youngs Moduli (GPa) = 42.24574 69.69583 101.56420
#
# Poissons Ratio (x) = 0.42147 0.32486
# Poissons Ratio (y) = 0.25547 0.41124
# Poissons Ratio (z) = 0.13512 0.28220
#
# Static dielectric constant tensor:
#      x y z
#    x 3.234550 -0.059490 0.024960 
#    y -0.059490 3.447610 0.055850 
#    z 0.024960 0.055850 3.848340 
# 
# 
# High freq. dielectric constant tensor:
#      x y z
#    x 1.733770 0.001090 -0.007210 
#    y 0.001090 1.754190 0.003170 
#    z -0.007210 0.003170 1.789370 
# 
# From -- ./inp_files/423276.got.cif
#   From: 2010.06.25/outbox.cif.g09.slc.cpg/sg2_212_cif.got.tgz:423276.got - 2010.06.27 13:26:56.
