data_PCOD8009984
_publ_section_title
;
Structure prediction by ZEFSAII (Michael W. Deem and Ramdas Pophale) SiO2 
 PCOD8009984
Probable space group: P -1
;
_chemical_formula_sum "Si O2"
_cell_formula_units_Z 16
_cell_length_a 15.265015
_cell_length_b 9.057333
_cell_length_c 11.721130
_cell_angle_alpha 50.715191
_cell_angle_beta 38.988070
_cell_angle_gamma 70.815375
_cell_volume 743.341118
_symmetry_space_group_name_H-M "P -1"
_symmetry_group_IT_number 2
_symmetry_cell_setting 'triclinic'
loop_
_space_group_symop_operation_xyz
x,y,z
-x,-y,-z
loop_
_atom_site_type_symbol
_atom_site_label
_atom_site_fract_x
_atom_site_fract_y
_atom_site_fract_z
Si Si1 0.982321 0.182546 0.497578
Si Si2 0.535688 0.583598 0.297008
Si Si3 0.076428 0.339697 0.548330
Si Si4 0.314792 0.326349 0.472837
Si Si5 0.673078 0.036640 0.992949
Si Si6 0.440463 0.664775 0.929352
Si Si7 0.771809 0.446970 0.994929
Si Si8 0.184917 0.932935 0.922608
O O1 0.074881 0.192426 0.515886
O O2 0.059680 0.394079 0.247237
O O3 0.812438 0.152549 0.714179
O O4 0.000000 0.000000 0.500000
O O5 0.500000 0.500000 0.500000
O O6 0.392923 0.499773 0.401155
O O7 0.581852 0.825764 0.129824
O O8 0.671361 0.517137 0.149244
O O9 0.239239 0.426180 0.400971
O O10 0.000000 0.500000 0.500000
O O11 0.980910 0.199645 0.813278
O O12 0.437804 0.236405 0.341136
O O13 0.192606 0.135788 0.749087
O O14 0.567974 0.173777 0.045586
O O15 0.718787 0.999422 0.092962
O O16 0.500000 0.500000 0.000000
O O17 0.280628 0.556344 0.084045
O O18 0.760572 0.215211 0.143452
#
# Coordination Sequence:
#
# PCOD8009984 Si02
#       8
#     2   2   2   2   2   2   2   2
#     4  11  21  39  67  93 128 170 219 272 334 382
#     4  11  22  40  64  95 142 169 212 268 337 397
#     4  11  23  42  69  94 126 172 227 280 325 390
#     4  11  24  40  66  96 133 175 220 275 325 399
#     4  10  22  38  66  97 128 179 216 268 333 387
#     4  10  23  38  62  93 135 169 226 268 326 398
#     4  10  21  37  63  95 124 176 216 269 326 393
#     4  10  21  39  66  95 126 172 229 267 323 394
#
# _framework density 21.524439000000001
#
# number of rings (size 3 to 8) (size 9 to 14) (size 15 to 20)
#    0.000    1.500    3.750    1.125    5.250    1.500 
#    0.000    5.000    0.000    1.500    0.000    0.000 
#    0.000    0.000    0.000    0.000    0.000    0.000 
#
# Total GULP energy -198279.479618 kJ/mol
# GULP energy per Si atom -12392.467476 kJ/mol
# Density = 2.147545 g / cm^3
# Si number density = 21.524439 Si / 1000 Ang^3
#
#
#
# Elastic Constant Matrix: (Units=GPa)
#
#
# Indices 1 2 3 4 5 6 
#
# 1 105.5227 62.8150 37.9214 -4.9365 -12.3792 5.0320
# 2 62.8150 167.4626 56.5456 1.9015 -8.0833 23.5906
# 3 37.9214 56.5456 109.2246 -11.0197 -10.7033 10.0669
# 4 -4.9365 1.9015 -11.0197 36.4931 5.9556 0.3045
# 5 -12.3792 -8.0833 -10.7033 5.9556 28.6980 -1.9777
# 6 5.0320 23.5906 10.0669 0.3045 -1.9777 30.5712
#
#
#
# Elastic Compliance Matrix: (Units=1/GPa)
#
#
# Indices 1 2 3 4 5 6 
#
# 1 0.013194 -0.004380 -0.002071 0.000771 0.003671 0.002120
# 2 -0.004380 0.009442 -0.003084 -0.001910 -0.000366 -0.005554
# 3 -0.002071 -0.003084 0.012100 0.003217 0.002003 -0.001166
# 4 0.000771 -0.001910 0.003217 0.029418 -0.005134 -0.000338
# 5 0.003671 -0.000366 0.002003 -0.005134 0.038245 0.001544
# 6 0.002120 -0.005554 -0.001166 -0.000338 0.001544 0.037135
#
#
# Mechanical properties :
#
#
# Convention : Reuss Voigt Hill
#
# Bulk Modulus (GPa) = 63.83630 77.41930 70.62780
# Shear Modulus (GPa) = 30.52024 34.14765 32.33395
#
# Velocity S-wave (km/s) = 3.76963 3.98736 3.88002
# Velocity P-wave (km/s) = 6.97630 7.56604 7.27715
#
# Compressibility (1/GPa) = 0.01566507
#
# Stress axis : x y z
#
# Youngs Moduli (GPa) = 75.79332 105.90732 82.64783
#
# Poissons Ratio (x) = 0.46385 0.17118
# Poissons Ratio (y) = 0.33196 0.25491
# Poissons Ratio (z) = 0.15698 0.32665
#
# Static dielectric constant tensor:
#      x y z
#    x 3.661830 0.238780 -0.141720 
#    y 0.238780 4.276060 0.459470 
#    z -0.141720 0.459470 4.598440 
# 
# 
# High freq. dielectric constant tensor:
#      x y z
#    x 1.811820 0.013510 -0.006570 
#    y 0.013510 1.846600 0.006520 
#    z -0.006570 0.006520 1.869420 
# 
# From -- ./inp_files/446760.got.cif
#   From: 2010.06.25/outbox.cif.g09.slc.cpg/sg2_224_cif.got.tgz:446760.got - 2010.06.27 13:26:56.
