data_PCOD8009473
_publ_section_title
;
Structure prediction by ZEFSAII (Michael W. Deem and Ramdas Pophale) SiO2 
 PCOD8009473
Probable space group: P -1
;
_chemical_formula_sum "Si O2"
_cell_formula_units_Z 14
_cell_length_a 9.962950
_cell_length_b 20.697346
_cell_length_c 8.685717
_cell_angle_alpha 132.116798
_cell_angle_beta 30.020940
_cell_angle_gamma 129.761233
_cell_volume 656.273554
_symmetry_space_group_name_H-M "P -1"
_symmetry_group_IT_number 2
_symmetry_cell_setting 'triclinic'
loop_
_space_group_symop_operation_xyz
x,y,z
-x,-y,-z
loop_
_atom_site_type_symbol
_atom_site_label
_atom_site_fract_x
_atom_site_fract_y
_atom_site_fract_z
Si Si1 0.869218 0.194187 0.707857
Si Si2 0.245567 0.997066 0.360419
Si Si3 0.749154 0.439063 0.826856
Si Si4 0.140568 0.753330 0.538263
Si Si5 0.583773 0.731418 0.559593
Si Si6 0.337115 0.182862 0.706596
Si Si7 0.698941 0.455445 0.541321
O O1 0.952008 0.215730 0.484964
O O2 0.099407 0.247175 0.675232
O O3 0.823464 0.089523 0.606269
O O4 0.581829 0.222402 0.077512
O O5 0.259979 0.078832 0.592375
O O6 0.000000 0.000000 0.500000
O O7 0.500000 0.000000 0.000000
O O8 0.817351 0.347836 0.676535
O O9 0.716853 0.433245 0.666964
O O10 0.989287 0.514981 0.771749
O O11 0.463822 0.463714 0.207985
O O12 0.428208 0.808845 0.386525
O O13 0.913330 0.770301 0.914278
O O14 0.544507 0.769174 0.489809
O O15 0.460023 0.628346 0.523908
#
# Coordination Sequence:
#
# PCOD8009473 Si02
#       7
#     2   2   2   2   2   2   2
#     4  12  26  44  66  95 139 169 205 274 333 379
#     4  12  23  43  68  99 127 165 221 267 315 374
#     4  10  21  38  60  95 129 163 209 276 313 368
#     4  12  26  43  64 100 135 170 209 268 337 375
#     4  12  23  43  68  99 123 176 223 260 315 390
#     4  12  24  41  71  95 128 171 223 264 308 395
#     4  10  21  36  65  94 121 166 224 263 304 376
#
# _framework density 21.332568999999999
#
# number of rings (size 3 to 8) (size 9 to 14) (size 15 to 20)
#    0.000    0.571    4.286    4.286    4.000    1.143 
#    0.000    4.286    0.000    0.000    0.000    0.000 
#    0.000    0.000    0.000    0.000    0.000    0.000 
#
# Total GULP energy -173610.667476 kJ/mol
# GULP energy per Si atom -12400.761963 kJ/mol
# Density = 2.128402 g / cm^3
# Si number density = 21.332569 Si / 1000 Ang^3
#
#
#
# Elastic Constant Matrix: (Units=GPa)
#
#
# Indices 1 2 3 4 5 6 
#
# 1 82.4139 45.9474 22.7105 -0.7963 -7.5028 5.7618
# 2 45.9474 120.1256 9.3557 6.3375 2.6412 23.5433
# 3 22.7105 9.3557 84.8406 -4.7015 -7.6170 2.1812
# 4 -0.7963 6.3375 -4.7015 30.6652 8.0130 -2.0239
# 5 -7.5028 2.6412 -7.6170 8.0130 29.5635 -10.8264
# 6 5.7618 23.5433 2.1812 -2.0239 -10.8264 23.7926
#
#
#
# Elastic Compliance Matrix: (Units=1/GPa)
#
#
# Indices 1 2 3 4 5 6 
#
# 1 0.017704 -0.008081 -0.003398 0.000282 0.006893 0.007180
# 2 -0.008081 0.015135 -0.000001 -0.002080 -0.009206 -0.017385
# 3 -0.003398 -0.000001 0.012966 0.001320 0.002433 0.000855
# 4 0.000282 -0.002080 0.001320 0.035586 -0.008706 0.000934
# 5 0.006893 -0.009206 0.002433 -0.008706 0.050105 0.029276
# 6 0.007180 -0.017385 0.000855 0.000934 0.029276 0.070817
#
#
# Mechanical properties :
#
#
# Convention : Reuss Voigt Hill
#
# Bulk Modulus (GPa) = 43.77155 49.26748 46.51951
# Shear Modulus (GPa) = 21.46961 30.76204 26.11583
#
# Velocity S-wave (km/s) = 3.17586 3.80152 3.50269
# Velocity P-wave (km/s) = 5.83192 6.51259 6.18163
#
# Compressibility (1/GPa) = 0.02284589
#
# Stress axis : x y z
#
# Youngs Moduli (GPa) = 56.48590 66.07227 77.12368
#
# Poissons Ratio (x) = 0.53390 0.26207
# Poissons Ratio (y) = 0.45644 0.00006
# Poissons Ratio (z) = 0.19194 0.00005
#
# Static dielectric constant tensor:
#      x y z
#    x 3.677220 0.162520 -0.224330 
#    y 0.162520 3.948250 0.016300 
#    z -0.224330 0.016300 3.960270 
# 
# 
# High freq. dielectric constant tensor:
#      x y z
#    x 1.825100 0.012770 -0.021120 
#    y 0.012770 1.848590 0.002020 
#    z -0.021120 0.002020 1.845750 
# 
# From -- ./inp_files/201235.got.cif
#   From: 2010.06.25/outbox.cif.g09.slc.cpg/sg2_101_cif.got.tgz:201235.got - 2010.06.27 13:26:56.
