data_PCOD8009188
_publ_section_title
;
Structure prediction by ZEFSAII (Michael W. Deem and Ramdas Pophale) SiO2 
 PCOD8009188
Probable space group: P -1
;
_chemical_formula_sum "Si O2"
_cell_formula_units_Z 14
_cell_length_a 7.146259
_cell_length_b 27.528937
_cell_length_c 24.642451
_cell_angle_alpha 170.948006
_cell_angle_beta 58.069623
_cell_angle_gamma 121.038740
_cell_volume 646.502991
_symmetry_space_group_name_H-M "P -1"
_symmetry_group_IT_number 2
_symmetry_cell_setting 'triclinic'
loop_
_space_group_symop_operation_xyz
x,y,z
-x,-y,-z
loop_
_atom_site_type_symbol
_atom_site_label
_atom_site_fract_x
_atom_site_fract_y
_atom_site_fract_z
Si Si1 0.958114 0.532952 0.308712
Si Si2 0.973552 0.419028 0.352898
Si Si3 0.420187 0.350405 0.901376
Si Si4 0.095745 0.684682 0.039348
Si Si5 0.349883 0.242199 0.595576
Si Si6 0.270083 0.164667 0.230952
Si Si7 0.781172 0.871018 0.095020
O O1 0.753168 0.578934 0.434480
O O2 0.861411 0.368399 0.089723
O O3 0.058539 0.847704 0.620963
O O4 0.154959 0.320703 0.071798
O O5 0.814324 0.691813 0.654339
O O6 0.000000 0.500000 0.500000
O O7 0.189959 0.364735 0.221589
O O8 0.876761 0.088973 0.001415
O O9 0.156732 0.366130 0.963402
O O10 0.500000 0.000000 0.500000
O O11 0.500000 0.500000 0.000000
O O12 0.531339 0.525960 0.127233
O O13 0.166678 0.038939 0.430045
O O14 0.243843 0.441756 0.783304
O O15 0.528012 0.988846 0.265191
O O16 0.500000 0.000000 0.000000
#
# Coordination Sequence:
#
# PCOD8009188 Si02
#       7
#     2   2   2   2   2   2   2
#     4  10  21  40  64  89 130 176 217 269 332 386
#     4  10  21  36  58  88 126 172 213 267 322 379
#     4  12  28  48  72  98 140 176 208 278 340 386
#     4  12  26  43  72 103 130 174 228 268 327 401
#     4  12  26  43  72 103 130 174 228 268 327 401
#     4  10  21  36  58  88 126 172 213 267 322 379
#     4  10  21  40  64  89 130 176 217 269 332 386
#
# _framework density 21.654965000000001
#
# number of rings (size 3 to 8) (size 9 to 14) (size 15 to 20)
#    0.000    1.143    1.429    4.286    2.000    5.714 
#    0.000    0.000    0.000    0.000    0.000    0.000 
#    0.000    0.000    0.000    0.000    0.000    0.000 
#
# Total GULP energy -173517.079872 kJ/mol
# GULP energy per Si atom -12394.077134 kJ/mol
# Density = 2.160568 g / cm^3
# Si number density = 21.654965 Si / 1000 Ang^3
#
#
#
# Elastic Constant Matrix: (Units=GPa)
#
#
# Indices 1 2 3 4 5 6 
#
# 1 142.7865 79.1511 68.0748 -16.5328 -19.2680 -9.6578
# 2 79.1511 126.9311 55.7114 -7.1777 -14.6380 -13.4428
# 3 68.0748 55.7114 119.7635 -0.5008 -18.1141 -9.1900
# 4 -16.5328 -7.1777 -0.5008 45.2909 -1.0500 -3.8790
# 5 -19.2680 -14.6380 -18.1141 -1.0500 41.2551 12.8047
# 6 -9.6578 -13.4428 -9.1900 -3.8790 12.8047 37.0280
#
#
#
# Elastic Compliance Matrix: (Units=1/GPa)
#
#
# Indices 1 2 3 4 5 6 
#
# 1 0.013005 -0.005725 -0.004383 0.003831 0.002264 -0.000156
# 2 -0.005725 0.012831 -0.002521 0.000135 -0.000019 0.002560
# 3 -0.004383 -0.002521 0.012375 -0.001808 0.002454 -0.000025
# 4 0.003831 0.000135 -0.001808 0.023739 0.000772 0.002819
# 5 0.002264 -0.000019 0.002454 0.000772 0.029117 -0.008795
# 6 -0.000156 0.002560 -0.000025 0.002819 -0.008795 0.031226
#
#
# Mechanical properties :
#
#
# Convention : Reuss Voigt Hill
#
# Bulk Modulus (GPa) = 77.18872 88.37286 82.78079
# Shear Modulus (GPa) = 32.92360 37.15105 35.03732
#
# Velocity S-wave (km/s) = 3.90342 4.14646 4.02678
# Velocity P-wave (km/s) = 7.48584 7.98889 7.74145
#
# Compressibility (1/GPa) = 0.01295526
#
# Stress axis : x y z
#
# Youngs Moduli (GPa) = 76.89465 77.93668 80.80745
#
# Poissons Ratio (x) = 0.44616 0.35414
# Poissons Ratio (y) = 0.44020 0.20368
# Poissons Ratio (z) = 0.33699 0.19644
#
# Static dielectric constant tensor:
#      x y z
#    x 3.783610 -0.006930 -0.080270 
#    y -0.006930 4.276460 -0.176770 
#    z -0.080270 -0.176770 4.317180 
# 
# 
# High freq. dielectric constant tensor:
#      x y z
#    x 1.836430 -0.007610 -0.012840 
#    y -0.007610 1.868610 0.004510 
#    z -0.012840 0.004510 1.869800 
# 
# From -- ./inp_files/114104.got.cif
#   From: 2010.06.25/outbox.cif.g09.slc.cpg/sg2_58_cif.got.tgz:114104.got - 2010.06.27 13:26:56.
