data_PCOD8009240
_publ_section_title
;
Structure prediction by ZEFSAII (Michael W. Deem and Ramdas Pophale) SiO2 
 PCOD8009240
Probable space group: P -1
;
_chemical_formula_sum "Si O2"
_cell_formula_units_Z 16
_cell_length_a 19.751980
_cell_length_b 8.556897
_cell_length_c 9.437775
_cell_angle_alpha 147.826820
_cell_angle_beta 117.179338
_cell_angle_gamma 62.865495
_cell_volume 747.424581
_symmetry_space_group_name_H-M "P -1"
_symmetry_group_IT_number 2
_symmetry_cell_setting 'triclinic'
loop_
_space_group_symop_operation_xyz
x,y,z
-x,-y,-z
loop_
_atom_site_type_symbol
_atom_site_label
_atom_site_fract_x
_atom_site_fract_y
_atom_site_fract_z
Si Si1 0.507603 0.848574 0.040832
Si Si2 0.192487 0.467028 0.080450
Si Si3 0.320827 0.404513 0.935082
Si Si4 0.702721 0.912525 0.605743
Si Si5 0.158286 0.196037 0.133489
Si Si6 0.900128 0.955076 0.485694
Si Si7 0.935419 0.229318 0.438143
Si Si8 0.551811 0.774335 0.477648
O O1 0.471677 0.549666 0.793373
O O2 0.596402 0.794510 0.129869
O O3 0.500000 0.000000 0.000000
O O4 0.457729 0.097345 0.276985
O O5 0.196903 0.338057 0.144716
O O6 0.165791 0.823343 0.324847
O O7 0.275676 0.387519 0.026838
O O8 0.130550 0.334354 0.823477
O O9 0.276033 0.262823 0.656221
O O10 0.332411 0.744050 0.183463
O O11 0.777266 0.908888 0.770726
O O12 0.640506 0.740816 0.491044
O O13 0.092801 0.420169 0.322542
O O14 0.118421 0.919279 0.834042
O O15 0.926646 0.139702 0.523002
O O16 0.974147 0.849479 0.576061
O O17 0.500000 0.000000 0.500000
#
# Coordination Sequence:
#
# PCOD8009240 Si02
#       8
#     2   2   2   2   2   2   2   2
#     4  12  26  44  67  98 125 161 208 267 314 358
#     4  10  21  36  59  89 122 153 205 249 307 360
#     4  12  24  43  61  89 127 167 199 250 314 375
#     4  12  25  41  66  87 125 169 205 248 306 369
#     4  10  21  37  58  93 116 157 203 256 297 354
#     4   9  17  33  58  89 116 159 193 253 307 355
#     4   9  17  33  59  87 122 147 204 254 299 352
#     4  12  23  46  68  92 124 167 216 250 302 384
#
# _framework density 21.406842000000001
#
# number of rings (size 3 to 8) (size 9 to 14) (size 15 to 20)
#    0.000    1.250    2.500    3.750    1.750    3.000 
#    4.500    0.000    0.000   15.000    0.000    0.000 
#    0.000    0.000    0.000    0.000    0.000    0.000 
#
# Total GULP energy -198413.421224 kJ/mol
# GULP energy per Si atom -12400.838826 kJ/mol
# Density = 2.135812 g / cm^3
# Si number density = 21.406842 Si / 1000 Ang^3
#
#
#
# Elastic Constant Matrix: (Units=GPa)
#
#
# Indices 1 2 3 4 5 6 
#
# 1 39.0694 -3.8876 -13.4062 -12.0651 -9.4608 -13.4394
# 2 -3.8876 100.9340 66.2471 19.0962 8.3691 19.1760
# 3 -13.4062 66.2471 167.1529 33.8958 -8.5304 29.3988
# 4 -12.0651 19.0962 33.8958 54.9067 -0.5383 20.0573
# 5 -9.4608 8.3691 -8.5304 -0.5383 38.3698 3.2315
# 6 -13.4394 19.1760 29.3988 20.0573 3.2315 42.8657
#
#
#
# Elastic Compliance Matrix: (Units=1/GPa)
#
#
# Indices 1 2 3 4 5 6 
#
# 1 0.031843 -0.002985 0.002026 0.004187 0.008394 0.007338
# 2 -0.002985 0.014599 -0.005528 -0.001403 -0.004946 -0.002646
# 3 0.002026 -0.005528 0.009497 -0.002535 0.003993 -0.002520
# 4 0.004187 -0.001403 -0.002535 0.024012 0.001759 -0.007689
# 5 0.008394 -0.004946 0.003993 0.001759 0.030207 -0.000995
# 6 0.007338 -0.002646 -0.002520 -0.007689 -0.000995 0.032214
#
#
# Mechanical properties :
#
#
# Convention : Reuss Voigt Hill
#
# Bulk Modulus (GPa) = 23.27508 45.00700 34.14104
# Shear Modulus (GPa) = 29.46926 44.44197 36.95562
#
# Velocity S-wave (km/s) = 3.71432 4.56133 4.15944
# Velocity P-wave (km/s) = 5.41214 6.98650 6.24910
#
# Compressibility (1/GPa) = 0.04296440
#
# Stress axis : x y z
#
# Youngs Moduli (GPa) = 31.40387 68.49812 105.29598
#
# Poissons Ratio (x) = 0.20449 -0.21332
# Poissons Ratio (y) = 0.09375 0.58207
# Poissons Ratio (z) = -0.06362 0.37865
#
# Static dielectric constant tensor:
#      x y z
#    x 4.189990 -0.282060 -0.407520 
#    y -0.282060 3.910460 0.277000 
#    z -0.407520 0.277000 4.308280 
# 
# 
# High freq. dielectric constant tensor:
#      x y z
#    x 1.838190 -0.009980 -0.004420 
#    y -0.009980 1.822830 0.003600 
#    z -0.004420 0.003600 1.859890 
# 
# From -- ./inp_files/217785.got.cif
#   From: 2010.06.25/outbox.cif.g09.slc.cpg/sg2_109_cif.got.tgz:217785.got - 2010.06.27 13:26:56.
