data_PCOD8009726
_publ_section_title
;
Structure prediction by ZEFSAII (Michael W. Deem and Ramdas Pophale) SiO2 
 PCOD8009726
Probable space group: P -1
;
_chemical_formula_sum "Si O2"
_cell_formula_units_Z 16
_cell_length_a 6.152251
_cell_length_b 15.514372
_cell_length_c 14.574585
_cell_angle_alpha 37.546968
_cell_angle_beta 116.189717
_cell_angle_gamma 118.923439
_cell_volume 737.637124
_symmetry_space_group_name_H-M "P -1"
_symmetry_group_IT_number 2
_symmetry_cell_setting 'triclinic'
loop_
_space_group_symop_operation_xyz
x,y,z
-x,-y,-z
loop_
_atom_site_type_symbol
_atom_site_label
_atom_site_fract_x
_atom_site_fract_y
_atom_site_fract_z
Si Si1 0.697145 0.607359 0.843442
Si Si2 0.004417 0.667897 0.365881
Si Si3 0.938012 0.655021 0.660854
Si Si4 0.872174 0.171791 0.934456
Si Si5 0.668404 0.855592 0.197834
Si Si6 0.443405 0.857999 0.549555
Si Si7 0.529838 0.801170 0.416402
Si Si8 0.820727 0.594267 0.081132
O O1 0.909764 0.639680 0.778628
O O2 0.565473 0.739957 0.720142
O O3 0.473895 0.463020 0.899373
O O4 0.841099 0.593326 0.975722
O O5 0.009001 0.743850 0.204600
O O6 0.238693 0.729732 0.420868
O O7 0.000000 0.500000 0.500000
O O8 0.770738 0.709155 0.338279
O O9 0.674445 0.671642 0.557952
O O10 0.144169 0.798592 0.547014
O O11 0.017064 0.513099 0.756512
O O12 0.581735 0.177784 0.882888
O O13 0.048355 0.246772 0.988144
O O14 0.870569 0.999416 0.077521
O O15 0.609205 0.893007 0.260747
O O16 0.561226 0.894759 0.437722
O O17 0.500000 0.000000 0.500000
#
# Coordination Sequence:
#
# PCOD8009726 Si02
#       8
#     2   2   2   2   2   2   2   2
#     4   9  21  38  56  90 124 162 214 259 318 379
#     4  11  25  39  67  96 128 167 216 266 321 379
#     4  10  21  37  61  86 127 158 212 266 313 378
#     4  10  24  40  65  91 128 173 212 260 328 380
#     4  10  23  45  60  94 133 166 215 268 317 394
#     4  10  22  39  61  92 125 163 209 265 319 378
#     4  10  23  39  63  92 125 167 210 265 321 375
#     4  10  21  37  60  86 123 166 211 262 314 384
#
# _framework density 21.690881000000001
#
# number of rings (size 3 to 8) (size 9 to 14) (size 15 to 20)
#    0.000    2.000    0.000    1.500    8.750    6.000 
#    0.000    0.000    0.000    0.000    0.000    0.000 
#    0.000    0.000    0.000    0.000    0.000    0.000 
#
# Total GULP energy -198306.028846 kJ/mol
# GULP energy per Si atom -12394.126803 kJ/mol
# Density = 2.164151 g / cm^3
# Si number density = 21.690881 Si / 1000 Ang^3
#
#
#
# Elastic Constant Matrix: (Units=GPa)
#
#
# Indices 1 2 3 4 5 6 
#
# 1 86.4860 31.6146 28.3735 -1.4423 -4.0018 -6.4819
# 2 31.6146 119.5060 40.4687 -4.4098 -0.0593 0.3384
# 3 28.3735 40.4687 84.0298 -1.6480 -4.6743 -3.5802
# 4 -1.4423 -4.4098 -1.6480 36.4113 -0.5536 3.3763
# 5 -4.0018 -0.0593 -4.6743 -0.5536 45.2228 4.4939
# 6 -6.4819 0.3384 -3.5802 3.3763 4.4939 22.5806
#
#
#
# Elastic Compliance Matrix: (Units=1/GPa)
#
#
# Indices 1 2 3 4 5 6 
#
# 1 0.013854 -0.002577 -0.003265 -0.000220 0.000542 0.003423
# 2 -0.002577 0.010546 -0.004284 0.001127 -0.000479 -0.001650
# 3 -0.003265 -0.004284 0.015185 -0.000066 0.001143 0.001317
# 4 -0.000220 0.001127 -0.000066 0.028011 0.000758 -0.004430
# 5 0.000542 -0.000479 0.001143 0.000758 0.022714 -0.004290
# 6 0.003423 -0.001650 0.001317 -0.004430 -0.004290 0.047018
#
#
# Mechanical properties :
#
#
# Convention : Reuss Voigt Hill
#
# Bulk Modulus (GPa) = 51.72546 54.54838 53.13692
# Shear Modulus (GPa) = 30.48356 33.48061 31.98209
#
# Velocity S-wave (km/s) = 3.75288 3.93305 3.84402
# Velocity P-wave (km/s) = 6.53278 6.76962 6.65226
#
# Compressibility (1/GPa) = 0.01933284
#
# Stress axis : x y z
#
# Youngs Moduli (GPa) = 72.18321 94.82179 65.85648
#
# Poissons Ratio (x) = 0.24433 0.21503
# Poissons Ratio (y) = 0.18600 0.28212
# Poissons Ratio (z) = 0.23569 0.40620
#
# Static dielectric constant tensor:
#      x y z
#    x 4.011940 0.052780 -0.039200 
#    y 0.052780 3.669300 0.147060 
#    z -0.039200 0.147060 4.045060 
# 
# 
# High freq. dielectric constant tensor:
#      x y z
#    x 1.856870 0.000340 -0.000130 
#    y 0.000340 1.828290 0.015650 
#    z -0.000130 0.015650 1.858980 
# 
# From -- ./inp_files/98155.got.cif
#   From: 2010.06.25/outbox.cif.g09.slc.cpg/sg2_50_cif.got.tgz:98155.got - 2010.06.27 13:26:56.
