data_PCOD8009607
_publ_section_title
;
Structure prediction by ZEFSAII (Michael W. Deem and Ramdas Pophale) SiO2 
 PCOD8009607
Probable space group: P -1
;
_chemical_formula_sum "Si O2"
_cell_formula_units_Z 16
_cell_length_a 12.633571
_cell_length_b 27.893930
_cell_length_c 28.513332
_cell_angle_alpha 9.756125
_cell_angle_beta 26.067656
_cell_angle_gamma 26.691729
_cell_volume 743.724094
_symmetry_space_group_name_H-M "P -1"
_symmetry_group_IT_number 2
_symmetry_cell_setting 'triclinic'
loop_
_space_group_symop_operation_xyz
x,y,z
-x,-y,-z
loop_
_atom_site_type_symbol
_atom_site_label
_atom_site_fract_x
_atom_site_fract_y
_atom_site_fract_z
Si Si1 0.846854 0.650839 0.226296
Si Si2 0.487823 0.307306 0.261366
Si Si3 0.137689 0.169936 0.614711
Si Si4 0.355391 0.773705 0.349161
Si Si5 0.723723 0.614711 0.169936
Si Si6 0.170765 0.150080 0.727295
Si Si7 0.680264 0.272705 0.849920
Si Si8 0.237491 0.261366 0.307306
O O1 0.582058 0.806529 0.193471
O O2 0.839778 0.415055 0.415056
O O3 0.949790 0.458122 0.415177
O O4 0.013686 0.896012 0.908644
O O5 0.346731 0.260760 0.410068
O O6 0.310808 0.297298 0.297298
O O7 0.728540 0.078192 0.386185
O O8 0.586047 0.613815 0.921808
O O9 0.234488 0.101683 0.694060
O O10 0.442987 0.584824 0.541877
O O11 0.232312 0.091357 0.103987
O O12 0.582539 0.694060 0.101683
O O13 0.969958 0.410068 0.260760
O O14 0.241101 0.439725 0.439724
O O15 0.883868 0.126046 0.873954
O O16 0.340691 0.914827 0.914827
#
# Coordination Sequence:
#
# PCOD8009607 Si02
#       8
#     2   2   2   2   2   2   2   2
#     4  11  23  36  54  87 125 156 190 233 290 367
#     4  10  22  40  61  87 117 153 201 252 299 352
#     4  12  22  38  63  84 116 162 202 241 299 355
#     4  11  23  36  54  87 125 156 190 233 290 367
#     4  12  22  38  63  84 116 162 202 241 299 355
#     4  10  21  37  58  86 118 153 198 247 293 349
#     4  10  21  37  58  86 118 153 198 247 293 349
#     4  10  22  40  61  87 117 153 201 252 299 352
#
# _framework density 21.513355000000001
#
# number of rings (size 3 to 8) (size 9 to 14) (size 15 to 20)
#    0.000    1.250    0.000    6.750    0.000    8.000 
#    0.000    0.000    0.000    4.500    0.000    0.000 
#    0.000    0.000    0.000    0.000    0.000    0.000 
#
# Total GULP energy -198298.621509 kJ/mol
# GULP energy per Si atom -12393.663844 kJ/mol
# Density = 2.146439 g / cm^3
# Si number density = 21.513355 Si / 1000 Ang^3
#
#
#
# Elastic Constant Matrix: (Units=GPa)
#
#
# Indices 1 2 3 4 5 6 
#
# 1 97.9892 55.0231 28.9545 4.6469 23.7429 -4.3527
# 2 55.0231 94.5960 28.2290 2.3084 12.7442 -6.8216
# 3 28.9545 28.2290 111.3917 -3.7129 21.9619 0.9597
# 4 4.6469 2.3084 -3.7129 30.9504 1.1432 13.0199
# 5 23.7429 12.7442 21.9619 1.1432 39.6288 -2.7525
# 6 -4.3527 -6.8216 0.9597 13.0199 -2.7525 24.9626
#
#
#
# Elastic Compliance Matrix: (Units=1/GPa)
#
#
# Indices 1 2 3 4 5 6 
#
# 1 0.017151 -0.008621 -0.001019 -0.002269 -0.006796 0.001108
# 2 -0.008621 0.016440 -0.002335 -0.002095 0.001534 0.004341
# 3 -0.001019 -0.002335 0.010972 0.003312 -0.005060 -0.003523
# 4 -0.002269 -0.002095 0.003312 0.043418 -0.002725 -0.024042
# 5 -0.006796 0.001534 -0.005060 -0.002725 0.031999 0.004378
# 6 0.001108 0.004341 -0.003523 -0.024042 0.004378 0.054597
#
#
# Mechanical properties :
#
#
# Convention : Reuss Voigt Hill
#
# Bulk Modulus (GPa) = 48.51171 58.71002 53.61087
# Shear Modulus (GPa) = 24.34293 31.89305 28.11799
#
# Velocity S-wave (km/s) = 3.36747 3.85447 3.61917
# Velocity P-wave (km/s) = 6.14152 6.86721 6.51448
#
# Compressibility (1/GPa) = 0.02061358
#
# Stress axis : x y z
#
# Youngs Moduli (GPa) = 58.30682 60.82674 91.13965
#
# Poissons Ratio (x) = 0.52439 0.09283
# Poissons Ratio (y) = 0.50267 0.21282
# Poissons Ratio (z) = 0.05939 0.14203
#
# Static dielectric constant tensor:
#      x y z
#    x 3.655090 -0.046010 0.270210 
#    y -0.046010 3.610920 -0.117110 
#    z 0.270210 -0.117110 4.294600 
# 
# 
# High freq. dielectric constant tensor:
#      x y z
#    x 1.816430 -0.004090 0.022640 
#    y -0.004090 1.822050 -0.009240 
#    z 0.022640 -0.009240 1.876180 
# 
# From -- ./inp_files/618846.got.cif
#   From: 2010.06.25/outbox.cif.g09.slc.cpg/sg2_310_cif.got.tgz:618846.got - 2010.06.27 13:26:56.
