data_PCOD8009066
_publ_section_title
;
Structure prediction by ZEFSAII (Michael W. Deem and Ramdas Pophale) SiO2 
 PCOD8009066
Probable space group: P -1
;
_chemical_formula_sum "Si O2"
_cell_formula_units_Z 14
_cell_length_a 9.068943
_cell_length_b 11.629293
_cell_length_c 7.574738
_cell_angle_alpha 67.055291
_cell_angle_beta 128.600219
_cell_angle_gamma 97.390303
_cell_volume 567.602761
_symmetry_space_group_name_H-M "P -1"
_symmetry_group_IT_number 2
_symmetry_cell_setting 'triclinic'
loop_
_space_group_symop_operation_xyz
x,y,z
-x,-y,-z
loop_
_atom_site_type_symbol
_atom_site_label
_atom_site_fract_x
_atom_site_fract_y
_atom_site_fract_z
Si Si1 0.754566 0.173266 0.875573
Si Si2 0.322347 0.901233 0.523004
Si Si3 0.339711 0.555171 0.483408
Si Si4 0.032213 0.525090 0.804826
Si Si5 0.383375 0.330186 0.178988
Si Si6 0.644690 0.845822 0.427630
Si Si7 0.953787 0.191059 0.358316
O O1 0.762087 0.097427 0.740881
O O2 0.773824 0.316046 0.758381
O O3 0.551376 0.156932 0.825495
O O4 0.914974 0.134604 0.167409
O O5 0.508846 0.793870 0.768507
O O6 0.148359 0.880556 0.530364
O O7 0.383116 0.035964 0.528835
O O8 0.500000 0.500000 0.500000
O O9 0.453287 0.579745 0.731280
O O10 0.172865 0.471405 0.449438
O O11 0.108271 0.658090 0.758467
O O12 0.192426 0.413717 0.905914
O O13 0.000000 0.500000 0.000000
O O14 0.321551 0.282355 0.353592
O O15 0.818067 0.845714 0.421184
#
# Coordination Sequence:
#
# PCOD8009066 Si02
#       7
#     2   2   2   2   2   2   2
#     4  10  21  39  61  86 118 161 199 238 307 352
#     4  10  24  41  59  92 124 154 203 251 293 353
#     4  10  16  31  56  85 113 148 196 237 284 353
#     4  12  19  34  61  92 113 159 201 236 301 360
#     4  10  20  37  60  85 121 156 196 245 296 356
#     4  10  20  41  64  86 121 161 199 247 298 355
#     4  12  23  39  64  90 121 158 200 250 298 354
#
# _framework density 24.665137999999999
#
# number of rings (size 3 to 8) (size 9 to 14) (size 15 to 20)
#    0.000    1.714    4.286    3.000    0.000    1.714 
#    0.000   11.429    0.000    0.857    0.000    0.000 
#    0.000    0.000    0.000    0.000    0.000    0.000 
#
# Total GULP energy -173439.876093 kJ/mol
# GULP energy per Si atom -12388.562578 kJ/mol
# Density = 2.460900 g / cm^3
# Si number density = 24.665138 Si / 1000 Ang^3
#
#
#
# Elastic Constant Matrix: (Units=GPa)
#
#
# Indices 1 2 3 4 5 6 
#
# 1 66.1873 -5.5245 27.6056 12.6417 10.4599 1.7707
# 2 -5.5245 104.7003 23.3603 10.0459 5.7522 5.9095
# 3 27.6056 23.3603 55.9356 14.9134 19.6059 7.5798
# 4 12.6417 10.0459 14.9134 22.9570 1.6032 14.9155
# 5 10.4599 5.7522 19.6059 1.6032 29.1790 0.2591
# 6 1.7707 5.9095 7.5798 14.9155 0.2591 35.3058
#
#
#
# Elastic Compliance Matrix: (Units=1/GPa)
#
#
# Indices 1 2 3 4 5 6 
#
# 1 0.021594 0.004119 -0.009747 -0.010301 -0.001479 0.004683
# 2 0.004119 0.011420 -0.006070 -0.003899 0.000558 0.000829
# 3 -0.009747 -0.006070 0.035231 -0.013424 -0.018241 -0.000254
# 4 -0.010301 -0.003899 -0.013424 0.077753 0.009466 -0.028866
# 5 -0.001479 0.000558 -0.018241 0.009466 0.046432 -0.000443
# 6 0.004683 0.000829 -0.000254 -0.028866 -0.000443 0.040203
#
#
# Mechanical properties :
#
#
# Convention : Reuss Voigt Hill
#
# Bulk Modulus (GPa) = 22.29755 35.30068 28.79912
# Shear Modulus (GPa) = 18.45174 29.58047 24.01611
#
# Velocity S-wave (km/s) = 2.73809 3.46682 3.12378
# Velocity P-wave (km/s) = 4.36531 5.51073 4.97112
#
# Compressibility (1/GPa) = 0.04484798
#
# Stress axis : x y z
#
# Youngs Moduli (GPa) = 46.30950 87.56906 28.38446
#
# Poissons Ratio (x) = -0.36074 0.27667
# Poissons Ratio (y) = -0.19077 0.17230
# Poissons Ratio (z) = 0.45139 0.53157
#
# Static dielectric constant tensor:
#      x y z
#    x 4.297970 0.179490 0.462670 
#    y 0.179490 4.834590 0.182100 
#    z 0.462670 0.182100 4.079430 
# 
# 
# High freq. dielectric constant tensor:
#      x y z
#    x 1.975050 0.012230 0.034390 
#    y 0.012230 1.998670 0.002830 
#    z 0.034390 0.002830 1.938360 
# 
# From -- ./inp_files/176938.got.cif
#   From: 2010.06.25/outbox.cif.g09.slc.cpg/sg2_89_cif.got.tgz:176938.got - 2010.06.27 13:26:56.
