data_PCOD8009645
_publ_section_title
;
Structure prediction by ZEFSAII (Michael W. Deem and Ramdas Pophale) SiO2 
 PCOD8009645
Probable space group: P -1
;
_chemical_formula_sum "Si O2"
_cell_formula_units_Z 16
_cell_length_a 22.578212
_cell_length_b 14.315847
_cell_length_c 10.853659
_cell_angle_alpha 126.249956
_cell_angle_beta 30.776646
_cell_angle_gamma 147.196009
_cell_volume 857.383714
_symmetry_space_group_name_H-M "P -1"
_symmetry_group_IT_number 2
_symmetry_cell_setting 'triclinic'
loop_
_space_group_symop_operation_xyz
x,y,z
-x,-y,-z
loop_
_atom_site_type_symbol
_atom_site_label
_atom_site_fract_x
_atom_site_fract_y
_atom_site_fract_z
Si Si1 0.120726 0.909414 0.218446
Si Si2 0.992023 0.632749 0.862404
Si Si3 0.205054 0.352828 0.601300
Si Si4 0.976243 0.027930 0.319405
Si Si5 0.372065 0.234408 0.823032
Si Si6 0.206072 0.762881 0.108587
Si Si7 0.138633 0.855847 0.543132
Si Si8 0.605781 0.951151 0.543333
O O1 0.181546 0.831520 0.093688
O O2 0.914840 0.736180 0.380742
O O3 0.096898 0.977660 0.426738
O O4 0.294099 0.097040 0.969885
O O5 0.955055 0.466384 0.798731
O O6 0.974749 0.668882 0.781488
O O7 0.837828 0.571201 0.177656
O O8 0.211201 0.833316 0.678393
O O9 0.435670 0.538795 0.303639
O O10 0.141659 0.186324 0.658549
O O11 0.934140 0.077712 0.319349
O O12 0.208030 0.192202 0.038068
O O13 0.430367 0.197542 0.578143
O O14 0.171939 0.797017 0.325364
O O15 0.420848 0.884084 0.814857
O O16 0.341195 0.034169 0.396800
#
# Coordination Sequence:
#
# PCOD8009645 Si02
#       8
#     2   2   2   2   2   2   2   2
#     4  10  23  38  60  84 118 147 187 237 285 331
#     4  10  21  37  59  83 116 152 185 231 283 331
#     4  11  21  39  59  85 116 149 191 233 281 338
#     4  10  21  41  59  86 113 149 188 236 287 332
#     4  11  21  39  59  85 116 149 191 233 281 338
#     4  11  21  39  59  88 112 152 191 228 283 343
#     4   9  21  40  60  82 121 146 184 241 281 330
#     4  10  21  37  59  83 116 152 185 231 283 331
#
# _framework density 18.661422999999999
#
# number of rings (size 3 to 8) (size 9 to 14) (size 15 to 20)
#    0.750    1.000    3.750    2.250    0.000    6.000 
#    2.250    3.750    0.000    0.000    0.000    0.000 
#    0.000    0.000    0.000    0.000    0.000    0.000 
#
# Total GULP energy -198378.774191 kJ/mol
# GULP energy per Si atom -12398.673387 kJ/mol
# Density = 1.861895 g / cm^3
# Si number density = 18.661423 Si / 1000 Ang^3
#
#
#
# Elastic Constant Matrix: (Units=GPa)
#
#
# Indices 1 2 3 4 5 6 
#
# 1 64.0367 24.0420 18.3872 -5.1157 -21.4606 -15.3176
# 2 24.0420 52.5411 13.2222 -8.1495 -8.5100 0.4128
# 3 18.3872 13.2222 36.0572 -15.6275 -12.4252 2.2211
# 4 -5.1157 -8.1495 -15.6275 38.9842 4.0583 -3.9291
# 5 -21.4606 -8.5100 -12.4252 4.0583 26.4323 5.0846
# 6 -15.3176 0.4128 2.2211 -3.9291 5.0846 21.8838
#
#
#
# Elastic Compliance Matrix: (Units=1/GPa)
#
#
# Indices 1 2 3 4 5 6 
#
# 1 0.031424 -0.010096 -0.009054 -0.001148 0.014423 0.019548
# 2 -0.010096 0.024630 -0.002763 0.002099 -0.000593 -0.006737
# 3 -0.009054 -0.002763 0.044293 0.013532 0.012676 -0.011296
# 4 -0.001148 0.002099 0.013532 0.031636 0.000609 0.003322
# 5 0.014423 -0.000593 0.012676 0.000609 0.056002 -0.004083
# 6 0.019548 -0.006737 -0.011296 0.003322 -0.004083 0.062197
#
#
# Mechanical properties :
#
#
# Convention : Reuss Voigt Hill
#
# Bulk Modulus (GPa) = 17.69239 29.32642 23.50941
# Shear Modulus (GPa) = 15.98221 23.92561 19.95391
#
# Velocity S-wave (km/s) = 2.92966 3.58451 3.27350
# Velocity P-wave (km/s) = 4.57659 5.73417 5.18777
#
# Compressibility (1/GPa) = 0.05652147
#
# Stress axis : x y z
#
# Youngs Moduli (GPa) = 31.82297 40.60011 22.57715
#
# Poissons Ratio (x) = 0.40991 0.20440
# Poissons Ratio (y) = 0.32129 0.06238
# Poissons Ratio (z) = 0.28811 0.11217
#
# Static dielectric constant tensor:
#      x y z
#    x 3.402650 -0.000550 -0.030680 
#    y -0.000550 3.451970 0.091890 
#    z -0.030680 0.091890 3.376230 
# 
# 
# High freq. dielectric constant tensor:
#      x y z
#    x 1.718070 0.003790 0.001340 
#    y 0.003790 1.729940 0.010380 
#    z 0.001340 0.010380 1.727270 
# 
# From -- ./inp_files/438913.got.cif
#   From: 2010.06.25/outbox.cif.g09.slc.cpg/sg2_220_cif.got.tgz:438913.got - 2010.06.27 13:26:56.
