data_PCOD8009199
_publ_section_title
;
Structure prediction by ZEFSAII (Michael W. Deem and Ramdas Pophale) SiO2 
 PCOD8009199
Probable space group: P -1
;
_chemical_formula_sum "Si O2"
_cell_formula_units_Z 16
_cell_length_a 12.044831
_cell_length_b 9.275479
_cell_length_c 14.046240
_cell_angle_alpha 52.493155
_cell_angle_beta 41.173562
_cell_angle_gamma 75.749189
_cell_volume 748.897461
_symmetry_space_group_name_H-M "P -1"
_symmetry_group_IT_number 2
_symmetry_cell_setting 'triclinic'
loop_
_space_group_symop_operation_xyz
x,y,z
-x,-y,-z
loop_
_atom_site_type_symbol
_atom_site_label
_atom_site_fract_x
_atom_site_fract_y
_atom_site_fract_z
Si Si1 0.190530 0.571391 0.401530
Si Si2 0.288701 0.014100 0.688882
Si Si3 0.377466 0.997646 0.168644
Si Si4 0.932675 0.747358 0.233075
Si Si5 0.657564 0.990607 0.135272
Si Si6 0.465587 0.421194 0.945565
Si Si7 0.374958 0.667973 0.749156
Si Si8 0.683016 0.606666 0.277655
O O1 0.212895 0.779285 0.354887
O O2 0.183524 0.420512 0.549790
O O3 0.348119 0.576884 0.223812
O O4 0.000000 0.500000 0.500000
O O5 0.104475 0.054391 0.801974
O O6 0.400103 0.069771 0.694295
O O7 0.419856 0.158580 0.465913
O O8 0.236277 0.780058 0.799867
O O9 0.495119 0.030741 0.175779
O O10 0.500000 0.000000 0.000000
O O11 0.320040 0.186393 0.130142
O O12 0.861469 0.664835 0.207062
O O13 0.151361 0.811297 0.075004
O O14 0.677829 0.800977 0.150640
O O15 0.378147 0.549045 0.890967
O O16 0.500000 0.500000 0.000000
O O17 0.302022 0.527417 0.762980
O O18 0.500000 0.500000 0.500000
#
# Coordination Sequence:
#
# PCOD8009199 Si02
#       8
#     2   2   2   2   2   2   2   2
#     4  11  23  41  65  94 124 162 209 263 311 367
#     4  10  21  36  58  90 124 158 200 244 312 363
#     4  10  21  38  63  91 118 163 211 252 310 372
#     4  11  21  38  59  91 128 157 203 258 309 367
#     4  11  21  37  62  90 124 161 206 253 308 373
#     4  11  22  41  64  92 126 169 211 256 310 376
#     4  11  21  36  60  90 122 160 201 253 305 369
#     4  11  18  34  58  87 119 158 204 250 302 364
#
# _framework density 21.364740000000001
#
# number of rings (size 3 to 8) (size 9 to 14) (size 15 to 20)
#    0.000    1.250    3.750    6.000    0.000    0.000 
#    0.000    3.125    0.000    4.500    0.000    0.000 
#    0.000    0.000    0.000    0.000    0.000    0.000 
#
# Total GULP energy -198298.826372 kJ/mol
# GULP energy per Si atom -12393.676648 kJ/mol
# Density = 2.131611 g / cm^3
# Si number density = 21.364740 Si / 1000 Ang^3
#
#
#
# Elastic Constant Matrix: (Units=GPa)
#
#
# Indices 1 2 3 4 5 6 
#
# 1 97.0401 51.5260 39.9206 -17.5708 10.9990 0.4182
# 2 51.5260 153.5004 34.8790 -32.7113 11.8962 15.4373
# 3 39.9206 34.8790 75.2001 -19.9005 4.7923 5.0817
# 4 -17.5708 -32.7113 -19.9005 32.8184 -0.6386 3.8005
# 5 10.9990 11.8962 4.7923 -0.6386 39.8753 -4.1211
# 6 0.4182 15.4373 5.0817 3.8005 -4.1211 27.3259
#
#
#
# Elastic Compliance Matrix: (Units=1/GPa)
#
#
# Indices 1 2 3 4 5 6 
#
# 1 0.015128 -0.003713 -0.006303 0.000225 -0.002025 0.002701
# 2 -0.003713 0.010808 0.000272 0.009808 -0.002892 -0.007900
# 3 -0.006303 0.000272 0.019366 0.009210 -0.001049 -0.005098
# 4 0.000225 0.009808 0.009210 0.047548 -0.004842 -0.014601
# 5 -0.002025 -0.002892 -0.001049 -0.004842 0.027234 0.006641
# 6 0.002701 -0.007900 -0.005098 -0.014601 0.006641 0.044997
#
#
# Mechanical properties :
#
#
# Convention : Reuss Voigt Hill
#
# Bulk Modulus (GPa) = 38.73781 64.26574 51.50178
# Shear Modulus (GPa) = 25.88338 33.29826 29.59082
#
# Velocity S-wave (km/s) = 3.48444 3.95214 3.72564
# Velocity P-wave (km/s) = 5.86169 7.13943 6.53188
#
# Compressibility (1/GPa) = 0.02581457
#
# Stress axis : x y z
#
# Youngs Moduli (GPa) = 66.10363 92.52452 51.63629
#
# Poissons Ratio (x) = 0.34352 0.32545
# Poissons Ratio (y) = 0.24543 -0.01403
# Poissons Ratio (z) = 0.41663 -0.02515
#
# Static dielectric constant tensor:
#      x y z
#    x 3.847950 0.112340 0.318140 
#    y 0.112340 4.362610 -0.510450 
#    z 0.318140 -0.510450 3.957490 
# 
# 
# High freq. dielectric constant tensor:
#      x y z
#    x 1.831320 0.005310 0.023590 
#    y 0.005310 1.843450 -0.026970 
#    z 0.023590 -0.026970 1.826550 
# 
# From -- ./inp_files/336177.got.cif
#   From: 2010.06.25/outbox.cif.g09.slc.cpg/sg2_169_cif.got.tgz:336177.got - 2010.06.27 13:26:56.
