data_PCOD8009306
_publ_section_title
;
Structure prediction by ZEFSAII (Michael W. Deem and Ramdas Pophale) SiO2 
 PCOD8009306
Probable space group: P -1
;
_chemical_formula_sum "Si O2"
_cell_formula_units_Z 16
_cell_length_a 4.941682
_cell_length_b 6.287959
_cell_length_c 29.552034
_cell_angle_alpha 114.679519
_cell_angle_beta 109.657101
_cell_angle_gamma 101.434513
_cell_volume 721.593958
_symmetry_space_group_name_H-M "P -1"
_symmetry_group_IT_number 2
_symmetry_cell_setting 'triclinic'
loop_
_space_group_symop_operation_xyz
x,y,z
-x,-y,-z
loop_
_atom_site_type_symbol
_atom_site_label
_atom_site_fract_x
_atom_site_fract_y
_atom_site_fract_z
Si Si1 0.881724 0.335966 0.292177
Si Si2 0.187779 0.361136 0.879104
Si Si3 0.797426 0.862307 0.433948
Si Si4 0.349457 0.175569 0.086455
Si Si5 0.493866 0.293079 0.348872
Si Si6 0.185355 0.904676 0.377233
Si Si7 0.538682 0.026203 0.837554
Si Si8 0.147109 0.676771 0.981448
O O1 0.697291 0.206925 0.316833
O O2 0.681007 0.202991 0.225811
O O3 0.212234 0.312616 0.305933
O O4 0.948665 0.634897 0.319737
O O5 0.316977 0.583589 0.868545
O O6 0.307301 0.519902 0.947367
O O7 0.334588 0.152093 0.863616
O O8 0.812683 0.231925 0.841434
O O9 0.730502 0.563106 0.406253
O O10 0.465689 0.883156 0.419943
O O11 0.982371 0.991299 0.409358
O O12 0.000000 0.000000 0.500000
O O13 0.271558 0.068193 0.123379
O O14 0.107362 0.284908 0.062562
O O15 0.380847 0.956853 0.036103
O O16 0.340259 0.099278 0.363209
O O17 0.000000 0.500000 0.000000
#
# Coordination Sequence:
#
# PCOD8009306 Si02
#       8
#     2   2   2   2   2   2   2   2
#     4  10  23  42  61  89 120 166 212 269 307 369
#     4  12  25  46  63  99 125 161 203 262 316 390
#     4  10  21  36  60  98 135 164 211 265 308 367
#     4  11  25  43  70  96 125 168 205 254 323 393
#     4  10  21  41  65  88 126 171 216 256 316 370
#     4  10  21  39  62  90 124 174 216 251 315 375
#     4  12  27  43  67  93 130 158 216 269 321 373
#     4  11  23  47  69  94 130 166 202 254 320 399
#
# _framework density 22.173133
#
# number of rings (size 3 to 8) (size 9 to 14) (size 15 to 20)
#    0.000    1.250    2.500    2.250    1.750    5.000 
#    0.000    0.000    0.000    0.000    0.000    0.000 
#    0.000    0.000    0.000    0.000    0.000    0.000 
#
# Total GULP energy -198338.892175 kJ/mol
# GULP energy per Si atom -12396.180761 kJ/mol
# Density = 2.212267 g / cm^3
# Si number density = 22.173133 Si / 1000 Ang^3
#
#
#
# Elastic Constant Matrix: (Units=GPa)
#
#
# Indices 1 2 3 4 5 6 
#
# 1 99.6957 20.7076 38.6630 9.7216 -5.3010 12.3809
# 2 20.7076 96.1161 54.7120 7.5343 -6.5053 17.4893
# 3 38.6630 54.7120 158.1859 13.1062 9.7210 1.0832
# 4 9.7216 7.5343 13.1062 19.6241 5.7703 2.3502
# 5 -5.3010 -6.5053 9.7210 5.7703 31.6771 1.5944
# 6 12.3809 17.4893 1.0832 2.3502 1.5944 32.0993
#
#
#
# Elastic Compliance Matrix: (Units=1/GPa)
#
#
# Indices 1 2 3 4 5 6 
#
# 1 0.012414 0.000651 -0.003074 -0.005031 0.004317 -0.004885
# 2 0.000651 0.015732 -0.005639 -0.003355 0.006119 -0.008691
# 3 -0.003074 -0.005639 0.009417 -0.001807 -0.004449 0.004294
# 4 -0.005031 -0.003355 -0.001807 0.059407 -0.011801 0.000066
# 5 0.004317 0.006119 -0.004449 -0.011801 0.037357 -0.005840
# 6 -0.004885 -0.008691 0.004294 0.000066 -0.005840 0.037913
#
#
# Mechanical properties :
#
#
# Convention : Reuss Voigt Hill
#
# Bulk Modulus (GPa) = 46.64415 64.68478 55.66446
# Shear Modulus (GPa) = 25.57387 32.67443 29.12415
#
# Velocity S-wave (km/s) = 3.39982 3.84292 3.62814
# Velocity P-wave (km/s) = 6.04100 6.99476 6.53530
#
# Compressibility (1/GPa) = 0.02143892
#
# Stress axis : x y z
#
# Youngs Moduli (GPa) = 80.55149 63.56395 106.18830
#
# Poissons Ratio (x) = -0.04137 0.32647
# Poissons Ratio (y) = -0.05243 0.59879
# Poissons Ratio (z) = 0.24765 0.35843
#
# Static dielectric constant tensor:
#      x y z
#    x 4.210130 0.154260 -0.073910 
#    y 0.154260 4.045030 0.253820 
#    z -0.073910 0.253820 3.860240 
# 
# 
# High freq. dielectric constant tensor:
#      x y z
#    x 1.882580 0.016040 -0.002190 
#    y 0.016040 1.871930 0.016720 
#    z -0.002190 0.016720 1.859960 
# 
# From -- ./inp_files/13180.got.cif
#   From: 2010.06.25/outbox.cif.g09.slc.cpg/sg2_7_cif.got.tgz:13180.got - 2010.06.27 13:26:56.
