data_PCOD8009478
_publ_section_title
;
Structure prediction by ZEFSAII (Michael W. Deem and Ramdas Pophale) SiO2 
 PCOD8009478
Probable space group: P -1
;
_chemical_formula_sum "Si O2"
_cell_formula_units_Z 16
_cell_length_a 4.994201
_cell_length_b 9.154336
_cell_length_c 19.943691
_cell_angle_alpha 104.887354
_cell_angle_beta 120.595117
_cell_angle_gamma 79.986393
_cell_volume 757.496812
_symmetry_space_group_name_H-M "P -1"
_symmetry_group_IT_number 2
_symmetry_cell_setting 'triclinic'
loop_
_space_group_symop_operation_xyz
x,y,z
-x,-y,-z
loop_
_atom_site_type_symbol
_atom_site_label
_atom_site_fract_x
_atom_site_fract_y
_atom_site_fract_z
Si Si1 0.720297 0.135089 0.534909
Si Si2 0.325335 0.380059 0.768079
Si Si3 0.316490 0.756047 0.322937
Si Si4 0.440765 0.118044 0.219648
Si Si5 0.774481 0.198313 0.893297
Si Si6 0.357526 0.959394 0.622739
Si Si7 0.482415 0.171530 0.993583
Si Si8 0.206134 0.720459 0.826998
O O1 0.619993 0.269284 0.591027
O O2 0.675645 0.172630 0.454138
O O3 0.500000 0.000000 0.500000
O O4 0.071768 0.082227 0.592502
O O5 0.438239 0.342525 0.702274
O O6 0.597776 0.340183 0.851435
O O7 0.233845 0.556566 0.778133
O O8 0.034013 0.285763 0.743019
O O9 0.340461 0.937138 0.333583
O O10 0.628250 0.124261 0.314179
O O11 0.676729 0.155923 0.195314
O O12 0.153584 0.241056 0.197311
O O13 0.318699 0.952565 0.173662
O O14 0.713043 0.190846 0.963447
O O15 0.137559 0.222418 0.932321
O O16 0.592541 0.278875 0.079495
O O17 0.500000 0.000000 0.000000
#
# Coordination Sequence:
#
# PCOD8009478 Si02
#       8
#     2   2   2   2   2   2   2   2
#     4   9  19  35  63 105 132 156 200 279 311 354
#     4  12  26  42  63  96 129 172 216 259 318 379
#     4  11  20  39  65  91 133 165 204 260 316 367
#     4  12  23  41  67  94 127 166 215 264 313 385
#     4  12  23  39  71  92 118 170 219 264 316 380
#     4  10  21  36  66 106 125 160 215 267 311 367
#     4  12  23  42  65  93 126 163 211 274 325 370
#     4  12  28  43  62  92 134 170 209 266 328 377
#
# _framework density 21.122199999999999
#
# number of rings (size 3 to 8) (size 9 to 14) (size 15 to 20)
#    0.000    0.750    5.000    2.625    5.250    1.000 
#    0.000    0.000    0.000    4.500    0.000    0.000 
#    0.000    0.000    0.000    0.000    0.000    0.000 
#
# Total GULP energy -198372.882494 kJ/mol
# GULP energy per Si atom -12398.305156 kJ/mol
# Density = 2.107413 g / cm^3
# Si number density = 21.122200 Si / 1000 Ang^3
#
#
#
# Elastic Constant Matrix: (Units=GPa)
#
#
# Indices 1 2 3 4 5 6 
#
# 1 88.1903 7.1726 26.7548 3.2068 -7.5936 0.7808
# 2 7.1726 37.5265 23.1023 -0.0229 -4.0158 -9.7116
# 3 26.7548 23.1023 124.8982 -4.0648 -19.4537 3.3702
# 4 3.2068 -0.0229 -4.0648 20.4791 0.2183 -4.3379
# 5 -7.5936 -4.0158 -19.4537 0.2183 51.4853 3.4787
# 6 0.7808 -9.7116 3.3702 -4.3379 3.4787 16.6264
#
#
#
# Elastic Compliance Matrix: (Units=1/GPa)
#
#
# Indices 1 2 3 4 5 6 
#
# 1 0.012343 -0.001317 -0.002288 -0.002784 0.000988 -0.001818
# 2 -0.001317 0.037867 -0.007550 0.004098 -0.001810 0.025158
# 3 -0.002288 -0.007550 0.010668 0.000954 0.003571 -0.006963
# 4 -0.002784 0.004098 0.000954 0.052938 -0.001060 0.016365
# 5 0.000988 -0.001810 0.003571 -0.001060 0.021224 -0.006545
# 6 -0.001818 0.025158 -0.006963 0.016365 -0.006545 0.081976
#
#
# Mechanical properties :
#
#
# Convention : Reuss Voigt Hill
#
# Bulk Modulus (GPa) = 25.92787 40.51938 33.22363
# Shear Modulus (GPa) = 19.82706 30.62385 25.22546
#
# Velocity S-wave (km/s) = 3.06712 3.81181 3.45956
# Velocity P-wave (km/s) = 4.98445 6.21274 5.63218
#
# Compressibility (1/GPa) = 0.03856853
#
# Stress axis : x y z
#
# Youngs Moduli (GPa) = 81.01918 26.40836 93.73618
#
# Poissons Ratio (x) = 0.03478 0.21447
# Poissons Ratio (y) = 0.10671 0.70766
# Poissons Ratio (z) = 0.18538 0.19937
#
# Static dielectric constant tensor:
#      x y z
#    x 2.579070 -0.433220 -0.736850 
#    y -0.433220 3.152040 -0.044930 
#    z -0.736850 -0.044930 4.271660 
# 
# 
# High freq. dielectric constant tensor:
#      x y z
#    x 1.852930 0.005920 -0.010590 
#    y 0.005920 1.768490 0.009260 
#    z -0.010590 0.009260 1.848770 
# 
# From -- ./inp_files/582451.got.cif
#   From: 2010.06.25/outbox.cif.g09.slc.cpg/sg2_292_cif.got.tgz:582451.got - 2010.06.27 13:26:56.
