data_PCOD8009640
_publ_section_title
;
Structure prediction by ZEFSAII (Michael W. Deem and Ramdas Pophale) SiO2 
 PCOD8009640
Probable space group: P -1
;
_chemical_formula_sum "Si O2"
_cell_formula_units_Z 14
_cell_length_a 9.319441
_cell_length_b 12.089317
_cell_length_c 15.059046
_cell_angle_alpha 97.835999
_cell_angle_beta 130.508828
_cell_angle_gamma 122.265463
_cell_volume 719.690828
_symmetry_space_group_name_H-M "P -1"
_symmetry_group_IT_number 2
_symmetry_cell_setting 'triclinic'
loop_
_space_group_symop_operation_xyz
x,y,z
-x,-y,-z
loop_
_atom_site_type_symbol
_atom_site_label
_atom_site_fract_x
_atom_site_fract_y
_atom_site_fract_z
Si Si1 0.201086 0.704982 0.817443
Si Si2 0.053654 0.996861 0.419776
Si Si3 0.582829 0.716670 0.857849
Si Si4 0.320891 0.731429 0.409225
Si Si5 0.758838 0.872129 0.760372
Si Si6 0.748542 0.622510 0.195980
Si Si7 0.850713 0.077264 0.212323
O O1 0.381010 0.721312 0.816652
O O2 0.067638 0.752360 0.722318
O O3 0.898171 0.487485 0.714343
O O4 0.454590 0.862653 0.015530
O O5 0.431247 0.143861 0.562266
O O6 0.966012 0.068646 0.344099
O O7 0.000000 0.000000 0.500000
O O8 0.806282 0.778042 0.264387
O O9 0.550405 0.711714 0.738037
O O10 0.418169 0.521144 0.802948
O O11 0.970407 0.908918 0.066155
O O12 0.521463 0.825092 0.593388
O O13 0.094802 0.732055 0.318400
O O14 0.944411 0.863068 0.784064
O O15 0.500000 0.500000 0.000000
#
# Coordination Sequence:
#
# PCOD8009640 Si02
#       7
#     2   2   2   2   2   2   2
#     4   9  18  34  57  79 104 142 186 233 281 329
#     4  11  24  38  55  84 118 149 189 235 278 337
#     4   9  19  34  56  83 108 142 188 231 276 328
#     4  10  21  37  59  81 108 150 194 235 285 329
#     4   9  18  34  55  84 110 136 185 241 281 324
#     4  11  22  40  60  80 117 159 190 224 279 349
#     4   9  19  37  54  75 112 147 178 226 290 334
#
# _framework density 19.4528
#
# number of rings (size 3 to 8) (size 9 to 14) (size 15 to 20)
#    0.000    2.286    0.000    3.857    0.000    8.000 
#    0.000    7.143    0.000    0.000    0.000    0.000 
#    0.000    0.000    0.000    0.000    0.000    0.000 
#
# Total GULP energy -173610.760215 kJ/mol
# GULP energy per Si atom -12400.768587 kJ/mol
# Density = 1.940852 g / cm^3
# Si number density = 19.452800 Si / 1000 Ang^3
#
#
#
# Elastic Constant Matrix: (Units=GPa)
#
#
# Indices 1 2 3 4 5 6 
#
# 1 72.9073 52.8920 43.2324 -5.2007 -6.3907 14.5659
# 2 52.8920 79.6225 14.0238 0.1643 -0.0673 8.8982
# 3 43.2324 14.0238 77.2911 -3.6058 6.6082 6.5830
# 4 -5.2007 0.1643 -3.6058 30.8077 -4.0275 -0.4886
# 5 -6.3907 -0.0673 6.6082 -4.0275 28.0374 -1.7239
# 6 14.5659 8.8982 6.5830 -0.4886 -1.7239 47.2686
#
#
#
# Elastic Compliance Matrix: (Units=1/GPa)
#
#
# Indices 1 2 3 4 5 6 
#
# 1 0.056383 -0.032038 -0.026418 0.009088 0.019886 -0.006845
# 2 -0.032038 0.031405 0.012752 -0.005483 -0.010914 0.001730
# 3 -0.026418 0.012752 0.026190 -0.003072 -0.012506 0.001605
# 4 0.009088 -0.005483 -0.003072 0.034661 0.007718 -0.000701
# 5 0.019886 -0.010914 -0.012506 0.007718 0.044190 -0.000640
# 6 -0.006845 0.001730 0.001605 -0.000701 -0.000640 0.022685
#
#
# Mechanical properties :
#
#
# Convention : Reuss Voigt Hill
#
# Bulk Modulus (GPa) = 44.30580 50.01303 47.15941
# Shear Modulus (GPa) = 15.90106 29.20091 22.55099
#
# Velocity S-wave (km/s) = 2.86215 3.87863 3.40849
# Velocity P-wave (km/s) = 5.80931 6.76935 6.30762
#
# Compressibility (1/GPa) = 0.02257041
#
# Stress axis : x y z
#
# Youngs Moduli (GPa) = 17.73591 31.84255 38.18240
#
# Poissons Ratio (x) = 1.02018 1.00868
# Poissons Ratio (y) = 0.56823 -0.48692
# Poissons Ratio (z) = 0.46854 -0.40607
#
# Static dielectric constant tensor:
#      x y z
#    x 3.725050 -0.199540 0.170160 
#    y -0.199540 3.840430 0.124770 
#    z 0.170160 0.124770 3.701520 
# 
# 
# High freq. dielectric constant tensor:
#      x y z
#    x 1.743450 -0.002700 0.011100 
#    y -0.002700 1.765100 0.005820 
#    z 0.011100 0.005820 1.758250 
# 
# From -- ./inp_files/174281.got.cif
#   From: 2010.06.25/outbox.cif.g09.slc.cpg/sg2_88_cif.got.tgz:174281.got - 2010.06.27 13:26:56.
