data_PCOD8009908
_publ_section_title
;
Structure prediction by ZEFSAII (Michael W. Deem and Ramdas Pophale) SiO2 
 PCOD8009908
Probable space group: P -1
;
_chemical_formula_sum "Si O2"
_cell_formula_units_Z 16
_cell_length_a 18.453924
_cell_length_b 21.978082
_cell_length_c 12.235815
_cell_angle_alpha 31.952654
_cell_angle_beta 137.835099
_cell_angle_gamma 161.569840
_cell_volume 767.668573
_symmetry_space_group_name_H-M "P -1"
_symmetry_group_IT_number 2
_symmetry_cell_setting 'triclinic'
loop_
_space_group_symop_operation_xyz
x,y,z
-x,-y,-z
loop_
_atom_site_type_symbol
_atom_site_label
_atom_site_fract_x
_atom_site_fract_y
_atom_site_fract_z
Si Si1 0.942371 0.209708 0.992093
Si Si2 0.080143 0.863586 0.160866
Si Si3 0.890552 0.617021 0.546268
Si Si4 0.341274 0.881755 0.671765
Si Si5 0.604165 0.265765 0.198317
Si Si6 0.786325 0.755741 0.310039
Si Si7 0.229768 0.199357 0.533848
Si Si8 0.486907 0.057368 0.008706
O O1 0.769682 0.934210 0.233921
O O2 0.010538 0.282368 0.829611
O O3 0.193343 0.443186 0.988264
O O4 0.793257 0.178749 0.912612
O O5 0.893326 0.634592 0.391437
O O6 0.361997 0.097017 0.142393
O O7 0.066914 0.989664 0.951878
O O8 0.931573 0.783189 0.388219
O O9 0.108117 0.740998 0.635976
O O10 0.637678 0.320083 0.759981
O O11 0.279823 0.702808 0.814992
O O12 0.414262 0.928172 0.806616
O O13 0.558457 0.148784 0.436147
O O14 0.504448 0.489796 0.351372
O O15 0.796422 0.753142 0.456579
O O16 0.000000 0.000000 0.500000
O O17 0.500000 0.000000 0.000000
#
# Coordination Sequence:
#
# PCOD8009908 Si02
#       8
#     2   2   2   2   2   2   2   2
#     4  11  22  39  64  91 123 163 211 258 307 377
#     4  10  22  41  67  92 124 168 211 255 315 373
#     4  11  23  42  62  91 130 167 203 264 318 368
#     4  10  23  41  62  91 126 170 211 256 320 361
#     4  10  21  41  67  92 122 165 217 263 299 375
#     4  10  21  40  63  92 128 159 209 256 308 383
#     4  10  21  37  62  94 121 163 204 253 315 368
#     4  12  25  39  59  95 128 164 210 260 318 368
#
# _framework density 20.842327999999998
#
# number of rings (size 3 to 8) (size 9 to 14) (size 15 to 20)
#    0.000    1.500    2.500    2.250    1.750    2.500 
#    0.000    0.000    0.000    6.000    0.000    0.000 
#    0.000    0.000    0.000    0.000    0.000    0.000 
#
# Total GULP energy -198397.818611 kJ/mol
# GULP energy per Si atom -12399.863663 kJ/mol
# Density = 2.079489 g / cm^3
# Si number density = 20.842328 Si / 1000 Ang^3
#
#
#
# Elastic Constant Matrix: (Units=GPa)
#
#
# Indices 1 2 3 4 5 6 
#
# 1 124.2228 31.9489 18.1057 17.6476 16.3285 -7.7007
# 2 31.9489 81.7773 1.2375 7.8430 -0.1928 -15.1385
# 3 18.1057 1.2375 46.7995 13.4298 2.2627 -5.2740
# 4 17.6476 7.8430 13.4298 30.0414 -3.8630 -0.8717
# 5 16.3285 -0.1928 2.2627 -3.8630 31.1157 2.7737
# 6 -7.7007 -15.1385 -5.2740 -0.8717 2.7737 30.8944
#
#
#
# Elastic Compliance Matrix: (Units=1/GPa)
#
#
# Indices 1 2 3 4 5 6 
#
# 1 0.010936 -0.003555 -0.002192 -0.005303 -0.006352 0.001030
# 2 -0.003555 0.015090 0.002458 -0.002644 0.000848 0.006777
# 3 -0.002192 0.002458 0.026050 -0.011184 -0.002565 0.005020
# 4 -0.005303 -0.002644 -0.011184 0.043169 0.009309 -0.004145
# 5 -0.006352 0.000848 -0.002565 0.009309 0.037236 -0.004686
# 6 0.001030 0.006777 0.005020 -0.004145 -0.004686 0.037107
#
#
# Mechanical properties :
#
#
# Convention : Reuss Voigt Hill
#
# Bulk Modulus (GPa) = 21.97895 39.48709 30.73302
# Shear Modulus (GPa) = 26.13257 31.84414 28.98835
#
# Velocity S-wave (km/s) = 3.54478 3.91302 3.73344
# Velocity P-wave (km/s) = 5.22706 6.27714 5.77601
#
# Compressibility (1/GPa) = 0.04549809
#
# Stress axis : x y z
#
# Youngs Moduli (GPa) = 91.44131 66.26839 38.38813
#
# Poissons Ratio (x) = 0.23558 0.08414
# Poissons Ratio (y) = 0.32507 -0.09435
# Poissons Ratio (z) = 0.20043 -0.16288
#
# Static dielectric constant tensor:
#      x y z
#    x 3.841900 -0.085750 -0.065910 
#    y -0.085750 3.523460 0.014600 
#    z -0.065910 0.014600 3.919000 
# 
# 
# High freq. dielectric constant tensor:
#      x y z
#    x 1.825090 -0.003480 0.003440 
#    y -0.003480 1.802290 0.004850 
#    z 0.003440 0.004850 1.820730 
# 
# From -- ./inp_files/279449.got.cif
#   From: 2010.06.25/outbox.cif.g09.slc.cpg/sg2_140_cif.got.tgz:279449.got - 2010.06.27 13:26:56.
