data_PCOD8009118
_publ_section_title
;
Structure prediction by ZEFSAII (Michael W. Deem and Ramdas Pophale) SiO2 
 PCOD8009118
Probable space group: P -1
;
_chemical_formula_sum "Si O2"
_cell_formula_units_Z 16
_cell_length_a 14.746486
_cell_length_b 15.299284
_cell_length_c 8.043952
_cell_angle_alpha 58.272851
_cell_angle_beta 83.877509
_cell_angle_gamma 36.244813
_cell_volume 707.794057
_symmetry_space_group_name_H-M "P -1"
_symmetry_group_IT_number 2
_symmetry_cell_setting 'triclinic'
loop_
_space_group_symop_operation_xyz
x,y,z
-x,-y,-z
loop_
_atom_site_type_symbol
_atom_site_label
_atom_site_fract_x
_atom_site_fract_y
_atom_site_fract_z
Si Si1 0.298057 0.587141 0.024939
Si Si2 0.000063 0.742052 0.758004
Si Si3 0.385611 0.993993 0.358332
Si Si4 0.297615 0.817155 0.795209
Si Si5 0.385638 0.234869 0.117678
Si Si6 0.777206 0.335429 0.670991
Si Si7 0.777687 0.109813 0.895860
Si Si8 0.499945 0.219093 0.780944
O O1 0.499996 0.336535 0.162983
O O2 0.341084 0.549700 0.248580
O O3 0.105991 0.709373 0.905189
O O4 0.260671 0.739320 0.807806
O O5 0.830978 0.841005 0.775117
O O6 0.169041 0.502946 0.881072
O O7 0.894274 0.921143 0.464388
O O8 0.349261 0.150790 0.200498
O O9 0.500058 0.849590 0.650222
O O10 0.518644 0.830035 0.334326
O O11 0.339549 0.769529 0.029305
O O12 0.518842 0.132768 0.031910
O O13 0.686318 0.520132 0.401006
O O14 0.757308 0.242858 0.677947
O O15 0.999599 0.139643 0.861737
O O16 0.685728 0.108116 0.812774
#
# Coordination Sequence:
#
# PCOD8009118 Si02
#       8
#     2   2   2   2   2   2   2   2
#     4  10  21  36  57  91 130 164 200 242 294 362
#     4  12  20  38  66  90 122 166 206 252 308 364
#     4  11  26  45  64  90 122 157 207 267 317 364
#     4  10  21  36  57  91 130 164 200 242 294 362
#     4  11  26  45  64  90 122 157 207 267 317 364
#     4  10  21  36  56  88 126 159 196 242 294 360
#     4  10  21  36  56  88 126 159 196 242 294 360
#     4  12  22  40  68  90 118 164 206 246 306 368
#
# _framework density 22.605447000000002
#
# number of rings (size 3 to 8) (size 9 to 14) (size 15 to 20)
#    0.000    1.250    0.000    6.750    0.000    0.000 
#    0.000   10.000    0.000    9.750    0.000    0.000 
#    0.000    0.000    0.000    0.000    0.000    0.000 
#
# Total GULP energy -198305.595101 kJ/mol
# GULP energy per Si atom -12394.099694 kJ/mol
# Density = 2.255400 g / cm^3
# Si number density = 22.605447 Si / 1000 Ang^3
#
#
#
# Elastic Constant Matrix: (Units=GPa)
#
#
# Indices 1 2 3 4 5 6 
#
# 1 118.1721 36.4800 63.4814 -18.9775 -7.6291 15.0118
# 2 36.4800 87.9217 36.0332 4.2818 3.9196 -7.8224
# 3 63.4814 36.0332 102.7682 -7.6856 0.3642 1.2976
# 4 -18.9775 4.2818 -7.6856 38.4685 -4.0120 7.7592
# 5 -7.6291 3.9196 0.3642 -4.0120 28.5844 -4.6616
# 6 15.0118 -7.8224 1.2976 7.7592 -4.6616 24.0764
#
#
#
# Elastic Compliance Matrix: (Units=1/GPa)
#
#
# Indices 1 2 3 4 5 6 
#
# 1 0.019986 -0.007175 -0.008655 0.013017 0.005406 -0.017475
# 2 -0.007175 0.016966 -0.002311 -0.008720 -0.003437 0.012255
# 3 -0.008655 -0.002311 0.015702 -0.001881 -0.001795 0.004058
# 4 0.013017 -0.008720 -0.001881 0.038099 0.006474 -0.021873
# 5 0.005406 -0.003437 -0.001795 0.006474 0.037973 0.000875
# 6 -0.017475 0.012255 0.004058 -0.021873 0.000875 0.063412
#
#
# Mechanical properties :
#
#
# Convention : Reuss Voigt Hill
#
# Bulk Modulus (GPa) = 61.08211 64.53902 62.81056
# Shear Modulus (GPa) = 21.37877 29.75036 25.56456
#
# Velocity S-wave (km/s) = 3.07862 3.63170 3.36654
# Velocity P-wave (km/s) = 6.30213 6.79690 6.55419
#
# Compressibility (1/GPa) = 0.01637141
#
# Stress axis : x y z
#
# Youngs Moduli (GPa) = 50.03550 58.94002 63.68735
#
# Poissons Ratio (x) = 0.42290 0.55120
# Poissons Ratio (y) = 0.35901 0.14721
# Poissons Ratio (z) = 0.43304 0.13624
#
# Static dielectric constant tensor:
#      x y z
#    x 4.236790 0.070290 -0.136020 
#    y 0.070290 4.162990 0.054110 
#    z -0.136020 0.054110 4.075110 
# 
# 
# High freq. dielectric constant tensor:
#      x y z
#    x 1.901210 0.000430 -0.007140 
#    y 0.000430 1.890560 -0.008370 
#    z -0.007140 -0.008370 1.884300 
# 
# From -- ./inp_files/312743.got.cif
#   From: 2010.06.25/outbox.cif.g09.slc.cpg/sg2_157_cif.got.tgz:312743.got - 2010.06.27 13:26:56.
