data_PCOD8009323
_publ_section_title
;
Structure prediction by ZEFSAII (Michael W. Deem and Ramdas Pophale) SiO2 
 PCOD8009323
Probable space group: P -1
;
_chemical_formula_sum "Si O2"
_cell_formula_units_Z 16
_cell_length_a 12.688273
_cell_length_b 9.564187
_cell_length_c 11.649557
_cell_angle_alpha 54.250242
_cell_angle_beta 52.027468
_cell_angle_gamma 86.212499
_cell_volume 803.716032
_symmetry_space_group_name_H-M "P -1"
_symmetry_group_IT_number 2
_symmetry_cell_setting 'triclinic'
loop_
_space_group_symop_operation_xyz
x,y,z
-x,-y,-z
loop_
_atom_site_type_symbol
_atom_site_label
_atom_site_fract_x
_atom_site_fract_y
_atom_site_fract_z
Si Si1 0.627494 0.743494 0.452831
Si Si2 0.370683 0.553602 0.025391
Si Si3 0.767964 0.552191 0.592166
Si Si4 0.867360 0.779764 0.094233
Si Si5 0.673057 0.602571 0.112317
Si Si6 0.617011 0.057333 0.179962
Si Si7 0.512146 0.180263 0.835098
Si Si8 0.949683 0.209315 0.834286
O O1 0.714088 0.716833 0.518706
O O2 0.709823 0.720388 0.294793
O O3 0.455201 0.585179 0.650092
O O4 0.632584 0.956669 0.336535
O O5 0.253023 0.496320 0.236081
O O6 0.500000 0.500000 0.000000
O O7 0.288025 0.438326 0.022082
O O8 0.443735 0.784707 0.836896
O O9 0.671227 0.365266 0.666338
O O10 0.944536 0.634199 0.405686
O O11 0.824470 0.670396 0.053215
O O12 0.976352 0.718194 0.123300
O O13 0.955090 0.008797 0.902030
O O14 0.622402 0.772390 0.059093
O O15 0.505971 0.881600 0.256709
O O16 0.781929 0.183499 0.951514
O O17 0.500000 0.000000 0.000000
#
# Coordination Sequence:
#
# PCOD8009323 Si02
#       8
#     2   2   2   2   2   2   2   2
#     4   9  18  32  61  88 109 146 195 247 277 334
#     4  12  23  40  54  85 127 161 183 234 300 353
#     4  10  21  36  61  87 121 152 192 238 295 338
#     4   9  17  33  58  88 114 146 190 247 294 329
#     4  11  20  34  59  83 122 153 190 236 301 344
#     4  11  22  37  62  91 116 147 200 243 291 336
#     4  11  19  35  58  88 114 152 197 246 272 339
#     4   9  19  35  60  89 113 146 197 249 280 337
#
# _framework density 19.907529
#
# number of rings (size 3 to 8) (size 9 to 14) (size 15 to 20)
#    0.000    1.750    6.250    1.125    3.500    1.000 
#    0.000    1.250    0.000    1.500    0.000    0.000 
#    0.000    0.000    0.000    0.000    0.000    0.000 
#
# Total GULP energy -198289.711266 kJ/mol
# GULP energy per Si atom -12393.106954 kJ/mol
# Density = 1.986222 g / cm^3
# Si number density = 19.907529 Si / 1000 Ang^3
#
#
#
# Elastic Constant Matrix: (Units=GPa)
#
#
# Indices 1 2 3 4 5 6 
#
# 1 58.5770 35.5134 31.7013 -4.2147 9.2385 12.9128
# 2 35.5134 89.3340 22.3780 -6.1585 15.6200 11.5745
# 3 31.7013 22.3780 88.5200 -14.1893 6.9561 5.0429
# 4 -4.2147 -6.1585 -14.1893 15.1728 -3.2676 13.3354
# 5 9.2385 15.6200 6.9561 -3.2676 36.9640 -8.6855
# 6 12.9128 11.5745 5.0429 13.3354 -8.6855 45.4206
#
#
#
# Elastic Compliance Matrix: (Units=1/GPa)
#
#
# Indices 1 2 3 4 5 6 
#
# 1 0.027662 -0.007478 -0.006717 0.003730 -0.003813 -0.007037
# 2 -0.007478 0.016398 0.000838 0.009399 -0.005801 -0.006015
# 3 -0.006717 0.000838 0.017132 0.019677 -0.001639 -0.006297
# 4 0.003730 0.009399 0.019677 0.126352 -0.007832 -0.044235
# 5 -0.003813 -0.005801 -0.001639 -0.007832 0.032729 0.011302
# 6 -0.007037 -0.006015 -0.006297 -0.044235 0.011302 0.041397
#
#
# Mechanical properties :
#
#
# Convention : Reuss Voigt Hill
#
# Bulk Modulus (GPa) = 29.00509 46.17960 37.59234
# Shear Modulus (GPa) = 16.67338 29.30069 22.98703
#
# Velocity S-wave (km/s) = 2.89717 3.84062 3.40176
# Velocity P-wave (km/s) = 5.07868 6.55092 5.86121
#
# Compressibility (1/GPa) = 0.03447670
#
# Stress axis : x y z
#
# Youngs Moduli (GPa) = 36.15099 60.98141 58.36868
#
# Poissons Ratio (x) = 0.45603 0.39209
# Poissons Ratio (y) = 0.27035 -0.04890
# Poissons Ratio (z) = 0.24284 -0.05108
#
# Static dielectric constant tensor:
#      x y z
#    x 3.745560 0.111430 0.234130 
#    y 0.111430 3.525160 -0.174150 
#    z 0.234130 -0.174150 3.768830 
# 
# 
# High freq. dielectric constant tensor:
#      x y z
#    x 1.778220 0.003360 0.019800 
#    y 0.003360 1.739650 -0.021840 
#    z 0.019800 -0.021840 1.768540 
# 
# From -- ./inp_files/444174.got.cif
#   From: 2010.06.25/outbox.cif.g09.slc.cpg/sg2_223_cif.got.tgz:444174.got - 2010.06.27 13:26:56.
