data_PCOD8009909
_publ_section_title
;
Structure prediction by ZEFSAII (Michael W. Deem and Ramdas Pophale) SiO2 
 PCOD8009909
Probable space group: P -1
;
_chemical_formula_sum "Si O2"
_cell_formula_units_Z 16
_cell_length_a 14.393821
_cell_length_b 11.875878
_cell_length_c 8.323785
_cell_angle_alpha 76.014698
_cell_angle_beta 97.619826
_cell_angle_gamma 147.551408
_cell_volume 733.808542
_symmetry_space_group_name_H-M "P -1"
_symmetry_group_IT_number 2
_symmetry_cell_setting 'triclinic'
loop_
_space_group_symop_operation_xyz
x,y,z
-x,-y,-z
loop_
_atom_site_type_symbol
_atom_site_label
_atom_site_fract_x
_atom_site_fract_y
_atom_site_fract_z
Si Si1 0.087610 0.436362 0.793805
Si Si2 0.442456 0.901402 0.195326
Si Si3 0.183339 0.288329 0.793968
Si Si4 0.287692 0.961251 0.275932
Si Si5 0.870518 0.814580 0.806677
Si Si6 0.221726 0.821108 0.655968
Si Si7 0.446204 0.371688 0.185174
Si Si8 0.112815 0.426952 0.171722
O O1 0.150457 0.390514 0.722876
O O2 0.173776 0.638576 0.661844
O O3 0.878031 0.225495 0.814456
O O4 0.149396 0.496643 0.971259
O O5 0.418844 0.991718 0.266529
O O6 0.263879 0.641314 0.240514
O O7 0.592176 0.977920 0.281325
O O8 0.500000 0.000000 0.000000
O O9 0.380435 0.462250 0.722453
O O10 0.157353 0.234701 0.994165
O O11 0.048998 0.073105 0.731165
O O12 0.228900 0.903539 0.467576
O O13 0.382724 0.179662 0.176810
O O14 0.709634 0.721905 0.728631
O O15 0.883881 0.707775 0.752619
O O16 0.075454 0.721142 0.772660
O O17 0.500000 0.500000 0.000000
#
# Coordination Sequence:
#
# PCOD8009909 Si02
#       8
#     2   2   2   2   2   2   2   2
#     4  11  20  40  67  95 128 167 220 265 318 387
#     4  12  25  42  66  98 133 171 217 268 321 389
#     4   9  18  34  61  90 121 157 211 272 312 362
#     4  12  25  42  67  98 132 172 214 268 333 386
#     4   9  19  36  58  93 120 158 214 269 312 363
#     4  12  25  44  63  96 137 172 213 268 328 391
#     4  10  21  37  62  94 123 162 219 267 312 378
#     4  11  24  41  66  97 129 173 221 266 323 384
#
# _framework density 21.804053
#
# number of rings (size 3 to 8) (size 9 to 14) (size 15 to 20)
#    0.000    1.250    3.750    2.625    5.250    1.000 
#    0.000    0.625    0.000    1.500    0.000    0.000 
#    0.000    0.000    0.000    0.000    0.000    0.000 
#
# Total GULP energy -198457.328265 kJ/mol
# GULP energy per Si atom -12403.583017 kJ/mol
# Density = 2.175443 g / cm^3
# Si number density = 21.804053 Si / 1000 Ang^3
#
#
#
# Elastic Constant Matrix: (Units=GPa)
#
#
# Indices 1 2 3 4 5 6 
#
# 1 161.2451 76.3461 11.1424 -7.0023 11.7586 5.8934
# 2 76.3461 144.8869 25.0847 -13.9549 14.2915 10.9372
# 3 11.1424 25.0847 44.7035 -6.6269 4.6638 -10.7401
# 4 -7.0023 -13.9549 -6.6269 18.4145 -3.1892 4.7321
# 5 11.7586 14.2915 4.6638 -3.1892 14.0128 -6.3351
# 6 5.8934 10.9372 -10.7401 4.7321 -6.3351 50.3329
#
#
#
# Elastic Compliance Matrix: (Units=1/GPa)
#
#
# Indices 1 2 3 4 5 6 
#
# 1 0.008382 -0.004189 0.000466 -0.000275 -0.003132 -0.000340
# 2 -0.004189 0.011550 -0.004966 0.005240 -0.007458 -0.004510
# 3 0.000466 -0.004966 0.027290 0.004513 -0.000507 0.006359
# 4 -0.000275 0.005240 0.004513 0.062049 0.005094 -0.005336
# 5 -0.003132 -0.007458 -0.000507 0.005094 0.088601 0.012552
# 6 -0.000340 -0.004510 0.006359 -0.005336 0.012552 0.024326
#
#
# Mechanical properties :
#
#
# Convention : Reuss Voigt Hill
#
# Bulk Modulus (GPa) = 33.50810 63.99800 48.75305
# Shear Modulus (GPa) = 20.03820 32.43620 26.23720
#
# Velocity S-wave (km/s) = 3.03481 3.86116 3.47265
# Velocity P-wave (km/s) = 5.26130 7.02091 6.20381
#
# Compressibility (1/GPa) = 0.02984353
#
# Stress axis : x y z
#
# Youngs Moduli (GPa) = 119.30349 86.58062 36.64398
#
# Poissons Ratio (x) = 0.36271 -0.01707
# Poissons Ratio (y) = 0.49979 0.18196
# Poissons Ratio (z) = -0.05558 0.42992
#
# Static dielectric constant tensor:
#      x y z
#    x 4.316320 0.239590 0.180420 
#    y 0.239590 4.251540 -0.167180 
#    z 0.180420 -0.167180 3.432140 
# 
# 
# High freq. dielectric constant tensor:
#      x y z
#    x 1.870600 0.011320 0.014910 
#    y 0.011320 1.869850 -0.015190 
#    z 0.014910 -0.015190 1.814400 
# 
# From -- ./inp_files/282055.got.cif
#   From: 2010.06.25/outbox.cif.g09.slc.cpg/sg2_142_cif.got.tgz:282055.got - 2010.06.27 13:26:56.
