data_PCOD8009974
_publ_section_title
;
Structure prediction by ZEFSAII (Michael W. Deem and Ramdas Pophale) SiO2 
 PCOD8009974
Probable space group: P -1
;
_chemical_formula_sum "Si O2"
_cell_formula_units_Z 16
_cell_length_a 19.265054
_cell_length_b 12.729098
_cell_length_c 8.263272
_cell_angle_alpha 53.050118
_cell_angle_beta 116.684315
_cell_angle_gamma 150.415236
_cell_volume 785.454486
_symmetry_space_group_name_H-M "P -1"
_symmetry_group_IT_number 2
_symmetry_cell_setting 'triclinic'
loop_
_space_group_symop_operation_xyz
x,y,z
-x,-y,-z
loop_
_atom_site_type_symbol
_atom_site_label
_atom_site_fract_x
_atom_site_fract_y
_atom_site_fract_z
Si Si1 0.151765 0.466356 0.125271
Si Si2 0.829789 0.617265 0.107298
Si Si3 0.953833 0.049361 0.720056
Si Si4 0.495206 0.123387 0.209138
Si Si5 0.804192 0.711920 0.453887
Si Si6 0.530059 0.211304 0.512431
Si Si7 0.358096 0.002698 0.852622
Si Si8 0.850342 0.051526 0.336014
O O1 0.218407 0.423418 0.298166
O O2 0.105928 0.376822 0.976420
O O3 0.012530 0.319065 0.210049
O O4 0.276856 0.750070 0.004463
O O5 0.664761 0.349718 0.197196
O O6 0.923794 0.702665 0.278623
O O7 0.854612 0.810287 0.940445
O O8 0.035173 0.079244 0.639281
O O9 0.854411 0.018088 0.561346
O O10 0.445293 0.113711 0.341348
O O11 0.430696 0.886607 0.338839
O O12 0.453978 0.148797 0.982566
O O13 0.679596 0.504254 0.385173
O O14 0.786453 0.837031 0.371259
O O15 0.445740 0.140939 0.649010
O O16 0.248399 0.965636 0.781758
#
# Coordination Sequence:
#
# PCOD8009974 Si02
#       8
#     2   2   2   2   2   2   2   2
#     4  11  20  40  66  90 116 163 214 250 300 366
#     4  11  19  37  67  92 114 155 215 263 297 350
#     4  10  21  37  63  93 119 156 208 260 303 359
#     4  11  23  41  65  95 120 161 214 258 299 364
#     4  11  19  40  63  89 119 160 211 255 298 359
#     4  11  23  39  66  91 123 163 212 255 298 368
#     4  12  25  42  62  92 131 167 198 251 318 370
#     4  11  24  40  60  92 128 163 197 254 318 367
#
# _framework density 20.370370999999999
#
# number of rings (size 3 to 8) (size 9 to 14) (size 15 to 20)
#    0.000    1.000    6.250    2.250    0.000    0.500 
#    2.250    1.250    0.000    0.000    0.000    0.000 
#    0.000    0.000    0.000    0.000    0.000    0.000 
#
# Total GULP energy -198339.245337 kJ/mol
# GULP energy per Si atom -12396.202834 kJ/mol
# Density = 2.032401 g / cm^3
# Si number density = 20.370371 Si / 1000 Ang^3
#
#
#
# Elastic Constant Matrix: (Units=GPa)
#
#
# Indices 1 2 3 4 5 6 
#
# 1 35.3895 0.1200 10.4259 16.0780 -10.1463 -5.4272
# 2 0.1200 88.7445 19.5600 9.7643 -0.2328 -13.2076
# 3 10.4259 19.5600 62.8598 13.9902 -12.2470 -7.3470
# 4 16.0780 9.7643 13.9902 48.8699 -6.9230 -8.5244
# 5 -10.1463 -0.2328 -12.2470 -6.9230 24.1127 2.0311
# 6 -5.4272 -13.2076 -7.3470 -8.5244 2.0311 23.6990
#
#
#
# Elastic Compliance Matrix: (Units=1/GPa)
#
#
# Indices 1 2 3 4 5 6 
#
# 1 0.037238 0.002158 -0.001895 -0.009689 0.011553 0.004668
# 2 0.002158 0.013187 -0.003759 -0.001423 -0.001815 0.006322
# 3 -0.001895 -0.003759 0.019853 -0.002803 0.008285 0.001908
# 4 -0.009689 -0.001423 -0.002803 0.025869 0.001467 0.005298
# 5 0.011553 -0.001815 0.008285 0.001467 0.050914 0.000366
# 6 0.004668 0.006322 0.001908 0.005298 0.000366 0.049254
#
#
# Mechanical properties :
#
#
# Convention : Reuss Voigt Hill
#
# Bulk Modulus (GPa) = 15.80135 27.46729 21.63432
# Shear Modulus (GPa) = 22.28156 29.79552 26.03854
#
# Velocity S-wave (km/s) = 3.31089 3.82866 3.57915
# Velocity P-wave (km/s) = 4.73179 5.74961 5.26535
#
# Compressibility (1/GPa) = 0.06328574
#
# Stress axis : x y z
#
# Youngs Moduli (GPa) = 26.85443 75.83470 50.36958
#
# Poissons Ratio (x) = -0.16368 0.09545
# Poissons Ratio (y) = -0.05796 0.18935
# Poissons Ratio (z) = 0.05089 0.28508
#
# Static dielectric constant tensor:
#      x y z
#    x 3.401050 -0.242550 -0.325770 
#    y -0.242550 3.890990 0.115000 
#    z -0.325770 0.115000 3.861360 
# 
# 
# High freq. dielectric constant tensor:
#      x y z
#    x 1.755610 -0.019610 -0.026640 
#    y -0.019610 1.815760 -0.002880 
#    z -0.026640 -0.002880 1.797090 
# 
# From -- ./inp_files/263367.got.cif
#   From: 2010.06.25/outbox.cif.g09.slc.cpg/sg2_132_cif.got.tgz:263367.got - 2010.06.27 13:26:56.
