data_PCOD8009693
_publ_section_title
;
Structure prediction by ZEFSAII (Michael W. Deem and Ramdas Pophale) SiO2 
 PCOD8009693
Probable space group: P -1
;
_chemical_formula_sum "Si O2"
_cell_formula_units_Z 16
_cell_length_a 10.702900
_cell_length_b 12.279107
_cell_length_c 19.122539
_cell_angle_alpha 128.846000
_cell_angle_beta 155.290430
_cell_angle_gamma 62.132944
_cell_volume 776.685445
_symmetry_space_group_name_H-M "P -1"
_symmetry_group_IT_number 2
_symmetry_cell_setting 'triclinic'
loop_
_space_group_symop_operation_xyz
x,y,z
-x,-y,-z
loop_
_atom_site_type_symbol
_atom_site_label
_atom_site_fract_x
_atom_site_fract_y
_atom_site_fract_z
Si Si1 0.648041 0.110957 0.397409
Si Si2 0.279623 0.072165 0.760417
Si Si3 0.675456 0.429332 0.506049
Si Si4 0.851424 0.618984 0.054288
Si Si5 0.617199 0.403014 0.075220
Si Si6 0.271217 0.934700 0.251583
Si Si7 0.920496 0.044201 0.693585
Si Si8 0.832059 0.616760 0.883048
O O1 0.729368 0.284922 0.507969
O O2 0.934247 0.066777 0.557287
O O3 0.589252 0.042582 0.261409
O O4 0.342401 0.042757 0.264274
O O5 0.218619 0.025218 0.793238
O O6 0.521161 0.233235 0.934297
O O7 0.500000 0.500000 0.500000
O O8 0.478547 0.385349 0.317270
O O9 0.010155 0.544620 0.705073
O O10 0.530731 0.583694 0.919919
O O11 0.741739 0.586803 0.905823
O O12 0.074787 0.786146 0.247007
O O13 0.042583 0.512008 0.134962
O O14 0.500000 0.500000 0.000000
O O15 0.056028 0.981809 0.220846
O O16 0.591779 0.934297 0.453664
O O17 0.100827 0.772040 0.070545
#
# Coordination Sequence:
#
# PCOD8009693 Si02
#       8
#     2   2   2   2   2   2   2   2
#     4  10  21  37  59  89 118 155 202 255 298 362
#     4   9  19  36  62  88 115 150 211 251 292 361
#     4  12  27  40  58  88 130 161 203 259 311 359
#     4   9  20  39  67  87 118 161 211 248 295 371
#     4  11  21  38  65  87 118 166 206 246 306 367
#     4   9  18  32  58  83 121 151 192 243 303 356
#     4   8  16  34  59  90 112 147 202 250 291 356
#     4  10  22  39  59  93 123 159 203 256 303 359
#
# _framework density 20.600359999999998
#
# number of rings (size 3 to 8) (size 9 to 14) (size 15 to 20)
#    0.000    2.250    1.250    0.750    7.000    2.000 
#    0.000    0.000    2.750    2.250    0.000    0.000 
#    0.000    0.000    0.000    0.000    0.000    0.000 
#
# Total GULP energy -198356.340304 kJ/mol
# GULP energy per Si atom -12397.271269 kJ/mol
# Density = 2.055347 g / cm^3
# Si number density = 20.600360 Si / 1000 Ang^3
#
#
#
# Elastic Constant Matrix: (Units=GPa)
#
#
# Indices 1 2 3 4 5 6 
#
# 1 146.8312 36.0762 37.5658 17.9940 17.4126 -5.5205
# 2 36.0762 38.5429 17.2735 14.6209 7.7139 -7.5793
# 3 37.5658 17.2735 114.5118 18.4507 12.2098 0.8692
# 4 17.9940 14.6209 18.4507 29.5008 3.8017 -3.1393
# 5 17.4126 7.7139 12.2098 3.8017 29.7953 6.3156
# 6 -5.5205 -7.5793 0.8692 -3.1393 6.3156 26.9363
#
#
#
# Elastic Compliance Matrix: (Units=1/GPa)
#
#
# Indices 1 2 3 4 5 6 
#
# 1 0.009441 -0.007094 -0.001577 -0.000796 -0.003063 0.000615
# 2 -0.007094 0.041600 -0.001124 -0.013648 -0.006594 0.010243
# 3 -0.001577 -0.001124 0.010444 -0.004834 -0.002236 -0.001015
# 4 -0.000796 -0.013648 -0.004834 0.044302 0.000050 0.001304
# 5 -0.003063 -0.006594 -0.002236 0.000050 0.040491 -0.011899
# 6 0.000615 0.010243 -0.001015 0.001304 -0.011899 0.043107
#
#
# Mechanical properties :
#
#
# Convention : Reuss Voigt Hill
#
# Bulk Modulus (GPa) = 23.86847 53.52409 38.69628
# Shear Modulus (GPa) = 22.42754 31.17785 26.80269
#
# Velocity S-wave (km/s) = 3.30312 3.89454 3.61096
# Velocity P-wave (km/s) = 5.11459 6.80160 6.01751
#
# Compressibility (1/GPa) = 0.04189627
#
# Stress axis : x y z
#
# Youngs Moduli (GPa) = 105.92214 24.03869 95.74535
#
# Poissons Ratio (x) = 0.17053 0.15097
# Poissons Ratio (y) = 0.75140 0.10758
# Poissons Ratio (z) = 0.16701 0.02701
#
# Static dielectric constant tensor:
#      x y z
#    x 4.421310 0.019920 -0.015950 
#    y 0.019920 3.456590 0.292670 
#    z -0.015950 0.292670 3.603300 
# 
# 
# High freq. dielectric constant tensor:
#      x y z
#    x 1.831540 0.002590 -0.001950 
#    y 0.002590 1.771360 0.030030 
#    z -0.001950 0.030030 1.796830 
# 
# From -- ./inp_files/595116.got.cif
#   From: 2010.06.25/outbox.cif.g09.slc.cpg/sg2_298_cif.got.tgz:595116.got - 2010.06.27 13:26:56.
