data_PCOD8009601
_publ_section_title
;
Structure prediction by ZEFSAII (Michael W. Deem and Ramdas Pophale) SiO2 
 PCOD8009601
Probable space group: P -1
;
_chemical_formula_sum "Si O2"
_cell_formula_units_Z 14
_cell_length_a 7.474233
_cell_length_b 25.554643
_cell_length_c 6.508781
_cell_angle_alpha 117.586329
_cell_angle_beta 60.356810
_cell_angle_gamma 144.698480
_cell_volume 620.000406
_symmetry_space_group_name_H-M "P -1"
_symmetry_group_IT_number 2
_symmetry_cell_setting 'triclinic'
loop_
_space_group_symop_operation_xyz
x,y,z
-x,-y,-z
loop_
_atom_site_type_symbol
_atom_site_label
_atom_site_fract_x
_atom_site_fract_y
_atom_site_fract_z
Si Si1 0.509762 0.507451 0.766773
Si Si2 0.707970 0.044443 0.160706
Si Si3 0.207477 0.630534 0.165514
Si Si4 0.697966 0.130322 0.663516
Si Si5 0.563802 0.799243 0.006759
Si Si6 0.603694 0.719600 0.494688
Si Si7 0.475599 0.597417 0.669879
O O1 0.663904 0.601628 0.754564
O O2 0.687122 0.488425 0.539244
O O3 0.149076 0.423348 0.730965
O O4 0.500000 0.500000 0.000000
O O5 0.690031 0.105102 0.386993
O O6 0.065047 0.105809 0.008103
O O7 0.572952 0.963800 0.234400
O O8 0.500000 0.000000 0.000000
O O9 0.333232 0.641827 0.343969
O O10 0.455509 0.733198 0.131484
O O11 0.208660 0.575068 0.906336
O O12 0.058341 0.196525 0.659300
O O13 0.635983 0.185457 0.823615
O O14 0.491336 0.754003 0.742480
O O15 0.671353 0.683590 0.565724
#
# Coordination Sequence:
#
# PCOD8009601 Si02
#       7
#     2   2   2   2   2   2   2
#     4  11  24  40  60  87 116 151 194 238 290 348
#     4  10  21  37  58  85 116 152 193 237 286 339
#     4  11  23  39  60  85 117 153 191 241 291 341
#     4  10  21  38  58  83 118 151 190 241 285 338
#     4  10  22  37  58  87 115 153 195 235 290 343
#     4  10  22  39  58  86 118 151 195 240 287 342
#     4  10  23  39  60  85 114 151 192 237 289 343
#
# _framework density 22.580628999999998
#
# number of rings (size 3 to 8) (size 9 to 14) (size 15 to 20)
#    0.000    1.714    0.000    3.429    0.000    8.571 
#    0.000    0.000    0.000    0.000    0.000    0.000 
#    0.000    0.000    0.000    0.000    0.000    0.000 
#
# Total GULP energy -173434.618616 kJ/mol
# GULP energy per Si atom -12388.187044 kJ/mol
# Density = 2.252923 g / cm^3
# Si number density = 22.580629 Si / 1000 Ang^3
#
#
#
# Elastic Constant Matrix: (Units=GPa)
#
#
# Indices 1 2 3 4 5 6 
#
# 1 93.4866 37.1773 67.3747 12.5837 3.9051 -3.2495
# 2 37.1773 87.3528 28.4467 -9.7951 1.7582 3.0834
# 3 67.3747 28.4467 130.1747 19.0264 4.1009 -3.0449
# 4 12.5837 -9.7951 19.0264 33.5878 -5.7000 0.3425
# 5 3.9051 1.7582 4.1009 -5.7000 45.9490 9.4744
# 6 -3.2495 3.0834 -3.0449 0.3425 9.4744 41.3497
#
#
#
# Elastic Compliance Matrix: (Units=1/GPa)
#
#
# Indices 1 2 3 4 5 6 
#
# 1 0.019874 -0.006444 -0.008035 -0.005089 -0.001747 0.001893
# 2 -0.006444 0.015566 -0.001332 0.007987 0.001511 -0.002178
# 3 -0.008035 -0.001332 0.012901 -0.004893 -0.001175 0.000728
# 4 -0.005089 0.007987 -0.004893 0.037808 0.005875 -0.003015
# 5 -0.001747 0.001511 -0.001175 0.005875 0.023896 -0.005860
# 6 0.001893 -0.002178 0.000728 -0.003015 -0.005860 0.025916
#
#
# Mechanical properties :
#
#
# Convention : Reuss Voigt Hill
#
# Bulk Modulus (GPa) = 59.81310 64.11239 61.96274
# Shear Modulus (GPa) = 28.87560 36.04500 32.46030
#
# Velocity S-wave (km/s) = 3.57988 3.99968 3.79559
# Velocity P-wave (km/s) = 6.60557 7.05579 6.83439
#
# Compressibility (1/GPa) = 0.01671875
#
# Stress axis : x y z
#
# Youngs Moduli (GPa) = 50.31787 64.24102 77.51434
#
# Poissons Ratio (x) = 0.41397 0.62280
# Poissons Ratio (y) = 0.32425 0.10328
# Poissons Ratio (z) = 0.40429 0.08559
#
# Static dielectric constant tensor:
#      x y z
#    x 3.889810 -0.231600 -0.154650 
#    y -0.231600 4.028190 0.056220 
#    z -0.154650 0.056220 4.213760 
# 
# 
# High freq. dielectric constant tensor:
#      x y z
#    x 1.867750 -0.014170 -0.011630 
#    y -0.014170 1.893880 -0.013080 
#    z -0.011630 -0.013080 1.914340 
# 
# From -- ./inp_files/7670.got.cif
#   From: 2010.06.25/outbox.cif.g09.slc.cpg/sg2_4_cif.got.tgz:7670.got - 2010.06.27 13:26:56.
