data_PCOD8009080
_publ_section_title
;
Structure prediction by ZEFSAII (Michael W. Deem and Ramdas Pophale) SiO2 
 PCOD8009080
Probable space group: P -1
;
_chemical_formula_sum "Si O2"
_cell_formula_units_Z 16
_cell_length_a 17.307506
_cell_length_b 11.708524
_cell_length_c 9.942932
_cell_angle_alpha 56.542554
_cell_angle_beta 104.542715
_cell_angle_gamma 57.519114
_cell_volume 891.852406
_symmetry_space_group_name_H-M "P -1"
_symmetry_group_IT_number 2
_symmetry_cell_setting 'triclinic'
loop_
_space_group_symop_operation_xyz
x,y,z
-x,-y,-z
loop_
_atom_site_type_symbol
_atom_site_label
_atom_site_fract_x
_atom_site_fract_y
_atom_site_fract_z
Si Si1 0.108482 0.581314 0.080709
Si Si2 0.285827 0.340089 0.767911
Si Si3 0.209042 0.053718 0.268087
Si Si4 0.606852 0.418656 0.501817
Si Si5 0.204674 0.154680 0.490601
Si Si6 0.435935 0.893597 0.965556
Si Si7 0.885861 0.519478 0.146034
Si Si8 0.840227 0.286036 0.762884
O O1 0.192422 0.330493 0.335226
O O2 0.176178 0.615114 0.163895
O O3 0.124613 0.562865 0.937553
O O4 0.941481 0.810746 0.904292
O O5 0.181301 0.466237 0.767807
O O6 0.202460 0.554091 0.484232
O O7 0.323241 0.140983 0.846670
O O8 0.437505 0.189193 0.985282
O O9 0.242476 0.016860 0.463699
O O10 0.337084 0.778814 0.444661
O O11 0.200890 0.214575 0.090083
O O12 0.500000 0.500000 0.500000
O O13 0.737417 0.301684 0.716360
O O14 0.516697 0.663877 0.232063
O O15 0.054723 0.311795 0.387021
O O16 0.342876 0.943318 0.784296
O O17 0.000000 0.000000 0.000000
#
# Coordination Sequence:
#
# PCOD8009080 Si02
#       8
#     2   2   2   2   2   2   2   2
#     4   9  17  37  59  83 107 140 186 223 273 321
#     4  10  21  37  54  84 112 139 184 226 268 322
#     4   9  18  36  57  80 114 142 178 226 273 316
#     4  11  23  36  53  81 113 144 184 223 267 324
#     4   9  18  35  59  81 105 148 179 221 275 321
#     4  10  21  36  55  75 117 149 172 220 279 323
#     4   9  19  35  62  85 105 137 186 236 259 310
#     4  11  21  37  62  77 108 150 177 225 280 318
#
# _framework density 17.940190999999999
#
# number of rings (size 3 to 8) (size 9 to 14) (size 15 to 20)
#    0.000    2.250    2.500    2.250    0.000    2.000 
#    2.250    1.875    0.000    0.000    0.000    0.000 
#    0.000    0.000    0.000    0.000    0.000    0.000 
#
# Total GULP energy -198339.805398 kJ/mol
# GULP energy per Si atom -12396.237837 kJ/mol
# Density = 1.789936 g / cm^3
# Si number density = 17.940191 Si / 1000 Ang^3
#
#
#
# Elastic Constant Matrix: (Units=GPa)
#
#
# Indices 1 2 3 4 5 6 
#
# 1 96.7720 61.5810 38.3061 5.9095 12.8550 -3.7332
# 2 61.5810 113.4260 37.4843 -6.8828 3.7999 0.8348
# 3 38.3061 37.4843 81.7169 -2.3273 18.1982 1.0127
# 4 5.9095 -6.8828 -2.3273 30.8038 8.0747 1.4463
# 5 12.8550 3.7999 18.1982 8.0747 25.2698 3.7213
# 6 -3.7332 0.8348 1.0127 1.4463 3.7213 27.3017
#
#
#
# Elastic Compliance Matrix: (Units=1/GPa)
#
#
# Indices 1 2 3 4 5 6 
#
# 1 0.018608 -0.009028 -0.003796 -0.004908 -0.004369 0.003817
# 2 -0.009028 0.014947 -0.003338 0.003922 0.003834 -0.002298
# 3 -0.003796 -0.003338 0.018426 0.004598 -0.012356 0.000340
# 4 -0.004908 0.003922 0.004598 0.038207 -0.013443 -0.001153
# 5 -0.004369 0.003834 -0.012356 -0.013443 0.055459 -0.007103
# 6 0.003817 -0.002298 0.000340 -0.001153 -0.007103 0.038237
#
#
# Mechanical properties :
#
#
# Convention : Reuss Voigt Hill
#
# Bulk Modulus (GPa) = 50.86934 62.96198 56.91566
# Shear Modulus (GPa) = 22.44557 26.97796 24.71176
#
# Velocity S-wave (km/s) = 3.54097 3.88206 3.71543
# Velocity P-wave (km/s) = 6.71822 7.43408 7.08520
#
# Compressibility (1/GPa) = 0.01965821
#
# Stress axis : x y z
#
# Youngs Moduli (GPa) = 53.73921 66.90130 54.26991
#
# Poissons Ratio (x) = 0.60398 0.20601
# Poissons Ratio (y) = 0.48515 0.18116
# Poissons Ratio (z) = 0.20399 0.22333
#
# Static dielectric constant tensor:
#      x y z
#    x 3.336690 0.185750 0.220160 
#    y 0.185750 3.039670 -0.001090 
#    z 0.220160 -0.001090 3.360730 
# 
# 
# High freq. dielectric constant tensor:
#      x y z
#    x 1.685890 0.011530 0.011070 
#    y 0.011530 1.696680 -0.004480 
#    z 0.011070 -0.004480 1.694770 
# 
# From -- ./inp_files/237716.got.cif
#   From: 2010.06.25/outbox.cif.g09.slc.cpg/sg2_119_cif.got.tgz:237716.got - 2010.06.27 13:26:56.
