data_PCOD8009139
_publ_section_title
;
Structure prediction by ZEFSAII (Michael W. Deem and Ramdas Pophale) SiO2 
 PCOD8009139
Probable space group: P -1
;
_chemical_formula_sum "Si O2"
_cell_formula_units_Z 16
_cell_length_a 24.265979
_cell_length_b 5.078229
_cell_length_c 9.130312
_cell_angle_alpha 60.567663
_cell_angle_beta 132.261394
_cell_angle_gamma 104.132689
_cell_volume 718.679771
_symmetry_space_group_name_H-M "P -1"
_symmetry_group_IT_number 2
_symmetry_cell_setting 'triclinic'
loop_
_space_group_symop_operation_xyz
x,y,z
-x,-y,-z
loop_
_atom_site_type_symbol
_atom_site_label
_atom_site_fract_x
_atom_site_fract_y
_atom_site_fract_z
Si Si1 0.126582 0.936976 0.794928
Si Si2 0.153584 0.747013 0.204638
Si Si3 0.932545 0.813420 0.858398
Si Si4 0.438776 0.735639 0.245670
Si Si5 0.732417 0.203820 0.107688
Si Si6 0.277587 0.478774 0.690480
Si Si7 0.555740 0.578500 0.957062
Si Si8 0.982672 0.666797 0.683150
O O1 0.092726 0.266208 0.571439
O O2 0.200342 0.759790 0.895729
O O3 0.056414 0.742807 0.707608
O O4 0.149120 0.976091 0.994817
O O5 0.124403 0.436402 0.188023
O O6 0.237938 0.683259 0.433405
O O7 0.108290 0.881989 0.227885
O O8 0.967648 0.879518 0.744879
O O9 0.000369 0.680445 0.129154
O O10 0.500000 0.500000 0.500000
O O11 0.448368 0.664427 0.111617
O O12 0.459378 0.073138 0.223474
O O13 0.351097 0.711445 0.138657
O O14 0.742141 0.413383 0.208116
O O15 0.744969 0.856276 0.276824
O O16 0.363860 0.478489 0.807841
O O17 0.500000 0.500000 0.000000
#
# Coordination Sequence:
#
# PCOD8009139 Si02
#       8
#     2   2   2   2   2   2   2   2
#     4  10  21  36  57  85 113 144 190 242 286 331
#     4  11  22  37  58  84 109 144 193 239 284 336
#     4  10  22  39  58  78 108 150 190 231 287 346
#     4  10  21  39  63  91 122 157 195 239 298 356
#     4  10  22  40  60  83 116 155 189 230 287 348
#     4  10  21  39  60  81 114 155 190 228 286 351
#     4  10  21  38  61  90 120 156 199 241 289 351
#     4   9  20  38  57  80 111 148 190 237 287 340
#
# _framework density 22.263044000000001
#
# number of rings (size 3 to 8) (size 9 to 14) (size 15 to 20)
#    0.000    2.000    0.000    3.000    0.000    8.000 
#    0.000    7.500    0.000    0.000    0.000    0.000 
#    0.000    0.000    0.000    0.000    0.000    0.000 
#
# Total GULP energy -198278.961772 kJ/mol
# GULP energy per Si atom -12392.435111 kJ/mol
# Density = 2.221237 g / cm^3
# Si number density = 22.263044 Si / 1000 Ang^3
#
#
#
# Elastic Constant Matrix: (Units=GPa)
#
#
# Indices 1 2 3 4 5 6 
#
# 1 156.3930 11.5536 48.6355 0.4860 17.4676 -3.0300
# 2 11.5536 53.0425 11.8436 3.7329 11.3534 -10.2333
# 3 48.6355 11.8436 168.9127 -12.5116 18.3626 4.8501
# 4 0.4860 3.7329 -12.5116 16.5775 -5.0289 3.1393
# 5 17.4676 11.3534 18.3626 -5.0289 27.4201 -3.0483
# 6 -3.0300 -10.2333 4.8501 3.1393 -3.0483 22.2986
#
#
#
# Elastic Compliance Matrix: (Units=1/GPa)
#
#
# Indices 1 2 3 4 5 6 
#
# 1 0.007487 0.000170 -0.002024 -0.003250 -0.003918 0.001458
# 2 0.000170 0.024569 -0.001956 -0.012304 -0.009882 0.012105
# 3 -0.002024 -0.001956 0.007453 0.006211 -0.002193 -0.003968
# 4 -0.003250 -0.012304 0.006211 0.075478 0.015069 -0.016005
# 5 -0.003918 -0.009882 -0.002193 0.015069 0.047262 -0.000251
# 6 0.001458 0.012105 -0.003968 -0.016005 -0.000251 0.053681
#
#
# Mechanical properties :
#
#
# Convention : Reuss Voigt Hill
#
# Bulk Modulus (GPa) = 31.36057 58.04597 44.70327
# Shear Modulus (GPa) = 21.35100 33.68028 27.51564
#
# Velocity S-wave (km/s) = 3.10019 3.89374 3.51940
# Velocity P-wave (km/s) = 5.18959 6.80766 6.05294
#
# Compressibility (1/GPa) = 0.03188717
#
# Stress axis : x y z
#
# Youngs Moduli (GPa) = 133.56290 40.70166 134.18005
#
# Poissons Ratio (x) = -0.00691 0.27162
# Poissons Ratio (y) = -0.02268 0.26249
# Poissons Ratio (z) = 0.27038 0.07962
#
# Static dielectric constant tensor:
#      x y z
#    x 4.234040 -0.041020 0.328280 
#    y -0.041020 3.993600 0.099540 
#    z 0.328280 0.099540 4.450270 
# 
# 
# High freq. dielectric constant tensor:
#      x y z
#    x 1.874650 -0.009940 0.013710 
#    y -0.009940 1.868650 0.002230 
#    z 0.013710 0.002230 1.882730 
# 
# From -- ./inp_files/350964.got.cif
#   From: 2010.06.25/outbox.cif.g09.slc.cpg/sg2_176_cif.got.tgz:350964.got - 2010.06.27 13:26:56.
