data_PCOD8009351
_publ_section_title
;
Structure prediction by ZEFSAII (Michael W. Deem and Ramdas Pophale) SiO2 
 PCOD8009351
Probable space group: P -1
;
_chemical_formula_sum "Si O2"
_cell_formula_units_Z 16
_cell_length_a 11.012955
_cell_length_b 12.289488
_cell_length_c 11.804186
_cell_angle_alpha 58.129486
_cell_angle_beta 147.329926
_cell_angle_gamma 109.147013
_cell_volume 708.350960
_symmetry_space_group_name_H-M "P -1"
_symmetry_group_IT_number 2
_symmetry_cell_setting 'triclinic'
loop_
_space_group_symop_operation_xyz
x,y,z
-x,-y,-z
loop_
_atom_site_type_symbol
_atom_site_label
_atom_site_fract_x
_atom_site_fract_y
_atom_site_fract_z
Si Si1 0.851948 0.529729 0.697918
Si Si2 0.595704 0.958966 0.938446
Si Si3 0.244466 0.639185 0.856281
Si Si4 0.215154 0.312982 0.224423
Si Si5 0.089235 0.781219 0.424761
Si Si6 0.604028 0.424489 0.367913
Si Si7 0.222506 0.883814 0.842235
Si Si8 0.768200 0.974867 0.551653
O O1 0.746227 0.650906 0.633893
O O2 0.653031 0.497605 0.480293
O O3 0.034125 0.569876 0.734366
O O4 0.971812 0.402481 0.937362
O O5 0.370686 0.943948 0.837502
O O6 0.501166 0.983607 0.722935
O O7 0.808523 0.826259 0.189691
O O8 0.671016 0.090696 0.965383
O O9 0.218693 0.724099 0.674899
O O10 0.237009 0.731748 0.910364
O O11 0.490578 0.530017 0.122223
O O12 0.427805 0.335114 0.305559
O O13 0.194079 0.163063 0.276431
O O14 0.158285 0.669844 0.443371
O O15 0.183810 0.909021 0.394539
O O16 0.948951 0.961147 0.593620
#
# Coordination Sequence:
#
# PCOD8009351 Si02
#       8
#     2   2   2   2   2   2   2   2
#     4  10  23  43  67  95 127 165 218 273 319 370
#     4  10  23  35  63  95 133 173 202 262 325 391
#     4  11  23  40  67  96 130 169 209 273 322 379
#     4  10  23  43  68  96 121 169 219 274 317 365
#     4  11  26  43  60 100 135 171 214 254 320 395
#     4  11  26  44  65  90 133 179 217 256 312 390
#     4  10  21  36  61  99 129 156 213 266 325 375
#     4  11  22  41  68  94 132 164 209 273 325 374
#
# _framework density 22.587672999999999
#
# number of rings (size 3 to 8) (size 9 to 14) (size 15 to 20)
#    0.000    1.500    2.500    1.125    7.000    5.000 
#    0.000    1.250    0.000    0.000    0.000    0.000 
#    0.000    0.000    0.000    0.000    0.000    0.000 
#
# Total GULP energy -198310.302242 kJ/mol
# GULP energy per Si atom -12394.393890 kJ/mol
# Density = 2.253626 g / cm^3
# Si number density = 22.587673 Si / 1000 Ang^3
#
#
#
# Elastic Constant Matrix: (Units=GPa)
#
#
# Indices 1 2 3 4 5 6 
#
# 1 40.2798 16.5238 16.7072 -3.6407 4.6158 0.5676
# 2 16.5238 101.8032 34.9576 -8.1172 -0.6142 8.3864
# 3 16.7072 34.9576 95.3030 0.6476 5.6783 13.7682
# 4 -3.6407 -8.1172 0.6476 28.4777 1.6725 2.0168
# 5 4.6158 -0.6142 5.6783 1.6725 25.4773 -2.6483
# 6 0.5676 8.3864 13.7682 2.0168 -2.6483 28.2898
#
#
#
# Elastic Compliance Matrix: (Units=1/GPa)
#
#
# Indices 1 2 3 4 5 6 
#
# 1 0.028481 -0.003245 -0.003792 0.002948 -0.004419 0.001612
# 2 -0.003245 0.012020 -0.003678 0.003147 0.001303 -0.001811
# 3 -0.003792 -0.003678 0.013495 -0.001274 -0.002906 -0.005583
# 4 0.002948 0.003147 -0.001274 0.036822 -0.002932 -0.003271
# 5 -0.004419 0.001303 -0.002906 -0.002932 0.041464 0.005207
# 6 0.001612 -0.001811 -0.005583 -0.003271 0.005207 0.039291
#
#
# Mechanical properties :
#
#
# Convention : Reuss Voigt Hill
#
# Bulk Modulus (GPa) = 30.70669 41.52923 36.11796
# Shear Modulus (GPa) = 24.52695 27.72877 26.12786
#
# Velocity S-wave (km/s) = 3.29881 3.50752 3.40476
# Velocity P-wave (km/s) = 5.30410 5.90164 5.61083
#
# Compressibility (1/GPa) = 0.03256619
#
# Stress axis : x y z
#
# Youngs Moduli (GPa) = 35.11169 83.19224 74.10188
#
# Poissons Ratio (x) = 0.26996 0.28101
# Poissons Ratio (y) = 0.11394 0.27252
# Poissons Ratio (z) = 0.13315 0.30595
#
# Static dielectric constant tensor:
#      x y z
#    x 3.661780 0.010640 0.172320 
#    y 0.010640 4.137410 0.099790 
#    z 0.172320 0.099790 4.053670 
# 
# 
# High freq. dielectric constant tensor:
#      x y z
#    x 1.857680 0.005340 0.014000 
#    y 0.005340 1.895940 0.003730 
#    z 0.014000 0.003730 1.890750 
# 
# From -- ./inp_files/123757.got.cif
#   From: 2010.06.25/outbox.cif.g09.slc.cpg/sg2_62_cif.got.tgz:123757.got - 2010.06.27 13:26:56.
