data_PCOD8009625
_publ_section_title
;
Structure prediction by ZEFSAII (Michael W. Deem and Ramdas Pophale) SiO2 
 PCOD8009625
Probable space group: P -1
;
_chemical_formula_sum "Si O2"
_cell_formula_units_Z 16
_cell_length_a 14.269973
_cell_length_b 9.680743
_cell_length_c 14.164656
_cell_angle_alpha 80.759023
_cell_angle_beta 121.992592
_cell_angle_gamma 48.890319
_cell_volume 756.137009
_symmetry_space_group_name_H-M "P -1"
_symmetry_group_IT_number 2
_symmetry_cell_setting 'triclinic'
loop_
_space_group_symop_operation_xyz
x,y,z
-x,-y,-z
loop_
_atom_site_type_symbol
_atom_site_label
_atom_site_fract_x
_atom_site_fract_y
_atom_site_fract_z
Si Si1 0.504727 0.087820 0.124425
Si Si2 0.975521 0.629538 0.758244
Si Si3 0.463423 0.502555 0.631751
Si Si4 0.573520 0.764040 0.323366
Si Si5 0.637654 0.566197 0.828208
Si Si6 0.311334 0.225523 0.289993
Si Si7 0.990755 0.564931 0.381581
Si Si8 0.137532 0.968656 0.256772
O O1 0.535317 0.153934 0.224538
O O2 0.546546 0.879423 0.199071
O O3 0.704579 0.909617 0.172204
O O4 0.239215 0.396126 0.909262
O O5 0.893471 0.675009 0.605063
O O6 0.945290 0.534754 0.827680
O O7 0.811946 0.934584 0.682217
O O8 0.466689 0.353579 0.706862
O O9 0.484238 0.608308 0.703622
O O10 0.219459 0.776777 0.408429
O O11 0.694936 0.250351 0.717645
O O12 0.847664 0.478167 0.538342
O O13 0.381169 0.039742 0.264899
O O14 0.717385 0.583510 0.784930
O O15 0.867323 0.251842 0.044433
O O16 0.500000 0.000000 0.500000
O O17 0.000000 0.500000 0.500000
#
# Coordination Sequence:
#
# PCOD8009625 Si02
#       8
#     2   2   2   2   2   2   2   2
#     4   9  22  39  62  88 115 155 203 247 293 346
#     4  11  20  36  64  89 117 152 196 255 294 354
#     4  11  22  38  58  85 131 162 193 235 302 366
#     4  10  21  37  58  90 119 152 197 246 293 360
#     4  10  23  39  60  88 128 159 194 246 293 365
#     4  11  20  34  62  94 119 153 196 246 312 346
#     4  10  21  38  61  85 116 152 202 250 294 346
#     4  10  23  36  58  90 124 165 192 235 302 369
#
# _framework density 21.160187000000001
#
# number of rings (size 3 to 8) (size 9 to 14) (size 15 to 20)
#    0.000    1.750    2.500    1.500    7.000    1.500 
#    2.250    0.625    0.000    1.500    0.000    0.000 
#    0.000    0.000    0.000    0.000    0.000    0.000 
#
# Total GULP energy -198221.494118 kJ/mol
# GULP energy per Si atom -12388.843382 kJ/mol
# Density = 2.111203 g / cm^3
# Si number density = 21.160187 Si / 1000 Ang^3
#
#
#
# Elastic Constant Matrix: (Units=GPa)
#
#
# Indices 1 2 3 4 5 6 
#
# 1 60.6510 42.6270 18.1329 8.0472 7.0720 11.8018
# 2 42.6270 82.9164 4.7473 19.6023 -3.4497 12.7623
# 3 18.1329 4.7473 69.2113 0.2203 -1.4892 5.3198
# 4 8.0472 19.6023 0.2203 29.3475 1.1443 3.0246
# 5 7.0720 -3.4497 -1.4892 1.1443 27.5682 -3.0686
# 6 11.8018 12.7623 5.3198 3.0246 -3.0686 37.2441
#
#
#
# Elastic Compliance Matrix: (Units=1/GPa)
#
#
# Indices 1 2 3 4 5 6 
#
# 1 0.032116 -0.016632 -0.007170 0.003279 -0.011362 -0.004656
# 2 -0.016632 0.023724 0.003065 -0.011429 0.007682 -0.001736
# 3 -0.007170 0.003065 0.016246 -0.000235 0.003018 -0.000831
# 4 0.003279 -0.011429 -0.000235 0.041048 -0.004072 -0.000758
# 5 -0.011362 0.007682 0.003018 -0.004072 0.040954 0.004242
# 6 -0.004656 -0.001736 -0.000831 -0.000758 0.004242 0.029450
#
#
# Mechanical properties :
#
#
# Convention : Reuss Voigt Hill
#
# Bulk Modulus (GPa) = 32.66604 38.19923 35.43264
# Shear Modulus (GPa) = 21.25707 28.65007 24.95357
#
# Velocity S-wave (km/s) = 3.17295 3.68361 3.43778
# Velocity P-wave (km/s) = 5.37536 6.01528 5.70430
#
# Compressibility (1/GPa) = 0.03061283
#
# Stress axis : x y z
#
# Youngs Moduli (GPa) = 31.13689 42.15174 61.55201
#
# Poissons Ratio (x) = 0.70105 0.44136
# Poissons Ratio (y) = 0.51785 -0.18867
# Poissons Ratio (z) = 0.22327 -0.12920
#
# Static dielectric constant tensor:
#      x y z
#    x 3.912970 -0.221630 0.329210 
#    y -0.221630 4.003750 -0.153980 
#    z 0.329210 -0.153980 4.077460 
# 
# 
# High freq. dielectric constant tensor:
#      x y z
#    x 1.800110 -0.008550 0.013460 
#    y -0.008550 1.825320 0.006260 
#    z 0.013460 0.006260 1.834470 
# 
# From -- ./inp_files/222089.got.cif
#   From: 2010.06.25/outbox.cif.g09.slc.cpg/sg2_112_cif.got.tgz:222089.got - 2010.06.27 13:26:56.
