data_PCOD8009648
_publ_section_title
;
Structure prediction by ZEFSAII (Michael W. Deem and Ramdas Pophale) SiO2 
 PCOD8009648
Probable space group: P -1
;
_chemical_formula_sum "Si O2"
_cell_formula_units_Z 14
_cell_length_a 8.445315
_cell_length_b 8.857471
_cell_length_c 19.902256
_cell_angle_alpha 79.024995
_cell_angle_beta 134.259344
_cell_angle_gamma 130.226503
_cell_volume 715.887138
_symmetry_space_group_name_H-M "P -1"
_symmetry_group_IT_number 2
_symmetry_cell_setting 'triclinic'
loop_
_space_group_symop_operation_xyz
x,y,z
-x,-y,-z
loop_
_atom_site_type_symbol
_atom_site_label
_atom_site_fract_x
_atom_site_fract_y
_atom_site_fract_z
Si Si1 0.087981 0.916604 0.362412
Si Si2 0.768885 0.238110 0.468790
Si Si3 0.963800 0.441466 0.186161
Si Si4 0.597059 0.070638 0.736223
Si Si5 0.247279 0.945736 0.772876
Si Si6 0.292974 0.665340 0.022510
Si Si7 0.765688 0.642232 0.160355
O O1 0.059237 0.806992 0.432328
O O2 0.869552 0.711551 0.262744
O O3 0.452239 0.127714 0.426094
O O4 0.942135 0.012144 0.322480
O O5 0.682604 0.119446 0.381789
O O6 0.000000 0.500000 0.500000
O O7 0.002350 0.310830 0.254604
O O8 0.706200 0.431623 0.144179
O O9 0.838645 0.326605 0.085362
O O10 0.314565 0.702101 0.264867
O O11 0.486306 0.987560 0.786622
O O12 0.928381 0.142994 0.813064
O O13 0.435919 0.092988 0.883151
O O14 0.442799 0.574468 0.055545
O O15 0.000000 0.500000 0.000000
#
# Coordination Sequence:
#
# PCOD8009648 Si02
#       7
#     2   2   2   2   2   2   2
#     4   9  21  39  57  87 119 148 193 249 278 344
#     4  10  21  39  64  83 114 154 198 232 300 349
#     4  10  21  37  59  83 122 154 195 233 288 346
#     4   9  21  38  57  86 118 150 192 246 284 342
#     4  11  22  37  60  88 120 155 191 237 297 337
#     4  11  19  38  60  87 118 158 192 243 282 336
#     4   8  19  38  58  80 121 154 189 240 286 335
#
# _framework density 19.556152999999998
#
# number of rings (size 3 to 8) (size 9 to 14) (size 15 to 20)
#    0.857    1.429    1.429    0.857    2.000    1.714 
#    0.000    5.714    0.000    0.000    0.000    0.000 
#    0.000    0.000    0.000    0.000    0.000    0.000 
#
# Total GULP energy -173488.570856 kJ/mol
# GULP energy per Si atom -12392.040775 kJ/mol
# Density = 1.951164 g / cm^3
# Si number density = 19.556153 Si / 1000 Ang^3
#
#
#
# Elastic Constant Matrix: (Units=GPa)
#
#
# Indices 1 2 3 4 5 6 
#
# 1 89.1333 30.2875 35.8910 -13.5937 -7.2655 -0.8783
# 2 30.2875 134.2880 52.5537 -8.0832 -9.8991 6.5120
# 3 35.8910 52.5537 79.4523 -7.4165 -3.6717 -5.1241
# 4 -13.5937 -8.0832 -7.4165 27.8844 -3.0190 -3.6117
# 5 -7.2655 -9.8991 -3.6717 -3.0190 24.3351 7.2323
# 6 -0.8783 6.5120 -5.1241 -3.6117 7.2323 17.2617
#
#
#
# Elastic Compliance Matrix: (Units=1/GPa)
#
#
# Indices 1 2 3 4 5 6 
#
# 1 0.014965 -0.000285 -0.005904 0.005941 0.004673 -0.001599
# 2 -0.000285 0.011455 -0.007688 0.000631 0.006191 -0.009080
# 3 -0.005904 -0.007688 0.020962 0.001386 -0.004870 0.011153
# 4 0.005941 0.000631 0.001386 0.040761 0.005277 0.006793
# 5 0.004673 0.006191 -0.004870 0.005277 0.052145 -0.024287
# 6 -0.001599 -0.009080 0.011153 0.006793 -0.024287 0.076184
#
#
# Mechanical properties :
#
#
# Convention : Reuss Voigt Hill
#
# Bulk Modulus (GPa) = 50.95139 60.03757 55.49448
# Shear Modulus (GPa) = 19.93872 26.17234 23.05553
#
# Velocity S-wave (km/s) = 3.19652 3.66227 3.43729
# Velocity P-wave (km/s) = 6.30350 6.97493 6.64770
#
# Compressibility (1/GPa) = 0.01962655
#
# Stress axis : x y z
#
# Youngs Moduli (GPa) = 66.82423 87.30187 47.70463
#
# Poissons Ratio (x) = 0.02488 0.28165
# Poissons Ratio (y) = 0.01904 0.36678
# Poissons Ratio (z) = 0.39453 0.67122
#
# Static dielectric constant tensor:
#      x y z
#    x 3.622060 -0.067900 -0.119970 
#    y -0.067900 3.303340 0.076940 
#    z -0.119970 0.076940 3.488230 
# 
# 
# High freq. dielectric constant tensor:
#      x y z
#    x 1.766740 -0.001440 -0.015480 
#    y -0.001440 1.741900 0.006390 
#    z -0.015480 0.006390 1.750830 
# 
# From -- ./inp_files/214218.got.cif
#   From: 2010.06.25/outbox.cif.g09.slc.cpg/sg2_108_cif.got.tgz:214218.got - 2010.06.27 13:26:56.
