data_PCOD8009891
_publ_section_title
;
Structure prediction by ZEFSAII (Michael W. Deem and Ramdas Pophale) SiO2 
 PCOD8009891
Probable space group: P -1
;
_chemical_formula_sum "Si O2"
_cell_formula_units_Z 14
_cell_length_a 12.630527
_cell_length_b 11.415073
_cell_length_c 11.603953
_cell_angle_alpha 82.921903
_cell_angle_beta 122.324993
_cell_angle_gamma 145.717958
_cell_volume 591.615586
_symmetry_space_group_name_H-M "P -1"
_symmetry_group_IT_number 2
_symmetry_cell_setting 'triclinic'
loop_
_space_group_symop_operation_xyz
x,y,z
-x,-y,-z
loop_
_atom_site_type_symbol
_atom_site_label
_atom_site_fract_x
_atom_site_fract_y
_atom_site_fract_z
Si Si1 0.350990 0.813320 0.043431
Si Si2 0.490945 0.415952 0.731355
Si Si3 0.445414 0.999469 0.615321
Si Si4 0.992914 0.890384 0.670949
Si Si5 0.061722 0.723844 0.233786
Si Si6 0.838922 0.542477 0.758713
Si Si7 0.194972 0.239348 0.922147
O O1 0.576364 0.993737 0.261058
O O2 0.227202 0.581577 0.956208
O O3 0.086816 0.673560 0.948919
O O4 0.500000 0.000000 0.000000
O O5 0.309555 0.334588 0.542328
O O6 0.705358 0.507459 0.785176
O O7 0.704772 0.688588 0.894406
O O8 0.273978 0.157800 0.722073
O O9 0.641886 0.050862 0.696444
O O10 0.594113 0.240670 0.607815
O O11 0.121802 0.719118 0.398702
O O12 0.976058 0.736962 0.710064
O O13 0.001219 0.966884 0.789640
O O14 0.996974 0.806366 0.199864
O O15 0.500000 0.500000 0.000000
#
# Coordination Sequence:
#
# PCOD8009891 Si02
#       7
#     2   2   2   2   2   2   2
#     4  11  25  41  66  96 126 168 216 267 323 381
#     4  10  21  40  62  87 134 168 204 262 310 371
#     4  10  22  42  67  92 124 170 209 268 327 368
#     4  10  23  39  62  97 125 169 212 252 314 378
#     4  10  21  41  67  90 127 169 211 262 321 382
#     4  11  22  40  68  94 126 168 213 260 317 379
#     4  10  21  37  62  91 125 167 206 251 312 375
#
# _framework density 23.664014000000002
#
# number of rings (size 3 to 8) (size 9 to 14) (size 15 to 20)
#    0.000    1.714    0.000    4.714    6.000    1.143 
#    0.000    5.714    0.000    0.000    0.000    0.000 
#    0.000    0.000    0.000    0.000    0.000    0.000 
#
# Total GULP energy -173502.759911 kJ/mol
# GULP energy per Si atom -12393.054279 kJ/mol
# Density = 2.361015 g / cm^3
# Si number density = 23.664014 Si / 1000 Ang^3
#
#
#
# Elastic Constant Matrix: (Units=GPa)
#
#
# Indices 1 2 3 4 5 6 
#
# 1 85.4101 10.0240 23.0452 -0.4989 -2.3453 -12.1971
# 2 10.0240 70.5481 11.6767 -13.5034 -4.9926 -15.1994
# 3 23.0452 11.6767 153.1721 -25.7546 -16.5129 7.0742
# 4 -0.4989 -13.5034 -25.7546 23.4473 6.5760 0.4578
# 5 -2.3453 -4.9926 -16.5129 6.5760 28.1253 -9.7092
# 6 -12.1971 -15.1994 7.0742 0.4578 -9.7092 26.0437
#
#
#
# Elastic Compliance Matrix: (Units=1/GPa)
#
#
# Indices 1 2 3 4 5 6 
#
# 1 0.013733 -0.000218 -0.002741 -0.003932 0.003298 0.008347
# 2 -0.000218 0.019190 0.000164 0.009344 0.005806 0.013053
# 3 -0.002741 0.000164 0.008823 0.009301 0.001735 -0.003101
# 4 -0.003932 0.009344 0.009301 0.060596 -0.008458 -0.003133
# 5 0.003298 0.005806 0.001735 -0.008458 0.047571 0.022345
# 6 0.008347 0.013053 -0.003101 -0.003133 0.022345 0.059152
#
#
# Mechanical properties :
#
#
# Convention : Reuss Voigt Hill
#
# Bulk Modulus (GPa) = 27.65786 44.29135 35.97461
# Shear Modulus (GPa) = 22.05494 33.14888 27.60191
#
# Velocity S-wave (km/s) = 3.05619 3.74681 3.41898
# Velocity P-wave (km/s) = 4.91597 6.12172 5.55168
#
# Compressibility (1/GPa) = 0.03615609
#
# Stress axis : x y z
#
# Youngs Moduli (GPa) = 72.81755 52.10972 113.34585
#
# Poissons Ratio (x) = 0.01138 0.31063
# Poissons Ratio (y) = 0.01591 -0.01861
# Poissons Ratio (z) = 0.19956 -0.00856
#
# Static dielectric constant tensor:
#      x y z
#    x 4.595360 -0.050430 -0.125620 
#    y -0.050430 4.030800 -0.014390 
#    z -0.125620 -0.014390 4.928930 
# 
# 
# High freq. dielectric constant tensor:
#      x y z
#    x 1.948150 0.001990 -0.006000 
#    y 0.001990 1.904140 -0.008520 
#    z -0.006000 -0.008520 1.955690 
# 
# From -- ./inp_files/426226.got.cif
#   From: 2010.06.25/outbox.cif.g09.slc.cpg/sg2_214_cif.got.tgz:426226.got - 2010.06.27 13:26:56.
