data_PCOD8009651
_publ_section_title
;
Structure prediction by ZEFSAII (Michael W. Deem and Ramdas Pophale) SiO2 
 PCOD8009651
Probable space group: P -1
;
_chemical_formula_sum "Si O2"
_cell_formula_units_Z 16
_cell_length_a 12.988360
_cell_length_b 23.318631
_cell_length_c 9.599089
_cell_angle_alpha 34.959603
_cell_angle_beta 114.638751
_cell_angle_gamma 142.163072
_cell_volume 771.819877
_symmetry_space_group_name_H-M "P -1"
_symmetry_group_IT_number 2
_symmetry_cell_setting 'triclinic'
loop_
_space_group_symop_operation_xyz
x,y,z
-x,-y,-z
loop_
_atom_site_type_symbol
_atom_site_label
_atom_site_fract_x
_atom_site_fract_y
_atom_site_fract_z
Si Si1 0.872987 0.433964 0.845094
Si Si2 0.577796 0.513928 0.229669
Si Si3 0.509966 0.812768 0.688309
Si Si4 0.366322 0.800943 0.356458
Si Si5 0.887697 0.225404 0.199562
Si Si6 0.152254 0.239920 0.386523
Si Si7 0.175448 0.131131 0.215575
Si Si8 0.758512 0.439896 0.476541
O O1 0.795523 0.405941 0.703944
O O2 0.128621 0.658138 0.562952
O O3 0.729558 0.380087 0.989162
O O4 0.853622 0.299400 0.122366
O O5 0.314759 0.338948 0.410719
O O6 0.597064 0.410608 0.476102
O O7 0.705110 0.645218 0.902120
O O8 0.693485 0.662576 0.128461
O O9 0.490105 0.830982 0.482443
O O10 0.631438 0.799999 0.777825
O O11 0.647618 0.998539 0.483524
O O12 0.354467 0.720707 0.375978
O O13 0.500000 0.000000 0.000000
O O14 0.033277 0.256866 0.308909
O O15 0.010018 0.343052 0.887655
O O16 0.962042 0.007972 0.723346
O O17 0.000000 0.000000 0.500000
#
# Coordination Sequence:
#
# PCOD8009651 Si02
#       8
#     2   2   2   2   2   2   2   2
#     4  11  22  38  57  86 125 157 193 241 308 358
#     4   9  17  31  54  81 113 147 196 251 287 336
#     4  11  22  36  59  92 119 152 193 252 305 351
#     4  11  23  38  59  88 119 155 204 245 289 357
#     4   9  18  35  59  83 112 157 196 243 291 363
#     4   8  16  29  51  86 109 142 198 249 290 338
#     4   9  19  32  56  87 115 151 202 246 293 357
#     4  10  21  37  59  84 116 159 199 240 295 358
#
# _framework density 20.730225000000001
#
# number of rings (size 3 to 8) (size 9 to 14) (size 15 to 20)
#    0.000    2.250    0.000    4.500    8.750    0.000 
#    0.000    0.625    0.000    3.000    0.000    0.000 
#    0.000    0.000    0.000    0.000    0.000    0.000 
#
# Total GULP energy -198341.579911 kJ/mol
# GULP energy per Si atom -12396.348744 kJ/mol
# Density = 2.068304 g / cm^3
# Si number density = 20.730225 Si / 1000 Ang^3
#
#
#
# Elastic Constant Matrix: (Units=GPa)
#
#
# Indices 1 2 3 4 5 6 
#
# 1 126.2677 33.3678 43.9303 -15.9717 9.8903 17.9099
# 2 33.3678 67.2566 23.1571 -28.8937 7.0878 20.1068
# 3 43.9303 23.1571 65.5095 -25.8844 14.4196 0.1938
# 4 -15.9717 -28.8937 -25.8844 26.5381 -8.8010 -1.0467
# 5 9.8903 7.0878 14.4196 -8.8010 21.5296 -2.4497
# 6 17.9099 20.1068 0.1938 -1.0467 -2.4497 24.2564
#
#
#
# Elastic Compliance Matrix: (Units=1/GPa)
#
#
# Indices 1 2 3 4 5 6 
#
# 1 0.012247 -0.003320 -0.008933 -0.005771 -0.001664 -0.006636
# 2 -0.003320 0.049777 0.007867 0.058287 -0.000446 -0.036403
# 3 -0.008933 0.007867 0.033143 0.033197 -0.007053 0.000530
# 4 -0.005771 0.058287 0.033197 0.132221 0.011012 -0.037502
# 5 -0.001664 -0.000446 -0.007053 0.011012 0.057487 0.007936
# 6 -0.006636 -0.036403 0.000530 -0.037502 0.007936 0.075480
#
#
# Mechanical properties :
#
#
# Convention : Reuss Voigt Hill
#
# Bulk Modulus (GPa) = 11.57496 51.10491 31.33993
# Shear Modulus (GPa) = 12.56517 25.03671 18.80094
#
# Velocity S-wave (km/s) = 2.46464 3.47902 3.01480
# Velocity P-wave (km/s) = 3.70067 6.39093 5.22202
#
# Compressibility (1/GPa) = 0.08639342
#
# Stress axis : x y z
#
# Youngs Moduli (GPa) = 81.65458 20.08957 30.17273
#
# Poissons Ratio (x) = 0.06670 0.26954
# Poissons Ratio (y) = 0.27111 -0.23738
# Poissons Ratio (z) = 0.72945 -0.15805
#
# Static dielectric constant tensor:
#      x y z
#    x 3.720870 0.187310 0.113410 
#    y 0.187310 3.850700 -0.421620 
#    z 0.113410 -0.421620 3.589110 
# 
# 
# High freq. dielectric constant tensor:
#      x y z
#    x 1.817150 0.015970 0.013550 
#    y 0.015970 1.803790 -0.028160 
#    z 0.013550 -0.028160 1.784960 
# 
# From -- ./inp_files/218719.got.cif
#   From: 2010.06.25/outbox.cif.g09.slc.cpg/sg2_110_cif.got.tgz:218719.got - 2010.06.27 13:26:56.
