data_PCOD8009751
_publ_section_title
;
Structure prediction by ZEFSAII (Michael W. Deem and Ramdas Pophale) SiO2 
 PCOD8009751
Probable space group: P -1
;
_chemical_formula_sum "Si O2"
_cell_formula_units_Z 12
_cell_length_a 9.172705
_cell_length_b 8.380869
_cell_length_c 9.305587
_cell_angle_alpha 112.758764
_cell_angle_beta 110.418316
_cell_angle_gamma 56.082296
_cell_volume 539.089468
_symmetry_space_group_name_H-M "P -1"
_symmetry_group_IT_number 2
_symmetry_cell_setting 'triclinic'
loop_
_space_group_symop_operation_xyz
x,y,z
-x,-y,-z
loop_
_atom_site_type_symbol
_atom_site_label
_atom_site_fract_x
_atom_site_fract_y
_atom_site_fract_z
Si Si1 0.591892 0.777228 0.624543
Si Si2 0.469872 0.335602 0.741812
Si Si3 0.311474 0.175291 0.820870
Si Si4 0.006134 0.178757 0.879727
Si Si5 0.812145 0.962146 0.805347
Si Si6 0.351746 0.424586 0.146630
O O1 0.511438 0.737653 0.440934
O O2 0.756353 0.816015 0.652212
O O3 0.658666 0.591754 0.690517
O O4 0.440296 0.963786 0.722975
O O5 0.294062 0.349695 0.763536
O O6 0.482133 0.537307 0.821010
O O7 0.633520 0.173034 0.836436
O O8 0.124387 0.180847 0.787534
O O9 0.383071 0.222141 0.010793
O O10 0.833585 0.393486 0.907067
O O11 0.115062 0.135120 0.049203
O O12 0.952722 0.004529 0.779459
#
# Coordination Sequence:
#
# PCOD8009751 Si02
#       6
#     2   2   2   2   2   2
#     4  11  22  40  63  85 122 156 194 239 298 347
#     4  10  23  40  60  87 122 158 190 242 295 350
#     4  11  21  38  62  93 110 155 207 238 282 349
#     4  10  21  37  60  90 118 152 194 250 290 338
#     4   9  19  37  60  82 118 153 195 232 298 336
#     4  11  22  39  62  88 120 152 197 244 294 340
#
# _framework density 22.259754000000001
#
# number of rings (size 3 to 8) (size 9 to 14) (size 15 to 20)
#    0.000    1.667    1.667    4.000    2.333    0.000 
#    3.000    8.333    3.667    0.000    0.000    0.000 
#    0.000    0.000    0.000    0.000    0.000    0.000 
#
# Total GULP energy -148673.198352 kJ/mol
# GULP energy per Si atom -12389.433196 kJ/mol
# Density = 2.220909 g / cm^3
# Si number density = 22.259754 Si / 1000 Ang^3
#
#
#
# Elastic Constant Matrix: (Units=GPa)
#
#
# Indices 1 2 3 4 5 6 
#
# 1 165.6650 29.7907 40.5474 8.0797 -7.3381 35.3821
# 2 29.7907 60.8070 35.6250 -8.6361 -0.2734 12.6999
# 3 40.5474 35.6250 77.9749 -5.4215 -9.2173 -11.6006
# 4 8.0797 -8.6361 -5.4215 26.7613 7.8957 1.4398
# 5 -7.3381 -0.2734 -9.2173 7.8957 26.9588 -3.2104
# 6 35.3821 12.6999 -11.6006 1.4398 -3.2104 31.0013
#
#
#
# Elastic Compliance Matrix: (Units=1/GPa)
#
#
# Indices 1 2 3 4 5 6 
#
# 1 0.012987 0.005503 -0.013072 -0.002810 -0.002689 -0.022117
# 2 0.005503 0.037236 -0.025699 0.011092 -0.014105 -0.033127
# 3 -0.013072 -0.025699 0.039202 -0.003236 0.015519 0.041873
# 4 -0.002810 0.011092 -0.003236 0.046218 -0.016052 -0.006357
# 5 -0.002689 -0.014105 0.015519 -0.016052 0.048660 0.020439
# 6 -0.022117 -0.033127 0.041873 -0.006357 0.020439 0.089150
#
#
# Mechanical properties :
#
#
# Convention : Reuss Voigt Hill
#
# Bulk Modulus (GPa) = 43.68320 57.37479 50.52900
# Shear Modulus (GPa) = 14.38359 30.17653 22.28006
#
# Velocity S-wave (km/s) = 2.54475 3.68592 3.16715
# Velocity P-wave (km/s) = 5.31989 6.62916 6.01028
#
# Compressibility (1/GPa) = 0.02289209
#
# Stress axis : x y z
#
# Youngs Moduli (GPa) = 76.99728 26.85558 25.50875
#
# Poissons Ratio (x) = -0.14780 0.33344
# Poissons Ratio (y) = -0.42374 0.65554
# Poissons Ratio (z) = 1.00647 0.69015
#
# Static dielectric constant tensor:
#      x y z
#    x 4.607240 0.574970 0.159990 
#    y 0.574970 3.912440 -0.189090 
#    z 0.159990 -0.189090 3.787810 
# 
# 
# High freq. dielectric constant tensor:
#      x y z
#    x 1.889190 0.040980 0.010330 
#    y 0.040980 1.861980 -0.013180 
#    z 0.010330 -0.013180 1.854340 
# 
# From -- ./inp_files/144751.got.cif
#   From: 2010.06.25/outbox.cif.g09.slc.cpg/sg2_73_cif.got.tgz:144751.got - 2010.06.27 13:26:56.
