data_PCOD8009186
_publ_section_title
;
Structure prediction by ZEFSAII (Michael W. Deem and Ramdas Pophale) SiO2 
 PCOD8009186
Probable space group: P -1
;
_chemical_formula_sum "Si O2"
_cell_formula_units_Z 16
_cell_length_a 9.423792
_cell_length_b 14.563493
_cell_length_c 12.349324
_cell_angle_alpha 63.693188
_cell_angle_beta 30.597194
_cell_angle_gamma 76.078072
_cell_volume 735.558383
_symmetry_space_group_name_H-M "P -1"
_symmetry_group_IT_number 2
_symmetry_cell_setting 'triclinic'
loop_
_space_group_symop_operation_xyz
x,y,z
-x,-y,-z
loop_
_atom_site_type_symbol
_atom_site_label
_atom_site_fract_x
_atom_site_fract_y
_atom_site_fract_z
Si Si1 0.724142 0.197743 0.403339
Si Si2 0.820526 0.072872 0.217624
Si Si3 0.284872 0.845043 0.159108
Si Si4 0.665451 0.370141 0.754769
Si Si5 0.173639 0.502882 0.215372
Si Si6 0.903275 0.561583 0.933105
Si Si7 0.248481 0.948041 0.340954
Si Si8 0.936517 0.866741 0.194896
O O1 0.918211 0.165513 0.197295
O O2 0.677642 0.110727 0.573267
O O3 0.402855 0.192025 0.576124
O O4 0.879380 0.317530 0.280860
O O5 0.500000 0.000000 0.500000
O O6 0.009396 0.990267 0.127591
O O7 0.855924 0.132018 0.046650
O O8 0.469225 0.759906 0.093054
O O9 0.151924 0.861338 0.353491
O O10 0.018729 0.798074 0.273389
O O11 0.469658 0.957200 0.928442
O O12 0.803711 0.397655 0.770865
O O13 0.935784 0.399376 0.478029
O O14 0.426096 0.428723 0.846958
O O15 0.073341 0.507205 0.154017
O O16 0.500000 0.500000 0.000000
O O17 0.000000 0.500000 0.000000
O O18 0.000000 0.000000 0.500000
#
# Coordination Sequence:
#
# PCOD8009186 Si02
#       8
#     2   2   2   2   2   2   2   2
#     4  11  23  39  61  88 122 163 204 252 308 367
#     4   9  18  35  56  83 119 158 199 242 292 355
#     4  11  23  38  62  95 125 164 209 248 307 376
#     4  10  22  42  67  91 124 165 208 263 314 372
#     4   9  21  43  66  89 120 160 209 261 316 370
#     4  11  25  43  64  92 123 161 211 266 323 375
#     4  11  23  39  61  92 131 167 202 249 306 373
#     4  10  21  36  58  87 122 159 202 249 297 364
#
# _framework density 21.752182999999999
#
# number of rings (size 3 to 8) (size 9 to 14) (size 15 to 20)
#    0.000    1.750    0.000    4.500    0.000   10.500 
#    0.000    0.000    0.000    0.000    0.000    0.000 
#    0.000    0.000    0.000    0.000    0.000    0.000 
#
# Total GULP energy -198230.628624 kJ/mol
# GULP energy per Si atom -12389.414289 kJ/mol
# Density = 2.170267 g / cm^3
# Si number density = 21.752183 Si / 1000 Ang^3
#
#
#
# Elastic Constant Matrix: (Units=GPa)
#
#
# Indices 1 2 3 4 5 6 
#
# 1 158.2841 61.4530 47.5095 19.1593 13.6379 9.8236
# 2 61.4530 102.9222 33.7783 5.6417 11.9842 3.0514
# 3 47.5095 33.7783 94.6634 15.0711 6.6336 9.9628
# 4 19.1593 5.6417 15.0711 28.4204 10.0830 3.0687
# 5 13.6379 11.9842 6.6336 10.0830 36.7960 7.7452
# 6 9.8236 3.0514 9.9628 3.0687 7.7452 32.0478
#
#
#
# Elastic Compliance Matrix: (Units=1/GPa)
#
#
# Indices 1 2 3 4 5 6 
#
# 1 0.009350 -0.004552 -0.002285 -0.003974 -0.000210 -0.001291
# 2 -0.004552 0.013588 -0.002964 0.002962 -0.003341 0.001547
# 3 -0.002285 -0.002964 0.013858 -0.005396 0.001458 -0.003161
# 4 -0.003974 0.002962 -0.005396 0.043842 -0.010746 0.001013
# 5 -0.000210 -0.003341 0.001458 -0.010746 0.032475 -0.006890
# 6 -0.001291 0.001547 -0.003161 0.001013 -0.006890 0.034003
#
#
# Mechanical properties :
#
#
# Convention : Reuss Voigt Hill
#
# Bulk Modulus (GPa) = 58.16271 71.26127 64.71199
# Shear Modulus (GPa) = 28.99411 33.66142 31.32777
#
# Velocity S-wave (km/s) = 3.65489 3.93809 3.79913
# Velocity P-wave (km/s) = 6.67891 7.31503 7.00420
#
# Compressibility (1/GPa) = 0.01719315
#
# Stress axis : x y z
#
# Youngs Moduli (GPa) = 106.94817 73.59552 72.16197
#
# Poissons Ratio (x) = 0.33504 0.16489
# Poissons Ratio (y) = 0.48687 0.21388
# Poissons Ratio (z) = 0.24438 0.21813
#
# Static dielectric constant tensor:
#      x y z
#    x 4.003120 0.995280 -0.696690 
#    y 0.995280 3.346970 1.619830 
#    z -0.696690 1.619830 0.535490 
# 
# 
# High freq. dielectric constant tensor:
#      x y z
#    x 1.862820 0.020340 0.005970 
#    y 0.020340 1.843380 0.011510 
#    z 0.005970 0.011510 1.853710 
# 
# From -- ./inp_files/398870.got.cif
#   From: 2010.06.25/outbox.cif.g09.slc.cpg/sg2_200_cif.got.tgz:398870.got - 2010.06.27 13:26:56.
