data_PCOD8009686
_publ_section_title
;
Structure prediction by ZEFSAII (Michael W. Deem and Ramdas Pophale) SiO2 
 PCOD8009686
Probable space group: P -1
;
_chemical_formula_sum "Si O2"
_cell_formula_units_Z 14
_cell_length_a 17.616373
_cell_length_b 16.480812
_cell_length_c 8.077605
_cell_angle_alpha 101.452220
_cell_angle_beta 68.230860
_cell_angle_gamma 159.806070
_cell_volume 665.042507
_symmetry_space_group_name_H-M "P -1"
_symmetry_group_IT_number 2
_symmetry_cell_setting 'triclinic'
loop_
_space_group_symop_operation_xyz
x,y,z
-x,-y,-z
loop_
_atom_site_type_symbol
_atom_site_label
_atom_site_fract_x
_atom_site_fract_y
_atom_site_fract_z
Si Si1 0.391198 0.342155 0.374953
Si Si2 0.597059 0.175946 0.581390
Si Si3 0.088780 0.778101 0.898392
Si Si4 0.891621 0.864903 0.771035
Si Si5 0.322124 0.733243 0.071797
Si Si6 0.892447 0.305285 0.823096
Si Si7 0.906431 0.782395 0.051671
O O1 0.500000 0.500000 0.500000
O O2 0.367322 0.370791 0.230330
O O3 0.606333 0.476847 0.229941
O O4 0.107371 0.037068 0.535285
O O5 0.638054 0.192881 0.745976
O O6 0.868309 0.473239 0.409485
O O7 0.500000 0.000000 0.500000
O O8 0.368113 0.024825 0.690605
O O9 0.841717 0.509648 0.879173
O O10 0.032191 0.676634 0.073690
O O11 0.081197 0.869194 0.963890
O O12 0.873568 0.776128 0.884449
O O13 0.962493 0.020036 0.863772
O O14 0.153973 0.641882 0.074147
O O15 0.609063 0.997332 0.861071
#
# Coordination Sequence:
#
# PCOD8009686 Si02
#       7
#     2   2   2   2   2   2   2
#     4   9  18  35  61  87 110 153 195 233 291 359
#     4  11  23  38  62  86 115 160 207 245 294 360
#     4  11  24  38  57  92 122 153 201 252 298 351
#     4   9  19  38  63  85 116 155 196 237 292 365
#     4  10  22  38  60  84 113 158 203 247 300 354
#     4  10  22  38  60  83 114 156 199 248 297 355
#     4  10  21  37  59  88 120 154 192 245 301 349
#
# _framework density 21.051285
#
# number of rings (size 3 to 8) (size 9 to 14) (size 15 to 20)
#    0.000    2.000    1.429    1.286    4.000    3.429 
#    0.000    4.286    0.000    0.000    0.000    0.000 
#    0.000    0.000    0.000    0.000    0.000    0.000 
#
# Total GULP energy -173448.092999 kJ/mol
# GULP energy per Si atom -12389.149500 kJ/mol
# Density = 2.100337 g / cm^3
# Si number density = 21.051285 Si / 1000 Ang^3
#
#
#
# Elastic Constant Matrix: (Units=GPa)
#
#
# Indices 1 2 3 4 5 6 
#
# 1 116.9516 37.5394 60.2373 0.4085 -17.8754 8.1296
# 2 37.5394 85.4118 44.8031 -10.4591 -0.1237 15.1770
# 3 60.2373 44.8031 124.6255 -26.9962 -9.7945 9.1103
# 4 0.4085 -10.4591 -26.9962 45.4443 12.4821 4.3306
# 5 -17.8754 -0.1237 -9.7945 12.4821 33.5479 -1.1454
# 6 8.1296 15.1770 9.1103 4.3306 -1.1454 27.7792
#
#
#
# Elastic Compliance Matrix: (Units=1/GPa)
#
#
# Indices 1 2 3 4 5 6 
#
# 1 0.014509 -0.004125 -0.006609 -0.007545 0.008651 0.001708
# 2 -0.004125 0.017030 -0.003003 0.004271 -0.004873 -0.007979
# 3 -0.006609 -0.003003 0.014172 0.008786 -0.002751 -0.002556
# 4 -0.007545 0.004271 0.008786 0.032951 -0.013997 -0.008721
# 5 0.008651 -0.004873 -0.002751 -0.013997 0.038969 0.004822
# 6 0.001708 -0.007979 -0.002556 -0.008721 0.004822 0.042254
#
#
# Mechanical properties :
#
#
# Convention : Reuss Voigt Hill
#
# Bulk Modulus (GPa) = 54.83418 68.01648 61.42533
# Shear Modulus (GPa) = 25.84816 33.64824 29.74820
#
# Velocity S-wave (km/s) = 3.50789 4.00233 3.76324
# Velocity P-wave (km/s) = 6.52009 7.33064 6.93721
#
# Compressibility (1/GPa) = 0.01823680
#
# Stress axis : x y z
#
# Youngs Moduli (GPa) = 68.92502 58.72019 70.56141
#
# Poissons Ratio (x) = 0.24220 0.46635
# Poissons Ratio (y) = 0.28429 0.21190
# Poissons Ratio (z) = 0.45553 0.17634
#
# Static dielectric constant tensor:
#      x y z
#    x 3.488060 0.318180 0.004220 
#    y 0.318180 4.065450 -0.371530 
#    z 0.004220 -0.371530 4.248210 
# 
# 
# High freq. dielectric constant tensor:
#      x y z
#    x 1.791510 0.030430 0.007330 
#    y 0.030430 1.829260 -0.016350 
#    z 0.007330 -0.016350 1.834620 
# 
# From -- ./inp_files/336277.got.cif
#   From: 2010.06.25/outbox.cif.g09.slc.cpg/sg2_169_cif.got.tgz:336277.got - 2010.06.27 13:26:56.
