data_PCOD8009178
_publ_section_title
;
Structure prediction by ZEFSAII (Michael W. Deem and Ramdas Pophale) SiO2 
 PCOD8009178
Probable space group: P -1
;
_chemical_formula_sum "Si O2"
_cell_formula_units_Z 10
_cell_length_a 12.761365
_cell_length_b 16.701983
_cell_length_c 7.922606
_cell_angle_alpha 116.543452
_cell_angle_beta 130.254063
_cell_angle_gamma 23.325236
_cell_volume 446.306600
_symmetry_space_group_name_H-M "P -1"
_symmetry_group_IT_number 2
_symmetry_cell_setting 'triclinic'
loop_
_space_group_symop_operation_xyz
x,y,z
-x,-y,-z
loop_
_atom_site_type_symbol
_atom_site_label
_atom_site_fract_x
_atom_site_fract_y
_atom_site_fract_z
Si Si1 0.328003 0.841442 0.901298
Si Si2 0.798479 0.254070 0.515530
Si Si3 0.435244 0.963262 0.704979
Si Si4 0.825478 0.696731 0.175094
Si Si5 0.351590 0.306799 0.577181
O O1 0.370555 0.714335 0.762566
O O2 0.644398 0.710325 0.032011
O O3 0.354623 0.825137 0.118965
O O4 0.952808 0.107554 0.699896
O O5 0.500000 0.500000 0.500000
O O6 0.104869 0.125203 0.620583
O O7 0.483070 0.884073 0.503717
O O8 0.368372 0.108279 0.735090
O O9 0.792805 0.738159 0.980465
O O10 0.236093 0.440627 0.424985
O O11 0.000000 0.500000 0.500000
#
# Coordination Sequence:
#
# PCOD8009178 Si02
#       5
#     2   2   2   2   2
#     4   9  21  38  58  83 111 146 188 225 274 335
#     4  10  22  40  58  78 112 152 186 226 273 325
#     4  10  21  36  58  87 111 143 189 225 270 334
#     4   9  20  37  60  84 111 144 184 231 276 324
#     4  10  21  36  58  85 115 143 178 233 283 322
#
# _framework density 22.406122
#
# number of rings (size 3 to 8) (size 9 to 14) (size 15 to 20)
#    0.000    2.400    0.000    0.600    0.000   20.000 
#    0.000    2.000    0.000    0.000    0.000    0.000 
#    0.000    0.000    0.000    0.000    0.000    0.000 
#
# Total GULP energy -123936.978289 kJ/mol
# GULP energy per Si atom -12393.697829 kJ/mol
# Density = 2.235512 g / cm^3
# Si number density = 22.406122 Si / 1000 Ang^3
#
#
#
# Elastic Constant Matrix: (Units=GPa)
#
#
# Indices 1 2 3 4 5 6 
#
# 1 33.6486 21.7346 18.7210 2.9772 7.9504 1.7427
# 2 21.7346 135.4809 66.7638 30.4536 -6.0892 -1.8408
# 3 18.7210 66.7638 170.6560 28.7912 -23.7328 11.3462
# 4 2.9772 30.4536 28.7912 39.2652 2.5636 0.5735
# 5 7.9504 -6.0892 -23.7328 2.5636 26.6807 2.2441
# 6 1.7427 -1.8408 11.3462 0.5735 2.2441 31.6519
#
#
#
# Elastic Compliance Matrix: (Units=1/GPa)
#
#
# Indices 1 2 3 4 5 6 
#
# 1 0.041132 -0.006095 -0.006225 0.007463 -0.019977 0.000893
# 2 -0.006095 0.011142 -0.002277 -0.006720 0.002835 0.001721
# 3 -0.006225 -0.002277 0.010318 -0.006014 0.011443 -0.004191
# 4 0.007463 -0.006720 -0.006014 0.035325 -0.012637 0.001610
# 5 -0.019977 0.002835 0.011443 -0.012637 0.056027 -0.006581
# 6 0.000893 0.001721 -0.004191 0.001610 -0.006581 0.033584
#
#
# Mechanical properties :
#
#
# Convention : Reuss Voigt Hill
#
# Bulk Modulus (GPa) = 29.93984 61.58047 45.76016
# Shear Modulus (GPa) = 21.94387 35.02396 28.48392
#
# Velocity S-wave (km/s) = 3.13288 3.95795 3.56934
# Velocity P-wave (km/s) = 5.14567 6.95921 6.11999
#
# Compressibility (1/GPa) = 0.03340031
#
# Stress axis : x y z
#
# Youngs Moduli (GPa) = 24.31186 89.74842 96.91879
#
# Poissons Ratio (x) = 0.54698 0.60328
# Poissons Ratio (y) = 0.14817 0.22067
# Poissons Ratio (z) = 0.15133 0.20434
#
# Static dielectric constant tensor:
#      x y z
#    x 3.945740 0.449260 -0.500920 
#    y 0.449260 4.052690 -0.241920 
#    z -0.500920 -0.241920 4.987740 
# 
# 
# High freq. dielectric constant tensor:
#      x y z
#    x 1.846990 0.018950 -0.008940 
#    y 0.018950 1.883290 0.007620 
#    z -0.008940 0.007620 1.900530 
# 
# From -- ./inp_files/15828.got.cif
#   From: 2010.06.25/outbox.cif.g09.slc.cpg/sg2_8_cif.got.tgz:15828.got - 2010.06.27 13:26:56.
