data_PCOD8009963
_publ_section_title
;
Structure prediction by ZEFSAII (Michael W. Deem and Ramdas Pophale) SiO2 
 PCOD8009963
Probable space group: P -1
;
_chemical_formula_sum "Si O2"
_cell_formula_units_Z 14
_cell_length_a 19.902287
_cell_length_b 7.303603
_cell_length_c 7.772006
_cell_angle_alpha 142.592806
_cell_angle_beta 61.030235
_cell_angle_gamma 114.675460
_cell_volume 599.270074
_symmetry_space_group_name_H-M "P -1"
_symmetry_group_IT_number 2
_symmetry_cell_setting 'triclinic'
loop_
_space_group_symop_operation_xyz
x,y,z
-x,-y,-z
loop_
_atom_site_type_symbol
_atom_site_label
_atom_site_fract_x
_atom_site_fract_y
_atom_site_fract_z
Si Si1 0.068613 0.334847 0.090846
Si Si2 0.412421 0.902214 0.074762
Si Si3 0.826414 0.402335 0.208733
Si Si4 0.652543 0.487105 0.435183
Si Si5 0.903902 0.308452 0.362537
Si Si6 0.090091 0.976321 0.396492
Si Si7 0.556591 0.250600 0.697927
O O1 0.078107 0.388784 0.323846
O O2 0.110222 0.647131 0.204013
O O3 0.977514 0.293310 0.129166
O O4 0.105009 0.011346 0.757643
O O5 0.400537 0.833381 0.241032
O O6 0.356161 0.156818 0.278189
O O7 0.390709 0.620663 0.766841
O O8 0.500000 0.000000 0.000000
O O9 0.741117 0.421413 0.259810
O O10 0.829287 0.379441 0.395909
O O11 0.878021 0.712551 0.315635
O O12 0.860435 0.077639 0.876222
O O13 0.619570 0.340189 0.542344
O O14 0.000000 0.000000 0.500000
O O15 0.500000 0.000000 0.500000
O O16 0.500000 0.500000 0.000000
#
# Coordination Sequence:
#
# PCOD8009963 Si02
#       7
#     2   2   2   2   2   2   2
#     4  10  21  37  63  91 119 161 231 282 328 407
#     4  12  23  44  78 105 143 184 240 289 341 430
#     4  12  26  44  65  95 140 181 221 296 367 399
#     4  12  26  47  67 105 152 186 232 297 358 425
#     4  10  21  38  62  91 124 165 214 285 343 400
#     4  12  24  42  68  93 127 180 237 287 343 424
#     4  12  23  42  76 109 136 184 234 283 348 421
#
# _framework density 23.361751000000002
#
# number of rings (size 3 to 8) (size 9 to 14) (size 15 to 20)
#    0.000    0.571    4.286    4.286    4.000    0.000 
#    7.714    0.000    0.000    0.000    0.000    0.000 
#    0.000    0.000    0.000    0.000    0.000    0.000 
#
# Total GULP energy -173444.939756 kJ/mol
# GULP energy per Si atom -12388.924268 kJ/mol
# Density = 2.330858 g / cm^3
# Si number density = 23.361751 Si / 1000 Ang^3
#
#
#
# Elastic Constant Matrix: (Units=GPa)
#
#
# Indices 1 2 3 4 5 6 
#
# 1 111.9099 24.0217 22.9566 -5.7370 -4.1384 9.1489
# 2 24.0217 98.3342 12.1245 7.9934 0.0260 -10.7348
# 3 22.9566 12.1245 137.3262 16.5245 -1.4539 13.3206
# 4 -5.7370 7.9934 16.5245 37.6543 -2.3931 -2.6222
# 5 -4.1384 0.0260 -1.4539 -2.3931 39.1652 -2.4863
# 6 9.1489 -10.7348 13.3206 -2.6222 -2.4863 39.8449
#
#
#
# Elastic Compliance Matrix: (Units=1/GPa)
#
#
# Indices 1 2 3 4 5 6 
#
# 1 0.010221 -0.002782 -0.001555 0.002734 0.001043 -0.002332
# 2 -0.002782 0.011533 -0.000642 -0.002341 -0.000228 0.003792
# 3 -0.001555 -0.000642 0.008355 -0.003986 -0.000281 -0.002889
# 4 0.002734 -0.002341 -0.003986 0.029502 0.002081 0.002146
# 5 0.001043 -0.000228 -0.000281 0.002081 0.025858 0.001543
# 6 -0.002332 0.003792 -0.002889 0.002146 0.001543 0.027858
#
#
# Mechanical properties :
#
#
# Convention : Reuss Voigt Hill
#
# Bulk Modulus (GPa) = 49.62352 51.75287 50.68819
# Shear Modulus (GPa) = 38.46100 42.56404 40.51252
#
# Velocity S-wave (km/s) = 4.06189 4.27307 4.16882
# Velocity P-wave (km/s) = 6.57922 6.82249 6.70196
#
# Compressibility (1/GPa) = 0.02015174
#
# Stress axis : x y z
#
# Youngs Moduli (GPa) = 97.83489 86.71136 119.68220
#
# Poissons Ratio (x) = 0.24126 0.18608
# Poissons Ratio (y) = 0.27221 0.07679
# Poissons Ratio (z) = 0.15212 0.05564
#
# Static dielectric constant tensor:
#      x y z
#    x 4.020070 -0.367140 0.130100 
#    y -0.367140 4.395290 0.129240 
#    z 0.130100 0.129240 5.038770 
# 
# 
# High freq. dielectric constant tensor:
#      x y z
#    x 1.907260 -0.027810 0.014860 
#    y -0.027810 1.916740 0.010560 
#    z 0.014860 0.010560 1.957510 
# 
# From -- ./inp_files/329706.got.cif
#   From: 2010.06.25/outbox.cif.g09.slc.cpg/sg2_165_cif.got.tgz:329706.got - 2010.06.27 13:26:56.
