data_PCOD8009217
_publ_section_title
;
Structure prediction by ZEFSAII (Michael W. Deem and Ramdas Pophale) SiO2 
 PCOD8009217
Probable space group: P -1
;
_chemical_formula_sum "Si O2"
_cell_formula_units_Z 16
_cell_length_a 11.894144
_cell_length_b 25.005983
_cell_length_c 18.103117
_cell_angle_alpha 16.856573
_cell_angle_beta 37.920461
_cell_angle_gamma 29.465999
_cell_volume 729.918240
_symmetry_space_group_name_H-M "P -1"
_symmetry_group_IT_number 2
_symmetry_cell_setting 'triclinic'
loop_
_space_group_symop_operation_xyz
x,y,z
-x,-y,-z
loop_
_atom_site_type_symbol
_atom_site_label
_atom_site_fract_x
_atom_site_fract_y
_atom_site_fract_z
Si Si1 0.487120 0.746780 0.770911
Si Si2 0.463390 0.735679 0.334871
Si Si3 0.357713 0.746639 0.087968
Si Si4 0.278755 0.284043 0.158784
Si Si5 0.833472 0.092256 0.871586
Si Si6 0.799452 0.421122 0.903358
Si Si7 0.813307 0.679022 0.422132
Si Si8 0.316023 0.069844 0.096251
O O1 0.642189 0.659482 0.881797
O O2 0.653352 0.616954 0.784631
O O3 0.321594 0.036849 0.468808
O O4 0.323067 0.671151 0.953176
O O5 0.582412 0.505473 0.631797
O O6 0.273509 0.766302 0.336791
O O7 0.308184 0.983283 0.134013
O O8 0.652905 0.729120 0.196131
O O9 0.344136 0.730877 0.204525
O O10 0.566681 0.742289 0.955725
O O11 0.105131 0.993965 0.863179
O O12 0.000000 0.500000 0.000000
O O13 0.864137 0.855837 0.179147
O O14 0.862512 0.530690 0.665164
O O15 0.059280 0.193604 0.104163
O O16 0.000000 0.500000 0.500000
O O17 0.533348 0.836350 0.337729
#
# Coordination Sequence:
#
# PCOD8009217 Si02
#       8
#     2   2   2   2   2   2   2   2
#     4  10  27  47  65  97 125 178 227 276 325 370
#     4  10  21  36  58  97 128 160 202 248 327 388
#     4  11  23  38  64  87 123 169 211 263 313 387
#     4  11  27  47  67  92 129 176 232 271 327 386
#     4  10  22  38  58  95 129 162 204 254 329 388
#     4  11  23  43  71  94 134 169 222 276 322 390
#     4  11  22  38  64 100 134 166 203 263 334 394
#     4  10  22  36  63  97 130 165 206 261 324 395
#
# _framework density 21.920262999999998
#
# number of rings (size 3 to 8) (size 9 to 14) (size 15 to 20)
#    0.000    1.500    0.000    4.875    7.000    5.000 
#    0.000    2.500    0.000    0.000    0.000    0.000 
#    0.000    0.000    0.000    0.000    0.000    0.000 
#
# Total GULP energy -198300.691909 kJ/mol
# GULP energy per Si atom -12393.793244 kJ/mol
# Density = 2.187037 g / cm^3
# Si number density = 21.920263 Si / 1000 Ang^3
#
#
#
# Elastic Constant Matrix: (Units=GPa)
#
#
# Indices 1 2 3 4 5 6 
#
# 1 92.9317 33.7388 14.4099 -20.2494 10.3108 -11.7450
# 2 33.7388 114.8945 26.9861 -15.7508 10.2884 -18.1204
# 3 14.4099 26.9861 82.1794 -11.4063 1.9507 -6.3252
# 4 -20.2494 -15.7508 -11.4063 25.6670 -1.4398 7.5581
# 5 10.3108 10.2884 1.9507 -1.4398 34.6466 -6.1774
# 6 -11.7450 -18.1204 -6.3252 7.5581 -6.1774 27.8727
#
#
#
# Elastic Compliance Matrix: (Units=1/GPa)
#
#
# Indices 1 2 3 4 5 6 
#
# 1 0.014112 -0.002389 -0.000274 0.009017 -0.002878 0.001249
# 2 -0.002389 0.011209 -0.002530 0.002394 -0.001535 0.004717
# 3 -0.000274 -0.002530 0.013648 0.004238 0.000285 0.000251
# 4 0.009017 0.002394 0.004238 0.051724 -0.002975 -0.008367
# 5 -0.002878 -0.001535 0.000285 -0.002975 0.031022 0.005537
# 6 0.001249 0.004717 0.000251 -0.008367 0.005537 0.043023
#
#
# Mechanical properties :
#
#
# Convention : Reuss Voigt Hill
#
# Bulk Modulus (GPa) = 34.98592 48.91944 41.95268
# Shear Modulus (GPa) = 27.07785 31.96197 29.51991
#
# Velocity S-wave (km/s) = 3.51848 3.82265 3.67372
# Velocity P-wave (km/s) = 5.70101 6.46908 6.09715
#
# Compressibility (1/GPa) = 0.02858293
#
# Stress axis : x y z
#
# Youngs Moduli (GPa) = 70.86090 89.21392 73.26960
#
# Poissons Ratio (x) = 0.21313 0.02009
# Poissons Ratio (y) = 0.16928 0.18538
# Poissons Ratio (z) = 0.01943 0.22572
#
# Static dielectric constant tensor:
#      x y z
#    x 4.086550 -0.070350 0.000140 
#    y -0.070350 3.942280 -0.124870 
#    z 0.000140 -0.124870 3.609570 
# 
# 
# High freq. dielectric constant tensor:
#      x y z
#    x 1.868060 -0.006040 -0.004060 
#    y -0.006040 1.857200 -0.017700 
#    z -0.004060 -0.017700 1.864930 
# 
# From -- ./inp_files/570912.got.cif
#   From: 2010.06.25/outbox.cif.g09.slc.cpg/sg2_286_cif.got.tgz:570912.got - 2010.06.27 13:26:56.
