data_PCOD8009325
_publ_section_title
;
Structure prediction by ZEFSAII (Michael W. Deem and Ramdas Pophale) SiO2 
 PCOD8009325
Probable space group: P -1
;
_chemical_formula_sum "Si O2"
_cell_formula_units_Z 16
_cell_length_a 14.863061
_cell_length_b 4.895254
_cell_length_c 11.274850
_cell_angle_alpha 108.065451
_cell_angle_beta 73.677707
_cell_angle_gamma 89.409218
_cell_volume 744.184634
_symmetry_space_group_name_H-M "P -1"
_symmetry_group_IT_number 2
_symmetry_cell_setting 'triclinic'
loop_
_space_group_symop_operation_xyz
x,y,z
-x,-y,-z
loop_
_atom_site_type_symbol
_atom_site_label
_atom_site_fract_x
_atom_site_fract_y
_atom_site_fract_z
Si Si1 0.331267 0.327143 0.806812
Si Si2 0.625638 0.912157 0.791109
Si Si3 0.538493 0.395734 0.710091
Si Si4 0.286738 0.530349 0.461388
Si Si5 0.290467 0.966113 0.981796
Si Si6 0.023632 0.144432 0.826731
Si Si7 0.790398 0.862865 0.375647
Si Si8 0.088078 0.288590 0.080852
O O1 0.431681 0.355044 0.711351
O O2 0.351686 0.141871 0.893759
O O3 0.268165 0.136490 0.724656
O O4 0.277086 0.645032 0.895940
O O5 0.543129 0.702014 0.819625
O O6 0.716825 0.701586 0.676228
O O7 0.589073 0.143197 0.737877
O O8 0.655316 0.070426 0.918746
O O9 0.600963 0.414167 0.567567
O O10 0.241692 0.411767 0.580094
O O11 0.230993 0.844048 0.501088
O O12 0.192007 0.162579 0.062439
O O13 0.098639 0.157579 0.695209
O O14 0.931904 0.365282 0.856184
O O15 0.073293 0.216123 0.939836
O O16 0.986483 0.834583 0.818042
#
# Coordination Sequence:
#
# PCOD8009325 Si02
#       8
#     2   2   2   2   2   2   2   2
#     4  12  26  36  60  98 123 152 202 253 308 349
#     4  10  22  43  62  83 116 174 205 240 294 347
#     4  10  22  43  56  92 117 164 211 239 301 338
#     4  10  22  41  61  84 116 172 205 238 290 352
#     4  12  24  40  63  91 125 156 198 252 300 364
#     4  10  21  36  61  87 124 153 185 241 304 375
#     4  12  22  39  63  90 124 153 201 248 299 361
#     4  10  21  38  58  89 124 151 189 235 313 369
#
# _framework density 21.500043999999999
#
# number of rings (size 3 to 8) (size 9 to 14) (size 15 to 20)
#    0.750    0.500    2.500    3.750    3.500    4.000 
#    0.000    0.000    0.000    4.500    0.000    0.000 
#    0.000    0.000    0.000    0.000    0.000    0.000 
#
# Total GULP energy -198228.559384 kJ/mol
# GULP energy per Si atom -12389.284961 kJ/mol
# Density = 2.145111 g / cm^3
# Si number density = 21.500044 Si / 1000 Ang^3
#
#
#
# Elastic Constant Matrix: (Units=GPa)
#
#
# Indices 1 2 3 4 5 6 
#
# 1 31.1513 2.2260 6.6967 -8.4581 -19.4381 0.6077
# 2 2.2260 104.6956 17.5775 -0.7264 -2.3991 1.8803
# 3 6.6967 17.5775 52.5871 -7.8105 -17.1107 7.9281
# 4 -8.4581 -0.7264 -7.8105 31.7196 8.4821 -7.8280
# 5 -19.4381 -2.3991 -17.1107 8.4821 29.4940 -2.7096
# 6 0.6077 1.8803 7.9281 -7.8280 -2.7096 25.0547
#
#
#
# Elastic Compliance Matrix: (Units=1/GPa)
#
#
# Indices 1 2 3 4 5 6 
#
# 1 0.057561 -0.001447 0.006744 0.007049 0.039988 0.003106
# 2 -0.001447 0.010208 -0.004085 -0.000495 -0.002336 0.000154
# 3 0.006744 -0.004085 0.026694 0.001917 0.018523 -0.005702
# 4 0.007049 -0.000495 0.001917 0.037572 -0.004118 0.010553
# 5 0.039988 -0.002336 0.018523 -0.004118 0.071985 -0.000158
# 6 0.003106 0.000154 -0.005702 0.010553 -0.000158 0.044910
#
#
# Mechanical properties :
#
#
# Convention : Reuss Voigt Hill
#
# Bulk Modulus (GPa) = 10.32127 26.82604 18.57365
# Shear Modulus (GPa) = 17.93383 28.04924 22.99153
#
# Velocity S-wave (km/s) = 2.89126 3.61586 3.27367
# Velocity P-wave (km/s) = 3.99461 5.47146 4.79029
#
# Compressibility (1/GPa) = 0.09688733
#
# Stress axis : x y z
#
# Youngs Moduli (GPa) = 17.37297 97.95911 37.46143
#
# Poissons Ratio (x) = 0.14170 -0.25262
# Poissons Ratio (y) = 0.02513 0.15303
# Poissons Ratio (z) = -0.11716 0.40016
#
# Static dielectric constant tensor:
#      x y z
#    x 3.444720 0.131370 -0.308430 
#    y 0.131370 4.144140 -0.001160 
#    z -0.308430 -0.001160 3.710440 
# 
# 
# High freq. dielectric constant tensor:
#      x y z
#    x 1.807280 0.007430 -0.034140 
#    y 0.007430 1.871700 -0.000250 
#    z -0.034140 -0.000250 1.823330 
# 
# From -- ./inp_files/441418.got.cif
#   From: 2010.06.25/outbox.cif.g09.slc.cpg/sg2_221_cif.got.tgz:441418.got - 2010.06.27 13:26:56.
