data_PCOD8009569
_publ_section_title
;
Structure prediction by ZEFSAII (Michael W. Deem and Ramdas Pophale) SiO2 
 PCOD8009569
Probable space group: P -1
;
_chemical_formula_sum "Si O2"
_cell_formula_units_Z 16
_cell_length_a 9.581018
_cell_length_b 9.934004
_cell_length_c 11.921805
_cell_angle_alpha 106.063241
_cell_angle_beta 87.275680
_cell_angle_gamma 135.725880
_cell_volume 741.766332
_symmetry_space_group_name_H-M "P -1"
_symmetry_group_IT_number 2
_symmetry_cell_setting 'triclinic'
loop_
_space_group_symop_operation_xyz
x,y,z
-x,-y,-z
loop_
_atom_site_type_symbol
_atom_site_label
_atom_site_fract_x
_atom_site_fract_y
_atom_site_fract_z
Si Si1 0.874596 0.630591 0.630039
Si Si2 0.012238 0.685314 0.193695
Si Si3 0.855547 0.272664 0.164895
Si Si4 0.754066 0.781526 0.825943
Si Si5 0.075443 0.231222 0.987098
Si Si6 0.545049 0.894747 0.782670
Si Si7 0.061192 0.886841 0.462180
Si Si8 0.482649 0.835438 0.515309
O O1 0.768324 0.692911 0.696490
O O2 0.705823 0.384628 0.583286
O O3 0.068504 0.724190 0.716570
O O4 0.959590 0.718310 0.523251
O O5 0.985169 0.763238 0.320646
O O6 0.983537 0.503504 0.180306
O O7 0.240135 0.867364 0.175777
O O8 0.853850 0.619874 0.086413
O O9 0.898929 0.183035 0.053177
O O10 0.613920 0.131092 0.143788
O O11 0.571847 0.759392 0.806747
O O12 0.733217 0.671807 0.916291
O O13 0.973176 0.019044 0.886703
O O14 0.448172 0.808617 0.643583
O O15 0.304670 0.079923 0.505413
O O16 0.000000 0.000000 0.500000
O O17 0.500000 0.000000 0.500000
#
# Coordination Sequence:
#
# PCOD8009569 Si02
#       8
#     2   2   2   2   2   2   2   2
#     4  11  22  39  61  87 120 157 194 235 292 353
#     4  10  21  37  58  86 118 149 191 242 290 341
#     4  11  22  36  62  87 111 155 198 236 288 345
#     4   9  20  38  60  84 114 154 192 239 294 341
#     4   9  19  39  60  81 115 152 193 242 291 340
#     4  10  21  37  57  86 118 148 193 242 287 342
#     4  11  23  38  61  90 120 156 195 237 290 351
#     4  11  23  38  58  88 125 157 190 239 292 348
#
# _framework density 21.570136000000002
#
# number of rings (size 3 to 8) (size 9 to 14) (size 15 to 20)
#    0.000    1.750    0.000    5.625    0.000    6.500 
#    0.000    0.625    0.000   10.500    0.000    0.000 
#    0.000    0.000    0.000    0.000    0.000    0.000 
#
# Total GULP energy -198354.683007 kJ/mol
# GULP energy per Si atom -12397.167688 kJ/mol
# Density = 2.152104 g / cm^3
# Si number density = 21.570136 Si / 1000 Ang^3
#
#
#
# Elastic Constant Matrix: (Units=GPa)
#
#
# Indices 1 2 3 4 5 6 
#
# 1 104.6567 29.4192 35.8433 -19.4772 2.7474 -19.3606
# 2 29.4192 90.5071 37.8219 -11.8873 -13.6600 -9.5665
# 3 35.8433 37.8219 113.8755 -20.2806 8.6802 -7.6682
# 4 -19.4772 -11.8873 -20.2806 32.7966 -14.0703 3.6526
# 5 2.7474 -13.6600 8.6802 -14.0703 28.6981 -2.7582
# 6 -19.3606 -9.5665 -7.6682 3.6526 -2.7582 28.6718
#
#
#
# Elastic Compliance Matrix: (Units=1/GPa)
#
#
# Indices 1 2 3 4 5 6 
#
# 1 0.013148 -0.001360 -0.002290 0.006165 0.002508 0.007268
# 2 -0.001360 0.016963 -0.004574 0.008050 0.013903 0.003830
# 3 -0.002290 -0.004574 0.011745 0.002441 -0.004378 -0.000664
# 4 0.006165 0.008050 0.002441 0.049881 0.027322 0.003776
# 5 0.002508 0.013903 -0.004378 0.027322 0.056628 0.007128
# 6 0.007268 0.003830 -0.000664 0.003776 0.007128 0.041090
#
#
# Mechanical properties :
#
#
# Convention : Reuss Voigt Hill
#
# Bulk Modulus (GPa) = 39.35928 57.24535 48.30231
# Shear Modulus (GPa) = 23.32393 31.76365 27.54379
#
# Velocity S-wave (km/s) = 3.29189 3.84158 3.57731
# Velocity P-wave (km/s) = 5.72149 6.80248 6.28527
#
# Compressibility (1/GPa) = 0.02540697
#
# Stress axis : x y z
#
# Youngs Moduli (GPa) = 76.05827 58.95266 85.14046
#
# Poissons Ratio (x) = 0.08018 0.19501
# Poissons Ratio (y) = 0.10344 0.38943
# Poissons Ratio (z) = 0.17420 0.26965
#
# Static dielectric constant tensor:
#      x y z
#    x 4.026410 -0.291750 0.276970 
#    y -0.291750 3.705650 -0.171800 
#    z 0.276970 -0.171800 4.441920 
# 
# 
# High freq. dielectric constant tensor:
#      x y z
#    x 1.850370 -0.025720 0.007950 
#    y -0.025720 1.829110 -0.009550 
#    z 0.007950 -0.009550 1.862700 
# 
# From -- ./inp_files/382653.got.cif
#   From: 2010.06.25/outbox.cif.g09.slc.cpg/sg2_192_cif.got.tgz:382653.got - 2010.06.27 13:26:56.
