data_PCOD8009670
_publ_section_title
;
Structure prediction by ZEFSAII (Michael W. Deem and Ramdas Pophale) SiO2 
 PCOD8009670
Probable space group: P -1
;
_chemical_formula_sum "Si O2"
_cell_formula_units_Z 16
_cell_length_a 11.781941
_cell_length_b 11.187615
_cell_length_c 13.997447
_cell_angle_alpha 31.500238
_cell_angle_beta 60.057202
_cell_angle_gamma 80.146444
_cell_volume 690.955091
_symmetry_space_group_name_H-M "P -1"
_symmetry_group_IT_number 2
_symmetry_cell_setting 'triclinic'
loop_
_space_group_symop_operation_xyz
x,y,z
-x,-y,-z
loop_
_atom_site_type_symbol
_atom_site_label
_atom_site_fract_x
_atom_site_fract_y
_atom_site_fract_z
Si Si1 0.806382 0.583654 0.138900
Si Si2 0.688269 0.974123 0.578965
Si Si3 0.799936 0.444611 0.764074
Si Si4 0.566171 0.699357 0.168752
Si Si5 0.501825 0.557540 0.086408
Si Si6 0.011618 0.978547 0.623174
Si Si7 0.999473 0.748793 0.126268
Si Si8 0.275370 0.666768 0.348082
O O1 0.695800 0.661681 0.188511
O O2 0.961326 0.707425 0.056898
O O3 0.696347 0.253182 0.398906
O O4 0.859799 0.721976 0.916539
O O5 0.537678 0.726944 0.751458
O O6 0.845644 0.059870 0.397342
O O7 0.665542 0.826185 0.792597
O O8 0.636329 0.387000 0.912544
O O9 0.796517 0.433767 0.658500
O O10 0.834956 0.223284 0.942449
O O11 0.947629 0.744089 0.531107
O O12 0.518639 0.517566 0.216898
O O13 0.405455 0.594060 0.366999
O O14 0.640350 0.010726 0.894414
O O15 0.000000 0.000000 0.500000
O O16 0.861484 0.471150 0.423716
O O17 0.000000 0.000000 0.000000
#
# Coordination Sequence:
#
# PCOD8009670 Si02
#       8
#     2   2   2   2   2   2   2   2
#     4  12  24  37  59  92 122 151 194 249 300 345
#     4  10  21  37  59  87 119 150 196 246 293 346
#     4  10  21  39  63  85 115 160 201 235 286 355
#     4  10  21  38  61  84 115 156 199 239 288 349
#     4   9  20  40  61  85 116 160 199 235 289 352
#     4  11  22  40  62  83 117 161 200 239 292 358
#     4  12  24  37  58  89 124 152 189 248 298 344
#     4  10  21  40  62  84 115 159 202 237 285 351
#
# _framework density 23.156354
#
# number of rings (size 3 to 8) (size 9 to 14) (size 15 to 20)
#    0.000    1.500    0.000    5.250    0.000    2.000 
#    0.000    0.000    0.000    0.000    0.000    0.000 
#    0.000    0.000    0.000    0.000    0.000    0.000 
#
# Total GULP energy -198301.418766 kJ/mol
# GULP energy per Si atom -12393.838673 kJ/mol
# Density = 2.310365 g / cm^3
# Si number density = 23.156354 Si / 1000 Ang^3
#
#
#
# Elastic Constant Matrix: (Units=GPa)
#
#
# Indices 1 2 3 4 5 6 
#
# 1 81.2493 17.4534 10.0217 2.2857 1.9013 -10.8155
# 2 17.4534 82.3797 25.0799 -7.0865 5.5117 3.0404
# 3 10.0217 25.0799 79.4013 -8.9618 2.8313 3.5527
# 4 2.2857 -7.0865 -8.9618 36.4483 -1.2631 2.8586
# 5 1.9013 5.5117 2.8313 -1.2631 21.4156 2.7997
# 6 -10.8155 3.0404 3.5527 2.8586 2.7997 45.7316
#
#
#
# Elastic Compliance Matrix: (Units=1/GPa)
#
#
# Indices 1 2 3 4 5 6 
#
# 1 0.013619 -0.002765 -0.001204 -0.002009 -0.000938 0.003681
# 2 -0.002765 0.014274 -0.003779 0.002028 -0.002642 -0.001274
# 3 -0.001204 -0.003779 0.014349 0.002955 -0.000473 -0.001304
# 4 -0.002009 0.002028 0.002955 0.028943 0.001330 -0.002730
# 5 -0.000938 -0.002642 -0.000473 0.001330 0.047995 -0.003031
# 6 0.003681 -0.001274 -0.001304 -0.002730 -0.003031 0.023279
#
#
# Mechanical properties :
#
#
# Convention : Reuss Voigt Hill
#
# Bulk Modulus (GPa) = 37.38990 38.68225 38.03608
# Shear Modulus (GPa) = 29.96358 33.41746 31.69052
#
# Velocity S-wave (km/s) = 3.60108 3.80297 3.70340
# Velocity P-wave (km/s) = 5.78551 6.00204 5.89477
#
# Compressibility (1/GPa) = 0.02674519
#
# Stress axis : x y z
#
# Youngs Moduli (GPa) = 73.42882 70.05979 69.69321
#
# Poissons Ratio (x) = 0.19370 0.08388
# Poissons Ratio (y) = 0.20301 0.26340
# Poissons Ratio (z) = 0.08838 0.26479
#
# Static dielectric constant tensor:
#      x y z
#    x 4.289710 -0.161770 -0.199490 
#    y -0.161770 4.296080 0.006360 
#    z -0.199490 0.006360 4.055650 
# 
# 
# High freq. dielectric constant tensor:
#      x y z
#    x 1.907520 -0.007400 -0.013560 
#    y -0.007400 1.931630 -0.006530 
#    z -0.013560 -0.006530 1.897860 
# 
# From -- ./inp_files/442289.got.cif
#   From: 2010.06.25/outbox.cif.g09.slc.cpg/sg2_222_cif.got.tgz:442289.got - 2010.06.27 13:26:56.
