data_PCOD8009966
_publ_section_title
;
Structure prediction by ZEFSAII (Michael W. Deem and Ramdas Pophale) SiO2 
 PCOD8009966
Probable space group: P -1
;
_chemical_formula_sum "Si O2"
_cell_formula_units_Z 14
_cell_length_a 8.742552
_cell_length_b 10.610799
_cell_length_c 12.199162
_cell_angle_alpha 102.692588
_cell_angle_beta 127.950349
_cell_angle_gamma 46.767528
_cell_volume 608.852641
_symmetry_space_group_name_H-M "P -1"
_symmetry_group_IT_number 2
_symmetry_cell_setting 'triclinic'
loop_
_space_group_symop_operation_xyz
x,y,z
-x,-y,-z
loop_
_atom_site_type_symbol
_atom_site_label
_atom_site_fract_x
_atom_site_fract_y
_atom_site_fract_z
Si Si1 0.427974 0.495766 0.844770
Si Si2 0.496707 0.879133 0.552721
Si Si3 0.820682 0.313481 0.591543
Si Si4 0.009940 0.482099 0.627579
Si Si5 0.891599 0.354420 0.861682
Si Si6 0.622735 0.763024 0.818168
Si Si7 0.882111 0.146963 0.361898
O O1 0.710162 0.363242 0.873395
O O2 0.203058 0.690770 0.719670
O O3 0.282104 0.426029 0.781577
O O4 0.500000 0.500000 0.000000
O O5 0.712077 0.670663 0.571761
O O6 0.581342 0.872194 0.713623
O O7 0.500000 0.000000 0.500000
O O8 0.192048 0.959905 0.428348
O O9 0.500000 0.500000 0.500000
O O10 0.024887 0.326989 0.638321
O O11 0.923223 0.245172 0.749467
O O12 0.859752 0.182571 0.491773
O O13 0.000000 0.500000 0.500000
O O14 0.754801 0.558627 0.809285
O O15 0.196356 0.239064 0.019800
O O16 0.320203 0.877362 0.759473
#
# Coordination Sequence:
#
# PCOD8009966 Si02
#       7
#     2   2   2   2   2   2   2
#     4  11  22  36  59  93 124 159 206 255 303 362
#     4  12  22  38  60  90 128 163 200 254 309 371
#     4  12  20  39  61  93 120 158 212 255 297 364
#     4  12  22  39  62  92 120 161 207 254 304 359
#     4  10  21  37  63  91 122 158 211 258 300 355
#     4  10  21  38  60  92 119 162 205 251 307 360
#     4  11  23  39  61  93 124 162 207 253 310 365
#
# _framework density 22.994067999999999
#
# number of rings (size 3 to 8) (size 9 to 14) (size 15 to 20)
#    0.000    0.857    7.143    1.286    4.000    0.000 
#    0.000    0.714    0.000    2.571    0.000    0.000 
#    0.000    0.000    0.000    0.000    0.000    0.000 
#
# Total GULP energy -173495.242076 kJ/mol
# GULP energy per Si atom -12392.517291 kJ/mol
# Density = 2.294173 g / cm^3
# Si number density = 22.994068 Si / 1000 Ang^3
#
#
#
# Elastic Constant Matrix: (Units=GPa)
#
#
# Indices 1 2 3 4 5 6 
#
# 1 162.3479 29.0616 74.9681 2.8453 14.1617 -9.8654
# 2 29.0616 32.6793 21.7432 11.6035 15.3334 -16.3532
# 3 74.9681 21.7432 173.1557 11.8925 16.4007 -19.6709
# 4 2.8453 11.6035 11.8925 29.3462 -3.0083 -1.3263
# 5 14.1617 15.3334 16.4007 -3.0083 56.9259 -5.0903
# 6 -9.8654 -16.3532 -19.6709 -1.3263 -5.0903 39.6508
#
#
#
# Elastic Compliance Matrix: (Units=1/GPa)
#
#
# Indices 1 2 3 4 5 6 
#
# 1 0.009087 -0.009331 -0.003512 0.004219 0.001216 -0.003032
# 2 -0.009331 0.065625 0.001619 -0.026229 -0.015176 0.022722
# 3 -0.003512 0.001619 0.007879 -0.003517 -0.001717 0.003365
# 4 0.004219 -0.026229 -0.003517 0.045950 0.008664 -0.008863
# 5 0.001216 -0.015176 -0.001717 0.008664 0.021974 -0.003698
# 6 -0.003032 0.022722 0.003365 -0.008863 -0.003698 0.034735
#
#
# Mechanical properties :
#
#
# Convention : Reuss Voigt Hill
#
# Bulk Modulus (GPa) = 16.62684 68.85876 42.74280
# Shear Modulus (GPa) = 21.95428 41.34525 31.64977
#
# Velocity S-wave (km/s) = 3.09330 4.24498 3.71405
# Velocity P-wave (km/s) = 4.47266 7.35104 6.08451
#
# Compressibility (1/GPa) = 0.06014371
#
# Stress axis : x y z
#
# Youngs Moduli (GPa) = 110.04172 15.23809 126.92207
#
# Poissons Ratio (x) = 0.14219 0.44578
# Poissons Ratio (y) = 1.02679 -0.20553
# Poissons Ratio (z) = 0.38649 -0.02468
#
# Static dielectric constant tensor:
#      x y z
#    x 4.358970 -0.115660 0.025280 
#    y -0.115660 3.903380 -0.061580 
#    z 0.025280 -0.061580 4.351220 
# 
# 
# High freq. dielectric constant tensor:
#      x y z
#    x 1.940160 -0.006520 0.004800 
#    y -0.006520 1.868500 -0.003490 
#    z 0.004800 -0.003490 1.918520 
# 
# From -- ./inp_files/226145.got.cif
#   From: 2010.06.25/outbox.cif.g09.slc.cpg/sg2_114_cif.got.tgz:226145.got - 2010.06.27 13:26:56.
