data_PCOD8009359
_publ_section_title
;
Structure prediction by ZEFSAII (Michael W. Deem and Ramdas Pophale) SiO2 
 PCOD8009359
Probable space group: P -1
;
_chemical_formula_sum "Si O2"
_cell_formula_units_Z 16
_cell_length_a 9.505333
_cell_length_b 17.731621
_cell_length_c 11.235513
_cell_angle_alpha 62.776492
_cell_angle_beta 77.648551
_cell_angle_gamma 130.948287
_cell_volume 819.308572
_symmetry_space_group_name_H-M "P -1"
_symmetry_group_IT_number 2
_symmetry_cell_setting 'triclinic'
loop_
_space_group_symop_operation_xyz
x,y,z
-x,-y,-z
loop_
_atom_site_type_symbol
_atom_site_label
_atom_site_fract_x
_atom_site_fract_y
_atom_site_fract_z
Si Si1 0.047583 0.895421 0.905982
Si Si2 0.160743 0.025621 0.545586
Si Si3 0.270609 0.771659 0.438948
Si Si4 0.300056 0.274583 0.685895
Si Si5 0.947225 0.290505 0.954621
Si Si6 0.913838 0.655186 0.369450
Si Si7 0.376416 0.658997 0.614422
Si Si8 0.619473 0.020480 0.580392
O O1 0.997426 0.924011 0.773993
O O2 0.383463 0.054913 0.764540
O O3 0.924134 0.737218 0.017999
O O4 0.887923 0.858252 0.073703
O O5 0.469980 0.225400 0.378731
O O6 0.174811 0.948403 0.521251
O O7 0.000000 0.000000 0.500000
O O8 0.180712 0.634434 0.609791
O O9 0.194399 0.812343 0.507657
O O10 0.094701 0.698711 0.404535
O O11 0.596427 0.454734 0.562808
O O12 0.124403 0.262836 0.664385
O O13 0.370160 0.239722 0.598575
O O14 0.905240 0.273349 0.833038
O O15 0.177173 0.478804 0.819430
O O16 0.638404 0.150060 0.170516
O O17 0.500000 0.000000 0.500000
#
# Coordination Sequence:
#
# PCOD8009359 Si02
#       8
#     2   2   2   2   2   2   2   2
#     4   9  19  40  59  82 119 155 187 231 291 340
#     4  11  24  41  55  83 117 146 195 241 277 336
#     4  10  21  36  62  84 118 148 196 233 282 336
#     4   9  19  35  60  84 122 149 181 234 297 339
#     4   9  19  36  64  81 112 148 190 231 283 338
#     4   9  19  37  56  91 117 149 187 233 287 350
#     4  10  21  39  58  88 115 147 189 242 281 335
#     4  11  20  42  59  77 112 158 187 235 286 332
#
# _framework density 19.528663000000002
#
# number of rings (size 3 to 8) (size 9 to 14) (size 15 to 20)
#    0.000    2.250    3.750    0.750    1.750    9.000 
#    4.500    0.625    0.000    0.000    0.000    0.000 
#    0.000    0.000    0.000    0.000    0.000    0.000 
#
# Total GULP energy -198266.116612 kJ/mol
# GULP energy per Si atom -12391.632288 kJ/mol
# Density = 1.948421 g / cm^3
# Si number density = 19.528663 Si / 1000 Ang^3
#
#
#
# Elastic Constant Matrix: (Units=GPa)
#
#
# Indices 1 2 3 4 5 6 
#
# 1 117.7668 47.1674 19.5292 3.3926 14.1029 18.1016
# 2 47.1674 77.7637 8.2135 1.5950 11.6321 9.2132
# 3 19.5292 8.2135 56.3562 1.2727 7.9777 5.8988
# 4 3.3926 1.5950 1.2727 20.2364 -11.2086 6.2348
# 5 14.1029 11.6321 7.9777 -11.2086 28.3707 7.7929
# 6 18.1016 9.2132 5.8988 6.2348 7.7929 47.9734
#
#
#
# Elastic Compliance Matrix: (Units=1/GPa)
#
#
# Indices 1 2 3 4 5 6 
#
# 1 0.012266 -0.006389 -0.002593 -0.002388 -0.003068 -0.002274
# 2 -0.006389 0.017564 0.000503 -0.003615 -0.005697 0.000371
# 3 -0.002593 0.000503 0.019522 -0.004198 -0.006069 0.000013
# 4 -0.002388 -0.003615 -0.004198 0.075302 0.037376 -0.013746
# 5 -0.003068 -0.005697 -0.006069 0.037376 0.058712 -0.011397
# 6 -0.002274 0.000371 0.000013 -0.013746 -0.011397 0.025268
#
#
# Mechanical properties :
#
#
# Convention : Reuss Voigt Hill
#
# Bulk Modulus (GPa) = 30.86938 44.63411 37.75175
# Shear Modulus (GPa) = 21.15161 31.11455 26.13308
#
# Velocity S-wave (km/s) = 3.29463 3.99592 3.66210
# Velocity P-wave (km/s) = 5.50584 6.64794 6.10366
#
# Compressibility (1/GPa) = 0.03239457
#
# Stress axis : x y z
#
# Youngs Moduli (GPa) = 81.52752 56.93562 51.22401
#
# Poissons Ratio (x) = 0.36374 0.13283
# Poissons Ratio (y) = 0.52085 -0.02578
# Poissons Ratio (z) = 0.21142 -0.02866
#
# Static dielectric constant tensor:
#      x y z
#    x 3.521610 -0.240330 0.192590 
#    y -0.240330 3.325920 0.191410 
#    z 0.192590 0.191410 3.609720 
# 
# 
# High freq. dielectric constant tensor:
#      x y z
#    x 1.757900 -0.020660 0.015220 
#    y -0.020660 1.754710 0.009090 
#    z 0.015220 0.009090 1.751130 
# 
# From -- ./inp_files/402021.got.cif
#   From: 2010.06.25/outbox.cif.g09.slc.cpg/sg2_202_cif.got.tgz:402021.got - 2010.06.27 13:26:56.
