data_PCOD8009278
_publ_section_title
;
Structure prediction by ZEFSAII (Michael W. Deem and Ramdas Pophale) SiO2 
 PCOD8009278
Probable space group: P -1
;
_chemical_formula_sum "Si O2"
_cell_formula_units_Z 16
_cell_length_a 14.016899
_cell_length_b 21.284947
_cell_length_c 12.420385
_cell_angle_alpha 153.865955
_cell_angle_beta 48.554226
_cell_angle_gamma 148.749551
_cell_volume 750.927949
_symmetry_space_group_name_H-M "P -1"
_symmetry_group_IT_number 2
_symmetry_cell_setting 'triclinic'
loop_
_space_group_symop_operation_xyz
x,y,z
-x,-y,-z
loop_
_atom_site_type_symbol
_atom_site_label
_atom_site_fract_x
_atom_site_fract_y
_atom_site_fract_z
Si Si1 0.267201 0.473885 0.172905
Si Si2 0.978069 0.805460 0.870472
Si Si3 0.846913 0.532040 0.345772
Si Si4 0.443510 0.632725 0.975653
Si Si5 0.195285 0.622775 0.278126
Si Si6 0.403309 0.079788 0.899005
Si Si7 0.061545 0.189048 0.482350
Si Si8 0.676398 0.797354 0.275609
O O1 0.144499 0.462023 0.161207
O O2 0.515648 0.733171 0.378703
O O3 0.159548 0.400900 0.255829
O O4 0.260917 0.302194 0.878257
O O5 0.864619 0.671675 0.637050
O O6 0.212242 0.955374 0.926133
O O7 0.984538 0.978909 0.155915
O O8 0.936175 0.675323 0.390014
O O9 0.980990 0.512209 0.243195
O O10 0.609500 0.276201 0.117611
O O11 0.289999 0.371467 0.644716
O O12 0.290259 0.629143 0.112850
O O13 0.594951 0.817874 0.051309
O O14 0.569841 0.687324 0.067058
O O15 0.372547 0.889253 0.594673
O O16 0.889658 0.074153 0.526367
#
# Coordination Sequence:
#
# PCOD8009278 Si02
#       8
#     2   2   2   2   2   2   2   2
#     4   9  20  37  58  78 112 151 189 227 267 328
#     4  10  21  39  56  80 116 149 185 232 271 323
#     4  10  22  37  58  85 113 148 185 225 280 336
#     4  10  21  36  60  89 112 139 183 235 285 334
#     4  10  21  39  56  80 116 149 185 232 271 323
#     4  10  22  37  58  85 113 148 185 225 280 336
#     4  10  21  36  60  89 112 139 183 235 285 334
#     4   9  18  38  58  82 112 145 182 234 284 317
#
# _framework density 21.306971000000001
#
# number of rings (size 3 to 8) (size 9 to 14) (size 15 to 20)
#    0.000    2.250    0.000    2.250    0.000   12.000 
#    0.000   23.125    0.000    0.000    0.000    0.000 
#    0.000    0.000    0.000    0.000    0.000    0.000 
#
# Total GULP energy -198313.884382 kJ/mol
# GULP energy per Si atom -12394.617774 kJ/mol
# Density = 2.125848 g / cm^3
# Si number density = 21.306971 Si / 1000 Ang^3
#
#
#
# Elastic Constant Matrix: (Units=GPa)
#
#
# Indices 1 2 3 4 5 6 
#
# 1 100.8992 23.4590 37.5696 21.1907 -6.1611 -3.2086
# 2 23.4590 143.0691 29.2601 22.5078 -5.6267 -5.9385
# 3 37.5696 29.2601 80.0780 10.7950 11.1990 3.8799
# 4 21.1907 22.5078 10.7950 28.9343 5.7069 -3.1228
# 5 -6.1611 -5.6267 11.1990 5.7069 21.8640 5.6770
# 6 -3.2086 -5.9385 3.8799 -3.1228 5.6770 25.6127
#
#
#
# Elastic Compliance Matrix: (Units=1/GPa)
#
#
# Indices 1 2 3 4 5 6 
#
# 1 0.015856 0.001414 -0.007993 -0.012231 0.012298 -0.000692
# 2 0.001414 0.009075 -0.003865 -0.007923 0.006672 0.000422
# 3 -0.007993 -0.003865 0.019056 0.004352 -0.013835 -0.001187
# 4 -0.012231 -0.007923 0.004352 0.053573 -0.023713 0.007759
# 5 0.012298 0.006672 -0.013835 -0.023713 0.067484 -0.012666
# 6 -0.000692 0.000422 -0.001187 0.007759 -0.012666 0.042987
#
#
# Mechanical properties :
#
#
# Convention : Reuss Voigt Hill
#
# Bulk Modulus (GPa) = 43.29285 56.06932 49.68108
# Shear Modulus (GPa) = 21.13106 30.86604 25.99855
#
# Velocity S-wave (km/s) = 3.15261 3.81022 3.49691
# Velocity P-wave (km/s) = 5.79782 6.76234 6.29857
#
# Compressibility (1/GPa) = 0.02309850
#
# Stress axis : x y z
#
# Youngs Moduli (GPa) = 63.06727 110.19844 52.47724
#
# Poissons Ratio (x) = -0.15582 0.41947
# Poissons Ratio (y) = -0.08917 0.20280
# Poissons Ratio (z) = 0.50412 0.42587
#
# Static dielectric constant tensor:
#      x y z
#    x 3.637640 -0.027760 0.012760 
#    y -0.027760 4.242200 0.173800 
#    z 0.012760 0.173800 3.795970 
# 
# 
# High freq. dielectric constant tensor:
#      x y z
#    x 1.828150 0.001270 -0.002800 
#    y 0.001270 1.851090 0.016440 
#    z -0.002800 0.016440 1.815290 
# 
# From -- ./inp_files/457742.got.cif
#   From: 2010.06.25/outbox.cif.g09.slc.cpg/sg2_229_cif.got.tgz:457742.got - 2010.06.27 13:26:56.
