data_PCOD8009315
_publ_section_title
;
Structure prediction by ZEFSAII (Michael W. Deem and Ramdas Pophale) SiO2 
 PCOD8009315
Probable space group: P -1
;
_chemical_formula_sum "Si O2"
_cell_formula_units_Z 16
_cell_length_a 19.034549
_cell_length_b 15.157925
_cell_length_c 7.603218
_cell_angle_alpha 57.708169
_cell_angle_beta 102.279707
_cell_angle_gamma 150.182983
_cell_volume 739.913311
_symmetry_space_group_name_H-M "P -1"
_symmetry_group_IT_number 2
_symmetry_cell_setting 'triclinic'
loop_
_space_group_symop_operation_xyz
x,y,z
-x,-y,-z
loop_
_atom_site_type_symbol
_atom_site_label
_atom_site_fract_x
_atom_site_fract_y
_atom_site_fract_z
Si Si1 0.018365 0.357765 0.104318
Si Si2 0.732710 0.127313 0.318737
Si Si3 0.384640 0.747959 0.405139
Si Si4 0.039265 0.017945 0.800847
Si Si5 0.995393 0.244340 0.846096
Si Si6 0.506124 0.883122 0.943430
Si Si7 0.172759 0.342948 0.243415
Si Si8 0.171154 0.788710 0.334321
O O1 0.048386 0.280076 0.275134
O O2 0.826468 0.146008 0.281271
O O3 0.167750 0.637119 0.955661
O O4 0.026027 0.367215 0.887535
O O5 0.741825 0.138184 0.520882
O O6 0.527739 0.856876 0.443475
O O7 0.184629 0.451651 0.661521
O O8 0.425936 0.918849 0.317196
O O9 0.394635 0.759979 0.188272
O O10 0.876376 0.788537 0.818204
O O11 0.118192 0.005809 0.881730
O O12 0.169437 0.269226 0.500517
O O13 0.000000 0.000000 0.000000
O O14 0.881931 0.158855 0.733506
O O15 0.674378 0.031226 0.917405
O O16 0.371028 0.645940 0.992180
O O17 0.000000 0.500000 0.500000
#
# Coordination Sequence:
#
# PCOD8009315 Si02
#       8
#     2   2   2   2   2   2   2   2
#     4  10  21  36  61  86 133 162 211 254 320 386
#     4  11  23  34  59  95 135 170 205 253 321 394
#     4  11  23  36  63  97 132 173 206 260 323 393
#     4  10  23  42  69  92 124 167 233 275 323 380
#     4  11  23  42  64  92 128 171 214 262 324 389
#     4  11  23  38  63  93 139 164 216 263 322 387
#     4  10  22  42  67  97 123 177 219 274 326 381
#     4  12  24  38  59  95 137 173 206 256 324 399
#
# _framework density 21.624154000000001
#
# number of rings (size 3 to 8) (size 9 to 14) (size 15 to 20)
#    0.000    1.250    3.750    1.500    8.750    1.000 
#    0.000    0.625    0.000    4.500    0.000    0.000 
#    0.000    0.000    0.000    0.000    0.000    0.000 
#
# Total GULP energy -198263.969005 kJ/mol
# GULP energy per Si atom -12391.498063 kJ/mol
# Density = 2.157494 g / cm^3
# Si number density = 21.624154 Si / 1000 Ang^3
#
#
#
# Elastic Constant Matrix: (Units=GPa)
#
#
# Indices 1 2 3 4 5 6 
#
# 1 122.7470 33.2906 48.7899 -9.6802 -2.0423 22.4476
# 2 33.2906 69.4727 18.2088 1.5346 -1.2944 9.4045
# 3 48.7899 18.2088 74.4596 3.6969 6.6271 8.2021
# 4 -9.6802 1.5346 3.6969 32.5618 5.0151 -3.8634
# 5 -2.0423 -1.2944 6.6271 5.0151 45.0044 3.7669
# 6 22.4476 9.4045 8.2021 -3.8634 3.7669 40.8838
#
#
#
# Elastic Compliance Matrix: (Units=1/GPa)
#
#
# Indices 1 2 3 4 5 6 
#
# 1 0.013490 -0.003868 -0.007726 0.004272 0.001557 -0.004707
# 2 -0.003868 0.016914 -0.001380 -0.002140 0.000901 -0.001775
# 3 -0.007726 -0.001380 0.019210 -0.003905 -0.002834 0.000598
# 4 0.004272 -0.002140 -0.003905 0.033300 -0.003202 0.002372
# 5 0.001557 0.000901 -0.002834 -0.003202 0.023337 -0.002946
# 6 -0.004707 -0.001775 0.000598 0.002372 -0.002946 0.027828
#
#
# Mechanical properties :
#
#
# Convention : Reuss Voigt Hill
#
# Bulk Modulus (GPa) = 42.25342 51.91753 47.08548
# Shear Modulus (GPa) = 29.77682 34.78266 32.27974
#
# Velocity S-wave (km/s) = 3.71484 4.01497 3.86782
# Velocity P-wave (km/s) = 6.16299 6.74941 6.46285
#
# Compressibility (1/GPa) = 0.02366672
#
# Stress axis : x y z
#
# Youngs Moduli (GPa) = 74.12748 59.12385 52.05525
#
# Poissons Ratio (x) = 0.22867 0.40217
# Poissons Ratio (y) = 0.28670 0.07185
# Poissons Ratio (z) = 0.57270 0.08161
#
# Static dielectric constant tensor:
#      x y z
#    x 4.176250 0.036650 0.107800 
#    y 0.036650 3.946930 0.135840 
#    z 0.107800 0.135840 3.885300 
# 
# 
# High freq. dielectric constant tensor:
#      x y z
#    x 1.848910 0.001110 0.000180 
#    y 0.001110 1.843620 0.019370 
#    z 0.000180 0.019370 1.831840 
# 
# From -- ./inp_files/274088.got.cif
#   From: 2010.06.25/outbox.cif.g09.slc.cpg/sg2_138_cif.got.tgz:274088.got - 2010.06.27 13:26:56.
