data_PCOD8009817
_publ_section_title
;
Structure prediction by ZEFSAII (Michael W. Deem and Ramdas Pophale) SiO2 
 PCOD8009817
Probable space group: P -1
;
_chemical_formula_sum "Si O2"
_cell_formula_units_Z 14
_cell_length_a 22.518911
_cell_length_b 5.073470
_cell_length_c 21.560179
_cell_angle_alpha 118.883458
_cell_angle_beta 18.321247
_cell_angle_gamma 110.364335
_cell_volume 620.886250
_symmetry_space_group_name_H-M "P -1"
_symmetry_group_IT_number 2
_symmetry_cell_setting 'triclinic'
loop_
_space_group_symop_operation_xyz
x,y,z
-x,-y,-z
loop_
_atom_site_type_symbol
_atom_site_label
_atom_site_fract_x
_atom_site_fract_y
_atom_site_fract_z
Si Si1 0.074325 0.141475 0.618046
Si Si2 0.611096 0.294747 0.307436
Si Si3 0.512653 0.293706 0.903327
Si Si4 0.822681 0.736476 0.117383
Si Si5 0.761404 0.269948 0.334872
Si Si6 0.370816 0.718604 0.975730
Si Si7 0.215227 0.715002 0.545650
O O1 0.248187 0.870117 0.372956
O O2 0.114739 0.033476 0.637757
O O3 0.086207 0.491769 0.638302
O O4 0.851792 0.165078 0.821583
O O5 0.500000 0.500000 0.500000
O O6 0.796812 0.398488 0.114923
O O7 0.444400 0.388068 0.427605
O O8 0.709149 0.910974 0.185289
O O9 0.500000 0.500000 0.000000
O O10 0.372216 0.526512 0.015388
O O11 0.418753 0.030014 0.981683
O O12 0.727727 0.978309 0.298027
O O13 0.062828 0.651402 0.864453
O O14 0.806884 0.160430 0.348014
O O15 0.543435 0.486933 0.730902
#
# Coordination Sequence:
#
# PCOD8009817 Si02
#       7
#     2   2   2   2   2   2   2
#     4  10  22  40  57  83 118 150 188 227 271 330
#     4  10  21  38  56  80 110 140 179 232 291 345
#     4  10  21  37  61  91 116 145 188 228 270 327
#     4  10  23  37  56  83 109 141 185 237 292 343
#     4  10  22  38  58  80 111 145 186 238 286 331
#     4  10  21  39  58  82 119 152 182 229 276 321
#     4  10  23  37  56  82 110 150 194 229 271 336
#
# _framework density 22.548414000000001
#
# number of rings (size 3 to 8) (size 9 to 14) (size 15 to 20)
#    0.000    2.000    0.000    3.000    0.000   14.286 
#    0.000    0.000    0.000    0.000    0.000    0.000 
#    0.000    0.000    0.000    0.000    0.000    0.000 
#
# Total GULP energy -173635.106605 kJ/mol
# GULP energy per Si atom -12402.507615 kJ/mol
# Density = 2.249709 g / cm^3
# Si number density = 22.548414 Si / 1000 Ang^3
#
#
#
# Elastic Constant Matrix: (Units=GPa)
#
#
# Indices 1 2 3 4 5 6 
#
# 1 84.5625 1.5046 32.9144 2.0416 0.0079 -0.7992
# 2 1.5046 62.5293 13.5954 -7.5791 -0.0500 -21.2369
# 3 32.9144 13.5954 83.6010 -14.9947 -24.3293 5.9826
# 4 2.0416 -7.5791 -14.9947 23.2862 0.2120 -2.3911
# 5 0.0079 -0.0500 -24.3293 0.2120 34.4809 -5.0018
# 6 -0.7992 -21.2369 5.9826 -2.3911 -5.0018 22.6151
#
#
#
# Elastic Compliance Matrix: (Units=1/GPa)
#
#
# Indices 1 2 3 4 5 6 
#
# 1 0.015808 0.001870 -0.009828 -0.006763 -0.006493 0.002764
# 2 0.001870 0.027975 -0.005888 0.008102 0.000006 0.028752
# 3 -0.009828 -0.005888 0.024481 0.013810 0.016119 -0.007327
# 4 -0.006763 0.008102 0.013810 0.056210 0.011171 0.012130
# 5 -0.006493 0.000006 0.016119 0.011171 0.041148 0.005794
# 6 0.002764 0.028752 -0.007327 0.012130 0.005794 0.075818
#
#
# Mechanical properties :
#
#
# Convention : Reuss Voigt Hill
#
# Bulk Modulus (GPa) = 24.64798 36.30240 30.47519
# Shear Modulus (GPa) = 17.68934 28.25499 22.97217
#
# Velocity S-wave (km/s) = 2.80394 3.54373 3.19532
# Velocity P-wave (km/s) = 4.63008 5.73400 5.21135
#
# Compressibility (1/GPa) = 0.04057127
#
# Stress axis : x y z
#
# Youngs Moduli (GPa) = 63.26013 35.74649 40.84820
#
# Poissons Ratio (x) = -0.06685 0.40146
# Poissons Ratio (y) = -0.11831 0.24052
# Poissons Ratio (z) = 0.62173 0.21048
#
# Static dielectric constant tensor:
#      x y z
#    x 4.122210 -0.384370 -0.206340 
#    y -0.384370 4.110820 -0.020210 
#    z -0.206340 -0.020210 4.259290 
# 
# 
# High freq. dielectric constant tensor:
#      x y z
#    x 1.879160 -0.023220 -0.013140 
#    y -0.023220 1.891130 -0.010920 
#    z -0.013140 -0.010920 1.892650 
# 
# From -- ./inp_files/600706.got.cif
#   From: 2010.06.25/outbox.cif.g09.slc.cpg/sg2_301_cif.got.tgz:600706.got - 2010.06.27 13:26:56.
