data_PCOD8009694
_publ_section_title
;
Structure prediction by ZEFSAII (Michael W. Deem and Ramdas Pophale) SiO2 
 PCOD8009694
Probable space group: P -1
;
_chemical_formula_sum "Si O2"
_cell_formula_units_Z 16
_cell_length_a 12.836660
_cell_length_b 30.591768
_cell_length_c 6.677626
_cell_angle_alpha 104.584241
_cell_angle_beta 56.655677
_cell_angle_gamma 152.632186
_cell_volume 793.722140
_symmetry_space_group_name_H-M "P -1"
_symmetry_group_IT_number 2
_symmetry_cell_setting 'triclinic'
loop_
_space_group_symop_operation_xyz
x,y,z
-x,-y,-z
loop_
_atom_site_type_symbol
_atom_site_label
_atom_site_fract_x
_atom_site_fract_y
_atom_site_fract_z
Si Si1 0.480022 0.816548 0.235465
Si Si2 0.708485 0.047584 0.157352
Si Si3 0.060814 0.222076 0.678312
Si Si4 0.761888 0.428026 0.357695
Si Si5 0.115825 0.174712 0.220721
Si Si6 0.220716 0.634298 0.383863
Si Si7 0.627234 0.150229 0.915435
Si Si8 0.175265 0.014051 0.590681
O O1 0.262840 0.702629 0.426026
O O2 0.253725 0.769923 0.267902
O O3 0.584337 0.884111 0.381541
O O4 0.806484 0.910773 0.876138
O O5 0.069014 0.162079 0.014629
O O6 0.500000 0.000000 0.500000
O O7 0.559819 0.950611 0.132052
O O8 0.761771 0.098711 0.974709
O O9 0.413762 0.331217 0.533869
O O10 0.044510 0.196633 0.441274
O O11 0.952911 0.238569 0.786605
O O12 0.747653 0.375899 0.436870
O O13 0.882182 0.506229 0.481443
O O14 0.000000 0.500000 0.000000
O O15 0.855367 0.050084 0.430119
O O16 0.499036 0.290392 0.977981
O O17 0.356246 0.082700 0.268116
#
# Coordination Sequence:
#
# PCOD8009694 Si02
#       8
#     2   2   2   2   2   2   2   2
#     4  10  23  40  59  85 128 164 206 249 298 367
#     4  12  22  35  57  91 135 165 194 242 305 375
#     4  12  24  36  62  97 125 161 205 257 307 362
#     4  11  23  42  68  91 115 151 212 270 312 355
#     4  11  19  37  60  91 124 158 201 253 308 354
#     4  10  23  42  65  89 114 157 209 262 313 350
#     4  12  23  36  58  91 131 168 200 238 308 375
#     4  10  21  37  59  89 122 171 206 240 295 369
#
# _framework density 20.158186000000001
#
# number of rings (size 3 to 8) (size 9 to 14) (size 15 to 20)
#    0.000    1.000    6.250    1.500    0.000    1.000 
#    0.000    0.625    0.000    1.500    0.000    0.000 
#    0.000    0.000    0.000    0.000    0.000    0.000 
#
# Total GULP energy -198262.869305 kJ/mol
# GULP energy per Si atom -12391.429332 kJ/mol
# Density = 2.011231 g / cm^3
# Si number density = 20.158186 Si / 1000 Ang^3
#
#
#
# Elastic Constant Matrix: (Units=GPa)
#
#
# Indices 1 2 3 4 5 6 
#
# 1 148.8651 53.6613 34.9368 -9.3746 20.6471 1.4750
# 2 53.6613 79.5169 30.9232 -4.0996 0.9335 9.2344
# 3 34.9368 30.9232 85.7103 8.2344 8.0536 -2.4050
# 4 -9.3746 -4.0996 8.2344 22.4526 -3.8474 4.5438
# 5 20.6471 0.9335 8.0536 -3.8474 27.1751 -2.8488
# 6 1.4750 9.2344 -2.4050 4.5438 -2.8488 31.7430
#
#
#
# Elastic Compliance Matrix: (Units=1/GPa)
#
#
# Indices 1 2 3 4 5 6 
#
# 1 0.010459 -0.006244 -0.001609 0.002596 -0.006865 0.000221
# 2 -0.006244 0.020044 -0.005951 0.005518 0.005945 -0.006248
# 3 -0.001609 -0.005951 0.015841 -0.009073 -0.004140 0.003933
# 4 0.002596 0.005518 -0.009073 0.053064 0.007057 -0.009376
# 5 -0.006865 0.005945 -0.004140 0.007057 0.044165 0.001229
# 6 0.000221 -0.006248 0.003933 -0.009376 0.001229 0.035061
#
#
# Mechanical properties :
#
#
# Convention : Reuss Voigt Hill
#
# Bulk Modulus (GPa) = 53.36872 61.45943 57.41408
# Shear Modulus (GPa) = 23.53097 29.24555 26.38826
#
# Velocity S-wave (km/s) = 3.42031 3.81307 3.62202
# Velocity P-wave (km/s) = 6.49080 7.06688 6.78495
#
# Compressibility (1/GPa) = 0.01873757
#
# Stress axis : x y z
#
# Youngs Moduli (GPa) = 95.60991 49.89029 63.12753
#
# Poissons Ratio (x) = 0.31151 0.10156
# Poissons Ratio (y) = 0.59697 0.37565
# Poissons Ratio (z) = 0.15382 0.29688
#
# Static dielectric constant tensor:
#      x y z
#    x 4.069340 0.353560 0.112010 
#    y 0.353560 3.814700 0.091290 
#    z 0.112010 0.091290 3.594330 
# 
# 
# High freq. dielectric constant tensor:
#      x y z
#    x 1.793290 0.013830 0.007250 
#    y 0.013830 1.771290 0.012480 
#    z 0.007250 0.012480 1.782540 
# 
# From -- ./inp_files/75764.got.cif
#   From: 2010.06.25/outbox.cif.g09.slc.cpg/sg2_38_cif.got.tgz:75764.got - 2010.06.27 13:26:56.
