data_PCOD8009458
_publ_section_title
;
Structure prediction by ZEFSAII (Michael W. Deem and Ramdas Pophale) SiO2 
 PCOD8009458
Probable space group: P -1
;
_chemical_formula_sum "Si O2"
_cell_formula_units_Z 16
_cell_length_a 15.443733
_cell_length_b 11.528192
_cell_length_c 12.455546
_cell_angle_alpha 122.612537
_cell_angle_beta 152.450285
_cell_angle_gamma 74.724486
_cell_volume 721.388868
_symmetry_space_group_name_H-M "P -1"
_symmetry_group_IT_number 2
_symmetry_cell_setting 'triclinic'
loop_
_space_group_symop_operation_xyz
x,y,z
-x,-y,-z
loop_
_atom_site_type_symbol
_atom_site_label
_atom_site_fract_x
_atom_site_fract_y
_atom_site_fract_z
Si Si1 0.951841 0.597450 0.241387
Si Si2 0.954298 0.999002 0.221730
Si Si3 0.615091 0.838449 0.093677
Si Si4 0.739390 0.521125 0.516182
Si Si5 0.278130 0.274235 0.577225
Si Si6 0.772940 0.489118 0.210869
Si Si7 0.242573 0.383522 0.180783
Si Si8 0.685820 0.067130 0.103807
O O1 0.762105 0.510865 0.081363
O O2 0.083432 0.508714 0.357087
O O3 0.105583 0.790824 0.528914
O O4 0.869292 0.578584 0.020034
O O5 0.766099 0.040715 0.062723
O O6 0.835211 0.804702 0.988659
O O7 0.126993 0.074487 0.548735
O O8 0.090090 0.081767 0.300575
O O9 0.582607 0.898692 0.973306
O O10 0.505394 0.643555 0.859026
O O11 0.497708 0.884474 0.081604
O O12 0.756161 0.675935 0.553512
O O13 0.805649 0.561333 0.732838
O O14 0.229232 0.365373 0.661329
O O15 0.534340 0.318875 0.893586
O O16 0.000000 0.500000 0.500000
O O17 0.500000 0.500000 0.500000
#
# Coordination Sequence:
#
# PCOD8009458 Si02
#       8
#     2   2   2   2   2   2   2   2
#     4  11  22  42  69  95 131 174 222 280 326 390
#     4  12  24  40  67  98 135 169 219 281 329 388
#     4  10  21  39  65  97 130 171 214 286 326 387
#     4  11  24  44  65  95 138 179 224 262 331 405
#     4  11  24  38  66  99 133 178 219 272 329 399
#     4  11  21  39  67 104 136 169 220 277 335 385
#     4  12  27  44  66  97 134 182 219 272 338 401
#     4  10  21  36  64  98 131 160 219 275 337 379
#
# _framework density 22.17944
#
# number of rings (size 3 to 8) (size 9 to 14) (size 15 to 20)
#    0.000    1.000    3.750    3.750    3.500    0.500 
#    2.250    0.000    0.000    1.500    0.000    0.000 
#    0.000    0.000    0.000    0.000    0.000    0.000 
#
# Total GULP energy -198281.699160 kJ/mol
# GULP energy per Si atom -12392.606197 kJ/mol
# Density = 2.212896 g / cm^3
# Si number density = 22.179440 Si / 1000 Ang^3
#
#
#
# Elastic Constant Matrix: (Units=GPa)
#
#
# Indices 1 2 3 4 5 6 
#
# 1 118.5089 34.1426 35.4911 2.1116 10.1628 8.4678
# 2 34.1426 85.9767 41.8033 3.8474 8.4845 19.8562
# 3 35.4911 41.8033 85.6970 15.3950 16.0537 0.1800
# 4 2.1116 3.8474 15.3950 22.9515 5.9858 5.5420
# 5 10.1628 8.4845 16.0537 5.9858 38.4694 -2.7106
# 6 8.4678 19.8562 0.1800 5.5420 -2.7106 41.7304
#
#
#
# Elastic Compliance Matrix: (Units=1/GPa)
#
#
# Indices 1 2 3 4 5 6 
#
# 1 0.010225 -0.002025 -0.003432 0.002402 -0.001302 -0.001500
# 2 -0.002025 0.018945 -0.009165 0.005794 -0.001385 -0.009423
# 3 -0.003432 -0.009165 0.020398 -0.012554 -0.003178 0.006430
# 4 0.002402 0.005794 -0.012554 0.054990 -0.005997 -0.010883
# 5 -0.001302 -0.001385 -0.003178 -0.005997 0.029159 0.003627
# 6 -0.001500 -0.009423 0.006430 -0.010883 0.003627 0.030405
#
#
# Mechanical properties :
#
#
# Convention : Reuss Voigt Hill
#
# Bulk Modulus (GPa) = 49.19763 57.00630 53.10197
# Shear Modulus (GPa) = 24.98264 32.54663 28.76464
#
# Velocity S-wave (km/s) = 3.35981 3.83485 3.60516
# Velocity P-wave (km/s) = 6.10581 6.73545 6.42834
#
# Compressibility (1/GPa) = 0.02032618
#
# Stress axis : x y z
#
# Youngs Moduli (GPa) = 97.79717 52.78527 49.02486
#
# Poissons Ratio (x) = 0.10687 0.16824
# Poissons Ratio (y) = 0.19800 0.44929
# Poissons Ratio (z) = 0.33560 0.48375
#
# Static dielectric constant tensor:
#      x y z
#    x 4.245240 0.038400 0.478690 
#    y 0.038400 4.055120 0.096480 
#    z 0.478690 0.096480 3.695760 
# 
# 
# High freq. dielectric constant tensor:
#      x y z
#    x 1.880180 0.006920 0.030970 
#    y 0.006920 1.876700 -0.002060 
#    z 0.030970 -0.002060 1.848090 
# 
# From -- ./inp_files/452607.got.cif
#   From: 2010.06.25/outbox.cif.g09.slc.cpg/sg2_227_cif.got.tgz:452607.got - 2010.06.27 13:26:56.
