data_PCOD8009699
_publ_section_title
;
Structure prediction by ZEFSAII (Michael W. Deem and Ramdas Pophale) SiO2 
 PCOD8009699
Probable space group: P -1
;
_chemical_formula_sum "Si O2"
_cell_formula_units_Z 16
_cell_length_a 5.133066
_cell_length_b 17.058461
_cell_length_c 7.954591
_cell_angle_alpha 93.553734
_cell_angle_beta 94.993970
_cell_angle_gamma 90.472925
_cell_volume 692.477932
_symmetry_space_group_name_H-M "P -1"
_symmetry_group_IT_number 2
_symmetry_cell_setting 'triclinic'
loop_
_space_group_symop_operation_xyz
x,y,z
-x,-y,-z
loop_
_atom_site_type_symbol
_atom_site_label
_atom_site_fract_x
_atom_site_fract_y
_atom_site_fract_z
Si Si1 0.606784 0.543900 0.670772
Si Si2 0.272768 0.790726 0.186987
Si Si3 0.779057 0.191356 0.205354
Si Si4 0.767814 0.693799 0.154472
Si Si5 0.931080 0.023039 0.307341
Si Si6 0.874403 0.517091 0.175021
Si Si7 0.715884 0.713419 0.764633
Si Si8 0.569315 0.044004 0.684355
O O1 0.500000 0.500000 0.500000
O O2 0.404200 0.528583 0.814244
O O3 0.628596 0.636760 0.645724
O O4 0.899893 0.512444 0.695068
O O5 0.494764 0.725630 0.213367
O O6 0.351317 0.864595 0.319037
O O7 0.000114 0.753595 0.230136
O O8 0.242575 0.820827 0.997848
O O9 0.849532 0.112175 0.294033
O O10 0.501943 0.220359 0.262833
O O11 0.004711 0.253805 0.277009
O O12 0.823616 0.608466 0.220010
O O13 0.748114 0.685035 0.953046
O O14 0.692220 0.966977 0.219909
O O15 0.000000 0.000000 0.500000
O O16 0.192010 0.001420 0.215686
O O17 0.000000 0.500000 0.000000
O O18 0.500000 0.000000 0.500000
#
# Coordination Sequence:
#
# PCOD8009699 Si02
#       8
#     2   2   2   2   2   2   2   2
#     4  12  26  44  64 100 143 179 224 280 339 402
#     4  10  21  37  59  90 127 155 208 272 319 379
#     4  10  21  37  61  90 116 161 211 261 326 380
#     4  10  21  38  63  96 123 162 218 272 319 377
#     4  10  21  38  58  84 115 154 207 249 311 389
#     4  12  24  42  73 101 131 184 236 274 335 402
#     4  10  21  39  63  88 128 166 208 265 330 390
#     4  10  21  38  57  81 115 160 196 250 322 382
#
# _framework density 23.105429999999998
#
# number of rings (size 3 to 8) (size 9 to 14) (size 15 to 20)
#    0.000    1.500    1.250    3.750    3.500    1.000 
#    0.000   15.000    0.000    0.000    0.000    0.000 
#    0.000    0.000    0.000    0.000    0.000    0.000 
#
# Total GULP energy -198317.867664 kJ/mol
# GULP energy per Si atom -12394.866729 kJ/mol
# Density = 2.305284 g / cm^3
# Si number density = 23.105430 Si / 1000 Ang^3
#
#
#
# Elastic Constant Matrix: (Units=GPa)
#
#
# Indices 1 2 3 4 5 6 
#
# 1 157.4602 37.0051 10.8192 -3.6801 31.1246 0.8229
# 2 37.0051 142.6703 23.4627 8.7062 20.8969 -6.2151
# 3 10.8192 23.4627 28.2973 11.9206 2.4348 -4.0789
# 4 -3.6801 8.7062 11.9206 39.1813 -0.1039 13.8735
# 5 31.1246 20.8969 2.4348 -0.1039 24.8227 -1.1921
# 6 0.8229 -6.2151 -4.0789 13.8735 -1.1921 48.3841
#
#
#
# Elastic Compliance Matrix: (Units=1/GPa)
#
#
# Indices 1 2 3 4 5 6 
#
# 1 0.008802 -0.000417 -0.003350 0.002419 -0.010416 -0.001436
# 2 -0.000417 0.009225 -0.006747 -0.000242 -0.006557 0.000531
# 3 -0.003350 -0.006747 0.050157 -0.017049 0.005294 0.008438
# 4 0.002419 -0.000242 -0.017049 0.035098 -0.001569 -0.011612
# 5 -0.010416 -0.006557 0.005294 -0.001569 0.058421 0.001670
# 6 -0.001436 0.000531 0.008438 -0.011612 0.001670 0.024843
#
#
# Mechanical properties :
#
#
# Convention : Reuss Voigt Hill
#
# Bulk Modulus (GPa) = 21.20586 52.33357 36.76971
# Shear Modulus (GPa) = 22.39226 39.62033 31.00630
#
# Velocity S-wave (km/s) = 3.11647 4.14546 3.66724
# Velocity P-wave (km/s) = 4.70613 6.75368 5.82065
#
# Compressibility (1/GPa) = 0.04715678
#
# Stress axis : x y z
#
# Youngs Moduli (GPa) = 113.61286 108.39870 19.93738
#
# Poissons Ratio (x) = 0.04516 0.06679
# Poissons Ratio (y) = 0.04734 0.13452
# Poissons Ratio (z) = 0.38057 0.73139
#
# Static dielectric constant tensor:
#      x y z
#    x 2.930180 -0.069430 0.112390 
#    y -0.069430 4.070580 0.052680 
#    z 0.112390 0.052680 3.739150 
# 
# 
# High freq. dielectric constant tensor:
#      x y z
#    x 1.946210 -0.000890 0.020870 
#    y -0.000890 1.918310 0.005490 
#    z 0.020870 0.005490 1.876990 
# 
# From -- ./inp_files/112774.got.cif
#   From: 2010.06.25/outbox.cif.g09.slc.cpg/sg2_57_cif.got.tgz:112774.got - 2010.06.27 13:26:56.
