data_PCOD8009247
_publ_section_title
;
Structure prediction by ZEFSAII (Michael W. Deem and Ramdas Pophale) SiO2 
 PCOD8009247
Probable space group: P -1
;
_chemical_formula_sum "Si O2"
_cell_formula_units_Z 16
_cell_length_a 24.951678
_cell_length_b 12.185209
_cell_length_c 8.964151
_cell_angle_alpha 111.102543
_cell_angle_beta 130.778991
_cell_angle_gamma 28.756800
_cell_volume 806.371871
_symmetry_space_group_name_H-M "P -1"
_symmetry_group_IT_number 2
_symmetry_cell_setting 'triclinic'
loop_
_space_group_symop_operation_xyz
x,y,z
-x,-y,-z
loop_
_atom_site_type_symbol
_atom_site_label
_atom_site_fract_x
_atom_site_fract_y
_atom_site_fract_z
Si Si1 0.232724 0.663235 0.384281
Si Si2 0.011856 0.793214 0.954600
Si Si3 0.965330 0.363118 0.385166
Si Si4 0.882751 0.074512 0.384883
Si Si5 0.440655 0.472779 0.172670
Si Si6 0.762911 0.881142 0.360353
Si Si7 0.128381 0.216920 0.163890
Si Si8 0.511290 0.341639 0.567077
O O1 0.216588 0.730981 0.556049
O O2 0.429234 0.372782 0.549341
O O3 0.164729 0.633795 0.230162
O O4 0.138667 0.892239 0.209910
O O5 0.081966 0.622820 0.852031
O O6 0.946527 0.801286 0.965262
O O7 0.802346 0.687155 0.291885
O O8 0.135629 0.184754 0.597747
O O9 0.998248 0.215481 0.499188
O O10 0.746577 0.241721 0.095559
O O11 0.000000 0.000000 0.500000
O O12 0.430413 0.436979 0.304041
O O13 0.529052 0.466927 0.349625
O O14 0.562321 0.212121 0.156837
O O15 0.825436 0.804648 0.602740
O O16 0.287572 0.975584 0.224809
O O17 0.000000 0.500000 0.000000
#
# Coordination Sequence:
#
# PCOD8009247 Si02
#       8
#     2   2   2   2   2   2   2   2
#     4  10  21  38  61  89 118 155 200 246 302 351
#     4   9  19  36  62  83 119 160 198 238 300 371
#     4   9  19  37  60  86 117 160 197 241 306 356
#     4  11  25  37  59  95 122 155 200 253 299 350
#     4  10  21  38  61  89 122 150 210 249 294 351
#     4   9  19  38  59  86 117 156 200 244 303 353
#     4  10  21  36  59  90 117 158 201 248 295 356
#     4  10  21  37  64  87 116 163 199 248 299 353
#
# _framework density 19.841963
#
# number of rings (size 3 to 8) (size 9 to 14) (size 15 to 20)
#    0.000    2.250    0.000    3.750    8.750    2.000 
#    4.500    1.250    0.000    0.000    0.000    0.000 
#    0.000    0.000    0.000    0.000    0.000    0.000 
#
# Total GULP energy -198400.096396 kJ/mol
# GULP energy per Si atom -12400.006025 kJ/mol
# Density = 1.979680 g / cm^3
# Si number density = 19.841963 Si / 1000 Ang^3
#
#
#
# Elastic Constant Matrix: (Units=GPa)
#
#
# Indices 1 2 3 4 5 6 
#
# 1 117.8901 42.4002 37.0101 -10.4139 12.0315 -4.9203
# 2 42.4002 124.4163 28.3612 -3.1992 9.2430 -1.9352
# 3 37.0101 28.3612 68.3863 -1.5092 10.0264 2.6010
# 4 -10.4139 -3.1992 -1.5092 22.0694 6.1332 3.9207
# 5 12.0315 9.2430 10.0264 6.1332 23.6938 -4.2749
# 6 -4.9203 -1.9352 2.6010 3.9207 -4.2749 30.7888
#
#
#
# Elastic Compliance Matrix: (Units=1/GPa)
#
#
# Indices 1 2 3 4 5 6 
#
# 1 0.011851 -0.002484 -0.004614 0.006046 -0.004530 0.000729
# 2 -0.002484 0.009557 -0.002387 0.000458 -0.001552 0.000132
# 3 -0.004614 -0.002387 0.019092 0.000964 -0.005670 -0.003410
# 4 0.006046 0.000458 0.000964 0.055307 -0.019569 -0.008846
# 5 -0.004530 -0.001552 -0.005670 -0.019569 0.054325 0.009692
# 6 0.000729 0.000132 -0.003410 -0.008846 0.009692 0.035364
#
#
# Mechanical properties :
#
#
# Convention : Reuss Voigt Hill
#
# Bulk Modulus (GPa) = 46.44326 58.47064 52.45695
# Shear Modulus (GPa) = 23.62487 28.83848 26.23167
#
# Velocity S-wave (km/s) = 3.45433 3.81650 3.63992
# Velocity P-wave (km/s) = 6.27433 6.99664 6.64531
#
# Compressibility (1/GPa) = 0.02153165
#
# Stress axis : x y z
#
# Youngs Moduli (GPa) = 84.38113 104.63378 52.37840
#
# Poissons Ratio (x) = 0.25988 0.24166
# Poissons Ratio (y) = 0.20957 0.12502
# Poissons Ratio (z) = 0.38931 0.24974
#
# Static dielectric constant tensor:
#      x y z
#    x 3.542240 -0.154670 0.208320 
#    y -0.154670 3.565640 0.344540 
#    z 0.208320 0.344540 3.012560 
# 
# 
# High freq. dielectric constant tensor:
#      x y z
#    x 1.768190 -0.011550 0.002290 
#    y -0.011550 1.775020 0.010740 
#    z 0.002290 0.010740 1.753760 
# 
# From -- ./inp_files/259966.got.cif
#   From: 2010.06.25/outbox.cif.g09.slc.cpg/sg2_130_cif.got.tgz:259966.got - 2010.06.27 13:26:56.
