data_PCOD8009928
_publ_section_title
;
Structure prediction by ZEFSAII (Michael W. Deem and Ramdas Pophale) SiO2 
 PCOD8009928
Probable space group: P -1
;
_chemical_formula_sum "Si O2"
_cell_formula_units_Z 16
_cell_length_a 8.185259
_cell_length_b 9.363890
_cell_length_c 16.904486
_cell_angle_alpha 41.323915
_cell_angle_beta 88.695924
_cell_angle_gamma 68.195144
_cell_volume 721.651459
_symmetry_space_group_name_H-M "P -1"
_symmetry_group_IT_number 2
_symmetry_cell_setting 'triclinic'
loop_
_space_group_symop_operation_xyz
x,y,z
-x,-y,-z
loop_
_atom_site_type_symbol
_atom_site_label
_atom_site_fract_x
_atom_site_fract_y
_atom_site_fract_z
Si Si1 0.281361 0.150568 0.531441
Si Si2 0.656461 0.573991 0.987018
Si Si3 0.651659 0.918618 0.261999
Si Si4 0.162261 0.565151 0.634033
Si Si5 0.865058 0.120397 0.075284
Si Si6 0.452440 0.689979 0.608648
Si Si7 0.761495 0.167292 0.881367
Si Si8 0.701157 0.743778 0.080525
O O1 0.262417 0.110237 0.640294
O O2 0.398624 0.294340 0.458997
O O3 0.064800 0.298580 0.437846
O O4 0.413092 0.874010 0.605769
O O5 0.578572 0.857798 0.832308
O O6 0.500000 0.500000 0.000000
O O7 0.851977 0.347626 0.035852
O O8 0.685518 0.580370 0.078037
O O9 0.702384 0.644273 0.346074
O O10 0.745750 0.011356 0.159163
O O11 0.244732 0.755277 0.548880
O O12 0.189651 0.450426 0.768827
O O13 0.783247 0.239336 0.940073
O O14 0.077480 0.861888 0.170133
O O15 0.551069 0.395748 0.760314
O O16 0.816405 0.873150 0.997137
O O17 0.500000 0.000000 0.000000
#
# Coordination Sequence:
#
# PCOD8009928 Si02
#       8
#     2   2   2   2   2   2   2   2
#     4  11  27  45  67  99 134 179 229 268 324 399
#     4  10  21  37  62  96 129 168 216 267 338 387
#     4  11  21  42  66  96 135 175 220 273 328 400
#     4  12  24  43  70  99 133 176 225 269 333 399
#     4  10  22  36  64 101 130 173 214 275 336 392
#     4  11  25  45  69  97 131 182 223 275 331 387
#     4  11  21  40  67  95 134 166 220 277 337 392
#     4  12  21  40  67 100 131 172 216 277 339 400
#
# _framework density 22.171368999999999
#
# number of rings (size 3 to 8) (size 9 to 14) (size 15 to 20)
#    0.000    1.000    3.750    3.000    5.250    1.000 
#    0.000    1.250    0.000    0.000    0.000    0.000 
#    0.000    0.000    0.000    0.000    0.000    0.000 
#
# Total GULP energy -198227.434030 kJ/mol
# GULP energy per Si atom -12389.214627 kJ/mol
# Density = 2.212091 g / cm^3
# Si number density = 22.171369 Si / 1000 Ang^3
#
#
#
# Elastic Constant Matrix: (Units=GPa)
#
#
# Indices 1 2 3 4 5 6 
#
# 1 94.2425 22.8449 30.6890 0.3019 0.6850 -0.8969
# 2 22.8449 146.8407 34.6778 17.2129 0.7623 -2.0415
# 3 30.6890 34.6778 90.5211 7.1212 19.0009 -8.9398
# 4 0.3019 17.2129 7.1212 28.9059 9.5432 -0.4571
# 5 0.6850 0.7623 19.0009 9.5432 24.1125 -0.6485
# 6 -0.8969 -2.0415 -8.9398 -0.4571 -0.6485 27.5778
#
#
#
# Elastic Compliance Matrix: (Units=1/GPa)
#
#
# Indices 1 2 3 4 5 6 
#
# 1 0.012301 -0.000916 -0.004614 0.000520 0.003080 -0.001082
# 2 -0.000916 0.008424 -0.003524 -0.005728 0.004789 -0.000531
# 3 -0.004614 -0.003524 0.017226 0.002689 -0.014265 0.004882
# 4 0.000520 -0.005728 0.002689 0.043698 -0.019228 0.000737
# 5 0.003080 0.004789 -0.014265 -0.019228 0.060002 -0.003077
# 6 -0.001082 -0.000531 0.004882 0.000737 -0.003077 0.037709
#
#
# Mechanical properties :
#
#
# Convention : Reuss Voigt Hill
#
# Bulk Modulus (GPa) = 50.39280 56.44753 53.42017
# Shear Modulus (GPa) = 24.50002 32.34541 28.42272
#
# Velocity S-wave (km/s) = 3.32781 3.82367 3.58433
# Velocity P-wave (km/s) = 6.12730 6.70887 6.42467
#
# Compressibility (1/GPa) = 0.01984410
#
# Stress axis : x y z
#
# Youngs Moduli (GPa) = 81.29376 118.70855 58.05136
#
# Poissons Ratio (x) = 0.10875 0.26784
# Poissons Ratio (y) = 0.07447 0.20455
# Poissons Ratio (z) = 0.37507 0.41829
#
# Static dielectric constant tensor:
#      x y z
#    x 5.119930 -0.016700 -0.228330 
#    y -0.016700 4.722300 -0.370150 
#    z -0.228330 -0.370150 4.011500 
# 
# 
# High freq. dielectric constant tensor:
#      x y z
#    x 1.867180 -0.001810 0.002970 
#    y -0.001810 1.890370 -0.006840 
#    z 0.002970 -0.006840 1.854440 
# 
# From -- ./inp_files/494406.got.cif
#   From: 2010.06.25/outbox.cif.g09.slc.cpg/sg2_248_cif.got.tgz:494406.got - 2010.06.27 13:26:56.
