data_PCOD8009451
_publ_section_title
;
Structure prediction by ZEFSAII (Michael W. Deem and Ramdas Pophale) SiO2 
 PCOD8009451
Probable space group: P -1
;
_chemical_formula_sum "Si O2"
_cell_formula_units_Z 16
_cell_length_a 13.867783
_cell_length_b 9.507365
_cell_length_c 17.577799
_cell_angle_alpha 122.689573
_cell_angle_beta 39.311588
_cell_angle_gamma 146.802952
_cell_volume 764.437823
_symmetry_space_group_name_H-M "P -1"
_symmetry_group_IT_number 2
_symmetry_cell_setting 'triclinic'
loop_
_space_group_symop_operation_xyz
x,y,z
-x,-y,-z
loop_
_atom_site_type_symbol
_atom_site_label
_atom_site_fract_x
_atom_site_fract_y
_atom_site_fract_z
Si Si1 0.606593 0.425675 0.233518
Si Si2 0.471482 0.951331 0.132644
Si Si3 0.164424 0.918342 0.692763
Si Si4 0.017561 0.611918 0.101677
Si Si5 0.262581 0.230996 0.867866
Si Si6 0.601991 0.454582 0.865057
Si Si7 0.074177 0.515708 0.716899
Si Si8 0.439473 0.550669 0.477014
O O1 0.676427 0.533515 0.135420
O O2 0.419644 0.399923 0.376091
O O3 0.859547 0.645901 0.194304
O O4 0.498955 0.146238 0.220814
O O5 0.476934 0.801449 0.143085
O O6 0.217703 0.743661 0.183723
O O7 0.690607 0.106611 0.982856
O O8 0.185984 0.744791 0.656282
O O9 0.896233 0.726710 0.766813
O O10 0.244669 0.090843 0.767637
O O11 0.353893 0.128050 0.571146
O O12 0.891504 0.410059 0.192401
O O13 0.000000 0.500000 0.000000
O O14 0.488474 0.387992 0.831872
O O15 0.000000 0.000000 0.000000
O O16 0.500000 0.500000 0.000000
O O17 0.182472 0.426549 0.605864
O O18 0.500000 0.500000 0.500000
#
# Coordination Sequence:
#
# PCOD8009451 Si02
#       8
#     2   2   2   2   2   2   2   2
#     4  10  23  41  61  98 128 169 221 263 329 391
#     4  10  24  39  62  98 133 163 219 264 330 391
#     4  10  25  42  63  97 128 171 226 262 329 394
#     4  10  21  36  64  94 128 163 211 261 322 386
#     4  11  22  37  65  91 136 174 207 273 331 384
#     4  11  23  39  64  97 135 174 214 269 330 395
#     4  11  23  42  66  92 131 176 212 270 326 383
#     4  11  23  43  69  91 126 176 220 270 320 387
#
# _framework density 20.930413999999999
#
# number of rings (size 3 to 8) (size 9 to 14) (size 15 to 20)
#    0.000    1.500    2.500    1.500    8.750    2.500 
#    0.000    1.250    0.000    8.250    0.000    0.000 
#    0.000    0.000    0.000    0.000    0.000    0.000 
#
# Total GULP energy -198247.106658 kJ/mol
# GULP energy per Si atom -12390.444166 kJ/mol
# Density = 2.088278 g / cm^3
# Si number density = 20.930414 Si / 1000 Ang^3
#
#
#
# Elastic Constant Matrix: (Units=GPa)
#
#
# Indices 1 2 3 4 5 6 
#
# 1 167.9245 56.1616 55.1842 -10.4438 3.4257 -6.4682
# 2 56.1616 94.3911 25.3935 3.1713 6.0557 -14.3997
# 3 55.1842 25.3935 79.0491 -0.3040 10.6590 -11.5846
# 4 -10.4438 3.1713 -0.3040 27.1848 -9.0070 2.7893
# 5 3.4257 6.0557 10.6590 -9.0070 32.2840 -0.5051
# 6 -6.4682 -14.3997 -11.5846 2.7893 -0.5051 33.4858
#
#
#
# Elastic Compliance Matrix: (Units=1/GPa)
#
#
# Indices 1 2 3 4 5 6 
#
# 1 0.009824 -0.005049 -0.006094 0.005734 0.003472 -0.002807
# 2 -0.005049 0.014896 0.000081 -0.005514 -0.003732 0.005861
# 3 -0.006094 0.000081 0.018599 -0.004973 -0.006809 0.005604
# 4 0.005734 -0.005514 -0.004973 0.045061 0.014538 -0.006519
# 5 0.003472 -0.003732 -0.006809 0.014538 0.037549 -0.003934
# 6 -0.002807 0.005861 0.005604 -0.006519 -0.003934 0.034264
#
#
# Mechanical properties :
#
#
# Convention : Reuss Voigt Hill
#
# Bulk Modulus (GPa) = 47.18340 68.31594 57.74967
# Shear Modulus (GPa) = 26.40179 32.23260 29.31720
#
# Velocity S-wave (km/s) = 3.55548 3.92853 3.74665
# Velocity P-wave (km/s) = 6.28070 7.29987 6.80938
#
# Compressibility (1/GPa) = 0.02119390
#
# Stress axis : x y z
#
# Youngs Moduli (GPa) = 101.79204 67.13380 53.76777
#
# Poissons Ratio (x) = 0.33899 0.32764
# Poissons Ratio (y) = 0.51399 -0.00435
# Poissons Ratio (z) = 0.62028 -0.00543
#
# Static dielectric constant tensor:
#      x y z
#    x 4.858120 0.166230 0.069130 
#    y 0.166230 4.052540 -0.209830 
#    z 0.069130 -0.209830 4.119180 
# 
# 
# High freq. dielectric constant tensor:
#      x y z
#    x 1.842010 -0.011330 -0.005920 
#    y -0.011330 1.805120 -0.008570 
#    z -0.005920 -0.008570 1.814340 
# 
# From -- ./inp_files/243628.got.cif
#   From: 2010.06.25/outbox.cif.g09.slc.cpg/sg2_122_cif.got.tgz:243628.got - 2010.06.27 13:26:56.
