data_PCOD8009460
_publ_section_title
;
Structure prediction by ZEFSAII (Michael W. Deem and Ramdas Pophale) SiO2 
 PCOD8009460
Probable space group: P -1
;
_chemical_formula_sum "Si O2"
_cell_formula_units_Z 16
_cell_length_a 12.012851
_cell_length_b 15.735676
_cell_length_c 15.383072
_cell_angle_alpha 151.515260
_cell_angle_beta 54.772732
_cell_angle_gamma 142.431046
_cell_volume 770.417335
_symmetry_space_group_name_H-M "P -1"
_symmetry_group_IT_number 2
_symmetry_cell_setting 'triclinic'
loop_
_space_group_symop_operation_xyz
x,y,z
-x,-y,-z
loop_
_atom_site_type_symbol
_atom_site_label
_atom_site_fract_x
_atom_site_fract_y
_atom_site_fract_z
Si Si1 0.121519 0.667993 0.332784
Si Si2 0.390579 0.254216 0.711014
Si Si3 0.117452 0.029628 0.053719
Si Si4 0.705061 0.378253 0.183579
Si Si5 0.509550 0.167784 0.265575
Si Si6 0.210294 0.355970 0.011372
Si Si7 0.098471 0.611590 0.648535
Si Si8 0.555806 0.588110 0.367042
O O1 0.177862 0.525863 0.143899
O O2 0.935324 0.568047 0.273854
O O3 0.070562 0.604331 0.400311
O O4 0.309314 0.978652 0.518218
O O5 0.614900 0.481032 0.849385
O O6 0.387982 0.283415 0.636387
O O7 0.254680 0.273918 0.835566
O O8 0.319811 0.328367 0.248644
O O9 0.176652 0.884720 0.875470
O O10 0.986949 0.912112 0.094670
O O11 0.000000 0.000000 0.000000
O O12 0.564610 0.268695 0.232663
O O13 0.688367 0.539975 0.279588
O O14 0.630541 0.139958 0.946248
O O15 0.709238 0.329962 0.378619
O O16 0.388080 0.212059 0.405107
O O17 0.000000 0.500000 0.500000
#
# Coordination Sequence:
#
# PCOD8009460 Si02
#       8
#     2   2   2   2   2   2   2   2
#     4  10  24  43  66  90 130 175 217 255 324 392
#     4  11  25  43  64  95 135 173 214 262 330 388
#     4  11  21  38  64  99 130 161 218 268 321 379
#     4  10  23  44  64  97 131 170 219 268 317 390
#     4  10  22  40  63  95 133 166 207 272 331 363
#     4  10  24  43  64  93 133 175 207 269 327 385
#     4  10  21  36  64  99 126 164 213 271 319 380
#     4  12  24  40  67 101 127 168 221 268 319 386
#
# _framework density 20.767963999999999
#
# number of rings (size 3 to 8) (size 9 to 14) (size 15 to 20)
#    0.000    1.500    2.500    1.500    8.750    2.500 
#    0.000    1.250    0.000    0.000    0.000    0.000 
#    0.000    0.000    0.000    0.000    0.000    0.000 
#
# Total GULP energy -198490.974936 kJ/mol
# GULP energy per Si atom -12405.685934 kJ/mol
# Density = 2.072070 g / cm^3
# Si number density = 20.767964 Si / 1000 Ang^3
#
#
#
# Elastic Constant Matrix: (Units=GPa)
#
#
# Indices 1 2 3 4 5 6 
#
# 1 86.1742 20.5805 27.0199 -2.7549 -14.9961 -8.4899
# 2 20.5805 79.7883 50.5006 -2.7879 -11.7182 -7.3654
# 3 27.0199 50.5006 106.4366 -11.5980 -15.5121 -12.4540
# 4 -2.7549 -2.7879 -11.5980 24.3342 -2.5232 -5.8424
# 5 -14.9961 -11.7182 -15.5121 -2.5232 36.6524 -1.0940
# 6 -8.4899 -7.3654 -12.4540 -5.8424 -1.0940 29.1332
#
#
#
# Elastic Compliance Matrix: (Units=1/GPa)
#
#
# Indices 1 2 3 4 5 6 
#
# 1 0.013656 -0.001534 -0.001404 0.002054 0.004751 0.003582
# 2 -0.001534 0.018349 -0.008216 -0.001721 0.001655 0.000397
# 3 -0.001404 -0.008216 0.015914 0.008410 0.004297 0.006165
# 4 0.002054 -0.001721 0.008410 0.049276 0.007658 0.013928
# 5 0.004751 0.001655 0.004297 0.007658 0.032293 0.006388
# 6 0.003582 0.000397 0.006165 0.013928 0.006388 0.041138
#
#
# Mechanical properties :
#
#
# Convention : Reuss Voigt Hill
#
# Bulk Modulus (GPa) = 39.04539 52.06679 45.55609
# Shear Modulus (GPa) = 24.81758 29.64385 27.23071
#
# Velocity S-wave (km/s) = 3.46062 3.78217 3.62496
# Velocity P-wave (km/s) = 5.89995 6.64818 6.28521
#
# Compressibility (1/GPa) = 0.02561122
#
# Stress axis : x y z
#
# Youngs Moduli (GPa) = 73.22677 54.49959 62.83782
#
# Poissons Ratio (x) = 0.08359 0.08820
# Poissons Ratio (y) = 0.11232 0.51630
# Poissons Ratio (z) = 0.10278 0.44779
#
# Static dielectric constant tensor:
#      x y z
#    x 3.838100 0.057990 -0.174740 
#    y 0.057990 3.636200 -0.010850 
#    z -0.174740 -0.010850 3.813600 
# 
# 
# High freq. dielectric constant tensor:
#      x y z
#    x 1.822910 0.001460 -0.009400 
#    y 0.001460 1.799270 -0.000610 
#    z -0.009400 -0.000610 1.821400 
# 
# From -- ./inp_files/271708.got.cif
#   From: 2010.06.25/outbox.cif.g09.slc.cpg/sg2_136_cif.got.tgz:271708.got - 2010.06.27 13:26:56.
