data_PCOD8009220
_publ_section_title
;
Structure prediction by ZEFSAII (Michael W. Deem and Ramdas Pophale) SiO2 
 PCOD8009220
Probable space group: P -1
;
_chemical_formula_sum "Si O2"
_cell_formula_units_Z 14
_cell_length_a 12.470461
_cell_length_b 13.759377
_cell_length_c 8.130862
_cell_angle_alpha 46.361725
_cell_angle_beta 89.049725
_cell_angle_gamma 53.146450
_cell_volume 587.758864
_symmetry_space_group_name_H-M "P -1"
_symmetry_group_IT_number 2
_symmetry_cell_setting 'triclinic'
loop_
_space_group_symop_operation_xyz
x,y,z
-x,-y,-z
loop_
_atom_site_type_symbol
_atom_site_label
_atom_site_fract_x
_atom_site_fract_y
_atom_site_fract_z
Si Si1 0.913362 0.884108 0.894070
Si Si2 0.531671 0.830947 0.093433
Si Si3 0.094291 0.498434 0.128107
Si Si4 0.377127 0.615403 0.617307
Si Si5 0.713267 0.384403 0.733621
Si Si6 0.128009 0.213468 0.652948
Si Si7 0.251453 0.457957 0.881174
O O1 0.952796 0.759829 0.874262
O O2 0.073983 0.831460 0.971032
O O3 0.909329 0.781482 0.162794
O O4 0.725660 0.157086 0.556239
O O5 0.648959 0.605506 0.460853
O O6 0.642191 0.743246 0.021210
O O7 0.500000 0.000000 0.000000
O O8 0.337845 0.953113 0.910860
O O9 0.144156 0.358994 0.450212
O O10 0.267602 0.382392 0.155017
O O11 0.000000 0.500000 0.000000
O O12 0.593850 0.431138 0.822448
O O13 0.300200 0.685404 0.352296
O O14 0.343902 0.509475 0.832838
O O15 0.966711 0.309409 0.435640
#
# Coordination Sequence:
#
# PCOD8009220 Si02
#       7
#     2   2   2   2   2   2   2
#     4  12  21  38  68  93 117 165 207 249 306 363
#     4  11  22  35  63  93 119 156 207 254 305 356
#     4  10  25  42  60  88 129 163 201 254 310 361
#     4  10  21  37  63  91 127 154 205 252 306 356
#     4  10  21  36  59 101 123 150 201 265 302 349
#     4  11  22  38  66  91 116 164 206 250 304 361
#     4  10  24  43  58  89 132 160 196 259 301 363
#
# _framework density 23.819291
#
# number of rings (size 3 to 8) (size 9 to 14) (size 15 to 20)
#    0.000    1.429    4.286    1.714    4.000    1.143 
#    0.000    3.571    0.000    0.000    0.000    0.000 
#    0.000    0.000    0.000    0.000    0.000    0.000 
#
# Total GULP energy -173483.465861 kJ/mol
# GULP energy per Si atom -12391.676133 kJ/mol
# Density = 2.376508 g / cm^3
# Si number density = 23.819291 Si / 1000 Ang^3
#
#
#
# Elastic Constant Matrix: (Units=GPa)
#
#
# Indices 1 2 3 4 5 6 
#
# 1 101.0792 63.9648 15.8179 1.9136 -15.2073 -40.0303
# 2 63.9648 140.3005 27.4557 -15.4789 -27.8331 -20.3981
# 3 15.8179 27.4557 32.5485 -11.0397 -7.7160 -12.5601
# 4 1.9136 -15.4789 -11.0397 24.5803 -4.8786 -5.8349
# 5 -15.2073 -27.8331 -7.7160 -4.8786 47.4220 -5.7487
# 6 -40.0303 -20.3981 -12.5601 -5.8349 -5.7487 51.5501
#
#
#
# Elastic Compliance Matrix: (Units=1/GPa)
#
#
# Indices 1 2 3 4 5 6 
#
# 1 0.019919 -0.006699 0.002065 -0.000713 0.004383 0.013728
# 2 -0.006699 0.013078 -0.002985 0.008839 0.006063 0.000922
# 3 0.002065 -0.002985 0.051119 0.027447 0.012154 0.017340
# 4 -0.000713 0.008839 0.027447 0.066910 0.018646 0.019284
# 5 0.004383 0.006063 0.012154 0.018646 0.031694 0.014409
# 6 0.013728 0.000922 0.017340 0.019284 0.014409 0.038438
#
#
# Mechanical properties :
#
#
# Convention : Reuss Voigt Hill
#
# Bulk Modulus (GPa) = 14.51820 54.26722 34.39271
# Shear Modulus (GPa) = 19.27863 35.82312 27.55088
#
# Velocity S-wave (km/s) = 2.84803 3.88229 3.40466
# Velocity P-wave (km/s) = 4.11381 6.55199 5.47047
#
# Compressibility (1/GPa) = 0.06887907
#
# Stress axis : x y z
#
# Youngs Moduli (GPa) = 50.20417 76.46634 19.56203
#
# Poissons Ratio (x) = 0.51221 -0.04040
# Poissons Ratio (y) = 0.33629 0.05839
# Poissons Ratio (z) = -0.10368 0.22825
#
# Static dielectric constant tensor:
#      x y z
#    x 5.290630 -1.675520 -0.153430 
#    y -1.675520 6.074730 -0.192390 
#    z -0.153430 -0.192390 4.443080 
# 
# 
# High freq. dielectric constant tensor:
#      x y z
#    x 1.955960 -0.024430 -0.008040 
#    y -0.024430 1.943450 -0.018120 
#    z -0.008040 -0.018120 1.908920 
# 
# From -- ./inp_files/314642.got.cif
#   From: 2010.06.25/outbox.cif.g09.slc.cpg/sg2_158_cif.got.tgz:314642.got - 2010.06.27 13:26:56.
