data_PCOD8009265
_publ_section_title
;
Structure prediction by ZEFSAII (Michael W. Deem and Ramdas Pophale) SiO2 
 PCOD8009265
Probable space group: P -1
;
_chemical_formula_sum "Si O2"
_cell_formula_units_Z 14
_cell_length_a 9.351226
_cell_length_b 9.415036
_cell_length_c 12.032254
_cell_angle_alpha 77.038488
_cell_angle_beta 91.099839
_cell_angle_gamma 138.493535
_cell_volume 665.744583
_symmetry_space_group_name_H-M "P -1"
_symmetry_group_IT_number 2
_symmetry_cell_setting 'triclinic'
loop_
_space_group_symop_operation_xyz
x,y,z
-x,-y,-z
loop_
_atom_site_type_symbol
_atom_site_label
_atom_site_fract_x
_atom_site_fract_y
_atom_site_fract_z
Si Si1 0.564181 0.945947 0.260430
Si Si2 0.200640 0.568067 0.882445
Si Si3 0.728532 0.668903 0.593465
Si Si4 0.230678 0.596739 0.482618
Si Si5 0.710440 0.552497 0.290595
Si Si6 0.699466 0.257211 0.919576
Si Si7 0.127200 0.066359 0.665551
O O1 0.426794 0.851286 0.390962
O O2 0.383105 0.750130 0.199740
O O3 0.754913 0.973833 0.262312
O O4 0.682413 0.191104 0.195837
O O5 0.294942 0.503662 0.826879
O O6 0.936241 0.360441 0.892341
O O7 0.258297 0.587832 0.010567
O O8 0.790819 0.558516 0.570839
O O9 0.487090 0.490448 0.674130
O O10 0.736736 0.789586 0.470483
O O11 0.884179 0.829124 0.669836
O O12 0.288875 0.592910 0.609228
O O13 0.000000 0.500000 0.500000
O O14 0.911470 0.820019 0.276533
O O15 0.500000 0.000000 0.000000
#
# Coordination Sequence:
#
# PCOD8009265 Si02
#       7
#     2   2   2   2   2   2   2
#     4  11  21  37  62  92 122 157 206 255 293 355
#     4  10  23  38  66  90 116 161 204 252 308 358
#     4  10  21  39  56  82 132 172 194 235 302 362
#     4  11  22  36  60  94 128 159 206 249 291 357
#     4  11  21  40  58  89 129 161 197 243 302 362
#     4   9  21  43  62  87 122 153 202 257 311 355
#     4  10  21  36  60  82 124 172 198 234 302 357
#
# _framework density 21.029087000000001
#
# number of rings (size 3 to 8) (size 9 to 14) (size 15 to 20)
#    0.000    1.714    2.857    1.714    4.000    6.286 
#    0.000    0.714    0.000    8.571    0.000    0.000 
#    0.000    0.000    0.000    0.000    0.000    0.000 
#
# Total GULP energy -173498.652118 kJ/mol
# GULP energy per Si atom -12392.760866 kJ/mol
# Density = 2.098122 g / cm^3
# Si number density = 21.029087 Si / 1000 Ang^3
#
#
#
# Elastic Constant Matrix: (Units=GPa)
#
#
# Indices 1 2 3 4 5 6 
#
# 1 102.3834 33.1632 30.6728 19.2608 -12.5925 -4.5840
# 2 33.1632 90.3828 18.2961 18.6987 -2.6862 12.1632
# 3 30.6728 18.2961 49.9025 24.0452 -8.8678 0.2406
# 4 19.2608 18.6987 24.0452 45.8698 0.3052 -2.8024
# 5 -12.5925 -2.6862 -8.8678 0.3052 24.1875 0.2147
# 6 -4.5840 12.1632 0.2406 -2.8024 0.2147 19.8525
#
#
#
# Elastic Compliance Matrix: (Units=1/GPa)
#
#
# Indices 1 2 3 4 5 6 
#
# 1 0.013893 -0.004439 -0.005818 -0.000647 0.004563 0.005857
# 2 -0.004439 0.015259 -0.000694 -0.004661 -0.000714 -0.011015
# 3 -0.005818 -0.000694 0.032524 -0.014596 0.009033 -0.003470
# 4 -0.000647 -0.004661 -0.014596 0.032126 -0.006678 0.007490
# 5 0.004563 -0.000714 0.009033 -0.006678 0.047037 -0.000069
# 6 0.005857 -0.011015 -0.003470 0.007490 -0.000069 0.059573
#
#
# Mechanical properties :
#
#
# Convention : Reuss Voigt Hill
#
# Bulk Modulus (GPa) = 25.14141 45.21477 35.17809
# Shear Modulus (GPa) = 21.22503 28.68439 24.95471
#
# Velocity S-wave (km/s) = 3.18042 3.69729 3.44855
# Velocity P-wave (km/s) = 5.04661 6.30669 5.71151
#
# Compressibility (1/GPa) = 0.03977502
#
# Stress axis : x y z
#
# Youngs Moduli (GPa) = 71.97808 65.53675 30.74634
#
# Poissons Ratio (x) = 0.29090 0.17887
# Poissons Ratio (y) = 0.31949 0.02134
# Poissons Ratio (z) = 0.41873 0.04549
#
# Static dielectric constant tensor:
#      x y z
#    x 3.556310 0.237450 0.081850 
#    y 0.237450 4.045910 0.194160 
#    z 0.081850 0.194160 4.113580 
# 
# 
# High freq. dielectric constant tensor:
#      x y z
#    x 1.806160 0.013800 -0.000260 
#    y 0.013800 1.834630 0.010380 
#    z -0.000260 0.010380 1.815610 
# 
# From -- ./inp_files/177250.got.cif
#   From: 2010.06.25/outbox.cif.g09.slc.cpg/sg2_89_cif.got.tgz:177250.got - 2010.06.27 13:26:56.
