data_PCOD8009181
_publ_section_title
;
Structure prediction by ZEFSAII (Michael W. Deem and Ramdas Pophale) SiO2 
 PCOD8009181
Probable space group: P -1
;
_chemical_formula_sum "Si O2"
_cell_formula_units_Z 16
_cell_length_a 8.136716
_cell_length_b 5.450342
_cell_length_c 22.878529
_cell_angle_alpha 118.834245
_cell_angle_beta 115.916985
_cell_angle_gamma 58.796898
_cell_volume 736.128613
_symmetry_space_group_name_H-M "P -1"
_symmetry_group_IT_number 2
_symmetry_cell_setting 'triclinic'
loop_
_space_group_symop_operation_xyz
x,y,z
-x,-y,-z
loop_
_atom_site_type_symbol
_atom_site_label
_atom_site_fract_x
_atom_site_fract_y
_atom_site_fract_z
Si Si1 0.054319 0.548064 0.949555
Si Si2 0.636683 0.640787 0.372611
Si Si3 0.286578 0.271293 0.850461
Si Si4 0.540324 0.334105 0.425992
Si Si5 0.901292 0.099535 0.281260
Si Si6 0.252121 0.570567 0.311385
Si Si7 0.254143 0.897981 0.083785
Si Si8 0.047135 0.174017 0.189258
O O1 0.181922 0.255992 0.895444
O O2 0.850937 0.743248 0.906517
O O3 0.000000 0.500000 0.000000
O O4 0.202786 0.723450 0.002281
O O5 0.673355 0.469961 0.422507
O O6 0.806728 0.437260 0.331127
O O7 0.422665 0.661840 0.318495
O O8 0.647149 0.971917 0.412949
O O9 0.168105 0.607877 0.844409
O O10 0.272894 0.018132 0.774877
O O11 0.512309 0.219007 0.887724
O O12 0.500000 0.500000 0.500000
O O13 0.331184 0.411327 0.368416
O O14 0.027699 0.075968 0.240194
O O15 0.053938 0.874838 0.325945
O O16 0.197843 0.348558 0.234459
O O17 0.151097 0.878785 0.128776
#
# Coordination Sequence:
#
# PCOD8009181 Si02
#       8
#     2   2   2   2   2   2   2   2
#     4  10  21  37  56  81 117 156 210 261 320 378
#     4  10  23  39  68  93 129 170 215 264 319 385
#     4  10  22  36  56  86 119 160 210 261 320 387
#     4  10  22  44  68  96 132 172 214 264 321 384
#     4  11  22  38  61  94 124 164 215 266 322 385
#     4   9  22  38  63  90 128 166 210 262 324 376
#     4  10  21  37  56  82 116 161 206 258 321 382
#     4  10  21  36  58  85 126 157 209 264 320 376
#
# _framework density 21.735333000000001
#
# number of rings (size 3 to 8) (size 9 to 14) (size 15 to 20)
#    0.750    1.250    0.000    3.000    3.500    2.500 
#    0.000    1.250    0.000    0.000    0.000    0.000 
#    0.000    0.000    0.000    0.000    0.000    0.000 
#
# Total GULP energy -198245.803026 kJ/mol
# GULP energy per Si atom -12390.362689 kJ/mol
# Density = 2.168586 g / cm^3
# Si number density = 21.735333 Si / 1000 Ang^3
#
#
#
# Elastic Constant Matrix: (Units=GPa)
#
#
# Indices 1 2 3 4 5 6 
#
# 1 57.2640 23.2068 12.6270 -12.2302 -16.4877 -13.1392
# 2 23.2068 101.0618 42.6093 8.5638 -11.7848 -1.9845
# 3 12.6270 42.6093 101.8092 3.3423 -24.4125 -14.5374
# 4 -12.2302 8.5638 3.3423 36.2563 -0.6569 -4.0335
# 5 -16.4877 -11.7848 -24.4125 -0.6569 29.7866 -2.4661
# 6 -13.1392 -1.9845 -14.5374 -4.0335 -2.4661 34.3030
#
#
#
# Elastic Compliance Matrix: (Units=1/GPa)
#
#
# Indices 1 2 3 4 5 6 
#
# 1 0.033836 -0.009116 0.007361 0.015423 0.023070 0.019024
# 2 -0.009116 0.014792 -0.007225 -0.006778 -0.005837 -0.006914
# 3 0.007361 -0.007225 0.017389 0.004159 0.016507 0.011447
# 4 0.015423 -0.006778 0.004159 0.035565 0.011063 0.012255
# 5 0.023070 -0.005837 0.016507 0.011063 0.059551 0.021077
# 6 0.019024 -0.006914 0.011447 0.012255 0.021077 0.043846
#
#
# Mechanical properties :
#
#
# Convention : Reuss Voigt Hill
#
# Bulk Modulus (GPa) = 20.80837 46.33572 33.57204
# Shear Modulus (GPa) = 20.92406 32.18198 26.55302
#
# Velocity S-wave (km/s) = 3.10607 3.85207 3.49901
# Velocity P-wave (km/s) = 4.73897 6.41475 5.63945
#
# Compressibility (1/GPa) = 0.04805758
#
# Stress axis : x y z
#
# Youngs Moduli (GPa) = 29.55438 67.60272 57.50684
#
# Poissons Ratio (x) = 0.61629 -0.42331
# Poissons Ratio (y) = 0.26943 0.41547
# Poissons Ratio (z) = -0.21755 0.48840
#
# Static dielectric constant tensor:
#      x y z
#    x 3.647530 0.065070 0.030520 
#    y 0.065070 3.940230 0.113830 
#    z 0.030520 0.113830 4.263820 
# 
# 
# High freq. dielectric constant tensor:
#      x y z
#    x 1.835760 -0.000230 -0.001660 
#    y -0.000230 1.848420 0.000610 
#    z -0.001660 0.000610 1.855100 
# 
# From -- ./inp_files/585427.got.cif
#   From: 2010.06.25/outbox.cif.g09.slc.cpg/sg2_293_cif.got.tgz:585427.got - 2010.06.27 13:26:56.
