data_PCOD8009158
_publ_section_title
;
Structure prediction by ZEFSAII (Michael W. Deem and Ramdas Pophale) SiO2 
 PCOD8009158
Probable space group: P -1
;
_chemical_formula_sum "Si O2"
_cell_formula_units_Z 16
_cell_length_a 9.575267
_cell_length_b 7.871756
_cell_length_c 15.250452
_cell_angle_alpha 126.686928
_cell_angle_beta 45.651094
_cell_angle_gamma 111.701540
_cell_volume 656.869158
_symmetry_space_group_name_H-M "P -1"
_symmetry_group_IT_number 2
_symmetry_cell_setting 'triclinic'
loop_
_space_group_symop_operation_xyz
x,y,z
-x,-y,-z
loop_
_atom_site_type_symbol
_atom_site_label
_atom_site_fract_x
_atom_site_fract_y
_atom_site_fract_z
Si Si1 0.205365 0.423746 0.786628
Si Si2 0.457422 0.139353 0.476489
Si Si3 0.558619 0.682233 0.749153
Si Si4 0.292356 0.065411 0.944690
Si Si5 0.180124 0.869736 0.430781
Si Si6 0.815308 0.330816 0.440458
Si Si7 0.224297 0.408121 0.207939
Si Si8 0.045644 0.184465 0.935379
O O1 0.280331 0.323954 0.630630
O O2 0.384713 0.527263 0.786348
O O3 0.135197 0.232009 0.816914
O O4 0.024865 0.602346 0.912036
O O5 0.665966 0.240102 0.405730
O O6 0.500000 0.000000 0.500000
O O7 0.373943 0.005386 0.391419
O O8 0.730146 0.568197 0.578614
O O9 0.634241 0.716505 0.823344
O O10 0.494643 0.916078 0.811238
O O11 0.302702 0.305980 0.049727
O O12 0.220257 0.062094 0.875486
O O13 0.134507 0.958998 0.043663
O O14 0.137497 0.805644 0.531895
O O15 0.241669 0.661357 0.281265
O O16 0.000000 0.000000 0.500000
O O17 0.004786 0.355657 0.308238
#
# Coordination Sequence:
#
# PCOD8009158 Si02
#       8
#     2   2   2   2   2   2   2   2
#     4   9  18  36  63  81 117 159 204 237 304 362
#     4   9  19  35  61  88 118 161 199 242 294 366
#     4   9  18  38  59  86 119 160 197 252 297 363
#     4  10  21  36  61  87 123 152 202 252 302 349
#     4  10  21  36  57  90 126 155 196 256 302 349
#     4   9  20  41  64  86 121 166 207 239 301 374
#     4  11  22  39  62  88 123 164 199 244 310 365
#     4   9  20  37  58  89 114 155 201 255 291 362
#
# _framework density 24.357969000000001
#
# number of rings (size 3 to 8) (size 9 to 14) (size 15 to 20)
#    0.000    2.500    0.000    2.625    5.250    0.000 
#    0.000   11.250    2.750    0.000    0.000    0.000 
#    0.000    0.000    0.000    0.000    0.000    0.000 
#
# Total GULP energy -198264.850099 kJ/mol
# GULP energy per Si atom -12391.553131 kJ/mol
# Density = 2.430253 g / cm^3
# Si number density = 24.357969 Si / 1000 Ang^3
#
#
#
# Elastic Constant Matrix: (Units=GPa)
#
#
# Indices 1 2 3 4 5 6 
#
# 1 112.4417 29.8390 39.0461 25.5483 -14.4031 4.6263
# 2 29.8390 52.3856 29.1353 20.1070 3.6220 8.4414
# 3 39.0461 29.1353 71.3274 34.7977 -10.4000 -6.8492
# 4 25.5483 20.1070 34.7977 34.1736 3.6139 -2.6609
# 5 -14.4031 3.6220 -10.4000 3.6139 34.4762 14.9865
# 6 4.6263 8.4414 -6.8492 -2.6609 14.9865 29.3030
#
#
#
# Elastic Compliance Matrix: (Units=1/GPa)
#
#
# Indices 1 2 3 4 5 6 
#
# 1 0.013718 -0.003321 -0.001172 -0.008713 0.009809 -0.007291
# 2 -0.003321 0.030021 -0.007904 -0.007686 -0.001906 -0.009695
# 3 -0.001172 -0.007904 0.035874 -0.032471 0.014315 0.000577
# 4 -0.008713 -0.007686 -0.032471 0.077739 -0.028426 0.017597
# 5 0.009809 -0.001906 0.014315 -0.028426 0.052339 -0.027003
# 6 -0.007291 -0.009695 0.000577 0.017597 -0.027003 0.053613
#
#
# Mechanical properties :
#
#
# Convention : Reuss Voigt Hill
#
# Bulk Modulus (GPa) = 18.24187 48.02171 33.13179
# Shear Modulus (GPa) = 16.32010 28.79953 22.55982
#
# Velocity S-wave (km/s) = 2.59126 3.44226 3.04662
# Velocity P-wave (km/s) = 4.05687 5.96294 5.09975
#
# Compressibility (1/GPa) = 0.05481894
#
# Stress axis : x y z
#
# Youngs Moduli (GPa) = 72.89703 33.31039 27.87531
#
# Poissons Ratio (x) = 0.11062 0.03268
# Poissons Ratio (y) = 0.24208 0.22032
# Poissons Ratio (z) = 0.08545 0.26328
#
# Static dielectric constant tensor:
#      x y z
#    x 4.470470 0.309400 -0.232030 
#    y 0.309400 4.442420 0.576530 
#    z -0.232030 0.576530 4.668370 
# 
# 
# High freq. dielectric constant tensor:
#      x y z
#    x 1.960010 0.012150 -0.015920 
#    y 0.012150 1.951100 0.024140 
#    z -0.015920 0.024140 1.968380 
# 
# From -- ./inp_files/557543.got.cif
#   From: 2010.06.25/outbox.cif.g09.slc.cpg/sg2_279_cif.got.tgz:557543.got - 2010.06.27 13:26:56.
