data_PCOD8009237
_publ_section_title
;
Structure prediction by ZEFSAII (Michael W. Deem and Ramdas Pophale) SiO2 
 PCOD8009237
Probable space group: P -1
;
_chemical_formula_sum "Si O2"
_cell_formula_units_Z 16
_cell_length_a 16.693763
_cell_length_b 7.556999
_cell_length_c 9.662906
_cell_angle_alpha 48.125787
_cell_angle_beta 63.975293
_cell_angle_gamma 51.084447
_cell_volume 705.856799
_symmetry_space_group_name_H-M "P -1"
_symmetry_group_IT_number 2
_symmetry_cell_setting 'triclinic'
loop_
_space_group_symop_operation_xyz
x,y,z
-x,-y,-z
loop_
_atom_site_type_symbol
_atom_site_label
_atom_site_fract_x
_atom_site_fract_y
_atom_site_fract_z
Si Si1 0.417163 0.558991 0.148787
Si Si2 0.807452 0.215774 0.521282
Si Si3 0.096439 0.413146 0.251587
Si Si4 0.798347 0.335169 0.776161
Si Si5 0.189417 0.591702 0.862182
Si Si6 0.403633 0.104790 0.918273
Si Si7 0.909342 0.933042 0.119759
Si Si8 0.571265 0.574045 0.495618
O O1 0.325540 0.508756 0.194344
O O2 0.469408 0.367875 0.345069
O O3 0.500000 0.500000 0.000000
O O4 0.367809 0.880139 0.057196
O O5 0.832895 0.287877 0.614682
O O6 0.835445 0.375172 0.300357
O O7 0.686877 0.312310 0.549865
O O8 0.876387 0.896875 0.599595
O O9 0.161367 0.476949 0.282217
O O10 0.028744 0.396499 0.729201
O O11 0.123254 0.474472 0.045917
O O12 0.843428 0.038498 0.972974
O O13 0.310656 0.384900 0.904555
O O14 0.163106 0.888853 0.790311
O O15 0.431416 0.162325 0.711875
O O16 0.500000 0.000000 0.000000
O O17 0.000000 0.000000 0.000000
O O18 0.500000 0.500000 0.500000
#
# Coordination Sequence:
#
# PCOD8009237 Si02
#       8
#     2   2   2   2   2   2   2   2
#     4  11  24  37  58  89 121 155 200 250 298 349
#     4  10  21  36  59  89 115 157 197 246 296 354
#     4  10  21  40  64  85 118 162 195 242 312 346
#     4   9  20  39  58  86 126 149 198 255 288 355
#     4   9  19  37  59  84 116 149 199 241 288 360
#     4  11  22  36  63  84 112 164 200 235 302 353
#     4   8  18  37  61  86 116 156 195 244 299 356
#     4  10  21  38  57  86 119 154 210 243 283 367
#
# _framework density 22.667487000000001
#
# number of rings (size 3 to 8) (size 9 to 14) (size 15 to 20)
#    0.000    2.500    1.250    1.500    3.500    1.500 
#    0.000   19.375    0.000    0.000    0.000    0.000 
#    0.000    0.000    0.000    0.000    0.000    0.000 
#
# Total GULP energy -198275.878913 kJ/mol
# GULP energy per Si atom -12392.242432 kJ/mol
# Density = 2.261589 g / cm^3
# Si number density = 22.667487 Si / 1000 Ang^3
#
#
#
# Elastic Constant Matrix: (Units=GPa)
#
#
# Indices 1 2 3 4 5 6 
#
# 1 59.2141 9.1906 27.3906 13.7081 22.7184 -1.2725
# 2 9.1906 98.2964 36.6794 15.0762 10.4549 -11.6089
# 3 27.3906 36.6794 138.9819 15.8469 27.6970 1.1681
# 4 13.7081 15.0762 15.8469 31.7217 7.1441 0.8995
# 5 22.7184 10.4549 27.6970 7.1441 33.6282 -3.2290
# 6 -1.2725 -11.6089 1.1681 0.8995 -3.2290 26.1641
#
#
#
# Elastic Compliance Matrix: (Units=1/GPa)
#
#
# Indices 1 2 3 4 5 6 
#
# 1 0.024472 0.000849 -0.001430 -0.007093 -0.014099 0.000134
# 2 0.000849 0.012694 -0.002896 -0.005008 -0.000503 0.005913
# 3 -0.001430 -0.002896 0.009615 -0.001389 -0.005996 -0.002476
# 4 -0.007093 -0.005008 -0.001389 0.037989 -0.000956 -0.003929
# 5 -0.014099 -0.000503 -0.005996 -0.000956 0.045035 0.004949
# 6 0.000134 0.005913 -0.002476 -0.003929 0.004949 0.041707
#
#
# Mechanical properties :
#
#
# Convention : Reuss Voigt Hill
#
# Bulk Modulus (GPa) = 25.10808 49.22372 37.16590
# Shear Modulus (GPa) = 26.07665 33.18493 29.63079
#
# Velocity S-wave (km/s) = 3.39543 3.83036 3.61944
# Velocity P-wave (km/s) = 5.14516 6.42845 5.82227
#
# Compressibility (1/GPa) = 0.03982782
#
# Stress axis : x y z
#
# Youngs Moduli (GPa) = 40.86365 78.77428 104.00139
#
# Poissons Ratio (x) = -0.06685 0.14867
# Poissons Ratio (y) = -0.03468 0.30118
# Poissons Ratio (z) = 0.05841 0.22813
#
# Static dielectric constant tensor:
#      x y z
#    x 3.960990 -0.137360 0.322420 
#    y -0.137360 4.845230 -0.090820 
#    z 0.322420 -0.090820 4.535430 
# 
# 
# High freq. dielectric constant tensor:
#      x y z
#    x 1.869640 -0.018150 0.019600 
#    y -0.018150 1.888200 0.003880 
#    z 0.019600 0.003880 1.906570 
# 
# From -- ./inp_files/328368.got.cif
#   From: 2010.06.25/outbox.cif.g09.slc.cpg/sg2_165_cif.got.tgz:328368.got - 2010.06.27 13:26:56.
