data_PCOD8009807
_publ_section_title
;
Structure prediction by ZEFSAII (Michael W. Deem and Ramdas Pophale) SiO2 
 PCOD8009807
Probable space group: P -1
;
_chemical_formula_sum "Si O2"
_cell_formula_units_Z 16
_cell_length_a 17.522764
_cell_length_b 25.347778
_cell_length_c 14.398639
_cell_angle_alpha 21.737873
_cell_angle_beta 145.226334
_cell_angle_gamma 159.334040
_cell_volume 778.251711
_symmetry_space_group_name_H-M "P -1"
_symmetry_group_IT_number 2
_symmetry_cell_setting 'triclinic'
loop_
_space_group_symop_operation_xyz
x,y,z
-x,-y,-z
loop_
_atom_site_type_symbol
_atom_site_label
_atom_site_fract_x
_atom_site_fract_y
_atom_site_fract_z
Si Si1 0.303976 0.926855 0.380071
Si Si2 0.367361 0.233475 0.385889
Si Si3 0.720640 0.005994 0.954975
Si Si4 0.158819 0.201610 0.075678
Si Si5 0.492045 0.359511 0.497940
Si Si6 0.434183 0.886994 0.254521
Si Si7 0.207851 0.121923 0.066796
Si Si8 0.811466 0.400207 0.704732
O O1 0.378216 0.074037 0.118338
O O2 0.084928 0.633567 0.617475
O O3 0.500000 0.000000 0.500000
O O4 0.250880 0.994994 0.295102
O O5 0.144470 0.104614 0.319023
O O6 0.305606 0.157188 0.559171
O O7 0.461245 0.177168 0.515582
O O8 0.575060 0.526049 0.117074
O O9 0.704048 0.153941 0.734059
O O10 0.990082 0.191824 0.919371
O O11 0.589314 0.774008 0.266175
O O12 0.114642 0.051368 0.194623
O O13 0.731682 0.495106 0.479424
O O14 0.555955 0.582058 0.204784
O O15 0.249615 0.720463 0.258674
O O16 0.662337 0.181569 0.986399
O O17 0.000000 0.000000 0.000000
#
# Coordination Sequence:
#
# PCOD8009807 Si02
#       8
#     2   2   2   2   2   2   2   2
#     4  12  26  41  58  88 123 157 206 247 284 354
#     4   9  19  38  60  88 120 155 193 241 306 361
#     4  11  22  38  59  93 117 150 203 252 291 345
#     4  10  21  37  61  89 117 156 200 243 295 358
#     4   9  19  38  65  86 116 153 197 246 297 355
#     4   9  19  36  64  86 116 155 191 247 305 346
#     4  11  20  42  63  77 113 172 197 233 298 353
#     4   9  18  40  61  85 119 158 195 237 304 358
#
# _framework density 20.558902
#
# number of rings (size 3 to 8) (size 9 to 14) (size 15 to 20)
#    0.000    2.000    2.500    2.250    1.750    3.000 
#    6.750    2.500    0.000    0.000    0.000    0.000 
#    0.000    0.000    0.000    0.000    0.000    0.000 
#
# Total GULP energy -198231.671559 kJ/mol
# GULP energy per Si atom -12389.479472 kJ/mol
# Density = 2.051211 g / cm^3
# Si number density = 20.558902 Si / 1000 Ang^3
#
#
#
# Elastic Constant Matrix: (Units=GPa)
#
#
# Indices 1 2 3 4 5 6 
#
# 1 109.8655 40.5986 35.0520 12.0993 3.7243 -6.3305
# 2 40.5986 105.8357 45.0135 24.3512 -2.7923 -13.2637
# 3 35.0520 45.0135 65.6726 10.5189 2.4086 -9.7153
# 4 12.0993 24.3512 10.5189 42.7760 -1.1842 -1.3568
# 5 3.7243 -2.7923 2.4086 -1.1842 41.3883 4.9409
# 6 -6.3305 -13.2637 -9.7153 -1.3568 4.9409 21.8766
#
#
#
# Elastic Compliance Matrix: (Units=1/GPa)
#
#
# Indices 1 2 3 4 5 6 
#
# 1 0.011494 -0.002392 -0.004302 -0.000855 -0.000986 0.000135
# 2 -0.002392 0.015756 -0.007865 -0.006180 0.000991 0.004761
# 3 -0.004302 -0.007865 0.023740 -0.000043 -0.002124 0.005006
# 4 -0.000855 -0.006180 -0.000043 0.027089 0.000736 -0.002500
# 5 -0.000986 0.000991 -0.002124 0.000736 0.025211 -0.006276
# 6 0.000135 0.004761 0.005006 -0.002500 -0.006276 0.052122
#
#
# Mechanical properties :
#
#
# Convention : Reuss Voigt Hill
#
# Bulk Modulus (GPa) = 45.72213 58.07802 51.90007
# Shear Modulus (GPa) = 26.06601 31.92216 28.99408
#
# Velocity S-wave (km/s) = 3.56458 3.94473 3.75946
# Velocity P-wave (km/s) = 6.26334 7.00419 6.64410
#
# Compressibility (1/GPa) = 0.02187125
#
# Stress axis : x y z
#
# Youngs Moduli (GPa) = 87.00356 63.46787 42.12337
#
# Poissons Ratio (x) = 0.15179 0.18123
# Poissons Ratio (y) = 0.20808 0.33131
# Poissons Ratio (z) = 0.37433 0.49918
#
# Static dielectric constant tensor:
#      x y z
#    x 3.289880 -0.178410 -0.296860 
#    y -0.178410 3.639900 0.265910 
#    z -0.296860 0.265910 3.739950 
# 
# 
# High freq. dielectric constant tensor:
#      x y z
#    x 1.807800 -0.010860 0.004780 
#    y -0.010860 1.782380 0.010090 
#    z 0.004780 0.010090 1.794340 
# 
# From -- ./inp_files/539377.got.cif
#   From: 2010.06.25/outbox.cif.g09.slc.cpg/sg2_270_cif.got.tgz:539377.got - 2010.06.27 13:26:56.
