data_PCOD8009271
_publ_section_title
;
Structure prediction by ZEFSAII (Michael W. Deem and Ramdas Pophale) SiO2 
 PCOD8009271
Probable space group: P -1
;
_chemical_formula_sum "Si O2"
_cell_formula_units_Z 14
_cell_length_a 21.205931
_cell_length_b 5.520591
_cell_length_c 5.665504
_cell_angle_alpha 104.310682
_cell_angle_beta 109.074945
_cell_angle_gamma 114.567963
_cell_volume 510.346654
_symmetry_space_group_name_H-M "P -1"
_symmetry_group_IT_number 2
_symmetry_cell_setting 'triclinic'
loop_
_space_group_symop_operation_xyz
x,y,z
-x,-y,-z
loop_
_atom_site_type_symbol
_atom_site_label
_atom_site_fract_x
_atom_site_fract_y
_atom_site_fract_z
Si Si1 0.250299 0.032520 0.759754
Si Si2 0.311622 0.480319 0.565019
Si Si3 0.967395 0.262786 0.114302
Si Si4 0.443841 0.939629 0.133477
Si Si5 0.824715 0.720574 0.937910
Si Si6 0.588698 0.578338 0.713594
Si Si7 0.110301 0.481738 0.617564
O O1 0.190220 0.672525 0.598972
O O2 0.249731 0.161323 0.534072
O O3 0.212868 0.118778 0.941807
O O4 0.342025 0.172419 0.973079
O O5 0.353212 0.734639 0.877207
O O6 0.255903 0.551010 0.353980
O O7 0.378044 0.454657 0.501487
O O8 0.927995 0.337767 0.298024
O O9 0.039415 0.235865 0.300436
O O10 0.892509 0.931078 0.876307
O O11 0.000000 0.500000 0.000000
O O12 0.455876 0.751135 0.301905
O O13 0.463338 0.264238 0.335243
O O14 0.500000 0.000000 0.000000
O O15 0.867804 0.633296 0.156415
#
# Coordination Sequence:
#
# PCOD8009271 Si02
#       7
#     2   2   2   2   2   2   2
#     4   9  21  39  59  92 130 171 223 280 341 403
#     4  10  23  43  68 100 136 184 227 290 347 411
#     4  10  21  37  56  88 128 172 220 279 346 406
#     4  11  25  47  71 105 145 184 228 288 350 416
#     4  10  21  39  59  94 126 172 233 276 343 414
#     4  10  24  43  70 104 142 178 241 280 344 424
#     4  10  21  36  60  86 128 171 220 288 332 411
#
# _framework density 27.432335999999999
#
# number of rings (size 3 to 8) (size 9 to 14) (size 15 to 20)
#    0.000    2.000    0.000    1.714    6.000    5.143 
#   10.286    0.000    0.000    0.000    0.000    0.000 
#    0.000    0.000    0.000    0.000    0.000    0.000 
#
# Total GULP energy -173441.711872 kJ/mol
# GULP energy per Si atom -12388.693705 kJ/mol
# Density = 2.736990 g / cm^3
# Si number density = 27.432336 Si / 1000 Ang^3
#
#
#
# Elastic Constant Matrix: (Units=GPa)
#
#
# Indices 1 2 3 4 5 6 
#
# 1 122.4049 76.7300 49.1682 -3.5918 2.7647 -7.3573
# 2 76.7300 189.3991 46.5848 -16.3535 18.6817 22.0748
# 3 49.1682 46.5848 93.5285 -12.4354 41.2968 -4.2615
# 4 -3.5918 -16.3535 -12.4354 47.5267 6.3745 -4.2597
# 5 2.7647 18.6817 41.2968 6.3745 53.3046 -12.0094
# 6 -7.3573 22.0748 -4.2615 -4.2597 -12.0094 47.9275
#
#
#
# Elastic Compliance Matrix: (Units=1/GPa)
#
#
# Indices 1 2 3 4 5 6 
#
# 1 0.016902 -0.006538 -0.011520 -0.005021 0.012582 0.007288
# 2 -0.006538 0.009118 0.001690 0.003326 -0.005972 -0.006254
# 3 -0.011520 0.001690 0.027286 0.009532 -0.023433 -0.005145
# 4 -0.005021 0.003326 0.009532 0.025697 -0.011845 -0.002139
# 5 0.012582 -0.005972 -0.023433 -0.011845 0.042520 0.012200
# 6 0.007288 -0.006254 -0.005145 -0.002139 0.012200 0.027274
#
#
# Mechanical properties :
#
#
# Convention : Reuss Voigt Hill
#
# Bulk Modulus (GPa) = 48.61471 83.36651 65.99061
# Shear Modulus (GPa) = 26.54081 45.27505 35.90793
#
# Velocity S-wave (km/s) = 3.11384 4.06695 3.62189
# Velocity P-wave (km/s) = 5.53969 7.24633 6.44971
#
# Compressibility (1/GPa) = 0.02056991
#
# Stress axis : x y z
#
# Youngs Moduli (GPa) = 59.16535 109.67241 36.64882
#
# Poissons Ratio (x) = 0.71702 0.42219
# Poissons Ratio (y) = 0.38681 -0.06193
# Poissons Ratio (z) = 0.68158 -0.18532
#
# Static dielectric constant tensor:
#      x y z
#    x 5.309020 0.435300 0.652700 
#    y 0.435300 5.148260 0.629080 
#    z 0.652700 0.629080 5.566140 
# 
# 
# High freq. dielectric constant tensor:
#      x y z
#    x 2.131700 0.017010 0.017520 
#    y 0.017010 2.096570 0.017310 
#    z 0.017520 0.017310 2.125980 
# 
# From -- ./inp_files/8674.got.cif
#   From: 2010.06.25/outbox.cif.g09.slc.cpg/sg2_5_cif.got.tgz:8674.got - 2010.06.27 13:26:56.
