data_PCOD8009619
_publ_section_title
;
Structure prediction by ZEFSAII (Michael W. Deem and Ramdas Pophale) SiO2 
 PCOD8009619
Probable space group: P -1
;
_chemical_formula_sum "Si O2"
_cell_formula_units_Z 14
_cell_length_a 11.868875
_cell_length_b 12.287184
_cell_length_c 5.602205
_cell_angle_alpha 88.595234
_cell_angle_beta 64.511892
_cell_angle_gamma 70.677403
_cell_volume 689.246003
_symmetry_space_group_name_H-M "P -1"
_symmetry_group_IT_number 2
_symmetry_cell_setting 'triclinic'
loop_
_space_group_symop_operation_xyz
x,y,z
-x,-y,-z
loop_
_atom_site_type_symbol
_atom_site_label
_atom_site_fract_x
_atom_site_fract_y
_atom_site_fract_z
Si Si1 0.732149 0.083126 0.085140
Si Si2 0.891305 0.856568 0.745833
Si Si3 0.809721 0.651955 0.713538
Si Si4 0.043782 0.810321 0.099511
Si Si5 0.540960 0.822301 0.893144
Si Si6 0.399742 0.983854 0.401603
Si Si7 0.035557 0.573788 0.160338
O O1 0.578367 0.169232 0.181281
O O2 0.733112 0.020109 0.344458
O O3 0.824691 0.158611 0.001068
O O4 0.772617 0.984305 0.843480
O O5 0.841593 0.747788 0.846985
O O6 0.968491 0.845013 0.423469
O O7 0.969381 0.868922 0.918612
O O8 0.650680 0.691999 0.808422
O O9 0.855111 0.519657 0.770904
O O10 0.893537 0.647815 0.400445
O O11 0.095015 0.670526 0.016589
O O12 0.630512 0.902911 0.746631
O O13 0.472373 0.861698 0.208760
O O14 0.500000 0.000000 0.500000
O O15 0.000000 0.500000 0.000000
#
# Coordination Sequence:
#
# PCOD8009619 Si02
#       7
#     2   2   2   2   2   2   2
#     4  11  24  37  59  92 130 166 199 250 313 389
#     4  11  23  39  65  92 128 168 205 255 308 373
#     4  10  21  38  64  91 115 160 214 260 314 354
#     4  11  25  41  63  93 129 167 209 255 312 366
#     4  10  21  37  58  88 124 160 204 260 306 374
#     4   9  19  34  55  84 122 163 199 241 302 369
#     4  10  21  40  63  87 117 159 214 267 302 363
#
# _framework density 20.312048999999998
#
# number of rings (size 3 to 8) (size 9 to 14) (size 15 to 20)
#    0.000    1.714    1.429    3.429    8.000    2.286 
#    0.000    0.714    0.000    1.714    0.000    0.000 
#    0.000    0.000    0.000    0.000    0.000    0.000 
#
# Total GULP energy -173438.585998 kJ/mol
# GULP energy per Si atom -12388.470428 kJ/mol
# Density = 2.026582 g / cm^3
# Si number density = 20.312049 Si / 1000 Ang^3
#
#
#
# Elastic Constant Matrix: (Units=GPa)
#
#
# Indices 1 2 3 4 5 6 
#
# 1 76.6922 35.2482 35.7668 5.4934 -8.4927 -4.0924
# 2 35.2482 81.7910 45.7259 10.5846 -17.5677 10.8151
# 3 35.7668 45.7259 106.2164 -2.2243 -0.7662 -1.3254
# 4 5.4934 10.5846 -2.2243 33.3400 -0.7512 -6.3359
# 5 -8.4927 -17.5677 -0.7662 -0.7512 32.0580 2.6446
# 6 -4.0924 10.8151 -1.3254 -6.3359 2.6446 34.4226
#
#
#
# Elastic Compliance Matrix: (Units=1/GPa)
#
#
# Indices 1 2 3 4 5 6 
#
# 1 0.017681 -0.005935 -0.003357 -0.000534 0.001037 0.003659
# 2 -0.005935 0.025591 -0.009277 -0.009733 0.012983 -0.011892
# 3 -0.003357 -0.009277 0.014661 0.005197 -0.005871 0.004488
# 4 -0.000534 -0.009733 0.005197 0.035319 -0.005357 0.010107
# 5 0.001037 0.012983 -0.005871 -0.005357 0.038990 -0.008163
# 6 0.003659 -0.011892 0.004488 0.010107 -0.008163 0.035882
#
#
# Mechanical properties :
#
#
# Convention : Reuss Voigt Hill
#
# Bulk Modulus (GPa) = 48.08715 55.35348 51.72032
# Shear Modulus (GPa) = 23.56347 29.82803 26.69575
#
# Velocity S-wave (km/s) = 3.40968 3.83624 3.62924
# Velocity P-wave (km/s) = 6.26313 6.85077 6.56353
#
# Compressibility (1/GPa) = 0.02079558
#
# Stress axis : x y z
#
# Youngs Moduli (GPa) = 56.55862 39.07666 68.20726
#
# Poissons Ratio (x) = 0.23192 0.22896
# Poissons Ratio (y) = 0.33568 0.63274
# Poissons Ratio (z) = 0.18985 0.36251
#
# Static dielectric constant tensor:
#      x y z
#    x 3.688960 -0.488030 0.264190 
#    y -0.488030 -2.936430 -1.798020 
#    z 0.264190 -1.798020 4.009880 
# 
# 
# High freq. dielectric constant tensor:
#      x y z
#    x 1.787720 -0.010360 0.011480 
#    y -0.010360 1.775120 0.002050 
#    z 0.011480 0.002050 1.799790 
# 
# From -- ./inp_files/46002.got.cif
#   From: 2010.06.25/outbox.cif.g09.slc.cpg/sg2_24_cif.got.tgz:46002.got - 2010.06.27 13:26:56.
