data_PCOD8009571
_publ_section_title
;
Structure prediction by ZEFSAII (Michael W. Deem and Ramdas Pophale) SiO2 
 PCOD8009571
Probable space group: P -1
;
_chemical_formula_sum "Si O2"
_cell_formula_units_Z 16
_cell_length_a 5.079156
_cell_length_b 12.014307
_cell_length_c 21.932273
_cell_angle_alpha 147.596334
_cell_angle_beta 90.517407
_cell_angle_gamma 90.433636
_cell_volume 716.885514
_symmetry_space_group_name_H-M "P -1"
_symmetry_group_IT_number 2
_symmetry_cell_setting 'triclinic'
loop_
_space_group_symop_operation_xyz
x,y,z
-x,-y,-z
loop_
_atom_site_type_symbol
_atom_site_label
_atom_site_fract_x
_atom_site_fract_y
_atom_site_fract_z
Si Si1 0.669979 0.107590 0.369704
Si Si2 0.874272 0.074035 0.866536
Si Si3 0.152332 0.839263 0.232617
Si Si4 0.453803 0.390356 0.594880
Si Si5 0.061519 0.545351 0.873732
Si Si6 0.592422 0.437689 0.756265
Si Si7 0.244898 0.994841 0.455959
Si Si8 0.635659 0.186941 0.267369
O O1 0.666865 0.298124 0.505879
O O2 0.658534 0.210834 0.350986
O O3 0.944423 0.999633 0.332856
O O4 0.441046 0.928700 0.294593
O O5 0.859040 0.176718 0.847752
O O6 0.650954 0.895755 0.791826
O O7 0.830713 0.248681 0.997676
O O8 0.152967 0.970573 0.830487
O O9 0.069072 0.608667 0.147607
O O10 0.576573 0.445157 0.686641
O O11 0.313862 0.588340 0.658523
O O12 0.236321 0.202313 0.511487
O O13 0.307452 0.456719 0.795249
O O14 0.817929 0.605330 0.855780
O O15 0.734034 0.222704 0.681228
O O16 0.500000 0.000000 0.500000
O O17 0.000000 0.000000 0.500000
#
# Coordination Sequence:
#
# PCOD8009571 Si02
#       8
#     2   2   2   2   2   2   2   2
#     4  10  22  38  62  93 122 152 197 248 299 364
#     4  10  23  42  63  88 119 155 205 259 295 341
#     4  10  21  39  64  93 119 152 197 249 311 362
#     4  11  23  41  63  87 125 167 192 240 304 356
#     4  12  22  41  62  88 122 160 199 252 302 348
#     4  11  25  38  59  94 123 155 203 241 293 370
#     4  10  21  37  57  86 119 151 189 236 287 350
#     4  10  23  42  62  89 118 156 208 249 292 357
#
# _framework density 22.318764000000002
#
# number of rings (size 3 to 8) (size 9 to 14) (size 15 to 20)
#    0.000    1.500    0.000    5.250    0.000    8.000 
#    0.000   12.500    0.000    0.000    0.000    0.000 
#    0.000    0.000    0.000    0.000    0.000    0.000 
#
# Total GULP energy -198335.739497 kJ/mol
# GULP energy per Si atom -12395.983719 kJ/mol
# Density = 2.226797 g / cm^3
# Si number density = 22.318764 Si / 1000 Ang^3
#
#
#
# Elastic Constant Matrix: (Units=GPa)
#
#
# Indices 1 2 3 4 5 6 
#
# 1 118.5596 25.3888 16.9469 -10.8255 -9.1291 16.7474
# 2 25.3888 104.2510 50.6030 8.8183 -11.0278 8.6477
# 3 16.9469 50.6030 101.1462 -16.8259 -7.7581 5.6102
# 4 -10.8255 8.8183 -16.8259 31.7206 3.4129 -0.1330
# 5 -9.1291 -11.0278 -7.7581 3.4129 24.5639 -5.0617
# 6 16.7474 8.6477 5.6102 -0.1330 -5.0617 20.1177
#
#
#
# Elastic Compliance Matrix: (Units=1/GPa)
#
#
# Indices 1 2 3 4 5 6 
#
# 1 0.010424 -0.002608 0.000800 0.004593 0.000760 -0.007558
# 2 -0.002608 0.016046 -0.008934 -0.010595 0.004651 -0.001135
# 3 0.000800 -0.008934 0.016153 0.011370 -0.000475 -0.001375
# 4 0.004593 -0.010595 0.011370 0.042716 -0.006157 -0.003707
# 5 0.000760 0.004651 -0.000475 -0.006157 0.045629 0.008940
# 6 -0.007558 -0.001135 -0.001375 -0.003707 0.008940 0.059096
#
#
# Mechanical properties :
#
#
# Convention : Reuss Voigt Hill
#
# Bulk Modulus (GPa) = 47.30311 56.64825 51.97568
# Shear Modulus (GPa) = 22.87340 30.68163 26.77752
#
# Velocity S-wave (km/s) = 3.20480 3.71172 3.46754
# Velocity P-wave (km/s) = 5.91056 6.61859 6.27457
#
# Compressibility (1/GPa) = 0.02114026
#
# Stress axis : x y z
#
# Youngs Moduli (GPa) = 95.92896 62.32075 61.90665
#
# Poissons Ratio (x) = 0.16254 -0.04952
# Poissons Ratio (y) = 0.25020 0.55304
# Poissons Ratio (z) = -0.07674 0.55674
#
# Static dielectric constant tensor:
#      x y z
#    x 3.834290 0.006500 -0.333010 
#    y 0.006500 4.160410 -0.103760 
#    z -0.333010 -0.103760 3.284840 
# 
# 
# High freq. dielectric constant tensor:
#      x y z
#    x 1.889750 -0.000670 0.003700 
#    y -0.000670 1.880890 -0.018750 
#    z 0.003700 -0.018750 1.874910 
# 
# From -- ./inp_files/604343.got.cif
#   From: 2010.06.25/outbox.cif.g09.slc.cpg/sg2_303_cif.got.tgz:604343.got - 2010.06.27 13:26:56.
