data_PCOD8009752
_publ_section_title
;
Structure prediction by ZEFSAII (Michael W. Deem and Ramdas Pophale) SiO2 
 PCOD8009752
Probable space group: P -1
;
_chemical_formula_sum "Si O2"
_cell_formula_units_Z 16
_cell_length_a 9.910531
_cell_length_b 6.767502
_cell_length_c 18.223064
_cell_angle_alpha 94.308692
_cell_angle_beta 78.217280
_cell_angle_gamma 136.054327
_cell_volume 825.651390
_symmetry_space_group_name_H-M "P -1"
_symmetry_group_IT_number 2
_symmetry_cell_setting 'triclinic'
loop_
_space_group_symop_operation_xyz
x,y,z
-x,-y,-z
loop_
_atom_site_type_symbol
_atom_site_label
_atom_site_fract_x
_atom_site_fract_y
_atom_site_fract_z
Si Si1 0.596111 0.368048 0.832802
Si Si2 0.580369 0.978108 0.918516
Si Si3 0.609340 0.685511 0.567542
Si Si4 0.930063 0.329125 0.575004
Si Si5 0.372187 0.804477 0.583430
Si Si6 0.386208 0.681364 0.340366
Si Si7 0.849144 0.907528 0.911010
Si Si8 0.282107 0.328751 0.921131
O O1 0.587624 0.355904 0.746540
O O2 0.774879 0.699336 0.845428
O O3 0.388110 0.234798 0.883938
O O4 0.632341 0.186923 0.855088
O O5 0.780791 0.064708 0.917368
O O6 0.418327 0.657347 0.896240
O O7 0.500000 0.000000 0.000000
O O8 0.500000 0.500000 0.500000
O O9 0.461243 0.703594 0.611119
O O10 0.654100 0.556070 0.614604
O O11 0.825924 0.017604 0.550502
O O12 0.787538 0.333570 0.634624
O O13 0.000000 0.500000 0.500000
O O14 0.138953 0.511271 0.598209
O O15 0.500000 0.000000 0.500000
O O16 0.405442 0.016503 0.643273
O O17 0.760223 0.716122 0.988840
O O18 0.085451 0.148538 0.890142
#
# Coordination Sequence:
#
# PCOD8009752 Si02
#       8
#     2   2   2   2   2   2   2   2
#     4  11  23  41  58  86 129 156 195 254 305 346
#     4  11  19  37  63  88 115 163 201 241 297 353
#     4  11  21  39  64  89 116 158 202 243 302 366
#     4  11  21  39  63  89 120 151 202 253 295 358
#     4  11  21  41  60  90 120 148 201 253 293 359
#     4  11  25  40  60  90 122 160 197 252 309 355
#     4  10  21  37  60  90 120 152 205 249 289 361
#     4  10  21  37  61  90 119 155 202 249 290 355
#
# _framework density 19.378637000000001
#
# number of rings (size 3 to 8) (size 9 to 14) (size 15 to 20)
#    0.000    1.250    6.250    0.750    0.000    9.500 
#    0.000    2.500    0.000    0.000    0.000    0.000 
#    0.000    0.000    0.000    0.000    0.000    0.000 
#
# Total GULP energy -198244.135701 kJ/mol
# GULP energy per Si atom -12390.258481 kJ/mol
# Density = 1.933453 g / cm^3
# Si number density = 19.378637 Si / 1000 Ang^3
#
#
#
# Elastic Constant Matrix: (Units=GPa)
#
#
# Indices 1 2 3 4 5 6 
#
# 1 112.4358 63.6344 7.4636 1.5932 11.6465 10.9588
# 2 63.6344 134.2519 35.3086 14.5867 9.5130 8.8449
# 3 7.4636 35.3086 79.4596 21.5774 15.0119 1.3224
# 4 1.5932 14.5867 21.5774 27.4834 -1.3385 6.0480
# 5 11.6465 9.5130 15.0119 -1.3385 22.9136 -3.5033
# 6 10.9588 8.8449 1.3224 6.0480 -3.5033 46.6932
#
#
#
# Elastic Compliance Matrix: (Units=1/GPa)
#
#
# Indices 1 2 3 4 5 6 
#
# 1 0.013236 -0.006450 0.002566 0.000903 -0.006065 -0.002529
# 2 -0.006450 0.011818 -0.004106 -0.002587 0.000879 -0.000208
# 3 0.002566 -0.004106 0.020970 -0.015231 -0.014152 0.000493
# 4 0.000903 -0.002587 -0.015231 0.051386 0.012833 -0.004984
# 5 -0.006065 0.000879 -0.014152 0.012833 0.057035 0.004275
# 6 -0.002529 -0.000208 0.000493 -0.004984 0.004275 0.023002
#
#
# Mechanical properties :
#
#
# Convention : Reuss Voigt Hill
#
# Bulk Modulus (GPa) = 33.28555 59.88449 46.58502
# Shear Modulus (GPa) = 24.57693 34.06743 29.32218
#
# Velocity S-wave (km/s) = 3.56511 4.19739 3.89410
# Velocity P-wave (km/s) = 5.84469 7.37971 6.65660
#
# Compressibility (1/GPa) = 0.03004307
#
# Stress axis : x y z
#
# Youngs Moduli (GPa) = 75.55013 84.61369 47.68692
#
# Poissons Ratio (x) = 0.54579 -0.12234
# Poissons Ratio (y) = 0.48733 0.19580
# Poissons Ratio (z) = -0.19383 0.34743
#
# Static dielectric constant tensor:
#      x y z
#    x 3.604670 -0.125630 0.063930 
#    y -0.125630 3.868090 0.233040 
#    z 0.063930 0.233040 3.302840 
# 
# 
# High freq. dielectric constant tensor:
#      x y z
#    x 1.768830 -0.004280 0.006860 
#    y -0.004280 1.769680 0.015050 
#    z 0.006860 0.015050 1.721850 
# 
# From -- ./inp_files/51796.got.cif
#   From: 2010.06.25/outbox.cif.g09.slc.cpg/sg2_26_cif.got.tgz:51796.got - 2010.06.27 13:26:56.
