data_PCOD8009009
_publ_section_title
;
Structure prediction by ZEFSAII (Michael W. Deem and Ramdas Pophale) SiO2 
 PCOD8009009
Probable space group: P -1
;
_chemical_formula_sum "Si O2"
_cell_formula_units_Z 12
_cell_length_a 15.796518
_cell_length_b 29.599183
_cell_length_c 17.047436
_cell_angle_alpha 15.436261
_cell_angle_beta 17.591322
_cell_angle_gamma 16.284612
_cell_volume 551.510245
_symmetry_space_group_name_H-M "P -1"
_symmetry_group_IT_number 2
_symmetry_cell_setting 'triclinic'
loop_
_space_group_symop_operation_xyz
x,y,z
-x,-y,-z
loop_
_atom_site_type_symbol
_atom_site_label
_atom_site_fract_x
_atom_site_fract_y
_atom_site_fract_z
Si Si1 0.927466 0.713688 0.728487
Si Si2 0.206941 0.293353 0.833325
Si Si3 0.857566 0.366462 0.873996
Si Si4 0.172774 0.679145 0.194368
Si Si5 0.793133 0.320191 0.291403
Si Si6 0.834357 0.059754 0.962741
O O1 0.086375 0.711582 0.673878
O O2 0.097827 0.776305 0.407370
O O3 0.544179 0.862508 0.822212
O O4 0.000000 0.500000 0.000000
O O5 0.028781 0.533848 0.580052
O O6 0.596148 0.204478 0.643308
O O7 0.095546 0.218559 0.980082
O O8 0.098254 0.231392 0.111825
O O9 0.851639 0.255976 0.984553
O O10 0.000000 0.500000 0.500000
O O11 0.500000 0.500000 0.000000
O O12 0.553443 0.554608 0.093381
O O13 0.978829 0.873702 0.089995
O O14 0.000000 0.000000 0.000000
#
# Coordination Sequence:
#
# PCOD8009009 Si02
#       6
#     2   2   2   2   2   2
#     4  12  27  44  65  87 125 167 211 252 317 382
#     4   9  18  32  61  91 121 157 206 249 291 363
#     4  10  16  31  55  98 120 157 201 257 289 356
#     4   9  22  34  65  91 126 153 211 256 304 344
#     4  10  20  36  61  86 122 158 207 241 308 365
#     4  12  27  43  66  93 125 159 208 268 313 360
#
# _framework density 21.758434000000001
#
# number of rings (size 3 to 8) (size 9 to 14) (size 15 to 20)
#    1.000    0.667    1.667    3.000    4.667    0.000 
#    0.000    0.000    0.000    6.000    0.000    0.000 
#    0.000    0.000    0.000    0.000    0.000    0.000 
#
# Total GULP energy -148701.718311 kJ/mol
# GULP energy per Si atom -12391.809859 kJ/mol
# Density = 2.170891 g / cm^3
# Si number density = 21.758434 Si / 1000 Ang^3
#
#
#
# Elastic Constant Matrix: (Units=GPa)
#
#
# Indices 1 2 3 4 5 6 
#
# 1 218.4154 37.8656 41.2129 12.7579 15.5877 -6.6615
# 2 37.8656 55.3248 9.2756 12.3827 -9.3944 8.4391
# 3 41.2129 9.2756 91.7823 29.3807 12.6232 -3.8565
# 4 12.7579 12.3827 29.3807 37.7527 -1.5917 -4.0958
# 5 15.5877 -9.3944 12.6232 -1.5917 33.9818 9.6085
# 6 -6.6615 8.4391 -3.8565 -4.0958 9.6085 37.2338
#
#
#
# Elastic Compliance Matrix: (Units=1/GPa)
#
#
# Indices 1 2 3 4 5 6 
#
# 1 0.006272 -0.005620 -0.001904 0.001395 -0.004663 0.003555
# 2 -0.005620 0.027676 -0.000060 -0.007829 0.013147 -0.011538
# 3 -0.001904 -0.000060 0.016677 -0.012402 -0.006396 0.001687
# 4 0.001395 -0.007829 -0.012402 0.038814 0.002378 0.004395
# 5 -0.004663 0.013147 -0.006396 0.002378 0.041941 -0.015038
# 6 0.003555 -0.011538 0.001687 0.004395 -0.015038 0.034648
#
#
# Mechanical properties :
#
#
# Convention : Reuss Voigt Hill
#
# Bulk Modulus (GPa) = 28.20324 60.24786 44.22555
# Shear Modulus (GPa) = 25.90486 40.27154 33.08820
#
# Velocity S-wave (km/s) = 3.45420 4.30681 3.90385
# Velocity P-wave (km/s) = 5.37576 7.24438 6.37887
#
# Compressibility (1/GPa) = 0.03545693
#
# Stress axis : x y z
#
# Youngs Moduli (GPa) = 159.44654 36.13215 59.96259
#
# Poissons Ratio (x) = 0.20305 0.11417
# Poissons Ratio (y) = 0.89602 0.00363
# Poissons Ratio (z) = 0.30358 0.00219
#
# Static dielectric constant tensor:
#      x y z
#    x 4.196920 -0.090750 -0.012940 
#    y -0.090750 3.647550 0.289870 
#    z -0.012940 0.289870 4.004960 
# 
# 
# High freq. dielectric constant tensor:
#      x y z
#    x 1.881170 -0.002870 0.004680 
#    y -0.002870 1.827980 0.025500 
#    z 0.004680 0.025500 1.850150 
# 
# From -- ./inp_files/502432.got.cif
#   From: 2010.06.25/outbox.cif.g09.slc.cpg/sg2_252_cif.got.tgz:502432.got - 2010.06.27 13:26:56.
