data_PCOD8009546
_publ_section_title
;
Structure prediction by ZEFSAII (Michael W. Deem and Ramdas Pophale) SiO2 
 PCOD8009546
Probable space group: P -1
;
_chemical_formula_sum "Si O2"
_cell_formula_units_Z 16
_cell_length_a 10.761116
_cell_length_b 8.670324
_cell_length_c 10.742536
_cell_angle_alpha 66.199477
_cell_angle_beta 99.288281
_cell_angle_gamma 113.756611
_cell_volume 839.355792
_symmetry_space_group_name_H-M "P -1"
_symmetry_group_IT_number 2
_symmetry_cell_setting 'triclinic'
loop_
_space_group_symop_operation_xyz
x,y,z
-x,-y,-z
loop_
_atom_site_type_symbol
_atom_site_label
_atom_site_fract_x
_atom_site_fract_y
_atom_site_fract_z
Si Si1 0.330404 0.911112 0.364736
Si Si2 0.120647 0.049128 0.164343
Si Si3 0.839661 0.418090 0.145434
Si Si4 0.120648 0.407181 0.164341
Si Si5 0.357193 0.926742 0.646286
Si Si6 0.357194 0.284163 0.646288
Si Si7 0.330403 0.554554 0.364736
Si Si8 0.160340 0.223858 0.854567
O O1 0.300141 0.861533 0.520825
O O2 0.295015 0.726695 0.341626
O O3 0.239371 0.017990 0.267979
O O4 0.485531 0.045932 0.327524
O O5 0.082573 0.204402 0.173772
O O6 0.170363 0.106203 0.013215
O O7 0.987240 0.865852 0.203380
O O8 0.723835 0.225120 0.218649
O O9 0.813187 0.570214 0.172764
O O10 0.987243 0.418019 0.203375
O O11 0.829633 0.449052 0.986788
O O12 0.239374 0.453403 0.267977
O O13 0.337373 0.113298 0.610777
O O14 0.300136 0.417776 0.520825
O O15 0.514471 0.387927 0.672476
O O16 0.276171 0.219926 0.781359
#
# Coordination Sequence:
#
# PCOD8009546 Si02
#       8
#     2   2   2   2   2   2   2   2
#     4  10  21  37  57  81 110 143 180 223 269 319
#     4  10  21  37  57  81 110 143 180 223 269 319
#     4  10  21  37  57  81 110 143 180 223 269 319
#     4  10  21  37  57  81 110 143 180 223 269 319
#     4  10  21  37  57  81 110 143 180 223 269 319
#     4  10  21  37  57  81 110 143 180 223 269 319
#     4  10  21  37  57  81 110 143 180 223 269 319
#     4  10  21  37  57  81 110 143 180 223 269 319
#
# _framework density 19.062239000000002
#
# number of rings (size 3 to 8) (size 9 to 14) (size 15 to 20)
#    0.000    2.000    0.000    3.000    0.000    8.000 
#    0.000   10.000    0.000    0.000    0.000    0.000 
#    0.000    0.000    0.000    0.000    0.000    0.000 
#
# Total GULP energy -198504.456162 kJ/mol
# GULP energy per Si atom -12406.528510 kJ/mol
# Density = 1.901885 g / cm^3
# Si number density = 19.062239 Si / 1000 Ang^3
#
#
#
# Elastic Constant Matrix: (Units=GPa)
#
#
# Indices 1 2 3 4 5 6 
#
# 1 34.7585 -14.7777 -10.6706 0.2401 0.4001 -9.8037
# 2 -14.7777 38.3143 -9.5431 -0.2206 -0.0079 7.5479
# 3 -10.6706 -9.5431 11.3502 3.0163 5.5424 -0.7738
# 4 0.2401 -0.2206 3.0163 35.1226 -0.0835 0.1995
# 5 0.4001 -0.0079 5.5424 -0.0835 35.0919 0.2781
# 6 -9.8037 7.5479 -0.7738 0.1995 0.2781 21.5239
#
#
#
# Elastic Compliance Matrix: (Units=1/GPa)
#
#
# Indices 1 2 3 4 5 6 
#
# 1 0.781689 0.613682 1.411279 -0.124354 -0.233517 0.195744
# 2 0.613682 0.518417 1.141165 -0.100196 -0.188479 0.142111
# 3 1.411279 1.141165 2.676281 -0.235334 -0.441829 0.346730
# 4 -0.124354 -0.100196 -0.235334 0.049171 0.038926 -0.030924
# 5 -0.233517 -0.188479 -0.441829 0.038926 0.101449 -0.057822
# 6 0.195744 0.142111 0.346730 -0.030924 -0.057822 0.099281
#
#
# Mechanical properties :
#
#
# Convention : Reuss Voigt Hill
#
# Bulk Modulus (GPa) = 0.09701 1.60446 0.85074
# Shear Modulus (GPa) = 3.75869 26.30866 15.03367
#
# Velocity S-wave (km/s) = 1.40573 3.71906 2.81136
# Velocity P-wave (km/s) = 1.63883 4.39152 3.31445
#
# Compressibility (1/GPa) = 10.30863820
#
# Stress axis : x y z
#
# Youngs Moduli (GPa) = 1.27928 1.92895 0.37365
#
# Poissons Ratio (x) = -1.18376 -0.52733
# Poissons Ratio (y) = -0.78507 -0.42640
# Poissons Ratio (z) = -1.80542 -2.20125
#
# Static dielectric constant tensor:
#      x y z
#    x 3.444260 -0.042580 -0.044530 
#    y -0.042580 3.512290 -0.020750 
#    z -0.044530 -0.020750 3.410830 
# 
# 
# High freq. dielectric constant tensor:
#      x y z
#    x 1.743380 -0.005900 -0.001930 
#    y -0.005900 1.752730 -0.000820 
#    z -0.001930 -0.000820 1.738990 
# 
# From -- ./inp_files/242646.got.cif
#   From: 2010.06.25/outbox.cif.g09.slc.cpg/sg2_122_cif.got.tgz:242646.got - 2010.06.27 13:26:56.
