data_PCOD8009991
_publ_section_title
;
Structure prediction by ZEFSAII (Michael W. Deem and Ramdas Pophale) SiO2 
 PCOD8009991
Probable space group: P -1
;
_chemical_formula_sum "Si O2"
_cell_formula_units_Z 16
_cell_length_a 14.896250
_cell_length_b 9.577754
_cell_length_c 12.438478
_cell_angle_alpha 58.284287
_cell_angle_beta 152.707322
_cell_angle_gamma 122.279308
_cell_volume 681.968214
_symmetry_space_group_name_H-M "P -1"
_symmetry_group_IT_number 2
_symmetry_cell_setting 'triclinic'
loop_
_space_group_symop_operation_xyz
x,y,z
-x,-y,-z
loop_
_atom_site_type_symbol
_atom_site_label
_atom_site_fract_x
_atom_site_fract_y
_atom_site_fract_z
Si Si1 0.006331 0.333464 0.007431
Si Si2 0.360692 0.764499 0.980649
Si Si3 0.840927 0.086267 0.110127
Si Si4 0.272284 0.046147 0.617536
Si Si5 0.667275 0.871222 0.595050
Si Si6 0.457193 0.242182 0.126849
Si Si7 0.670992 0.192600 0.585601
Si Si8 0.771566 0.465498 0.240386
O O1 0.869208 0.332689 0.754954
O O2 0.904726 0.171077 0.030749
O O3 0.000000 0.500000 0.000000
O O4 0.221942 0.291009 0.221664
O O5 0.228005 0.781650 0.936343
O O6 0.276740 0.582061 0.917139
O O7 0.339896 0.892875 0.811189
O O8 0.593808 0.786912 0.255249
O O9 0.038590 0.034902 0.393210
O O10 0.658664 0.934555 0.966420
O O11 0.326616 0.042041 0.550415
O O12 0.439892 0.812381 0.414013
O O13 0.747559 0.019920 0.705303
O O14 0.514107 0.238657 0.313911
O O15 0.662946 0.309145 0.257931
O O16 0.306298 0.365268 0.889006
O O17 0.000000 0.500000 0.500000
#
# Coordination Sequence:
#
# PCOD8009991 Si02
#       8
#     2   2   2   2   2   2   2   2
#     4  11  26  43  64  97 135 174 221 279 337 391
#     4  11  21  37  64  93 124 170 217 263 327 388
#     4  11  23  42  65  92 129 172 219 267 323 393
#     4  10  21  37  63  96 130 167 216 270 322 389
#     4  10  22  41  66  94 129 174 221 274 332 393
#     4  11  25  43  66  97 131 172 220 269 330 396
#     4  11  22  41  67  94 128 174 226 273 324 396
#     4  11  26  44  64  97 137 169 212 275 332 390
#
# _framework density 23.461503
#
# number of rings (size 3 to 8) (size 9 to 14) (size 15 to 20)
#    0.000    1.250    0.000    6.750    0.000    9.500 
#    0.000    0.000    0.000    0.000    0.000    0.000 
#    0.000    0.000    0.000    0.000    0.000    0.000 
#
# Total GULP energy -198265.253004 kJ/mol
# GULP energy per Si atom -12391.578313 kJ/mol
# Density = 2.340810 g / cm^3
# Si number density = 23.461503 Si / 1000 Ang^3
#
#
#
# Elastic Constant Matrix: (Units=GPa)
#
#
# Indices 1 2 3 4 5 6 
#
# 1 64.7540 15.3557 24.2118 2.4028 17.5511 -13.7140
# 2 15.3557 95.4212 34.8231 18.6651 20.6451 -17.8455
# 3 24.2118 34.8231 133.2478 24.8939 26.1683 -5.9389
# 4 2.4028 18.6651 24.8939 37.7520 1.9322 -4.0969
# 5 17.5511 20.6451 26.1683 1.9322 32.4498 0.5315
# 6 -13.7140 -17.8455 -5.9389 -4.0969 0.5315 33.4928
#
#
#
# Elastic Compliance Matrix: (Units=1/GPa)
#
#
# Indices 1 2 3 4 5 6 
#
# 1 0.020577 0.001154 -0.001677 0.000751 -0.010703 0.009004
# 2 0.001154 0.015243 -0.000951 -0.005649 -0.009348 0.007883
# 3 -0.001677 -0.000951 0.010469 -0.005986 -0.006575 0.000035
# 4 0.000751 -0.005649 -0.005986 0.032889 0.006054 0.000163
# 5 -0.010703 -0.009348 -0.006575 0.006054 0.047667 -0.010545
# 6 0.009004 0.007883 0.000035 0.000163 -0.010545 0.037938
#
#
# Mechanical properties :
#
#
# Convention : Reuss Voigt Hill
#
# Bulk Modulus (GPa) = 23.07366 49.13379 36.10372
# Shear Modulus (GPa) = 27.44566 35.34108 31.39337
#
# Velocity S-wave (km/s) = 3.42397 3.88537 3.66195
# Velocity P-wave (km/s) = 5.04851 6.41217 5.77076
#
# Compressibility (1/GPa) = 0.04333947
#
# Stress axis : x y z
#
# Youngs Moduli (GPa) = 48.59859 65.60471 95.51816
#
# Poissons Ratio (x) = -0.07568 0.16023
# Poissons Ratio (y) = -0.05606 0.09081
# Poissons Ratio (z) = 0.08152 0.06237
#
# Static dielectric constant tensor:
#      x y z
#    x 4.305510 -0.113450 0.016670 
#    y -0.113450 4.111680 0.197650 
#    z 0.016670 0.197650 4.483330 
# 
# 
# High freq. dielectric constant tensor:
#      x y z
#    x 1.934780 -0.013150 0.002510 
#    y -0.013150 1.911470 0.011760 
#    z 0.002510 0.011760 1.942940 
# 
# From -- ./inp_files/447282.got.cif
#   From: 2010.06.25/outbox.cif.g09.slc.cpg/sg2_224_cif.got.tgz:447282.got - 2010.06.27 13:26:56.
