data_PCOD8009189
_publ_section_title
;
Structure prediction by ZEFSAII (Michael W. Deem and Ramdas Pophale) SiO2 
 PCOD8009189
Probable space group: P -1
;
_chemical_formula_sum "Si O2"
_cell_formula_units_Z 16
_cell_length_a 8.854879
_cell_length_b 29.151450
_cell_length_c 6.452388
_cell_angle_alpha 69.000478
_cell_angle_beta 113.621699
_cell_angle_gamma 149.528511
_cell_volume 773.553418
_symmetry_space_group_name_H-M "P -1"
_symmetry_group_IT_number 2
_symmetry_cell_setting 'triclinic'
loop_
_space_group_symop_operation_xyz
x,y,z
-x,-y,-z
loop_
_atom_site_type_symbol
_atom_site_label
_atom_site_fract_x
_atom_site_fract_y
_atom_site_fract_z
Si Si1 0.091968 0.878488 0.045836
Si Si2 0.461904 0.678977 0.106224
Si Si3 0.712184 0.453448 0.515674
Si Si4 0.657576 0.011895 0.380542
Si Si5 0.938859 0.931449 0.167176
Si Si6 0.726306 0.596249 0.873729
Si Si7 0.043167 0.619982 0.648226
Si Si8 0.696924 0.270864 0.774624
O O1 0.810962 0.772030 0.085473
O O2 0.042789 0.917100 0.080197
O O3 0.387950 0.923802 0.226607
O O4 0.137637 0.900908 0.790761
O O5 0.424382 0.614268 0.269072
O O6 0.366083 0.692907 0.209044
O O7 0.253494 0.634305 0.863665
O O8 0.459894 0.400498 0.285047
O O9 0.000000 0.500000 0.500000
O O10 0.799273 0.528410 0.531457
O O11 0.875616 0.025894 0.582455
O O12 0.500000 0.000000 0.500000
O O13 0.581865 0.836069 0.173818
O O14 0.000000 0.000000 0.000000
O O15 0.867488 0.612515 0.712251
O O16 0.500000 0.500000 0.000000
O O17 0.997496 0.677242 0.049724
O O18 0.256164 0.706556 0.478445
#
# Coordination Sequence:
#
# PCOD8009189 Si02
#       8
#     2   2   2   2   2   2   2   2
#     4   9  19  37  59  83 117 153 189 240 292 340
#     4  10  21  36  58  89 114 149 201 244 284 344
#     4  12  22  39  60  89 118 153 198 243 286 343
#     4   9  18  36  60  80 112 153 189 233 295 341
#     4  10  21  36  59  89 115 150 195 238 289 349
#     4  11  23  40  61  83 120 160 194 238 292 349
#     4  11  21  40  62  82 120 160 191 237 302 341
#     4  10  21  40  60  83 117 156 196 238 293 352
#
# _framework density 20.683768000000001
#
# number of rings (size 3 to 8) (size 9 to 14) (size 15 to 20)
#    0.000    1.750    2.500    2.250    0.000    1.500 
#    0.000    3.750    0.000    0.000    0.000    0.000 
#    0.000    0.000    0.000    0.000    0.000    0.000 
#
# Total GULP energy -198405.502200 kJ/mol
# GULP energy per Si atom -12400.343887 kJ/mol
# Density = 2.063669 g / cm^3
# Si number density = 20.683768 Si / 1000 Ang^3
#
#
#
# Elastic Constant Matrix: (Units=GPa)
#
#
# Indices 1 2 3 4 5 6 
#
# 1 47.8058 35.9032 43.7207 -4.5447 13.0618 15.9537
# 2 35.9032 135.6695 68.0646 -20.4958 20.6855 25.5121
# 3 43.7207 68.0646 169.2420 -15.3870 22.1173 23.3254
# 4 -4.5447 -20.4958 -15.3870 38.5253 13.1914 3.7310
# 5 13.0618 20.6855 22.1173 13.1914 44.0939 3.1253
# 6 15.9537 25.5121 23.3254 3.7310 3.1253 32.7047
#
#
#
# Elastic Compliance Matrix: (Units=1/GPa)
#
#
# Indices 1 2 3 4 5 6 
#
# 1 0.032950 -0.002882 -0.004785 0.003611 -0.006365 -0.010216
# 2 -0.002882 0.012687 -0.001696 0.008627 -0.006285 -0.007665
# 3 -0.004785 -0.001696 0.008930 0.003431 -0.003094 -0.002808
# 4 0.003611 0.008627 0.003431 0.039757 -0.017755 -0.013777
# 5 -0.006365 -0.006285 -0.003094 -0.017755 0.033738 0.009016
# 6 -0.010216 -0.007665 -0.002808 -0.013777 0.009016 0.044253
#
#
# Mechanical properties :
#
#
# Convention : Reuss Voigt Hill
#
# Bulk Modulus (GPa) = 27.90010 72.01045 49.95528
# Shear Modulus (GPa) = 24.63203 36.73338 30.68270
#
# Velocity S-wave (km/s) = 3.45467 4.21878 3.85570
# Velocity P-wave (km/s) = 5.42505 7.65645 6.63523
#
# Compressibility (1/GPa) = 0.03584216
#
# Stress axis : x y z
#
# Youngs Moduli (GPa) = 30.34873 78.81879 111.98141
#
# Poissons Ratio (x) = 0.22717 0.53581
# Poissons Ratio (y) = 0.08747 0.18990
# Poissons Ratio (z) = 0.14521 0.13366
#
# Static dielectric constant tensor:
#      x y z
#    x 3.529160 0.409160 0.075020 
#    y 0.409160 3.937870 0.144930 
#    z 0.075020 0.144930 4.174490 
# 
# 
# High freq. dielectric constant tensor:
#      x y z
#    x 1.781820 0.033670 0.000360 
#    y 0.033670 1.809530 -0.000570 
#    z 0.000360 -0.000570 1.831210 
# 
# From -- ./inp_files/37632.got.cif
#   From: 2010.06.25/outbox.cif.g09.slc.cpg/sg2_19_cif.got.tgz:37632.got - 2010.06.27 13:26:56.
