data_PCOD8009152
_publ_section_title
;
Structure prediction by ZEFSAII (Michael W. Deem and Ramdas Pophale) SiO2 
 PCOD8009152
Probable space group: P -1
;
_chemical_formula_sum "Si O2"
_cell_formula_units_Z 12
_cell_length_a 12.820877
_cell_length_b 9.937446
_cell_length_c 9.887698
_cell_angle_alpha 42.569225
_cell_angle_beta 122.277486
_cell_angle_gamma 140.164112
_cell_volume 544.469608
_symmetry_space_group_name_H-M "P -1"
_symmetry_group_IT_number 2
_symmetry_cell_setting 'triclinic'
loop_
_space_group_symop_operation_xyz
x,y,z
-x,-y,-z
loop_
_atom_site_type_symbol
_atom_site_label
_atom_site_fract_x
_atom_site_fract_y
_atom_site_fract_z
Si Si1 0.760537 0.079832 0.580657
Si Si2 0.567341 0.847664 0.885488
Si Si3 0.987330 0.992268 0.197710
Si Si4 0.209245 0.444294 0.829348
Si Si5 0.518173 0.805556 0.380460
Si Si6 0.688641 0.784730 0.283347
O O1 0.823846 0.370751 0.387169
O O2 0.902442 0.079877 0.633465
O O3 0.712198 0.991772 0.768347
O O4 0.602085 0.873689 0.533584
O O5 0.397578 0.603999 0.878239
O O6 0.559037 0.059135 0.785703
O O7 0.604388 0.743192 0.112636
O O8 0.846105 0.775955 0.155353
O O9 0.885521 0.972720 0.268143
O O10 0.098231 0.290060 0.999056
O O11 0.649425 0.913076 0.271501
O O12 0.375521 0.493994 0.499641
#
# Coordination Sequence:
#
# PCOD8009152 Si02
#       6
#     2   2   2   2   2   2
#     4  11  22  38  61  86 114 149 191 236 280 332
#     4  11  21  39  63  84 111 150 196 236 274 331
#     4  11  22  35  56  88 120 147 182 234 291 337
#     4  10  21  36  57  88 116 146 190 237 282 328
#     4  10  23  41  60  83 113 152 194 232 278 336
#     4  11  23  39  59  85 117 151 187 232 285 340
#
# _framework density 22.039797
#
# number of rings (size 3 to 8) (size 9 to 14) (size 15 to 20)
#    0.000    1.333    0.000    8.000    0.000    4.000 
#    0.000    3.333    0.000    0.000    0.000    0.000 
#    0.000    0.000    0.000    0.000    0.000    0.000 
#
# Total GULP energy -148829.600715 kJ/mol
# GULP energy per Si atom -12402.466726 kJ/mol
# Density = 2.198963 g / cm^3
# Si number density = 22.039797 Si / 1000 Ang^3
#
#
#
# Elastic Constant Matrix: (Units=GPa)
#
#
# Indices 1 2 3 4 5 6 
#
# 1 131.4765 -1.4702 32.5406 -4.2477 -16.0475 11.4675
# 2 -1.4702 36.6966 12.2830 -13.5508 1.7828 -0.1283
# 3 32.5406 12.2830 88.1423 -14.7255 -11.8291 7.8887
# 4 -4.2477 -13.5508 -14.7255 20.4683 1.9872 -7.1662
# 5 -16.0475 1.7828 -11.8291 1.9872 32.2496 4.5691
# 6 11.4675 -0.1283 7.8887 -7.1662 4.5691 23.0590
#
#
#
# Elastic Compliance Matrix: (Units=1/GPa)
#
#
# Indices 1 2 3 4 5 6 
#
# 1 0.009209 0.000267 -0.002734 -0.002123 0.004430 -0.005181
# 2 0.000267 0.039000 -0.002612 0.028487 -0.006307 0.011081
# 3 -0.002734 -0.002612 0.014642 0.007048 0.004043 -0.002275
# 4 -0.002123 0.028487 0.007048 0.082357 -0.008825 0.026146
# 5 0.004430 -0.006307 0.004043 -0.008825 0.037544 -0.013803
# 6 -0.005181 0.011081 -0.002275 0.026146 -0.013803 0.057644
#
#
# Mechanical properties :
#
#
# Convention : Reuss Voigt Hill
#
# Bulk Modulus (GPa) = 18.97756 38.11356 28.54556
# Shear Modulus (GPa) = 18.64844 29.35285 24.00064
#
# Velocity S-wave (km/s) = 2.91198 3.65336 3.30353
# Velocity P-wave (km/s) = 4.46491 5.92677 5.24700
#
# Compressibility (1/GPa) = 0.05269382
#
# Stress axis : x y z
#
# Youngs Moduli (GPa) = 108.58380 25.64096 68.29563
#
# Poissons Ratio (x) = -0.00684 0.18669
# Poissons Ratio (y) = -0.02896 0.17840
# Poissons Ratio (z) = 0.29682 0.06698
#
# Static dielectric constant tensor:
#      x y z
#    x 4.180190 -0.007500 -0.068620 
#    y -0.007500 3.713810 -0.143310 
#    z -0.068620 -0.143310 4.054520 
# 
# 
# High freq. dielectric constant tensor:
#      x y z
#    x 1.881270 0.004330 0.003870 
#    y 0.004330 1.843260 -0.012350 
#    z 0.003870 -0.012350 1.873730 
# 
# From -- ./inp_files/173291.got.cif
#   From: 2010.06.25/outbox.cif.g09.slc.cpg/sg2_87_cif.got.tgz:173291.got - 2010.06.27 13:26:56.
