data_PCOD8009761
_publ_section_title
;
Structure prediction by ZEFSAII (Michael W. Deem and Ramdas Pophale) SiO2 
 PCOD8009761
Probable space group: P -1
;
_chemical_formula_sum "Si O2"
_cell_formula_units_Z 14
_cell_length_a 15.462840
_cell_length_b 17.775815
_cell_length_c 9.238573
_cell_angle_alpha 134.520166
_cell_angle_beta 133.941188
_cell_angle_gamma 20.575603
_cell_volume 629.151717
_symmetry_space_group_name_H-M "P -1"
_symmetry_group_IT_number 2
_symmetry_cell_setting 'triclinic'
loop_
_space_group_symop_operation_xyz
x,y,z
-x,-y,-z
loop_
_atom_site_type_symbol
_atom_site_label
_atom_site_fract_x
_atom_site_fract_y
_atom_site_fract_z
Si Si1 0.326103 0.502848 0.219079
Si Si2 0.080426 0.471523 0.895911
Si Si3 0.728470 0.299711 0.819570
Si Si4 0.757523 0.865706 0.516379
Si Si5 0.225257 0.266392 0.371754
Si Si6 0.823962 0.291364 0.229584
Si Si7 0.861081 0.163317 0.390810
O O1 0.308633 0.558194 0.108287
O O2 0.606149 0.303492 0.335313
O O3 0.133643 0.721428 0.385321
O O4 0.269031 0.424092 0.059868
O O5 0.220483 0.266680 0.708162
O O6 0.843389 0.693529 0.823434
O O7 0.000000 0.500000 0.000000
O O8 0.461718 0.448454 0.734585
O O9 0.867358 0.211421 0.012940
O O10 0.899646 0.093311 0.635438
O O11 0.749606 0.861382 0.677634
O O12 0.989869 0.755665 0.587931
O O13 0.494390 0.118270 0.497112
O O14 0.000000 0.500000 0.500000
O O15 0.877799 0.159104 0.230097
#
# Coordination Sequence:
#
# PCOD8009761 Si02
#       7
#     2   2   2   2   2   2   2
#     4  10  22  39  58  85 118 155 201 240 291 364
#     4  11  23  39  60  90 124 159 202 249 296 356
#     4  10  21  38  62  88 116 153 195 247 305 350
#     4  10  21  40  62  88 125 162 197 244 300 359
#     4   9  21  39  59  86 119 162 203 238 294 357
#     4  10  21  37  60  92 118 146 197 246 296 361
#     4  10  21  38  60  86 117 154 192 244 303 351
#
# _framework density 22.252182999999999
#
# number of rings (size 3 to 8) (size 9 to 14) (size 15 to 20)
#    0.000    2.000    0.000    2.571    0.000    7.429 
#    0.000    2.857    0.000    0.000    0.000    0.000 
#    0.000    0.000    0.000    0.000    0.000    0.000 
#
# Total GULP energy -173526.126137 kJ/mol
# GULP energy per Si atom -12394.723295 kJ/mol
# Density = 2.220154 g / cm^3
# Si number density = 22.252183 Si / 1000 Ang^3
#
#
#
# Elastic Constant Matrix: (Units=GPa)
#
#
# Indices 1 2 3 4 5 6 
#
# 1 115.7646 40.3114 45.7699 -9.4685 7.0887 -14.1046
# 2 40.3114 132.0010 49.1063 -0.3254 18.1801 -11.0282
# 3 45.7699 49.1063 84.1599 -3.1806 12.9989 -12.0931
# 4 -9.4685 -0.3254 -3.1806 34.8400 2.6246 -4.9198
# 5 7.0887 18.1801 12.9989 2.6246 47.0874 -9.0190
# 6 -14.1046 -11.0282 -12.0931 -4.9198 -9.0190 28.7471
#
#
#
# Elastic Compliance Matrix: (Units=1/GPa)
#
#
# Indices 1 2 3 4 5 6 
#
# 1 0.011835 -0.001533 -0.004973 0.003245 0.000752 0.003918
# 2 -0.001533 0.010134 -0.004695 -0.000528 -0.002289 0.000352
# 3 -0.004973 -0.004695 0.018069 0.000808 -0.001917 0.002897
# 4 0.003245 -0.000528 0.000808 0.030668 -0.000937 0.006684
# 5 0.000752 -0.002289 -0.001917 -0.000937 0.023732 0.005970
# 6 0.003918 0.000352 0.002897 0.006684 0.005970 0.041079
#
#
# Mechanical properties :
#
#
# Convention : Reuss Voigt Hill
#
# Bulk Modulus (GPa) = 56.70068 66.92229 61.81148
# Shear Modulus (GPa) = 30.52575 35.25076 32.88825
#
# Velocity S-wave (km/s) = 3.70781 3.98445 3.84862
# Velocity P-wave (km/s) = 6.62320 7.16293 6.89835
#
# Compressibility (1/GPa) = 0.01763647
#
# Stress axis : x y z
#
# Youngs Moduli (GPa) = 84.49824 98.67969 55.34348
#
# Poissons Ratio (x) = 0.15123 0.27520
# Poissons Ratio (y) = 0.12950 0.25986
# Poissons Ratio (z) = 0.42017 0.46334
#
# Static dielectric constant tensor:
#      x y z
#    x 4.085520 0.119450 -0.431560 
#    y 0.119450 4.188620 -0.276100 
#    z -0.431560 -0.276100 3.964320 
# 
# 
# High freq. dielectric constant tensor:
#      x y z
#    x 1.875710 0.000650 -0.026210 
#    y 0.000650 1.882420 -0.009880 
#    z -0.026210 -0.009880 1.860570 
# 
# From -- ./inp_files/318109.got.cif
#   From: 2010.06.25/outbox.cif.g09.slc.cpg/sg2_160_cif.got.tgz:318109.got - 2010.06.27 13:26:56.
