data_PCOD8009779
_publ_section_title
;
Structure prediction by ZEFSAII (Michael W. Deem and Ramdas Pophale) SiO2 
 PCOD8009779
Probable space group: P -1
;
_chemical_formula_sum "Si O2"
_cell_formula_units_Z 16
_cell_length_a 11.591145
_cell_length_b 6.670905
_cell_length_c 14.483170
_cell_angle_alpha 133.136708
_cell_angle_beta 72.519427
_cell_angle_gamma 91.114597
_cell_volume 751.143763
_symmetry_space_group_name_H-M "P -1"
_symmetry_group_IT_number 2
_symmetry_cell_setting 'triclinic'
loop_
_space_group_symop_operation_xyz
x,y,z
-x,-y,-z
loop_
_atom_site_type_symbol
_atom_site_label
_atom_site_fract_x
_atom_site_fract_y
_atom_site_fract_z
Si Si1 0.145001 0.845123 0.817264
Si Si2 0.049813 0.911396 0.357728
Si Si3 0.538950 0.304327 0.841318
Si Si4 0.715111 0.780165 0.196480
Si Si5 0.137678 0.847847 0.034852
Si Si6 0.272362 0.638022 0.317485
Si Si7 0.803053 0.797778 0.374695
Si Si8 0.772266 0.868214 0.732001
O O1 0.168037 0.511946 0.681769
O O2 0.249602 0.954266 0.774177
O O3 0.164764 0.893288 0.935964
O O4 0.009125 0.022106 0.869218
O O5 0.171090 0.642531 0.260461
O O6 0.935691 0.827003 0.307301
O O7 0.099004 0.144127 0.359848
O O8 0.000000 0.000000 0.500000
O O9 0.422132 0.207063 0.802021
O O10 0.590496 0.468124 0.796674
O O11 0.651280 0.033527 0.756143
O O12 0.500000 0.500000 0.000000
O O13 0.705796 0.822236 0.322296
O O14 0.818876 0.486133 0.054027
O O15 0.220378 0.997732 0.126459
O O16 0.247115 0.445074 0.346678
O O17 0.254375 0.960238 0.460527
#
# Coordination Sequence:
#
# PCOD8009779 Si02
#       8
#     2   2   2   2   2   2   2   2
#     4  10  22  37  62  93 128 165 200 255 321 373
#     4   9  20  38  61  93 129 157 200 254 304 374
#     4  11  25  44  61  92 126 162 219 271 302 360
#     4  11  23  40  63  88 127 167 208 262 310 366
#     4  10  21  37  60  96 123 159 211 256 310 380
#     4  10  24  41  65  94 128 166 212 256 310 375
#     4  10  22  41  62  94 130 164 203 253 313 386
#     4  11  22  38  66  91 122 170 207 256 318 364
#
# _framework density 21.300847000000001
#
# number of rings (size 3 to 8) (size 9 to 14) (size 15 to 20)
#    0.000    1.750    1.250    1.875    1.750   10.000 
#    0.000    1.250    0.000    0.000    0.000    0.000 
#    0.000    0.000    0.000    0.000    0.000    0.000 
#
# Total GULP energy -198332.044738 kJ/mol
# GULP energy per Si atom -12395.752796 kJ/mol
# Density = 2.125237 g / cm^3
# Si number density = 21.300847 Si / 1000 Ang^3
#
#
#
# Elastic Constant Matrix: (Units=GPa)
#
#
# Indices 1 2 3 4 5 6 
#
# 1 143.9316 48.8263 33.4243 0.9991 -0.5348 3.6413
# 2 48.8263 127.5638 40.4667 6.1750 -11.8963 25.8095
# 3 33.4243 40.4667 89.4155 0.7015 0.7665 10.6399
# 4 0.9991 6.1750 0.7015 24.1806 2.9314 2.0058
# 5 -0.5348 -11.8963 0.7665 2.9314 26.3872 -10.1824
# 6 3.6413 25.8095 10.6399 2.0058 -10.1824 37.1152
#
#
#
# Elastic Compliance Matrix: (Units=1/GPa)
#
#
# Indices 1 2 3 4 5 6 
#
# 1 0.008371 -0.002980 -0.001976 0.000399 -0.000523 0.001652
# 2 -0.002980 0.011705 -0.003506 -0.002697 0.003393 -0.005766
# 3 -0.001976 -0.003506 0.013788 0.001123 -0.002996 -0.002204
# 4 0.000399 -0.002697 0.001123 0.043084 -0.007092 -0.002759
# 5 -0.000523 0.003393 -0.002996 -0.007092 0.044602 0.011170
# 6 0.001652 -0.005766 -0.002204 -0.002759 0.011170 0.034636
#
#
# Mechanical properties :
#
#
# Convention : Reuss Voigt Hill
#
# Bulk Modulus (GPa) = 59.02420 67.37170 63.19795
# Shear Modulus (GPa) = 27.97131 33.41617 30.69374
#
# Velocity S-wave (km/s) = 3.62768 3.96507 3.80012
# Velocity P-wave (km/s) = 6.73177 7.25670 6.99916
#
# Compressibility (1/GPa) = 0.01694220
#
# Stress axis : x y z
#
# Youngs Moduli (GPa) = 119.46226 85.43138 72.52717
#
# Poissons Ratio (x) = 0.25455 0.14330
# Poissons Ratio (y) = 0.35594 0.25424
# Poissons Ratio (z) = 0.23604 0.29948
#
# Static dielectric constant tensor:
#      x y z
#    x 4.329520 -0.063840 0.024290 
#    y -0.063840 3.899840 -0.055560 
#    z 0.024290 -0.055560 3.650350 
# 
# 
# High freq. dielectric constant tensor:
#      x y z
#    x 1.839470 -0.005340 0.006490 
#    y -0.005340 1.839010 -0.007760 
#    z 0.006490 -0.007760 1.818580 
# 
# From -- ./inp_files/100008.got.cif
#   From: 2010.06.25/outbox.cif.g09.slc.cpg/sg2_51_cif.got.tgz:100008.got - 2010.06.27 13:26:56.
