data_PCOD8009023
_publ_section_title
;
Structure prediction by ZEFSAII (Michael W. Deem and Ramdas Pophale) SiO2 
 PCOD8009023
Probable space group: P -1
;
_chemical_formula_sum "Si O2"
_cell_formula_units_Z 16
_cell_length_a 8.739843
_cell_length_b 8.750075
_cell_length_c 14.819767
_cell_angle_alpha 51.002569
_cell_angle_beta 109.018235
_cell_angle_gamma 83.620310
_cell_volume 751.672736
_symmetry_space_group_name_H-M "P -1"
_symmetry_group_IT_number 2
_symmetry_cell_setting 'triclinic'
loop_
_space_group_symop_operation_xyz
x,y,z
-x,-y,-z
loop_
_atom_site_type_symbol
_atom_site_label
_atom_site_fract_x
_atom_site_fract_y
_atom_site_fract_z
Si Si1 0.358253 0.209004 0.470098
Si Si2 0.446711 0.256928 0.278460
Si Si3 0.408528 0.137913 0.121849
Si Si4 0.853412 0.932421 0.032450
Si Si5 0.311448 0.309743 0.708673
Si Si6 0.943475 0.374712 0.663013
Si Si7 0.647956 0.339898 0.523302
Si Si8 0.519302 0.307063 0.913888
O O1 0.314002 0.292021 0.326193
O O2 0.208888 0.378613 0.444294
O O3 0.567277 0.172908 0.539616
O O4 0.373142 0.967979 0.582613
O O5 0.353696 0.240041 0.172761
O O6 0.501618 0.454016 0.202992
O O7 0.238294 0.121752 0.050735
O O8 0.569945 0.896315 0.254263
O O9 0.474062 0.286703 0.017100
O O10 0.717719 0.125436 0.997855
O O11 0.000000 0.000000 0.000000
O O12 0.963000 0.717242 0.190763
O O13 0.340477 0.521612 0.611237
O O14 0.378686 0.252342 0.846776
O O15 0.102574 0.368313 0.631279
O O16 0.842165 0.237989 0.649498
O O17 0.500000 0.500000 0.500000
#
# Coordination Sequence:
#
# PCOD8009023 Si02
#       8
#     2   2   2   2   2   2   2   2
#     4  10  23  42  63  91 122 169 207 254 309 365
#     4  11  23  41  68  83 128 171 207 243 309 381
#     4  11  22  40  66  95 121 167 206 248 315 373
#     4  11  23  37  66  96 124 155 207 265 306 356
#     4  11  20  40  66  94 124 154 212 265 306 358
#     4  11  21  39  65  94 124 153 211 264 307 358
#     4  10  21  35  64  92 118 158 207 261 303 353
#     4  11  21  43  63  90 125 169 204 253 309 370
#
# _framework density 21.285858000000001
#
# number of rings (size 3 to 8) (size 9 to 14) (size 15 to 20)
#    0.000    1.250    3.750    3.750    7.000    0.000 
#    0.000    3.125    5.500    0.000    0.000    0.000 
#    0.000    0.000    0.000    0.000    0.000    0.000 
#
# Total GULP energy -198273.871517 kJ/mol
# GULP energy per Si atom -12392.116970 kJ/mol
# Density = 2.123741 g / cm^3
# Si number density = 21.285858 Si / 1000 Ang^3
#
#
#
# Elastic Constant Matrix: (Units=GPa)
#
#
# Indices 1 2 3 4 5 6 
#
# 1 96.3318 15.1733 31.9564 1.3432 17.6774 9.8188
# 2 15.1733 72.8496 15.8148 11.2426 11.5669 9.4218
# 3 31.9564 15.8148 87.1817 -1.0677 9.8553 11.7995
# 4 1.3432 11.2426 -1.0677 42.7612 2.5247 -7.9466
# 5 17.6774 11.5669 9.8553 2.5247 36.7289 -0.7696
# 6 9.8188 9.4218 11.7995 -7.9466 -0.7696 17.2196
#
#
#
# Elastic Compliance Matrix: (Units=1/GPa)
#
#
# Indices 1 2 3 4 5 6 
#
# 1 0.013141 -0.000199 -0.003393 -0.001216 -0.005391 -0.005862
# 2 -0.000199 0.017297 -0.000982 -0.006487 -0.004891 -0.011890
# 3 -0.003393 -0.000982 0.014131 -0.000572 -0.001969 -0.007563
# 4 -0.001216 -0.006487 -0.000572 0.028346 0.001205 0.017770
# 5 -0.005391 -0.004891 -0.001969 0.001205 0.031997 0.009086
# 6 -0.005862 -0.011890 -0.007563 0.017770 0.009086 0.081711
#
#
# Mechanical properties :
#
#
# Convention : Reuss Voigt Hill
#
# Bulk Modulus (GPa) = 28.23106 42.47244 35.35175
# Shear Modulus (GPa) = 24.08721 32.23650 28.16186
#
# Velocity S-wave (km/s) = 3.36759 3.89582 3.64130
# Velocity P-wave (km/s) = 5.33033 6.34297 5.85857
#
# Compressibility (1/GPa) = 0.03542198
#
# Stress axis : x y z
#
# Youngs Moduli (GPa) = 76.09545 57.81348 70.76489
#
# Poissons Ratio (x) = 0.01149 0.24011
# Poissons Ratio (y) = 0.01512 0.06950
# Poissons Ratio (z) = 0.25819 0.05678
#
# Static dielectric constant tensor:
#      x y z
#    x 3.992340 0.255500 0.027990 
#    y 0.255500 3.924840 0.246120 
#    z 0.027990 0.246120 3.921880 
# 
# 
# High freq. dielectric constant tensor:
#      x y z
#    x 1.827110 0.003530 -0.020070 
#    y 0.003530 1.819990 0.016320 
#    z -0.020070 0.016320 1.847210 
# 
# From -- ./inp_files/182519.got.cif
#   From: 2010.06.25/outbox.cif.g09.slc.cpg/sg2_92_cif.got.tgz:182519.got - 2010.06.27 13:26:56.
