data_PCOD8009643
_publ_section_title
;
Structure prediction by ZEFSAII (Michael W. Deem and Ramdas Pophale) SiO2 
 PCOD8009643
Probable space group: P -1
;
_chemical_formula_sum "Si O2"
_cell_formula_units_Z 16
_cell_length_a 11.145791
_cell_length_b 12.089717
_cell_length_c 6.508610
_cell_angle_alpha 114.876394
_cell_angle_beta 104.880555
_cell_angle_gamma 68.364419
_cell_volume 734.203818
_symmetry_space_group_name_H-M "P -1"
_symmetry_group_IT_number 2
_symmetry_cell_setting 'triclinic'
loop_
_space_group_symop_operation_xyz
x,y,z
-x,-y,-z
loop_
_atom_site_type_symbol
_atom_site_label
_atom_site_fract_x
_atom_site_fract_y
_atom_site_fract_z
Si Si1 0.894581 0.075817 0.813813
Si Si2 0.238334 0.692443 0.840944
Si Si3 0.494822 0.757998 0.122131
Si Si4 0.908385 0.147861 0.431651
Si Si5 0.668488 0.972208 0.678424
Si Si6 0.728488 0.600429 0.361811
Si Si7 0.836386 0.773947 0.302560
Si Si8 0.680821 0.767187 0.851107
O O1 0.857985 0.092237 0.566397
O O2 0.788921 0.022238 0.838011
O O3 0.883328 0.215453 0.010201
O O4 0.037554 0.968958 0.804028
O O5 0.210391 0.741158 0.630599
O O6 0.232248 0.550911 0.751262
O O7 0.373597 0.704461 0.991469
O O8 0.587585 0.662392 0.246940
O O9 0.453563 0.901216 0.316576
O O10 0.561529 0.759384 0.933042
O O11 0.027104 0.201071 0.587873
O O12 0.711519 0.882743 0.427497
O O13 0.635800 0.894164 0.793348
O O14 0.838803 0.643185 0.319190
O O15 0.723743 0.641905 0.629207
O O16 0.806292 0.766180 0.042868
#
# Coordination Sequence:
#
# PCOD8009643 Si02
#       8
#     2   2   2   2   2   2   2   2
#     4   9  21  38  59  87 117 142 182 238 286 335
#     4  11  23  39  60  83 115 154 187 229 284 335
#     4  10  22  37  58  86 115 148 190 237 279 329
#     4  10  21  38  62  89 112 143 187 233 286 343
#     4   9  19  36  60  87 114 146 188 233 286 337
#     4  10  23  40  56  82 116 153 194 230 273 333
#     4   9  21  39  58  85 118 146 185 238 281 330
#     4  10  21  37  59  82 115 154 188 230 281 331
#
# _framework density 21.792314999999999
#
# number of rings (size 3 to 8) (size 9 to 14) (size 15 to 20)
#    0.000    2.250    0.000    1.125    0.000   19.500 
#    0.000    1.250    0.000    0.000    0.000    0.000 
#    0.000    0.000    0.000    0.000    0.000    0.000 
#
# Total GULP energy -198374.709354 kJ/mol
# GULP energy per Si atom -12398.419335 kJ/mol
# Density = 2.174272 g / cm^3
# Si number density = 21.792315 Si / 1000 Ang^3
#
#
#
# Elastic Constant Matrix: (Units=GPa)
#
#
# Indices 1 2 3 4 5 6 
#
# 1 54.6044 19.9637 27.4005 -0.2275 6.6604 3.2409
# 2 19.9637 152.1355 52.5566 23.0651 2.4366 -0.4387
# 3 27.4005 52.5566 104.0447 10.7813 3.5061 -3.9334
# 4 -0.2275 23.0651 10.7813 32.7954 -0.9186 5.9445
# 5 6.6604 2.4366 3.5061 -0.9186 26.8056 -3.6154
# 6 3.2409 -0.4387 -3.9334 5.9445 -3.6154 26.3799
#
#
#
# Elastic Compliance Matrix: (Units=1/GPa)
#
#
# Indices 1 2 3 4 5 6 
#
# 1 0.022677 -0.001560 -0.005607 0.003901 -0.005335 -0.005258
# 2 -0.001560 0.008759 -0.003434 -0.005224 -0.000003 0.001002
# 3 -0.005607 -0.003434 0.013196 -0.002535 0.000326 0.003215
# 4 0.003901 -0.005224 -0.002535 0.036696 -0.000151 -0.009234
# 5 -0.005335 -0.000003 0.000326 -0.000151 0.039412 0.006140
# 6 -0.005258 0.001002 0.003215 -0.009234 0.006140 0.041972
#
#
# Mechanical properties :
#
#
# Convention : Reuss Voigt Hill
#
# Bulk Modulus (GPa) = 42.68280 56.73626 49.70953
# Shear Modulus (GPa) = 26.07907 31.25377 28.66642
#
# Velocity S-wave (km/s) = 3.46310 3.79114 3.63083
# Velocity P-wave (km/s) = 5.96820 6.72720 6.35904
#
# Compressibility (1/GPa) = 0.02342864
#
# Stress axis : x y z
#
# Youngs Moduli (GPa) = 44.09822 114.16617 75.77978
#
# Poissons Ratio (x) = 0.17808 0.42492
# Poissons Ratio (y) = 0.06878 0.26027
# Poissons Ratio (z) = 0.24727 0.39210
#
# Static dielectric constant tensor:
#      x y z
#    x 3.756410 0.079980 -0.064320 
#    y 0.079980 3.931180 0.084680 
#    z -0.064320 0.084680 4.050260 
# 
# 
# High freq. dielectric constant tensor:
#      x y z
#    x 1.847270 0.008410 0.005720 
#    y 0.008410 1.853040 -0.003110 
#    z 0.005720 -0.003110 1.865570 
# 
# From -- ./inp_files/71926.got.cif
#   From: 2010.06.25/outbox.cif.g09.slc.cpg/sg2_36_cif.got.tgz:71926.got - 2010.06.27 13:26:56.
