data_PCOD8009881
_publ_section_title
;
Structure prediction by ZEFSAII (Michael W. Deem and Ramdas Pophale) SiO2 
 PCOD8009881
Probable space group: P -1
;
_chemical_formula_sum "Si O2"
_cell_formula_units_Z 16
_cell_length_a 12.400079
_cell_length_b 14.414424
_cell_length_c 10.358451
_cell_angle_alpha 131.838933
_cell_angle_beta 39.501312
_cell_angle_gamma 134.494766
_cell_volume 806.898787
_symmetry_space_group_name_H-M "P -1"
_symmetry_group_IT_number 2
_symmetry_cell_setting 'triclinic'
loop_
_space_group_symop_operation_xyz
x,y,z
-x,-y,-z
loop_
_atom_site_type_symbol
_atom_site_label
_atom_site_fract_x
_atom_site_fract_y
_atom_site_fract_z
Si Si1 0.035163 0.463499 0.233519
Si Si2 0.493428 0.896559 0.796749
Si Si3 0.105783 0.988203 0.766865
Si Si4 0.891145 0.914044 0.404194
Si Si5 0.276151 0.393612 0.744439
Si Si6 0.858474 0.287497 0.462760
Si Si7 0.669676 0.406245 0.352650
Si Si8 0.488841 0.887261 0.505687
O O1 0.010151 0.362492 0.283297
O O2 0.841310 0.437342 0.318344
O O3 0.120435 0.617263 0.346287
O O4 0.195183 0.451346 0.987936
O O5 0.698996 0.925395 0.600152
O O6 0.378858 0.741767 0.805134
O O7 0.419751 0.915435 0.738653
O O8 0.500000 0.000000 0.000000
O O9 0.118160 0.843244 0.622791
O O10 0.003181 0.010834 0.754760
O O11 0.306877 0.113507 0.686291
O O12 0.000000 0.000000 0.000000
O O13 0.869339 0.759166 0.288940
O O14 0.000000 0.000000 0.500000
O O15 0.482790 0.401698 0.593638
O O16 0.275234 0.478828 0.698427
O O17 0.660898 0.252026 0.542126
O O18 0.500000 0.000000 0.500000
#
# Coordination Sequence:
#
# PCOD8009881 Si02
#       8
#     2   2   2   2   2   2   2   2
#     4  11  22  40  65  87 125 166 204 257 306 370
#     4  10  21  37  62  90 116 159 202 248 316 362
#     4  10  21  39  62  87 123 161 199 255 317 361
#     4  10  23  37  58  90 122 154 204 260 303 372
#     4  10  23  41  61  88 124 167 204 252 319 363
#     4  10  22  39  60  93 115 159 216 244 310 380
#     4  10  22  41  62  88 128 158 209 258 299 377
#     4   9  19  38  58  83 124 151 193 257 290 366
#
# _framework density 19.829006
#
# number of rings (size 3 to 8) (size 9 to 14) (size 15 to 20)
#    0.000    2.000    1.250    1.125    3.500    5.000 
#    2.250    1.250    0.000    0.000    0.000    0.000 
#    0.000    0.000    0.000    0.000    0.000    0.000 
#
# Total GULP energy -198224.706725 kJ/mol
# GULP energy per Si atom -12389.044170 kJ/mol
# Density = 1.978387 g / cm^3
# Si number density = 19.829006 Si / 1000 Ang^3
#
#
#
# Elastic Constant Matrix: (Units=GPa)
#
#
# Indices 1 2 3 4 5 6 
#
# 1 100.3673 59.5833 56.8042 10.0138 24.4204 4.8904
# 2 59.5833 139.6939 71.0565 13.2451 19.0037 -3.8781
# 3 56.8042 71.0565 146.1222 7.0241 20.3370 7.5668
# 4 10.0138 13.2451 7.0241 29.0238 0.3507 8.5513
# 5 24.4204 19.0037 20.3370 0.3507 28.4871 0.2551
# 6 4.8904 -3.8781 7.5668 8.5513 0.2551 39.3758
#
#
#
# Elastic Compliance Matrix: (Units=1/GPa)
#
#
# Indices 1 2 3 4 5 6 
#
# 1 0.016715 -0.004106 -0.002998 -0.002683 -0.009405 -0.001261
# 2 -0.004106 0.011472 -0.003766 -0.003834 -0.001427 0.003205
# 3 -0.002998 -0.003766 0.010213 0.000942 -0.002201 -0.002151
# 4 -0.002683 -0.003834 0.000942 0.039455 0.003779 -0.008818
# 5 -0.009405 -0.001427 -0.002201 0.003779 0.045640 0.000334
# 6 -0.001261 0.003205 -0.002151 -0.008818 0.000334 0.028195
#
#
# Mechanical properties :
#
#
# Convention : Reuss Voigt Hill
#
# Bulk Modulus (GPa) = 60.02098 84.56348 72.29223
# Shear Modulus (GPa) = 27.93598 32.62662 30.28130
#
# Velocity S-wave (km/s) = 3.75753 4.06075 3.91208
# Velocity P-wave (km/s) = 7.01145 8.04520 7.54604
#
# Compressibility (1/GPa) = 0.01666084
#
# Stress axis : x y z
#
# Youngs Moduli (GPa) = 59.82643 87.17164 97.91723
#
# Poissons Ratio (x) = 0.35788 0.29357
# Poissons Ratio (y) = 0.24562 0.36871
# Poissons Ratio (z) = 0.17937 0.32825
#
# Static dielectric constant tensor:
#      x y z
#    x 3.298230 -0.073690 -0.089530 
#    y -0.073690 4.032540 -0.157330 
#    z -0.089530 -0.157330 3.726920 
# 
# 
# High freq. dielectric constant tensor:
#      x y z
#    x 1.778330 -0.006000 0.008660 
#    y -0.006000 1.788640 -0.012830 
#    z 0.008660 -0.012830 1.760650 
# 
# From -- ./inp_files/175141.got.cif
#   From: 2010.06.25/outbox.cif.g09.slc.cpg/sg2_88_cif.got.tgz:175141.got - 2010.06.27 13:26:56.
