data_PCOD8009119
_publ_section_title
;
Structure prediction by ZEFSAII (Michael W. Deem and Ramdas Pophale) SiO2 
 PCOD8009119
Probable space group: P -1
;
_chemical_formula_sum "Si O2"
_cell_formula_units_Z 16
_cell_length_a 8.285023
_cell_length_b 13.084258
_cell_length_c 23.550187
_cell_angle_alpha 21.055791
_cell_angle_beta 54.150431
_cell_angle_gamma 62.698873
_cell_volume 708.781543
_symmetry_space_group_name_H-M "P -1"
_symmetry_group_IT_number 2
_symmetry_cell_setting 'triclinic'
loop_
_space_group_symop_operation_xyz
x,y,z
-x,-y,-z
loop_
_atom_site_type_symbol
_atom_site_label
_atom_site_fract_x
_atom_site_fract_y
_atom_site_fract_z
Si Si1 0.424839 0.234813 0.727868
Si Si2 0.409233 0.217341 0.870994
Si Si3 0.770844 0.821899 0.363171
Si Si4 0.603625 0.382094 0.987731
Si Si5 0.995671 0.147563 0.811065
Si Si6 0.999348 0.328732 0.181635
Si Si7 0.708610 0.416968 0.109812
Si Si8 0.189248 0.328811 0.444873
O O1 0.433329 0.145234 0.837722
O O2 0.589451 0.549698 0.513812
O O3 0.194467 0.251142 0.756485
O O4 0.469011 0.975732 0.814524
O O5 0.556850 0.558270 0.674603
O O6 0.500000 0.000000 0.000000
O O7 0.168909 0.153111 0.973009
O O8 0.951893 0.936919 0.219479
O O9 0.864479 0.706645 0.458599
O O10 0.677334 0.087826 0.261136
O O11 0.517128 0.516289 0.880067
O O12 0.856174 0.487608 0.891851
O O13 0.500000 0.500000 0.000000
O O14 0.906481 0.426811 0.687026
O O15 0.803201 0.442108 0.141703
O O16 0.909732 0.990838 0.398650
O O17 0.132443 0.339270 0.090390
#
# Coordination Sequence:
#
# PCOD8009119 Si02
#       8
#     2   2   2   2   2   2   2   2
#     4  11  23  38  61  95 121 153 211 249 306 369
#     4   9  21  43  57  86 118 164 201 255 305 360
#     4  10  21  36  58  99 119 152 208 252 305 364
#     4  10  21  36  56  88 129 160 190 251 307 367
#     4  11  20  33  61  88 123 156 194 257 307 352
#     4   9  18  34  55  84 116 161 201 230 307 364
#     4   9  19  36  56  83 132 159 190 250 312 360
#     4   9  20  36  59  88 121 155 206 249 300 363
#
# _framework density 22.573951000000001
#
# number of rings (size 3 to 8) (size 9 to 14) (size 15 to 20)
#    0.000    2.250    0.000    2.625    5.250    0.000 
#   22.500    0.000    0.000    6.000    9.750    0.000 
#    0.000    0.000    0.000    0.000    0.000    0.000 
#
# Total GULP energy -198257.606264 kJ/mol
# GULP energy per Si atom -12391.100391 kJ/mol
# Density = 2.252257 g / cm^3
# Si number density = 22.573951 Si / 1000 Ang^3
#
#
#
# Elastic Constant Matrix: (Units=GPa)
#
#
# Indices 1 2 3 4 5 6 
#
# 1 141.1994 12.6835 34.5447 -14.4163 -8.9720 -14.4477
# 2 12.6835 40.6760 42.9893 -1.8089 -11.8086 -5.3093
# 3 34.5447 42.9893 139.8834 -16.6988 -18.0971 -1.2580
# 4 -14.4163 -1.8089 -16.6988 37.9779 4.3123 4.4726
# 5 -8.9720 -11.8086 -18.0971 4.3123 32.6902 -4.4090
# 6 -14.4477 -5.3093 -1.2580 4.4726 -4.4090 20.7888
#
#
#
# Elastic Compliance Matrix: (Units=1/GPa)
#
#
# Indices 1 2 3 4 5 6 
#
# 1 0.008359 0.000782 -0.001790 0.001459 0.002210 0.006055
# 2 0.000782 0.042246 -0.012298 -0.006079 0.011399 0.014314
# 3 -0.001790 -0.012298 0.011922 0.004456 0.000468 -0.004523
# 4 0.001459 -0.006079 0.004456 0.029942 -0.004306 -0.007624
# 5 0.002210 0.011399 0.000468 -0.004306 0.037956 0.013452
# 6 0.006055 0.014314 -0.004523 -0.007624 0.013452 0.060187
#
#
# Mechanical properties :
#
#
# Convention : Reuss Voigt Hill
#
# Bulk Modulus (GPa) = 27.84381 55.79930 41.82156
# Shear Modulus (GPa) = 21.81545 33.72745 27.77145
#
# Velocity S-wave (km/s) = 3.11207 3.86954 3.51129
# Velocity P-wave (km/s) = 5.02738 6.68854 5.91655
#
# Compressibility (1/GPa) = 0.03591463
#
# Stress axis : x y z
#
# Youngs Moduli (GPa) = 119.63345 23.67101 83.87576
#
# Poissons Ratio (x) = -0.01852 0.15015
# Poissons Ratio (y) = -0.09360 1.03154
# Poissons Ratio (z) = 0.21416 0.29112
#
# Static dielectric constant tensor:
#      x y z
#    x 5.000340 -0.053400 -0.236390 
#    y -0.053400 3.538250 0.117020 
#    z -0.236390 0.117020 4.570480 
# 
# 
# High freq. dielectric constant tensor:
#      x y z
#    x 1.912610 0.002610 -0.006960 
#    y 0.002610 1.831710 -0.017650 
#    z -0.006960 -0.017650 1.896070 
# 
# From -- ./inp_files/617289.got.cif
#   From: 2010.06.25/outbox.cif.g09.slc.cpg/sg2_309_cif.got.tgz:617289.got - 2010.06.27 13:26:56.
