data_PCOD8009060
_publ_section_title
;
Structure prediction by ZEFSAII (Michael W. Deem and Ramdas Pophale) SiO2 
 PCOD8009060
Probable space group: P -1
;
_chemical_formula_sum "Si O2"
_cell_formula_units_Z 8
_cell_length_a 17.658795
_cell_length_b 5.631142
_cell_length_c 5.124658
_cell_angle_alpha 98.341039
_cell_angle_beta 136.685956
_cell_angle_gamma 108.595665
_cell_volume 269.911130
_symmetry_space_group_name_H-M "P -1"
_symmetry_group_IT_number 2
_symmetry_cell_setting 'triclinic'
loop_
_space_group_symop_operation_xyz
x,y,z
-x,-y,-z
loop_
_atom_site_type_symbol
_atom_site_label
_atom_site_fract_x
_atom_site_fract_y
_atom_site_fract_z
Si Si1 0.901866 0.353247 0.980024
Si Si2 0.161853 0.210471 0.019973
Si Si3 0.401866 0.853247 0.980026
Si Si4 0.661853 0.710472 0.019975
O O1 0.798251 0.452671 0.754640
O O2 0.000000 0.500000 0.500000
O O3 0.000000 0.500000 0.000000
O O4 0.170932 0.016513 0.245360
O O5 0.250000 0.249999 1.000000
O O6 0.000000 0.000000 0.500000
O O7 0.329068 0.483487 0.754640
O O8 0.500000 0.000000 0.500000
O O9 0.298251 0.952670 0.754638
O O10 0.500000 0.000000 0.000000
O O11 0.500000 0.500000 0.500000
#
# Coordination Sequence:
#
# PCOD8009060 Si02
#       4
#     2   2   2   2
#     4  10  21  36  54  78 106 136 173 214 256 306
#     4  10  21  36  54  78 106 136 173 214 256 306
#     4  10  21  36  54  78 106 136 173 214 256 306
#     4  10  21  36  54  78 106 136 173 214 256 306
#
# _framework density 29.639384
#
# number of rings (size 3 to 8) (size 9 to 14) (size 15 to 20)
#    0.000    2.000    0.000    3.000    0.000    4.000 
#    0.000    0.000    0.000    0.000    0.000    0.000 
#    0.000    0.000    0.000    0.000    0.000    0.000 
#
# Total GULP energy -99308.044561 kJ/mol
# GULP energy per Si atom -12413.505570 kJ/mol
# Density = 2.957192 g / cm^3
# Si number density = 29.639384 Si / 1000 Ang^3
#
#
#
# Elastic Constant Matrix: (Units=GPa)
#
#
# Indices 1 2 3 4 5 6 
#
# 1 340.4440 168.8454 103.6995 6.1446 16.8696 10.7541
# 2 168.8454 374.9813 187.8331 5.0624 -9.1184 -20.1763
# 3 103.6995 187.8331 230.0517 11.8307 -6.1334 -29.6712
# 4 6.1446 5.0624 11.8307 101.2718 -15.2398 -6.5109
# 5 16.8696 -9.1184 -6.1334 -15.2398 60.9284 -1.5012
# 6 10.7541 -20.1763 -29.6712 -6.5109 -1.5012 82.2556
#
#
#
# Elastic Compliance Matrix: (Units=1/GPa)
#
#
# Indices 1 2 3 4 5 6 
#
# 1 0.004058 -0.001556 -0.000740 -0.000397 -0.001561 -0.001239
# 2 -0.001556 0.005124 -0.003443 0.000402 0.000958 0.000268
# 3 -0.000740 -0.003443 0.007790 -0.000503 0.000398 0.002030
# 4 -0.000397 0.000402 -0.000503 0.010404 0.002742 0.000843
# 5 -0.001561 0.000958 0.000398 0.002742 0.017742 0.001124
# 6 -0.001239 0.000268 0.002030 0.000843 0.001124 0.013204
#
#
# Mechanical properties :
#
#
# Convention : Reuss Voigt Hill
#
# Bulk Modulus (GPa) = 182.00549 207.35923 194.68236
# Shear Modulus (GPa) = 69.80136 81.23109 75.51622
#
# Velocity S-wave (km/s) = 4.85812 5.24080 5.05308
# Velocity P-wave (km/s) = 9.64409 10.33121 9.99355
#
# Compressibility (1/GPa) = 0.00549434
#
# Stress axis : x y z
#
# Youngs Moduli (GPa) = 246.42899 195.14392 128.37026
#
# Poissons Ratio (x) = 0.30362 0.09498
# Poissons Ratio (y) = 0.38341 0.44201
# Poissons Ratio (z) = 0.18233 0.67194
#
# Static dielectric constant tensor:
#      x y z
#    x 4.010100 -1.434310 -0.552050 
#    y -1.434310 8.395360 0.580050 
#    z -0.552050 0.580050 7.372480 
# 
# 
# High freq. dielectric constant tensor:
#      x y z
#    x 2.185840 -0.037840 -0.018800 
#    y -0.037840 2.308720 -0.006060 
#    z -0.018800 -0.006060 2.375790 
# 
# From -- ./inp_files/85897.got.cif
#   From: 2010.06.25/outbox.cif.g09.slc.cpg/sg2_43_cif.got.tgz:85897.got - 2010.06.27 13:26:56.
