data_PCOD8009338
_publ_section_title
;
Structure prediction by ZEFSAII (Michael W. Deem and Ramdas Pophale) SiO2 
 PCOD8009338
Probable space group: P -1
;
_chemical_formula_sum "Si O2"
_cell_formula_units_Z 14
_cell_length_a 7.898231
_cell_length_b 9.221150
_cell_length_c 14.573639
_cell_angle_alpha 78.250688
_cell_angle_beta 123.378258
_cell_angle_gamma 134.604508
_cell_volume 600.511732
_symmetry_space_group_name_H-M "P -1"
_symmetry_group_IT_number 2
_symmetry_cell_setting 'triclinic'
loop_
_space_group_symop_operation_xyz
x,y,z
-x,-y,-z
loop_
_atom_site_type_symbol
_atom_site_label
_atom_site_fract_x
_atom_site_fract_y
_atom_site_fract_z
Si Si1 0.170910 0.962316 0.291587
Si Si2 0.863995 0.636594 0.929406
Si Si3 0.700706 0.419264 0.449786
Si Si4 0.731926 0.757948 0.022733
Si Si5 0.695982 0.304675 0.661480
Si Si6 0.328098 0.289622 0.687130
Si Si7 0.810743 0.368545 0.100704
O O1 0.299628 0.864815 0.342053
O O2 0.976920 0.890777 0.154773
O O3 0.988371 0.903577 0.337036
O O4 0.443227 0.215940 0.336898
O O5 0.545036 0.440636 0.816405
O O6 0.111111 0.747892 0.909607
O O7 0.879623 0.809412 0.958727
O O8 0.926180 0.555870 0.041549
O O9 0.634157 0.364295 0.544049
O O10 0.706088 0.595559 0.409292
O O11 0.000000 0.500000 0.500000
O O12 0.500000 0.500000 0.000000
O O13 0.536680 0.804922 0.960164
O O14 0.444558 0.208749 0.674797
O O15 0.012819 0.521369 0.766264
#
# Coordination Sequence:
#
# PCOD8009338 Si02
#       7
#     2   2   2   2   2   2   2
#     4  12  23  43  68  98 124 175 217 258 323 382
#     4   9  16  30  59  93 123 158 201 251 317 375
#     4  12  28  45  64  93 135 168 219 272 314 376
#     4  10  16  31  62  92 125 155 204 256 312 376
#     4  11  22  42  70  93 127 173 215 260 322 379
#     4  11  23  43  68  94 130 170 210 269 322 376
#     4   9  16  29  61  95 117 159 206 252 313 374
#
# _framework density 23.313448000000001
#
# number of rings (size 3 to 8) (size 9 to 14) (size 15 to 20)
#    0.000    1.429    7.143    0.857    0.000    0.571 
#    2.571    0.714    0.000    1.714    0.000    0.000 
#    0.000    0.000    0.000    0.000    0.000    0.000 
#
# Total GULP energy -173579.801307 kJ/mol
# GULP energy per Si atom -12398.557236 kJ/mol
# Density = 2.326039 g / cm^3
# Si number density = 23.313448 Si / 1000 Ang^3
#
#
#
# Elastic Constant Matrix: (Units=GPa)
#
#
# Indices 1 2 3 4 5 6 
#
# 1 166.2122 24.8710 13.9949 13.0809 3.8001 29.8130
# 2 24.8710 37.5925 18.8470 8.3881 6.0747 16.4593
# 3 13.9949 18.8470 100.0028 15.8435 -0.3759 7.1092
# 4 13.0809 8.3881 15.8435 23.9745 4.1165 7.6060
# 5 3.8001 6.0747 -0.3759 4.1165 38.8534 -2.3191
# 6 29.8130 16.4593 7.1092 7.6060 -2.3191 21.2064
#
#
#
# Elastic Compliance Matrix: (Units=1/GPa)
#
#
# Indices 1 2 3 4 5 6 
#
# 1 0.008143 0.000086 -0.000284 -0.000410 -0.001452 -0.011431
# 2 0.000086 0.046713 -0.006451 0.000795 -0.009580 -0.035547
# 3 -0.000284 -0.006451 0.012122 -0.007306 0.002178 0.004200
# 4 -0.000410 0.000795 -0.007306 0.053181 -0.006829 -0.017413
# 5 -0.001452 -0.009580 0.002178 -0.006829 0.028980 0.014364
# 6 -0.011431 -0.035547 0.004200 -0.017413 0.014364 0.097224
#
#
# Mechanical properties :
#
#
# Convention : Reuss Voigt Hill
#
# Bulk Modulus (GPa) = 18.62849 46.58148 32.60498
# Shear Modulus (GPa) = 18.01448 33.21317 25.61382
#
# Velocity S-wave (km/s) = 2.78278 3.77853 3.31822
# Velocity P-wave (km/s) = 4.28170 6.24982 5.35692
#
# Compressibility (1/GPa) = 0.05368123
#
# Stress axis : x y z
#
# Youngs Moduli (GPa) = 122.79991 21.40739 82.49331
#
# Poissons Ratio (x) = -0.00184 0.02340
# Poissons Ratio (y) = -0.01053 0.53213
# Poissons Ratio (z) = 0.03483 0.13809
#
# Static dielectric constant tensor:
#      x y z
#    x 5.457610 0.188970 0.013000 
#    y 0.188970 3.768430 -0.031120 
#    z 0.013000 -0.031120 4.260390 
# 
# 
# High freq. dielectric constant tensor:
#      x y z
#    x 1.953080 0.011070 0.001450 
#    y 0.011070 1.875410 -0.000450 
#    z 0.001450 -0.000450 1.934690 
# 
# From -- ./inp_files/499121.got.cif
#   From: 2010.06.25/outbox.cif.g09.slc.cpg/sg2_250_cif.got.tgz:499121.got - 2010.06.27 13:26:56.
