data_PCOD8009697
_publ_section_title
;
Structure prediction by ZEFSAII (Michael W. Deem and Ramdas Pophale) SiO2 
 PCOD8009697
Probable space group: P -1
;
_chemical_formula_sum "Si O2"
_cell_formula_units_Z 16
_cell_length_a 19.521952
_cell_length_b 11.912254
_cell_length_c 8.747768
_cell_angle_alpha 84.457553
_cell_angle_beta 51.219600
_cell_angle_gamma 42.477953
_cell_volume 771.009035
_symmetry_space_group_name_H-M "P -1"
_symmetry_group_IT_number 2
_symmetry_cell_setting 'triclinic'
loop_
_space_group_symop_operation_xyz
x,y,z
-x,-y,-z
loop_
_atom_site_type_symbol
_atom_site_label
_atom_site_fract_x
_atom_site_fract_y
_atom_site_fract_z
Si Si1 0.054118 0.111000 0.403743
Si Si2 0.690197 0.861219 0.605622
Si Si3 0.559533 0.285720 0.204279
Si Si4 0.569356 0.048862 0.080090
Si Si5 0.943510 0.664058 0.770697
Si Si6 0.254896 0.011909 0.729132
Si Si7 0.026697 0.959876 0.222340
Si Si8 0.754909 0.220301 0.318921
O O1 0.989038 0.312261 0.441898
O O2 0.992142 0.141048 0.655754
O O3 0.967653 0.122387 0.401891
O O4 0.268512 0.863160 0.111039
O O5 0.579414 0.880131 0.688259
O O6 0.675277 0.969979 0.481195
O O7 0.897364 0.603411 0.396267
O O8 0.600813 0.013712 0.859953
O O9 0.480276 0.269221 0.219509
O O10 0.435729 0.532263 0.374612
O O11 0.594300 0.194743 0.334606
O O12 0.757793 0.817937 0.941904
O O13 0.913045 0.753655 0.968266
O O14 0.206851 0.956192 0.702904
O O15 0.221762 0.761801 0.893525
O O16 0.892940 0.127677 0.248048
#
# Coordination Sequence:
#
# PCOD8009697 Si02
#       8
#     2   2   2   2   2   2   2   2
#     4   9  20  40  57  90 123 159 201 253 303 374
#     4  11  22  41  66  89 122 163 210 260 303 364
#     4  10  22  41  63  82 130 163 196 256 315 362
#     4   9  23  42  59  93 122 156 212 261 295 374
#     4  10  21  41  66  86 127 165 198 258 318 359
#     4  10  22  39  61  91 124 158 206 252 302 374
#     4  10  21  37  59  89 127 154 209 247 299 375
#     4  11  22  38  61  93 124 161 200 253 304 372
#
# _framework density 20.752026999999998
#
# number of rings (size 3 to 8) (size 9 to 14) (size 15 to 20)
#    0.000    2.250    2.500    1.125    5.250    2.500 
#    4.500    1.250    0.000    0.000    0.000    0.000 
#    0.000    0.000    0.000    0.000    0.000    0.000 
#
# Total GULP energy -198244.018310 kJ/mol
# GULP energy per Si atom -12390.251144 kJ/mol
# Density = 2.070479 g / cm^3
# Si number density = 20.752027 Si / 1000 Ang^3
#
#
#
# Elastic Constant Matrix: (Units=GPa)
#
#
# Indices 1 2 3 4 5 6 
#
# 1 90.7307 22.2883 26.5965 -6.9501 -1.7043 4.5837
# 2 22.2883 67.2728 42.0567 -21.5826 -4.0406 10.2533
# 3 26.5965 42.0567 73.6268 -17.9897 2.1883 15.4208
# 4 -6.9501 -21.5826 -17.9897 34.5949 5.7587 -3.7628
# 5 -1.7043 -4.0406 2.1883 5.7587 29.1300 -0.4357
# 6 4.5837 10.2533 15.4208 -3.7628 -0.4357 21.6956
#
#
#
# Elastic Compliance Matrix: (Units=1/GPa)
#
#
# Indices 1 2 3 4 5 6 
#
# 1 0.012552 -0.002195 -0.003692 -0.000818 0.000882 0.000885
# 2 -0.002195 0.026286 -0.011599 0.009283 0.002523 -0.002054
# 3 -0.003692 -0.011599 0.025107 0.004696 -0.004802 -0.010866
# 4 -0.000818 0.009283 0.004696 0.037959 -0.006634 -0.001102
# 5 0.000882 0.002523 -0.004802 -0.006634 0.036427 0.001615
# 6 0.000885 -0.002054 -0.010866 -0.001102 0.001615 0.054441
#
#
# Mechanical properties :
#
#
# Convention : Reuss Voigt Hill
#
# Bulk Modulus (GPa) = 34.51382 45.94592 40.22987
# Shear Modulus (GPa) = 21.06139 26.46334 23.76236
#
# Velocity S-wave (km/s) = 3.18922 3.57489 3.38755
# Velocity P-wave (km/s) = 5.49810 6.26325 5.89311
#
# Compressibility (1/GPa) = 0.02897390
#
# Stress axis : x y z
#
# Youngs Moduli (GPa) = 79.66669 38.04304 39.82983
#
# Poissons Ratio (x) = 0.08350 0.14706
# Poissons Ratio (y) = 0.17487 0.46197
# Poissons Ratio (z) = 0.29414 0.44124
#
# Static dielectric constant tensor:
#      x y z
#    x 4.008400 0.094730 0.136320 
#    y 0.094730 3.533890 -0.082700 
#    z 0.136320 -0.082700 3.890900 
# 
# 
# High freq. dielectric constant tensor:
#      x y z
#    x 1.827240 0.005310 0.009180 
#    y 0.005310 1.786430 -0.013870 
#    z 0.009180 -0.013870 1.805960 
# 
# From -- ./inp_files/213621.got.cif
#   From: 2010.06.25/outbox.cif.g09.slc.cpg/sg2_107_cif.got.tgz:213621.got - 2010.06.27 13:26:56.
