data_PCOD8009115
_publ_section_title
;
Structure prediction by ZEFSAII (Michael W. Deem and Ramdas Pophale) SiO2 
 PCOD8009115
Probable space group: P -1
;
_chemical_formula_sum "Si O2"
_cell_formula_units_Z 16
_cell_length_a 16.155509
_cell_length_b 14.736992
_cell_length_c 8.797688
_cell_angle_alpha 38.173172
_cell_angle_beta 61.887045
_cell_angle_gamma 40.675411
_cell_volume 802.084717
_symmetry_space_group_name_H-M "P -1"
_symmetry_group_IT_number 2
_symmetry_cell_setting 'triclinic'
loop_
_space_group_symop_operation_xyz
x,y,z
-x,-y,-z
loop_
_atom_site_type_symbol
_atom_site_label
_atom_site_fract_x
_atom_site_fract_y
_atom_site_fract_z
Si Si1 0.198423 0.953296 0.087922
Si Si2 0.598489 0.441529 0.773460
Si Si3 0.683980 0.325333 0.188490
Si Si4 0.984630 0.316365 0.575384
Si Si5 0.894653 0.851117 0.628102
Si Si6 0.190334 0.239265 0.908324
Si Si7 0.838145 0.287586 0.357478
Si Si8 0.285232 0.428293 0.648976
O O1 0.250027 0.039963 0.020248
O O2 0.062507 0.149942 0.861525
O O3 0.310573 0.778904 0.101551
O O4 0.166114 0.864988 0.353987
O O5 0.449769 0.543848 0.767902
O O6 0.596823 0.600485 0.478914
O O7 0.650764 0.418710 0.926633
O O8 0.780460 0.335213 0.174413
O O9 0.754383 0.090490 0.426677
O O10 0.927583 0.542719 0.368858
O O11 0.855322 0.359524 0.587906
O O12 0.074847 0.236233 0.452752
O O13 0.009771 0.827299 0.630449
O O14 0.874473 0.736548 0.907710
O O15 0.307469 0.229650 0.857997
O O16 0.739906 0.513982 0.226621
#
# Coordination Sequence:
#
# PCOD8009115 Si02
#       8
#     2   2   2   2   2   2   2   2
#     4  11  20  36  58  88 113 155 186 237 281 336
#     4  10  23  40  61  80 115 150 198 232 280 332
#     4  11  22  39  61  84 111 154 190 240 282 331
#     4   9  20  34  58  82 123 146 187 228 287 336
#     4  11  20  37  58  89 118 147 186 238 283 340
#     4  10  21  36  56  87 119 151 184 228 295 335
#     4  10  22  35  61  89 113 142 194 238 290 324
#     4   8  21  37  56  85 114 149 186 232 280 336
#
# _framework density 19.948015999999999
#
# number of rings (size 3 to 8) (size 9 to 14) (size 15 to 20)
#    0.750    1.250    2.500    1.125    1.750    3.500 
#    0.000    0.625    0.000    1.500    0.000    0.000 
#    0.000    0.000    0.000    0.000    0.000    0.000 
#
# Total GULP energy -198286.564159 kJ/mol
# GULP energy per Si atom -12392.910260 kJ/mol
# Density = 1.990261 g / cm^3
# Si number density = 19.948016 Si / 1000 Ang^3
#
#
#
# Elastic Constant Matrix: (Units=GPa)
#
#
# Indices 1 2 3 4 5 6 
#
# 1 60.3673 19.9468 21.8609 -1.2450 -12.7243 16.9505
# 2 19.9468 74.1508 9.6918 5.6680 -16.5255 2.6305
# 3 21.8609 9.6918 39.6871 0.1040 -11.8164 1.8988
# 4 -1.2450 5.6680 0.1040 19.7767 6.8637 -2.4080
# 5 -12.7243 -16.5255 -11.8164 6.8637 29.1499 -5.7896
# 6 16.9505 2.6305 1.8988 -2.4080 -5.7896 30.6648
#
#
#
# Elastic Compliance Matrix: (Units=1/GPa)
#
#
# Indices 1 2 3 4 5 6 
#
# 1 0.026716 -0.004992 -0.012637 0.001294 0.000760 -0.013312
# 2 -0.004992 0.017687 0.001645 -0.008944 0.011125 0.002538
# 3 -0.012637 0.001645 0.035048 -0.004839 0.012068 0.006572
# 4 0.001294 -0.008944 -0.004839 0.060488 -0.020464 0.001238
# 5 0.000760 0.011125 0.012068 -0.020464 0.051859 0.006062
# 6 -0.013312 0.002538 0.006572 0.001238 0.006062 0.040586
#
#
# Mechanical properties :
#
#
# Convention : Reuss Voigt Hill
#
# Bulk Modulus (GPa) = 21.06067 30.80047 25.93057
# Shear Modulus (GPa) = 17.84580 24.09867 20.97223
#
# Velocity S-wave (km/s) = 2.99426 3.47951 3.24596
# Velocity P-wave (km/s) = 4.74708 5.62285 5.20343
#
# Compressibility (1/GPa) = 0.04748187
#
# Stress axis : x y z
#
# Youngs Moduli (GPa) = 37.43119 56.53928 28.53257
#
# Poissons Ratio (x) = 0.28225 0.36056
# Poissons Ratio (y) = 0.18686 -0.04693
# Poissons Ratio (z) = 0.47301 -0.09300
#
# Static dielectric constant tensor:
#      x y z
#    x 3.516950 0.160480 -0.015490 
#    y 0.160480 3.599140 0.034430 
#    z -0.015490 0.034430 3.409740 
# 
# 
# High freq. dielectric constant tensor:
#      x y z
#    x 1.766980 0.014060 -0.003060 
#    y 0.014060 1.779490 0.006630 
#    z -0.003060 0.006630 1.761700 
# 
# From -- ./inp_files/334632.got.cif
#   From: 2010.06.25/outbox.cif.g09.slc.cpg/sg2_168_cif.got.tgz:334632.got - 2010.06.27 13:26:56.
