data_PCOD8009826
_publ_section_title
;
Structure prediction by ZEFSAII (Michael W. Deem and Ramdas Pophale) SiO2 
 PCOD8009826
Probable space group: P -1
;
_chemical_formula_sum "Si O2"
_cell_formula_units_Z 14
_cell_length_a 12.541640
_cell_length_b 9.172842
_cell_length_c 9.911070
_cell_angle_alpha 54.868643
_cell_angle_beta 59.975480
_cell_angle_gamma 42.620329
_cell_volume 625.303383
_symmetry_space_group_name_H-M "P -1"
_symmetry_group_IT_number 2
_symmetry_cell_setting 'triclinic'
loop_
_space_group_symop_operation_xyz
x,y,z
-x,-y,-z
loop_
_atom_site_type_symbol
_atom_site_label
_atom_site_fract_x
_atom_site_fract_y
_atom_site_fract_z
Si Si1 0.285335 0.356300 0.583940
Si Si2 0.882134 0.769133 0.398804
Si Si3 0.341110 0.408380 0.043390
Si Si4 0.173897 0.720033 0.226063
Si Si5 0.172272 0.416896 0.904817
Si Si6 0.669967 0.091364 0.878024
Si Si7 0.364935 0.989060 0.352301
O O1 0.239238 0.194390 0.657409
O O2 0.241716 0.532944 0.400664
O O3 0.184718 0.496985 0.707630
O O4 0.472346 0.200579 0.572652
O O5 0.000000 0.500000 0.500000
O O6 0.990817 0.835937 0.245607
O O7 0.783535 0.928981 0.504186
O O8 0.278164 0.608648 0.083832
O O9 0.348688 0.211860 0.215560
O O10 0.219483 0.514170 0.938017
O O11 0.512681 0.310457 0.932843
O O12 0.184217 0.914343 0.167795
O O13 0.000000 0.500000 0.000000
O O14 0.300241 0.138426 0.972255
O O15 0.645563 0.119979 0.717389
#
# Coordination Sequence:
#
# PCOD8009826 Si02
#       7
#     2   2   2   2   2   2   2
#     4  11  21  40  66  94 118 161 225 251 293 374
#     4  10  21  37  61  92 126 161 207 256 308 364
#     4  11  20  44  64  90 127 172 206 247 314 383
#     4  11  25  40  65  94 131 162 202 261 323 359
#     4  11  23  40  68  91 123 166 217 253 301 375
#     4  11  24  42  63  93 132 165 200 257 326 367
#     4  11  20  39  66  92 119 167 214 252 299 375
#
# _framework density 22.389133000000001
#
# number of rings (size 3 to 8) (size 9 to 14) (size 15 to 20)
#    0.000    1.143    5.714    2.571    6.000    1.143 
#    0.000    2.857    0.000    0.000    0.000    0.000 
#    0.000    0.000    0.000    0.000    0.000    0.000 
#
# Total GULP energy -173624.367510 kJ/mol
# GULP energy per Si atom -12401.740536 kJ/mol
# Density = 2.233817 g / cm^3
# Si number density = 22.389133 Si / 1000 Ang^3
#
#
#
# Elastic Constant Matrix: (Units=GPa)
#
#
# Indices 1 2 3 4 5 6 
#
# 1 115.5190 26.6591 19.6950 13.6439 5.7667 8.4913
# 2 26.6591 54.6902 29.1073 34.8211 3.9647 -6.9146
# 3 19.6950 29.1073 86.9062 38.2797 18.7044 1.2640
# 4 13.6439 34.8211 38.2797 35.6275 -1.8999 -10.0575
# 5 5.7667 3.9647 18.7044 -1.8999 34.2490 9.9349
# 6 8.4913 -6.9146 1.2640 -10.0575 9.9349 38.4909
#
#
#
# Elastic Compliance Matrix: (Units=1/GPa)
#
#
# Indices 1 2 3 4 5 6 
#
# 1 0.010314 -0.007850 -0.002668 0.005982 0.001677 -0.002468
# 2 -0.007850 0.072491 0.027212 -0.100044 -0.025854 -0.005607
# 3 -0.002668 0.027212 0.041522 -0.073952 -0.027096 -0.008216
# 4 0.005982 -0.100044 -0.073952 0.212867 0.055697 0.024382
# 5 0.001677 -0.025854 -0.027096 0.055697 0.050556 -0.002620
# 6 -0.002468 -0.005607 -0.008216 0.024382 -0.002620 0.032834
#
#
# Mechanical properties :
#
#
# Convention : Reuss Voigt Hill
#
# Bulk Modulus (GPa) = 6.34050 45.33757 25.83904
# Shear Modulus (GPa) = 11.36961 33.78377 22.57669
#
# Velocity S-wave (km/s) = 2.25593 3.88872 3.17894
# Velocity P-wave (km/s) = 3.10221 6.36055 5.00401
#
# Compressibility (1/GPa) = 0.15771626
#
# Stress axis : x y z
#
# Youngs Moduli (GPa) = 96.95359 13.79477 24.08343
#
# Poissons Ratio (x) = 0.10829 0.06426
# Poissons Ratio (y) = 0.76107 -0.65536
# Poissons Ratio (z) = 0.25868 -0.37538
#
# Static dielectric constant tensor:
#      x y z
#    x 4.578850 -0.081650 0.139090 
#    y -0.081650 3.771800 0.352870 
#    z 0.139090 0.352870 4.015360 
# 
# 
# High freq. dielectric constant tensor:
#      x y z
#    x 1.898690 -0.009200 0.010080 
#    y -0.009200 1.856840 0.032660 
#    z 0.010080 0.032660 1.876770 
# 
# From -- ./inp_files/156877.got.cif
#   From: 2010.06.25/outbox.cif.g09.slc.cpg/sg2_79_cif.got.tgz:156877.got - 2010.06.27 13:26:56.
