data_PCOD8009523
_publ_section_title
;
Structure prediction by ZEFSAII (Michael W. Deem and Ramdas Pophale) SiO2 
 PCOD8009523
Probable space group: P -1
;
_chemical_formula_sum "Si O2"
_cell_formula_units_Z 14
_cell_length_a 13.377048
_cell_length_b 12.423968
_cell_length_c 9.682056
_cell_angle_alpha 126.131563
_cell_angle_beta 146.871825
_cell_angle_gamma 63.856457
_cell_volume 705.092976
_symmetry_space_group_name_H-M "P -1"
_symmetry_group_IT_number 2
_symmetry_cell_setting 'triclinic'
loop_
_space_group_symop_operation_xyz
x,y,z
-x,-y,-z
loop_
_atom_site_type_symbol
_atom_site_label
_atom_site_fract_x
_atom_site_fract_y
_atom_site_fract_z
Si Si1 0.818395 0.812048 0.152816
Si Si2 0.652367 0.140392 0.012928
Si Si3 0.527641 0.326009 0.793398
Si Si4 0.203060 0.452837 0.597202
Si Si5 0.490071 0.843720 0.619279
Si Si6 0.990532 0.681149 0.483319
Si Si7 0.214348 0.891452 0.569489
O O1 0.830625 0.702052 0.204395
O O2 0.004846 0.819613 0.281714
O O3 0.791738 0.950762 0.301843
O O4 0.639847 0.768570 0.819231
O O5 0.654549 0.158428 0.195633
O O6 0.862965 0.184077 0.239953
O O7 0.520423 0.234264 0.854672
O O8 0.589674 0.985752 0.786155
O O9 0.327973 0.376602 0.581374
O O10 0.580414 0.244899 0.660141
O O11 0.677148 0.454970 0.081568
O O12 0.079347 0.340803 0.457874
O O13 0.084850 0.549104 0.445159
O O14 0.308048 0.860831 0.510420
#
# Coordination Sequence:
#
# PCOD8009523 Si02
#       7
#     2   2   2   2   2   2   2
#     4   9  18  35  57  83 113 146 182 221 276 342
#     4   9  18  35  58  83 109 144 178 221 279 341
#     4  10  21  37  56  79 115 142 189 228 273 325
#     4   9  20  38  58  74 103 158 194 221 264 329
#     4  11  21  35  55  93 116 139 173 237 285 330
#     4   9  18  36  61  77 101 147 199 223 261 328
#     4   9  19  34  58  84 116 146 180 213 284 344
#
# _framework density 19.855537000000002
#
# number of rings (size 3 to 8) (size 9 to 14) (size 15 to 20)
#    0.000    2.571    0.000    3.000    4.000    0.000 
#    7.714    2.143    0.000    0.000    0.000    0.000 
#    0.000    0.000    0.000    0.000    0.000    0.000 
#
# Total GULP energy -173531.987041 kJ/mol
# GULP energy per Si atom -12395.141931 kJ/mol
# Density = 1.981035 g / cm^3
# Si number density = 19.855537 Si / 1000 Ang^3
#
#
#
# Elastic Constant Matrix: (Units=GPa)
#
#
# Indices 1 2 3 4 5 6 
#
# 1 114.0926 49.3056 26.2496 4.9834 -2.9848 -11.1644
# 2 49.3056 92.2641 22.5359 -21.7907 -3.3875 5.6525
# 3 26.2496 22.5359 36.0977 -3.7422 -2.1271 -5.7826
# 4 4.9834 -21.7907 -3.7422 36.2973 -2.4340 3.2879
# 5 -2.9848 -3.3875 -2.1271 -2.4340 21.3660 0.4592
# 6 -11.1644 5.6525 -5.7826 3.2879 0.4592 27.8101
#
#
#
# Elastic Compliance Matrix: (Units=1/GPa)
#
#
# Indices 1 2 3 4 5 6 
#
# 1 0.015220 -0.009702 -0.004716 -0.009218 -0.001108 0.008209
# 2 -0.009702 0.022128 -0.006850 0.015199 0.003453 -0.011671
# 3 -0.004716 -0.006850 0.036627 -0.000217 0.001724 0.007112
# 4 -0.009218 0.015199 -0.000217 0.039358 0.005833 -0.011585
# 5 -0.001108 0.003453 0.001724 0.005833 0.048081 -0.002272
# 6 0.008209 -0.011671 0.007112 -0.011585 -0.002272 0.044512
#
#
# Mechanical properties :
#
#
# Convention : Reuss Voigt Hill
#
# Bulk Modulus (GPa) = 31.80852 48.73741 40.27297
# Shear Modulus (GPa) = 19.30944 26.71890 23.01417
#
# Velocity S-wave (km/s) = 3.12187 3.67231 3.40822
# Velocity P-wave (km/s) = 5.38976 6.52537 5.98456
#
# Compressibility (1/GPa) = 0.03143812
#
# Stress axis : x y z
#
# Youngs Moduli (GPa) = 65.70427 45.19229 27.30245
#
# Poissons Ratio (x) = 0.43846 0.12877
# Poissons Ratio (y) = 0.63748 0.18701
# Poissons Ratio (z) = 0.30988 0.30955
#
# Static dielectric constant tensor:
#      x y z
#    x 3.411580 0.117890 0.229870 
#    y 0.117890 3.822720 -0.269740 
#    z 0.229870 -0.269740 3.445250 
# 
# 
# High freq. dielectric constant tensor:
#      x y z
#    x 1.757860 0.010270 0.024170 
#    y 0.010270 1.780350 -0.019240 
#    z 0.024170 -0.019240 1.748690 
# 
# From -- ./inp_files/251292.got.cif
#   From: 2010.06.25/outbox.cif.g09.slc.cpg/sg2_126_cif.got.tgz:251292.got - 2010.06.27 13:26:56.
