data_PCOD8009614
_publ_section_title
;
Structure prediction by ZEFSAII (Michael W. Deem and Ramdas Pophale) SiO2 
 PCOD8009614
Probable space group: P -1
;
_chemical_formula_sum "Si O2"
_cell_formula_units_Z 14
_cell_length_a 14.832246
_cell_length_b 7.730658
_cell_length_c 6.991632
_cell_angle_alpha 77.595141
_cell_angle_beta 97.482229
_cell_angle_gamma 63.350296
_cell_volume 675.803343
_symmetry_space_group_name_H-M "P -1"
_symmetry_group_IT_number 2
_symmetry_cell_setting 'triclinic'
loop_
_space_group_symop_operation_xyz
x,y,z
-x,-y,-z
loop_
_atom_site_type_symbol
_atom_site_label
_atom_site_fract_x
_atom_site_fract_y
_atom_site_fract_z
Si Si1 0.507133 0.743522 0.753895
Si Si2 0.005729 0.454478 0.786875
Si Si3 0.169155 0.262287 0.582394
Si Si4 0.831567 0.125958 0.396689
Si Si5 0.023513 0.914576 0.236263
Si Si6 0.385089 0.206580 0.592379
Si Si7 0.614244 0.485915 0.210574
O O1 0.582338 0.763633 0.616030
O O2 0.433618 0.651983 0.687725
O O3 0.433399 0.977113 0.741793
O O4 0.579460 0.581580 0.969547
O O5 0.123673 0.362355 0.756419
O O6 0.034662 0.694341 0.268586
O O7 0.925374 0.664455 0.614319
O O8 0.000000 0.500000 0.000000
O O9 0.259482 0.311579 0.537170
O O10 0.214941 0.020214 0.641922
O O11 0.870290 0.109666 0.632968
O O12 0.739467 0.353486 0.278950
O O13 0.928230 0.078537 0.297996
O O14 0.000000 0.000000 0.000000
O O15 0.426706 0.321030 0.710663
#
# Coordination Sequence:
#
# PCOD8009614 Si02
#       7
#     2   2   2   2   2   2   2
#     4  10  24  42  62  93 126 160 215 257 306 376
#     4  10  21  37  58  87 121 158 204 252 304 374
#     4  10  21  38  59  86 122 161 203 254 311 363
#     4  10  21  38  59  86 122 162 201 255 311 364
#     4  10  21  37  58  87 121 158 203 254 305 371
#     4  11  22  41  65  91 123 166 206 258 315 366
#     4  11  22  41  65  90 125 165 204 261 314 366
#
# _framework density 20.716085
#
# number of rings (size 3 to 8) (size 9 to 14) (size 15 to 20)
#    0.000    1.714    1.429    2.571    0.000    6.857 
#    0.000    0.000    0.000    0.000    0.000    0.000 
#    0.000    0.000    0.000    0.000    0.000    0.000 
#
# Total GULP energy -173481.761285 kJ/mol
# GULP energy per Si atom -12391.554377 kJ/mol
# Density = 2.066893 g / cm^3
# Si number density = 20.716085 Si / 1000 Ang^3
#
#
#
# Elastic Constant Matrix: (Units=GPa)
#
#
# Indices 1 2 3 4 5 6 
#
# 1 100.4764 55.4702 39.8230 -0.2636 0.0181 -1.7325
# 2 55.4702 116.1848 39.5029 4.8199 2.3101 4.3044
# 3 39.8230 39.5029 115.5247 6.8668 0.6488 -8.6762
# 4 -0.2636 4.8199 6.8668 36.1126 3.7260 -2.0878
# 5 0.0181 2.3101 0.6488 3.7260 28.2671 -1.8082
# 6 -1.7325 4.3044 -8.6762 -2.0878 -1.8082 25.7919
#
#
#
# Elastic Compliance Matrix: (Units=1/GPa)
#
#
# Indices 1 2 3 4 5 6 
#
# 1 0.014462 -0.006020 -0.002932 0.001488 0.000427 0.001140
# 2 -0.006020 0.012492 -0.002370 -0.001357 -0.001005 -0.003467
# 3 -0.002932 -0.002370 0.010851 -0.001593 0.000396 0.003748
# 4 0.001488 -0.001357 -0.001593 0.028656 -0.003512 0.001864
# 5 0.000427 -0.001005 0.000396 -0.003512 0.036077 0.002575
# 6 0.001140 -0.003467 0.003748 0.001864 0.002575 0.041019
#
#
# Mechanical properties :
#
#
# Convention : Reuss Voigt Hill
#
# Bulk Modulus (GPa) = 65.96239 66.86425 66.41332
# Shear Modulus (GPa) = 29.19624 31.19363 30.19494
#
# Velocity S-wave (km/s) = 3.75821 3.88463 3.82194
# Velocity P-wave (km/s) = 7.12337 7.24342 7.18364
#
# Compressibility (1/GPa) = 0.01516015
#
# Stress axis : x y z
#
# Youngs Moduli (GPa) = 69.14866 80.05249 92.15547
#
# Poissons Ratio (x) = 0.48192 0.27018
# Poissons Ratio (y) = 0.41628 0.21844
# Poissons Ratio (z) = 0.20273 0.18975
#
# Static dielectric constant tensor:
#      x y z
#    x 3.508250 -0.091260 0.061390 
#    y -0.091260 3.739930 0.113080 
#    z 0.061390 0.113080 3.588810 
# 
# 
# High freq. dielectric constant tensor:
#      x y z
#    x 1.807760 0.007940 0.000160 
#    y 0.007940 1.831020 -0.004860 
#    z 0.000160 -0.004860 1.797220 
# 
# From -- ./inp_files/89838.got.cif
#   From: 2010.06.25/outbox.cif.g09.slc.cpg/sg2_45_cif.got.tgz:89838.got - 2010.06.27 13:26:56.
