data_PCOD8009310
_publ_section_title
;
Structure prediction by ZEFSAII (Michael W. Deem and Ramdas Pophale) SiO2 
 PCOD8009310
Probable space group: P -1
;
_chemical_formula_sum "Si O2"
_cell_formula_units_Z 12
_cell_length_a 8.876368
_cell_length_b 25.234015
_cell_length_c 11.564015
_cell_angle_alpha 151.077915
_cell_angle_beta 41.294799
_cell_angle_gamma 150.115627
_cell_volume 623.832998
_symmetry_space_group_name_H-M "P -1"
_symmetry_group_IT_number 2
_symmetry_cell_setting 'triclinic'
loop_
_space_group_symop_operation_xyz
x,y,z
-x,-y,-z
loop_
_atom_site_type_symbol
_atom_site_label
_atom_site_fract_x
_atom_site_fract_y
_atom_site_fract_z
Si Si1 0.705085 0.303143 0.473407
Si Si2 0.825344 0.647534 0.855191
Si Si3 0.323684 0.847464 0.370570
Si Si4 0.675562 0.847155 0.372757
Si Si5 0.956142 0.613062 0.961276
Si Si6 0.338996 0.336786 0.598978
O O1 0.513252 0.193450 0.479222
O O2 0.900624 0.466517 0.719332
O O3 0.489021 0.270649 0.428468
O O4 0.933217 0.281916 0.253839
O O5 0.000120 0.666987 0.907983
O O6 0.557565 0.474921 0.651349
O O7 0.691572 0.726262 0.094581
O O8 0.519794 0.863585 0.391588
O O9 0.998331 0.788099 0.496127
O O10 0.500000 0.000000 0.500000
O O11 0.258784 0.734554 0.094232
O O12 0.000000 0.000000 0.500000
O O13 0.678606 0.593437 0.141403
#
# Coordination Sequence:
#
# PCOD8009310 Si02
#       6
#     2   2   2   2   2   2
#     4  11  20  36  62  90 116 150 188 234 285 340
#     4  11  20  36  62  90 116 150 188 234 285 340
#     4  10  21  36  61  83 109 159 195 232 289 338
#     4  12  23  40  59  81 119 151 193 240 285 344
#     4   9  17  35  61  85 115 149 190 225 282 332
#     4   9  17  35  61  85 115 149 190 225 282 332
#
# _framework density 19.235918000000002
#
# number of rings (size 3 to 8) (size 9 to 14) (size 15 to 20)
#    1.000    0.667    3.333    5.000    0.000    3.333 
#    0.000    5.000    0.000    7.000    0.000    0.000 
#    0.000    0.000    0.000    0.000    0.000    0.000 
#
# Total GULP energy -148713.327563 kJ/mol
# GULP energy per Si atom -12392.777297 kJ/mol
# Density = 1.919214 g / cm^3
# Si number density = 19.235918 Si / 1000 Ang^3
#
#
#
# Elastic Constant Matrix: (Units=GPa)
#
#
# Indices 1 2 3 4 5 6 
#
# 1 117.8495 66.0639 14.4854 19.0408 -8.5941 8.9016
# 2 66.0639 152.3267 38.8017 -5.5702 -4.0259 -4.6445
# 3 14.4854 38.8017 23.3542 -8.3469 -6.2046 -2.9431
# 4 19.0408 -5.5702 -8.3469 39.8209 1.6889 3.1135
# 5 -8.5941 -4.0259 -6.2046 1.6889 15.3547 8.3157
# 6 8.9016 -4.6445 -2.9431 3.1135 8.3157 31.8098
#
#
#
# Elastic Compliance Matrix: (Units=1/GPa)
#
#
# Indices 1 2 3 4 5 6 
#
# 1 0.014974 -0.007304 0.002470 -0.007601 0.012372 -0.007519
# 2 -0.007304 0.015686 -0.023931 0.000788 -0.012626 0.005344
# 3 0.002470 -0.023931 0.094718 0.014307 0.035049 -0.005985
# 4 -0.007601 0.000788 0.014307 0.031873 -0.002346 0.001059
# 5 0.012372 -0.012626 0.035049 -0.002346 0.098034 -0.027461
# 6 -0.007519 0.005344 -0.005985 0.001059 -0.027461 0.040843
#
#
# Mechanical properties :
#
#
# Convention : Reuss Voigt Hill
#
# Bulk Modulus (GPa) = 14.73874 59.13693 36.93784
# Shear Modulus (GPa) = 13.28813 29.00905 21.14859
#
# Velocity S-wave (km/s) = 2.63116 3.88760 3.31937
# Velocity P-wave (km/s) = 4.11210 7.13869 5.82539
#
# Compressibility (1/GPa) = 0.06784839
#
# Stress axis : x y z
#
# Youngs Moduli (GPa) = 66.78099 63.74946 10.55761
#
# Poissons Ratio (x) = 0.46560 -0.02607
# Poissons Ratio (y) = 0.48774 0.25266
# Poissons Ratio (z) = -0.16492 1.52561
#
# Static dielectric constant tensor:
#      x y z
#    x 3.347790 0.039490 -0.023480 
#    y 0.039490 3.604500 0.010050 
#    z -0.023480 0.010050 3.304920 
# 
# 
# High freq. dielectric constant tensor:
#      x y z
#    x 1.730680 0.005310 -0.002590 
#    y 0.005310 1.756770 0.002500 
#    z -0.002590 0.002500 1.724920 
# 
# From -- ./inp_files/252699.got.cif
#   From: 2010.06.25/outbox.cif.g09.slc.cpg/sg2_127_cif.got.tgz:252699.got - 2010.06.27 13:26:56.
