data_PCOD8009400
_publ_section_title
;
Structure prediction by ZEFSAII (Michael W. Deem and Ramdas Pophale) SiO2 
 PCOD8009400
Probable space group: P -1
;
_chemical_formula_sum "Si O2"
_cell_formula_units_Z 14
_cell_length_a 7.789081
_cell_length_b 18.051765
_cell_length_c 5.236742
_cell_angle_alpha 116.968854
_cell_angle_beta 85.368958
_cell_angle_gamma 89.841162
_cell_volume 653.462519
_symmetry_space_group_name_H-M "P -1"
_symmetry_group_IT_number 2
_symmetry_cell_setting 'triclinic'
loop_
_space_group_symop_operation_xyz
x,y,z
-x,-y,-z
loop_
_atom_site_type_symbol
_atom_site_label
_atom_site_fract_x
_atom_site_fract_y
_atom_site_fract_z
Si Si1 0.685689 0.157873 0.908887
Si Si2 0.151047 0.274047 0.455118
Si Si3 0.611883 0.482977 0.709335
Si Si4 0.157592 0.367379 0.110731
Si Si5 0.355748 0.110338 0.103227
Si Si6 0.175299 0.675124 0.687421
Si Si7 0.312030 0.930599 0.736779
O O1 0.757739 0.115493 0.575436
O O2 0.478187 0.150560 0.937087
O O3 0.729745 0.254286 0.057754
O O4 0.774664 0.109275 0.064154
O O5 0.240139 0.319962 0.275467
O O6 0.207391 0.177019 0.308370
O O7 0.943343 0.283060 0.458625
O O8 0.212370 0.315924 0.772410
O O9 0.500000 0.500000 0.500000
O O10 0.775380 0.540693 0.779080
O O11 0.683034 0.387708 0.553301
O O12 0.500000 0.500000 0.000000
O O13 0.948588 0.373127 0.176057
O O14 0.477928 0.082763 0.287241
O O15 0.264509 0.029184 0.878207
#
# Coordination Sequence:
#
# PCOD8009400 Si02
#       7
#     2   2   2   2   2   2   2
#     4  10  21  36  63  89 123 162 211 258 299 364
#     4  10  24  39  67  88 126 169 207 245 320 366
#     4  12  28  43  70  96 123 159 214 258 307 369
#     4  10  25  44  64  90 130 165 200 255 317 374
#     4   9  21  37  63  89 125 163 213 254 305 360
#     4  10  27  42  65  92 131 163 205 255 317 371
#     4   9  21  34  62  90 126 160 211 259 305 349
#
# _framework density 21.424334000000002
#
# number of rings (size 3 to 8) (size 9 to 14) (size 15 to 20)
#    1.714    0.286    0.000    1.714   10.000    0.571 
#    0.000    1.429    0.000    0.000    0.000    0.000 
#    0.000    0.000    0.000    0.000    0.000    0.000 
#
# Total GULP energy -173496.742295 kJ/mol
# GULP energy per Si atom -12392.624450 kJ/mol
# Density = 2.137557 g / cm^3
# Si number density = 21.424334 Si / 1000 Ang^3
#
#
#
# Elastic Constant Matrix: (Units=GPa)
#
#
# Indices 1 2 3 4 5 6 
#
# 1 54.5827 41.3923 40.9680 11.9131 -4.8672 -2.2970
# 2 41.3923 97.3852 80.1360 14.6715 -0.5821 9.1376
# 3 40.9680 80.1360 195.0000 7.4815 9.1058 0.7568
# 4 11.9131 14.6715 7.4815 53.5035 -2.0592 2.2336
# 5 -4.8672 -0.5821 9.1058 -2.0592 19.7457 9.7360
# 6 -2.2970 9.1376 0.7568 2.2336 9.7360 34.7151
#
#
#
# Elastic Compliance Matrix: (Units=1/GPa)
#
#
# Indices 1 2 3 4 5 6 
#
# 1 0.029173 -0.010604 -0.001930 -0.003236 0.005779 0.003351
# 2 -0.010604 0.021214 -0.006589 -0.002063 0.004407 -0.007245
# 3 -0.001930 -0.006589 0.008484 0.000690 -0.006022 0.003066
# 4 -0.003236 -0.002063 0.000690 0.020001 0.001612 -0.001425
# 5 0.005779 0.004407 -0.006022 0.001612 0.064422 -0.018818
# 6 0.003351 -0.007245 0.003066 -0.001425 -0.018818 0.036237
#
#
# Mechanical properties :
#
#
# Convention : Reuss Voigt Hill
#
# Bulk Modulus (GPa) = 48.48208 74.66229 61.57219
# Shear Modulus (GPa) = 22.25647 33.89096 28.07372
#
# Velocity S-wave (km/s) = 3.22660 3.98161 3.62382
# Velocity P-wave (km/s) = 6.04647 7.48750 6.80524
#
# Compressibility (1/GPa) = 0.02062618
#
# Stress axis : x y z
#
# Youngs Moduli (GPa) = 34.27772 47.13793 117.86556
#
# Poissons Ratio (x) = 0.49985 0.22749
# Poissons Ratio (y) = 0.36348 0.77660
# Poissons Ratio (z) = 0.06616 0.31058
#
# Static dielectric constant tensor:
#      x y z
#    x 3.433050 0.067470 0.077390 
#    y 0.067470 3.670290 0.053700 
#    z 0.077390 0.053700 3.742170 
# 
# 
# High freq. dielectric constant tensor:
#      x y z
#    x 1.804640 0.006020 0.006640 
#    y 0.006020 1.834470 0.009760 
#    z 0.006640 0.009760 1.847920 
# 
# From -- ./inp_files/49267.got.cif
#   From: 2010.06.25/outbox.cif.g09.slc.cpg/sg2_25_cif.got.tgz:49267.got - 2010.06.27 13:26:56.
