data_PCOD8009148
_publ_section_title
;
Structure prediction by ZEFSAII (Michael W. Deem and Ramdas Pophale) SiO2 
 PCOD8009148
Probable space group: P -1
;
_chemical_formula_sum "Si O2"
_cell_formula_units_Z 14
_cell_length_a 11.836165
_cell_length_b 19.141997
_cell_length_c 14.269501
_cell_angle_alpha 158.302596
_cell_angle_beta 29.270343
_cell_angle_gamma 142.649726
_cell_volume 582.225309
_symmetry_space_group_name_H-M "P -1"
_symmetry_group_IT_number 2
_symmetry_cell_setting 'triclinic'
loop_
_space_group_symop_operation_xyz
x,y,z
-x,-y,-z
loop_
_atom_site_type_symbol
_atom_site_label
_atom_site_fract_x
_atom_site_fract_y
_atom_site_fract_z
Si Si1 0.717985 0.849545 0.655705
Si Si2 0.149320 0.992564 0.750976
Si Si3 0.799553 0.628668 0.707527
Si Si4 0.661636 0.517856 0.142892
Si Si5 0.778628 0.115846 0.638978
Si Si6 0.257951 0.582554 0.238712
Si Si7 0.319372 0.152519 0.111871
O O1 0.692942 0.705699 0.410838
O O2 0.710163 0.758152 0.651328
O O3 0.963758 0.941491 0.578306
O O4 0.500000 0.000000 0.000000
O O5 0.262119 0.985018 0.556570
O O6 0.243660 0.810097 0.517208
O O7 0.868275 0.003330 0.960596
O O8 0.232176 0.178369 0.970113
O O9 0.608697 0.489751 0.703029
O O10 0.743058 0.674097 0.696172
O O11 0.064257 0.531399 0.393330
O O12 0.755453 0.342264 0.920911
O O13 0.798004 0.515939 0.942934
O O14 0.581770 0.058587 0.783458
O O15 0.500000 0.500000 0.000000
#
# Coordination Sequence:
#
# PCOD8009148 Si02
#       7
#     2   2   2   2   2   2   2
#     4  11  24  40  57  84 117 145 187 243 288 333
#     4   9  19  37  59  88 117 145 191 234 272 333
#     4  10  21  38  60  85 115 151 191 233 274 334
#     4  10  23  40  58  83 114 151 193 233 278 334
#     4   9  20  38  63  84 108 152 194 232 276 331
#     4  10  21  36  57  86 120 152 182 228 286 338
#     4   9  19  36  60  82 107 150 192 227 275 331
#
# _framework density 24.045674999999999
#
# number of rings (size 3 to 8) (size 9 to 14) (size 15 to 20)
#    0.000    2.286    0.000    3.000    0.000   14.286 
#    0.000    4.286    0.000    0.000    0.000    0.000 
#    0.000    0.000    0.000    0.000    0.000    0.000 
#
# Total GULP energy -173534.492894 kJ/mol
# GULP energy per Si atom -12395.320921 kJ/mol
# Density = 2.399095 g / cm^3
# Si number density = 24.045675 Si / 1000 Ang^3
#
#
#
# Elastic Constant Matrix: (Units=GPa)
#
#
# Indices 1 2 3 4 5 6 
#
# 1 70.9834 18.6568 51.8326 2.8837 12.4618 25.7853
# 2 18.6568 73.3328 31.4309 -36.2482 8.3560 16.2206
# 3 51.8326 31.4309 111.5312 -25.9930 6.9606 18.1278
# 4 2.8837 -36.2482 -25.9930 43.2000 8.5769 -6.3277
# 5 12.4618 8.3560 6.9606 8.5769 50.6236 -16.1150
# 6 25.7853 16.2206 18.1278 -6.3277 -16.1150 21.6934
#
#
#
# Elastic Compliance Matrix: (Units=1/GPa)
#
#
# Indices 1 2 3 4 5 6 
#
# 1 0.183611 0.074834 -0.032438 0.010870 -0.173641 -0.372911
# 2 0.074834 0.077883 -0.005719 0.047419 -0.104061 -0.205876
# 3 -0.032438 -0.005719 0.020627 0.012500 0.017398 0.042166
# 4 0.010870 0.047419 0.012500 0.068285 -0.047379 -0.074100
# 5 -0.173641 -0.104061 0.017398 -0.047379 0.218398 0.418081
# 6 -0.372911 -0.205876 0.042166 -0.074100 0.418081 0.897006
#
#
# Mechanical properties :
#
#
# Convention : Reuss Voigt Hill
#
# Bulk Modulus (GPa) = 2.81314 51.07644 26.94479
# Shear Modulus (GPa) = 3.30918 33.36522 18.33720
#
# Velocity S-wave (km/s) = 1.17439 3.72906 2.76451
# Velocity P-wave (km/s) = 1.73533 6.31100 4.62818
#
# Compressibility (1/GPa) = 0.35547504
#
# Stress axis : x y z
#
# Youngs Moduli (GPa) = 5.44630 12.83974 48.48099
#
# Poissons Ratio (x) = -0.96085 1.57263
# Poissons Ratio (y) = -0.40757 0.27724
# Poissons Ratio (z) = 0.17667 0.07343
#
# Static dielectric constant tensor:
#      x y z
#    x 4.525060 -0.043880 0.016150 
#    y -0.043880 4.436910 -0.810470 
#    z 0.016150 -0.810470 4.512030 
# 
# 
# High freq. dielectric constant tensor:
#      x y z
#    x 1.960790 0.002170 0.005020 
#    y 0.002170 1.932750 -0.046300 
#    z 0.005020 -0.046300 1.949280 
# 
# From -- ./inp_files/177012.got.cif
#   From: 2010.06.25/outbox.cif.g09.slc.cpg/sg2_89_cif.got.tgz:177012.got - 2010.06.27 13:26:56.
