data_PCOD8009493
_publ_section_title
;
Structure prediction by ZEFSAII (Michael W. Deem and Ramdas Pophale) SiO2 
 PCOD8009493
Probable space group: P -1
;
_chemical_formula_sum "Si O2"
_cell_formula_units_Z 16
_cell_length_a 14.024476
_cell_length_b 8.194649
_cell_length_c 14.678357
_cell_angle_alpha 57.621875
_cell_angle_beta 148.367755
_cell_angle_gamma 123.297648
_cell_volume 730.512404
_symmetry_space_group_name_H-M "P -1"
_symmetry_group_IT_number 2
_symmetry_cell_setting 'triclinic'
loop_
_space_group_symop_operation_xyz
x,y,z
-x,-y,-z
loop_
_atom_site_type_symbol
_atom_site_label
_atom_site_fract_x
_atom_site_fract_y
_atom_site_fract_z
Si Si1 0.250668 0.516468 0.459808
Si Si2 0.153387 0.926113 0.589079
Si Si3 0.459374 0.255126 0.812006
Si Si4 0.378660 0.286652 0.945465
Si Si5 0.125293 0.150019 0.332711
Si Si6 0.279274 0.873557 0.056945
Si Si7 0.525214 0.280866 0.567980
Si Si8 0.060923 0.482902 0.655969
O O1 0.398709 0.450541 0.668080
O O2 0.156350 0.339869 0.368421
O O3 0.359995 0.709761 0.436031
O O4 0.098541 0.584148 0.379162
O O5 0.173731 0.707336 0.701373
O O6 0.350554 0.065208 0.725740
O O7 0.095013 0.949416 0.428906
O O8 0.000000 0.000000 0.500000
O O9 0.415711 0.227061 0.890697
O O10 0.670218 0.252598 0.952263
O O11 0.174377 0.312283 0.797619
O O12 0.500000 0.500000 0.000000
O O13 0.394357 0.101782 0.076866
O O14 0.314413 0.151377 0.427837
O O15 0.945061 0.147560 0.122832
O O16 0.346618 0.787812 0.229860
O O17 0.500000 0.500000 0.500000
O O18 0.000000 0.500000 0.500000
#
# Coordination Sequence:
#
# PCOD8009493 Si02
#       8
#     2   2   2   2   2   2   2   2
#     4  10  21  40  65  99 129 174 219 277 326 395
#     4  11  18  36  66  96 126 173 225 274 331 395
#     4  11  21  42  64  96 134 170 222 281 337 392
#     4  12  28  40  59 102 143 176 214 276 350 406
#     4  10  21  36  68 100 129 171 222 275 337 377
#     4  12  23  42  69 100 133 174 229 278 329 400
#     4  10  21  43  65 100 136 167 231 282 324 388
#     4  12  22  39  64  93 137 175 215 269 340 409
#
# _framework density 21.902432999999998
#
# number of rings (size 3 to 8) (size 9 to 14) (size 15 to 20)
#    0.000    1.000    7.500    2.625    1.750    2.000 
#    0.000    0.625    0.000    5.250    0.000    0.000 
#    0.000    0.000    0.000    0.000    0.000    0.000 
#
# Total GULP energy -198216.899154 kJ/mol
# GULP energy per Si atom -12388.556197 kJ/mol
# Density = 2.185258 g / cm^3
# Si number density = 21.902433 Si / 1000 Ang^3
#
#
#
# Elastic Constant Matrix: (Units=GPa)
#
#
# Indices 1 2 3 4 5 6 
#
# 1 159.2479 29.3869 43.0669 -8.1738 6.2612 30.7476
# 2 29.3869 53.1195 29.0599 -12.4346 -7.3610 17.8191
# 3 43.0669 29.0599 122.0997 -9.6658 0.5778 21.9038
# 4 -8.1738 -12.4346 -9.6658 32.7558 7.8992 -3.4361
# 5 6.2612 -7.3610 0.5778 7.8992 31.1330 -3.5885
# 6 30.7476 17.8191 21.9038 -3.4361 -3.5885 34.8064
#
#
#
# Elastic Compliance Matrix: (Units=1/GPa)
#
#
# Indices 1 2 3 4 5 6 
#
# 1 0.008288 -0.002181 -0.001306 0.001005 -0.003059 -0.005599
# 2 -0.002181 0.027037 -0.003620 0.006742 0.004204 -0.008538
# 3 -0.001306 -0.003620 0.010246 0.001326 -0.001520 -0.003467
# 4 0.001005 0.006742 0.001326 0.035373 -0.007895 -0.002496
# 5 -0.003059 0.004204 -0.001520 -0.007895 0.036276 0.004467
# 6 -0.005599 -0.008538 -0.003467 -0.002496 0.004467 0.040444
#
#
# Mechanical properties :
#
#
# Convention : Reuss Voigt Hill
#
# Bulk Modulus (GPa) = 31.88994 59.72161 45.80578
# Shear Modulus (GPa) = 27.42275 35.26925 31.34600
#
# Velocity S-wave (km/s) = 3.54226 4.01719 3.78718
# Velocity P-wave (km/s) = 5.59658 6.98881 6.33108
#
# Compressibility (1/GPa) = 0.03135786
#
# Stress axis : x y z
#
# Youngs Moduli (GPa) = 120.65459 36.98584 97.59601
#
# Poissons Ratio (x) = 0.08067 0.12743
# Poissons Ratio (y) = 0.26316 0.35332
# Poissons Ratio (z) = 0.15754 0.13390
#
# Static dielectric constant tensor:
#      x y z
#    x 4.582990 1.037980 0.211560 
#    y 1.037980 5.442380 -0.132550 
#    z 0.211560 -0.132550 4.160330 
# 
# 
# High freq. dielectric constant tensor:
#      x y z
#    x 1.862870 0.013530 0.019620 
#    y 0.013530 1.845450 -0.015410 
#    z 0.019620 -0.015410 1.859180 
# 
# From -- ./inp_files/529488.got.cif
#   From: 2010.06.25/outbox.cif.g09.slc.cpg/sg2_265_cif.got.tgz:529488.got - 2010.06.27 13:26:56.
