data_PCOD8009312
_publ_section_title
;
Structure prediction by ZEFSAII (Michael W. Deem and Ramdas Pophale) SiO2 
 PCOD8009312
Probable space group: P -1
;
_chemical_formula_sum "Si O2"
_cell_formula_units_Z 12
_cell_length_a 13.942586
_cell_length_b 8.412500
_cell_length_c 10.559225
_cell_angle_alpha 74.205334
_cell_angle_beta 31.055732
_cell_angle_gamma 83.675518
_cell_volume 595.612219
_symmetry_space_group_name_H-M "P -1"
_symmetry_group_IT_number 2
_symmetry_cell_setting 'triclinic'
loop_
_space_group_symop_operation_xyz
x,y,z
-x,-y,-z
loop_
_atom_site_type_symbol
_atom_site_label
_atom_site_fract_x
_atom_site_fract_y
_atom_site_fract_z
Si Si1 0.882866 0.712006 0.748912
Si Si2 0.227667 0.014863 0.039966
Si Si3 0.138881 0.235818 0.525163
Si Si4 0.515796 0.145162 0.054627
Si Si5 0.243893 0.591251 0.447163
Si Si6 0.537396 0.632850 0.316788
O O1 0.870063 0.906495 0.748927
O O2 0.899143 0.688445 0.585569
O O3 0.064040 0.674408 0.624317
O O4 0.688254 0.586507 0.054688
O O5 0.347617 0.885244 0.981212
O O6 0.368323 0.176291 0.773650
O O7 0.052369 0.902592 0.179894
O O8 0.180620 0.388553 0.544822
O O9 0.311307 0.143417 0.346060
O O10 0.600759 0.327539 0.853519
O O11 0.500000 0.000000 0.000000
O O12 0.338780 0.630793 0.470086
O O13 0.500000 0.500000 0.500000
#
# Coordination Sequence:
#
# PCOD8009312 Si02
#       6
#     2   2   2   2   2   2
#     4  10  21  36  61  85 123 145 193 237 293 346
#     4  10  22  35  60  87 117 149 191 240 287 345
#     4  12  22  34  58  99 123 141 184 246 311 338
#     4  12  19  34  59  88 124 148 190 228 296 353
#     4  12  23  35  60  93 120 152 184 244 301 342
#     4  10  24  42  59  81 114 163 206 228 275 351
#
# _framework density 20.147335999999999
#
# number of rings (size 3 to 8) (size 9 to 14) (size 15 to 20)
#    1.000    0.000    6.667    2.500    0.000    0.667 
#    0.000    0.833    0.000    2.000    0.000    0.000 
#    0.000    0.000    0.000    0.000    0.000    0.000 
#
# Total GULP energy -148732.947631 kJ/mol
# GULP energy per Si atom -12394.412303 kJ/mol
# Density = 2.010148 g / cm^3
# Si number density = 20.147336 Si / 1000 Ang^3
#
#
#
# Elastic Constant Matrix: (Units=GPa)
#
#
# Indices 1 2 3 4 5 6 
#
# 1 69.6114 44.2207 53.3554 -2.1427 -26.8292 -23.0405
# 2 44.2207 93.7910 42.3753 -13.0543 -23.2375 -10.4449
# 3 53.3554 42.3753 86.2273 -18.3001 -24.9860 -11.1283
# 4 -2.1427 -13.0543 -18.3001 40.4860 -9.1994 -15.2861
# 5 -26.8292 -23.2375 -24.9860 -9.1994 36.6181 -2.0459
# 6 -23.0405 -10.4449 -11.1283 -15.2861 -2.0459 38.6429
#
#
#
# Elastic Compliance Matrix: (Units=1/GPa)
#
#
# Indices 1 2 3 4 5 6 
#
# 1 0.049597 -0.004661 -0.012336 0.014596 0.030426 0.032144
# 2 -0.004661 0.017761 0.000938 0.011378 0.011769 0.007416
# 3 -0.012336 0.000938 0.029915 0.021372 0.017948 0.010917
# 4 0.014596 0.011378 0.021372 0.068821 0.052465 0.047934
# 5 0.030426 0.011769 0.017948 0.052465 0.085389 0.051766
# 6 0.032144 0.007416 0.010917 0.047934 0.051766 0.071894
#
#
# Mechanical properties :
#
#
# Convention : Reuss Voigt Hill
#
# Bulk Modulus (GPa) = 15.34811 58.83696 37.09253
# Shear Modulus (GPa) = 13.25503 30.46129 21.85816
#
# Velocity S-wave (km/s) = 2.56775 3.89257 3.29738
# Velocity P-wave (km/s) = 4.05285 7.03346 5.74000
#
# Compressibility (1/GPa) = 0.06515461
#
# Stress axis : x y z
#
# Youngs Moduli (GPa) = 20.16256 56.30237 33.42772
#
# Poissons Ratio (x) = 0.26242 0.41237
# Poissons Ratio (y) = 0.09398 -0.03134
# Poissons Ratio (z) = 0.24873 -0.05279
#
# Static dielectric constant tensor:
#      x y z
#    x 3.396780 -0.119860 -0.529590 
#    y -0.119860 3.544300 -0.127350 
#    z -0.529590 -0.127350 3.692020 
# 
# 
# High freq. dielectric constant tensor:
#      x y z
#    x 1.755850 -0.015480 -0.050130 
#    y -0.015480 1.781880 -0.008820 
#    z -0.050130 -0.008820 1.774280 
# 
# From -- ./inp_files/58950.got.cif
#   From: 2010.06.25/outbox.cif.g09.slc.cpg/sg2_30_cif.got.tgz:58950.got - 2010.06.27 13:26:56.
