data_PCOD8009718
_publ_section_title
;
Structure prediction by ZEFSAII (Michael W. Deem and Ramdas Pophale) SiO2 
 PCOD8009718
Probable space group: P -1
;
_chemical_formula_sum "Si O2"
_cell_formula_units_Z 16
_cell_length_a 5.137109
_cell_length_b 23.131164
_cell_length_c 19.061927
_cell_angle_alpha 162.745311
_cell_angle_beta 98.678806
_cell_angle_gamma 75.270024
_cell_volume 615.521117
_symmetry_space_group_name_H-M "P -1"
_symmetry_group_IT_number 2
_symmetry_cell_setting 'triclinic'
loop_
_space_group_symop_operation_xyz
x,y,z
-x,-y,-z
loop_
_atom_site_type_symbol
_atom_site_label
_atom_site_fract_x
_atom_site_fract_y
_atom_site_fract_z
Si Si1 0.816111 0.359410 0.828661
Si Si2 0.913219 0.559712 0.645550
Si Si3 0.897432 0.890433 0.806885
Si Si4 0.557881 0.075505 0.734467
Si Si5 0.403754 0.645223 0.811297
Si Si6 0.475901 0.306257 0.639380
Si Si7 0.929855 0.210941 0.806306
Si Si8 0.607921 0.181860 0.343178
O O1 0.779238 0.281248 0.658624
O O2 0.500000 0.500000 0.000000
O O3 0.928197 0.175829 0.680380
O O4 0.000000 0.500000 0.000000
O O5 0.009016 0.354778 0.459571
O O6 0.073174 0.712762 0.854378
O O7 0.000000 0.500000 0.500000
O O8 0.577289 0.675135 0.784004
O O9 0.558125 0.964097 0.864025
O O10 0.055803 0.929459 0.788989
O O11 0.000000 0.000000 0.000000
O O12 0.654725 0.833560 0.481709
O O13 0.559369 0.221132 0.967946
O O14 0.783872 0.072452 0.680698
O O15 0.245382 0.160815 0.787671
O O16 0.506697 0.403498 0.557048
O O17 0.249071 0.542610 0.899044
O O18 0.556834 0.203139 0.447858
#
# Coordination Sequence:
#
# PCOD8009718 Si02
#       8
#     2   2   2   2   2   2   2   2
#     4  10  23  43  70 101 136 187 228 281 352 407
#     4  10  21  37  60  85 122 171 211 270 333 402
#     4  10  22  38  59  91 124 168 219 266 340 398
#     4  12  26  42  72 103 133 187 232 281 349 408
#     4  10  21  39  59  90 127 168 219 269 343 391
#     4  11  26  45  72 105 137 181 244 275 345 423
#     4  11  25  46  69  98 148 180 222 300 343 395
#     4  10  22  38  65  87 129 178 208 283 336 389
#
# _framework density 25.994232
#
# number of rings (size 3 to 8) (size 9 to 14) (size 15 to 20)
#    0.000    1.500    1.250    3.000    3.500    8.000 
#    0.000    0.000    0.000    0.000    0.000    0.000 
#    0.000    0.000    0.000    0.000    0.000    0.000 
#
# Total GULP energy -198318.193047 kJ/mol
# GULP energy per Si atom -12394.887065 kJ/mol
# Density = 2.593507 g / cm^3
# Si number density = 25.994232 Si / 1000 Ang^3
#
#
#
# Elastic Constant Matrix: (Units=GPa)
#
#
# Indices 1 2 3 4 5 6 
#
# 1 152.9804 42.8736 45.3551 -17.1666 54.7865 16.7028
# 2 42.8736 140.8246 29.0975 -15.8966 26.1410 19.5932
# 3 45.3551 29.0975 46.5529 -6.7372 23.1313 5.2158
# 4 -17.1666 -15.8966 -6.7372 57.6782 -6.5563 6.9709
# 5 54.7865 26.1410 23.1313 -6.5563 38.6506 -12.4938
# 6 16.7028 19.5932 5.2158 6.9709 -12.4938 33.7777
#
#
#
# Elastic Compliance Matrix: (Units=1/GPa)
#
#
# Indices 1 2 3 4 5 6 
#
# 1 0.046014 0.015240 0.005611 0.016000 -0.099649 -0.072620
# 2 0.015240 0.015906 0.001826 0.008419 -0.043270 -0.034787
# 3 0.005611 0.001826 0.037909 0.005201 -0.039153 -0.025243
# 4 0.016000 0.008419 0.005201 0.024675 -0.037871 -0.032699
# 5 -0.099649 -0.043270 -0.039153 -0.037871 0.274773 0.189870
# 6 -0.072620 -0.034787 -0.025243 -0.032699 0.189870 0.166570
#
#
# Mechanical properties :
#
#
# Convention : Reuss Voigt Hill
#
# Bulk Modulus (GPa) = 6.88791 63.89001 35.38896
# Shear Modulus (GPa) = 8.78910 40.89005 24.83958
#
# Velocity S-wave (km/s) = 1.84079 3.97046 3.09460
# Velocity P-wave (km/s) = 2.67835 6.75658 5.13930
#
# Compressibility (1/GPa) = 0.14518201
#
# Stress axis : x y z
#
# Youngs Moduli (GPa) = 21.73264 62.86775 26.37922
#
# Poissons Ratio (x) = -0.95808 -0.14801
# Poissons Ratio (y) = -0.33120 -0.04818
# Poissons Ratio (z) = -0.12194 -0.11481
#
# Static dielectric constant tensor:
#      x y z
#    x 5.525880 0.052600 0.339930 
#    y 0.052600 5.127680 0.014250 
#    z 0.339930 0.014250 4.844860 
# 
# 
# High freq. dielectric constant tensor:
#      x y z
#    x 2.057380 0.006750 0.011880 
#    y 0.006750 2.051570 0.007610 
#    z 0.011880 0.007610 2.054340 
# 
# From -- ./inp_files/551029.got.cif
#   From: 2010.06.25/outbox.cif.g09.slc.cpg/sg2_276_cif.got.tgz:551029.got - 2010.06.27 13:26:56.
