data_PCOD8009765
_publ_section_title
;
Structure prediction by ZEFSAII (Michael W. Deem and Ramdas Pophale) SiO2 
 PCOD8009765
Probable space group: P -1
;
_chemical_formula_sum "Si O2"
_cell_formula_units_Z 16
_cell_length_a 9.474079
_cell_length_b 6.895226
_cell_length_c 16.667697
_cell_angle_alpha 69.871269
_cell_angle_beta 70.556879
_cell_angle_gamma 116.747577
_cell_volume 742.569966
_symmetry_space_group_name_H-M "P -1"
_symmetry_group_IT_number 2
_symmetry_cell_setting 'triclinic'
loop_
_space_group_symop_operation_xyz
x,y,z
-x,-y,-z
loop_
_atom_site_type_symbol
_atom_site_label
_atom_site_fract_x
_atom_site_fract_y
_atom_site_fract_z
Si Si1 0.092241 0.305812 0.938460
Si Si2 0.928583 0.134969 0.683373
Si Si3 0.228641 0.641712 0.018738
Si Si4 0.822987 0.342902 0.358553
Si Si5 0.581772 0.093957 0.789485
Si Si6 0.172004 0.424001 0.223982
Si Si7 0.146710 0.943688 0.459881
Si Si8 0.555222 0.228177 0.292317
O O1 0.278181 0.478617 0.818772
O O2 0.936179 0.335191 0.935017
O O3 0.157286 0.408930 0.001993
O O4 0.000000 0.000000 0.000000
O O5 0.736584 0.045306 0.778314
O O6 0.121209 0.378476 0.659242
O O7 0.915009 0.879505 0.712290
O O8 0.942504 0.246153 0.575136
O O9 0.285876 0.568557 0.099145
O O10 0.416414 0.924373 0.910890
O O11 0.623741 0.181381 0.369324
O O12 0.987697 0.412780 0.256674
O O13 0.820760 0.181449 0.455344
O O14 0.693837 0.406764 0.746770
O O15 0.495615 0.003725 0.728066
O O16 0.366246 0.202769 0.352273
O O17 0.000000 0.000000 0.500000
#
# Coordination Sequence:
#
# PCOD8009765 Si02
#       8
#     2   2   2   2   2   2   2   2
#     4  10  22  39  61  93 135 172 203 266 325 382
#     4  10  23  40  64  93 128 169 210 264 334 378
#     4  10  21  37  60  92 128 168 223 258 317 381
#     4  11  22  42  67  93 131 167 215 271 318 387
#     4   9  22  39  60  95 128 170 211 268 318 379
#     4  11  21  38  66  91 130 170 219 264 316 391
#     4  11  22  43  69  93 129 170 218 270 325 381
#     4  10  22  43  66  97 130 169 217 263 327 382
#
# _framework density 21.546790999999999
#
# number of rings (size 3 to 8) (size 9 to 14) (size 15 to 20)
#    0.000    1.750    2.500    1.125    1.750    3.500 
#    0.000    3.125    0.000    0.000    0.000    0.000 
#    0.000    0.000    0.000    0.000    0.000    0.000 
#
# Total GULP energy -198240.193990 kJ/mol
# GULP energy per Si atom -12390.012124 kJ/mol
# Density = 2.149775 g / cm^3
# Si number density = 21.546791 Si / 1000 Ang^3
#
#
#
# Elastic Constant Matrix: (Units=GPa)
#
#
# Indices 1 2 3 4 5 6 
#
# 1 90.6790 57.0660 49.8187 10.1476 -0.9677 16.3826
# 2 57.0660 141.0416 45.2433 -8.3934 9.7923 2.2300
# 3 49.8187 45.2433 109.0885 12.2125 -5.8982 -4.2851
# 4 10.1476 -8.3934 12.2125 24.9991 0.4078 6.0042
# 5 -0.9677 9.7923 -5.8982 0.4078 42.1460 7.2097
# 6 16.3826 2.2300 -4.2851 6.0042 7.2097 26.6691
#
#
#
# Elastic Compliance Matrix: (Units=1/GPa)
#
#
# Indices 1 2 3 4 5 6 
#
# 1 0.022679 -0.007162 -0.007232 -0.004669 0.003688 -0.014440
# 2 -0.007162 0.011409 -0.002392 0.007395 -0.003628 0.002377
# 3 -0.007232 -0.002392 0.014632 -0.007022 0.001089 0.008280
# 4 -0.004669 0.007395 -0.007022 0.050174 -0.001628 -0.009734
# 5 0.003688 -0.003628 0.001089 -0.001628 0.026281 -0.008525
# 6 -0.014440 0.002377 0.008280 -0.009734 -0.008525 0.051995
#
#
# Mechanical properties :
#
#
# Convention : Reuss Voigt Hill
#
# Bulk Modulus (GPa) = 66.01088 71.67389 68.84239
# Shear Modulus (GPa) = 23.17051 31.34157 27.25604
#
# Velocity S-wave (km/s) = 3.28282 3.81804 3.56050
# Velocity P-wave (km/s) = 6.71355 7.26451 6.99446
#
# Compressibility (1/GPa) = 0.01514902
#
# Stress axis : x y z
#
# Youngs Moduli (GPa) = 44.09391 87.64683 68.34439
#
# Poissons Ratio (x) = 0.62770 0.49426
# Poissons Ratio (y) = 0.31579 0.16347
# Poissons Ratio (z) = 0.31888 0.20964
#
# Static dielectric constant tensor:
#      x y z
#    x 3.795160 0.255400 -0.170540 
#    y 0.255400 3.943090 0.276500 
#    z -0.170540 0.276500 4.047330 
# 
# 
# High freq. dielectric constant tensor:
#      x y z
#    x 1.830990 0.017820 -0.009600 
#    y 0.017820 1.842740 0.017610 
#    z -0.009600 0.017610 1.855960 
# 
# From -- ./inp_files/299884.got.cif
#   From: 2010.06.25/outbox.cif.g09.slc.cpg/sg2_150_cif.got.tgz:299884.got - 2010.06.27 13:26:56.
