data_PCOD8009572
_publ_section_title
;
Structure prediction by ZEFSAII (Michael W. Deem and Ramdas Pophale) SiO2 
 PCOD8009572
Probable space group: P -1
;
_chemical_formula_sum "Si O2"
_cell_formula_units_Z 16
_cell_length_a 8.758487
_cell_length_b 9.365829
_cell_length_c 17.785667
_cell_angle_alpha 59.422203
_cell_angle_beta 47.509052
_cell_angle_gamma 85.981654
_cell_volume 835.823535
_symmetry_space_group_name_H-M "P -1"
_symmetry_group_IT_number 2
_symmetry_cell_setting 'triclinic'
loop_
_space_group_symop_operation_xyz
x,y,z
-x,-y,-z
loop_
_atom_site_type_symbol
_atom_site_label
_atom_site_fract_x
_atom_site_fract_y
_atom_site_fract_z
Si Si1 0.119148 0.541782 0.130474
Si Si2 0.720494 0.803709 0.091103
Si Si3 0.228068 0.882806 0.907740
Si Si4 0.441216 0.164760 0.290344
Si Si5 0.305880 0.057745 0.520008
Si Si6 0.202824 0.196433 0.211440
Si Si7 0.376849 0.568601 0.714691
Si Si8 0.506550 0.184612 0.979770
O O1 0.225383 0.395876 0.126997
O O2 0.231188 0.668032 0.132587
O O3 0.845180 0.440465 0.254185
O O4 0.192511 0.679024 0.998241
O O5 0.632688 0.634206 0.224841
O O6 0.593057 0.731924 0.074266
O O7 0.669144 0.967309 0.099644
O O8 0.989651 0.881006 0.961906
O O9 0.407058 0.935307 0.765854
O O10 0.288925 0.197724 0.267421
O O11 0.612323 0.356401 0.223077
O O12 0.279392 0.027996 0.445745
O O13 0.062243 0.950628 0.669507
O O14 0.500000 0.000000 0.500000
O O15 0.402033 0.279889 0.443838
O O16 0.358784 0.145565 0.116150
O O17 0.500000 0.000000 0.000000
#
# Coordination Sequence:
#
# PCOD8009572 Si02
#       8
#     2   2   2   2   2   2   2   2
#     4  11  21  37  57  93 120 150 192 242 295 353
#     4  10  21  37  57  86 119 160 186 241 298 345
#     4  10  21  37  58  86 122 151 198 235 294 355
#     4  10  21  38  59  85 116 152 197 248 284 341
#     4  10  22  41  58  87 115 156 201 245 286 338
#     4  12  22  37  64  87 123 154 194 242 296 342
#     4   9  22  37  62  81 121 152 201 241 287 347
#     4  12  24  38  60  91 125 152 190 242 302 353
#
# _framework density 19.142796000000001
#
# number of rings (size 3 to 8) (size 9 to 14) (size 15 to 20)
#    0.750    0.750    3.750    1.500    5.250    1.000 
#    0.000    0.000    2.750    3.000    0.000    0.000 
#    0.000    0.000    0.000    0.000    0.000    0.000 
#
# Total GULP energy -198263.302681 kJ/mol
# GULP energy per Si atom -12391.456418 kJ/mol
# Density = 1.909923 g / cm^3
# Si number density = 19.142796 Si / 1000 Ang^3
#
#
#
# Elastic Constant Matrix: (Units=GPa)
#
#
# Indices 1 2 3 4 5 6 
#
# 1 114.3566 30.8369 25.6285 -3.9837 -10.3639 9.3516
# 2 30.8369 88.0226 40.9500 -4.8973 -4.6067 -3.5281
# 3 25.6285 40.9500 77.0783 -10.4889 -12.9438 -1.4895
# 4 -3.9837 -4.8973 -10.4889 19.0925 4.2569 -2.3616
# 5 -10.3639 -4.6067 -12.9438 4.2569 34.2272 -8.3668
# 6 9.3516 -3.5281 -1.4895 -2.3616 -8.3668 29.4003
#
#
#
# Elastic Compliance Matrix: (Units=1/GPa)
#
#
# Indices 1 2 3 4 5 6 
#
# 1 0.010298 -0.002856 -0.001796 -0.000269 0.001264 -0.003371
# 2 -0.002856 0.015959 -0.007702 -0.000231 -0.001086 0.002106
# 3 -0.001796 -0.007702 0.019692 0.007567 0.005623 0.002853
# 4 -0.000269 -0.000231 0.007567 0.057689 -0.003423 0.004101
# 5 0.001264 -0.001086 0.005623 -0.003423 0.034261 0.009227
# 6 -0.003371 0.002106 0.002853 0.004101 0.009227 0.038438
#
#
# Mechanical properties :
#
#
# Convention : Reuss Voigt Hill
#
# Bulk Modulus (GPa) = 47.08040 52.69870 49.88955
# Shear Modulus (GPa) = 24.02377 28.68014 26.35195
#
# Velocity S-wave (km/s) = 3.54641 3.87488 3.71428
# Velocity P-wave (km/s) = 6.43561 6.89990 6.67180
#
# Compressibility (1/GPa) = 0.02124026
#
# Stress axis : x y z
#
# Youngs Moduli (GPa) = 97.10489 62.65956 50.78121
#
# Poissons Ratio (x) = 0.17896 0.09122
# Poissons Ratio (y) = 0.27733 0.39114
# Poissons Ratio (z) = 0.17444 0.48263
#
# Static dielectric constant tensor:
#      x y z
#    x 3.799400 0.071180 -0.091860 
#    y 0.071180 3.307800 -0.190360 
#    z -0.091860 -0.190360 3.369510 
# 
# 
# High freq. dielectric constant tensor:
#      x y z
#    x 1.768190 -0.003460 -0.006770 
#    y -0.003460 1.722880 -0.021090 
#    z -0.006770 -0.021090 1.722570 
# 
# From -- ./inp_files/587306.got.cif
#   From: 2010.06.25/outbox.cif.g09.slc.cpg/sg2_294_cif.got.tgz:587306.got - 2010.06.27 13:26:56.
