data_PCOD8009175
_publ_section_title
;
Structure prediction by ZEFSAII (Michael W. Deem and Ramdas Pophale) SiO2 
 PCOD8009175
Probable space group: P -1
;
_chemical_formula_sum "Si O2"
_cell_formula_units_Z 16
_cell_length_a 7.759399
_cell_length_b 16.175483
_cell_length_c 9.265135
_cell_angle_alpha 86.387901
_cell_angle_beta 72.233339
_cell_angle_gamma 53.760201
_cell_volume 882.699969
_symmetry_space_group_name_H-M "P -1"
_symmetry_group_IT_number 2
_symmetry_cell_setting 'triclinic'
loop_
_space_group_symop_operation_xyz
x,y,z
-x,-y,-z
loop_
_atom_site_type_symbol
_atom_site_label
_atom_site_fract_x
_atom_site_fract_y
_atom_site_fract_z
Si Si1 0.023965 0.737596 0.119843
Si Si2 0.396518 0.761214 0.027528
Si Si3 0.756476 0.902702 0.935583
Si Si4 0.889785 0.618730 0.996397
Si Si5 0.087641 0.976142 0.240824
Si Si6 0.279944 0.978921 0.483651
Si Si7 0.256058 0.251419 0.235027
Si Si8 0.216997 0.177314 0.538313
O O1 0.011855 0.647023 0.074443
O O2 0.976049 0.752155 0.301771
O O3 0.275852 0.706198 0.031361
O O4 0.835396 0.843979 0.074093
O O5 0.615679 0.689775 0.085967
O O6 0.203970 0.871825 0.132142
O O7 0.492126 0.779082 0.854804
O O8 0.770686 0.832311 0.813996
O O9 0.912392 0.938442 0.856166
O O10 0.500000 0.000000 0.000000
O O11 0.924955 0.640799 0.818250
O O12 0.000000 0.500000 0.000000
O O13 0.214259 0.944929 0.364668
O O14 0.827288 0.025764 0.338492
O O15 0.546485 0.895122 0.432416
O O16 0.186775 0.098217 0.472927
O O17 0.207832 0.256071 0.417248
#
# Coordination Sequence:
#
# PCOD8009175 Si02
#       8
#     2   2   2   2   2   2   2   2
#     4  11  23  36  60  85 110 150 189 235 281 323
#     4  10  21  36  58  85 109 143 196 229 274 334
#     4  11  19  32  52  73 117 157 192 224 260 322
#     4   9  21  43  65  82 106 140 184 242 300 344
#     4  11  19  33  47  81 114 158 193 220 262 320
#     4  10  22  28  50  76 120 160 185 221 265 317
#     4   9  21  35  55  80 112 146 184 231 279 326
#     4  11  20  36  49  81 116 152 185 225 270 324
#
# _framework density 18.126204999999999
#
# number of rings (size 3 to 8) (size 9 to 14) (size 15 to 20)
#    0.750    1.000    3.750    1.500    3.500    1.000 
#    0.000    0.625    0.000    0.750    0.000    0.000 
#    0.000    0.000    0.000    0.000    0.000    0.000 
#
# Total GULP energy -198268.744603 kJ/mol
# GULP energy per Si atom -12391.796538 kJ/mol
# Density = 1.808495 g / cm^3
# Si number density = 18.126205 Si / 1000 Ang^3
#
#
#
# Elastic Constant Matrix: (Units=GPa)
#
#
# Indices 1 2 3 4 5 6 
#
# 1 89.1505 21.0221 16.1208 2.1563 -10.1106 21.9971
# 2 21.0221 89.9416 25.0740 -14.8742 -1.9764 17.1718
# 3 16.1208 25.0740 100.5547 -17.0971 -7.3658 6.2089
# 4 2.1563 -14.8742 -17.0971 14.0140 2.3326 -1.8850
# 5 -10.1106 -1.9764 -7.3658 2.3326 24.9991 -1.8610
# 6 21.9971 17.1718 6.2089 -1.8850 -1.8610 17.8346
#
#
#
# Elastic Compliance Matrix: (Units=1/GPa)
#
#
# Indices 1 2 3 4 5 6 
#
# 1 0.018057 -0.001221 -0.002793 -0.011246 0.005892 -0.020698
# 2 -0.001221 0.016548 -0.000626 0.015567 -0.001772 -0.012749
# 3 -0.002793 -0.000626 0.013274 0.015904 0.001341 0.001248
# 4 -0.011246 0.015567 0.015904 0.111019 -0.008680 0.004174
# 5 0.005892 -0.001772 0.001341 -0.008680 0.043268 -0.002431
# 6 -0.020698 -0.012749 0.001248 0.004174 -0.002431 0.093627
#
#
# Mechanical properties :
#
#
# Convention : Reuss Voigt Hill
#
# Bulk Modulus (GPa) = 25.90740 44.89783 35.40261
# Shear Modulus (GPa) = 15.72623 25.86488 20.79556
#
# Velocity S-wave (km/s) = 2.94869 3.78158 3.39080
# Velocity P-wave (km/s) = 5.09086 6.62498 5.90793
#
# Compressibility (1/GPa) = 0.03859902
#
# Stress axis : x y z
#
# Youngs Moduli (GPa) = 55.38001 60.43108 75.33462
#
# Poissons Ratio (x) = 0.07376 0.21042
# Poissons Ratio (y) = 0.06759 0.04719
# Poissons Ratio (z) = 0.15468 0.03785
#
# Static dielectric constant tensor:
#      x y z
#    x 3.534500 0.213210 -0.152010 
#    y 0.213210 2.933770 -0.164400 
#    z -0.152010 -0.164400 3.339920 
# 
# 
# High freq. dielectric constant tensor:
#      x y z
#    x 1.709540 0.018620 -0.005290 
#    y 0.018620 1.661010 -0.014450 
#    z -0.005290 -0.014450 1.697370 
# 
# From -- ./inp_files/201358.got.cif
#   From: 2010.06.25/outbox.cif.g09.slc.cpg/sg2_101_cif.got.tgz:201358.got - 2010.06.27 13:26:56.
