data_PCOD8009814
_publ_section_title
;
Structure prediction by ZEFSAII (Michael W. Deem and Ramdas Pophale) SiO2 
 PCOD8009814
Probable space group: P -1
;
_chemical_formula_sum "Si O2"
_cell_formula_units_Z 14
_cell_length_a 9.277178
_cell_length_b 12.356901
_cell_length_c 11.034658
_cell_angle_alpha 118.408548
_cell_angle_beta 138.666485
_cell_angle_gamma 45.613925
_cell_volume 593.755955
_symmetry_space_group_name_H-M "P -1"
_symmetry_group_IT_number 2
_symmetry_cell_setting 'triclinic'
loop_
_space_group_symop_operation_xyz
x,y,z
-x,-y,-z
loop_
_atom_site_type_symbol
_atom_site_label
_atom_site_fract_x
_atom_site_fract_y
_atom_site_fract_z
Si Si1 0.895702 0.118411 0.606251
Si Si2 0.255662 0.508507 0.694096
Si Si3 0.133069 0.285514 0.765660
Si Si4 0.143672 0.004691 0.238857
Si Si5 0.272060 0.208781 0.551763
Si Si6 0.403385 0.722494 0.008625
Si Si7 0.616179 0.572985 0.538243
O O1 0.568414 0.245540 0.452956
O O2 0.041304 0.204732 0.752183
O O3 0.958030 0.034417 0.728390
O O4 0.000000 0.000000 0.500000
O O5 0.328194 0.620624 0.844997
O O6 0.405513 0.446660 0.628386
O O7 0.917840 0.617016 0.533537
O O8 0.381127 0.367682 0.792522
O O9 0.147123 0.213422 0.604592
O O10 0.926817 0.472017 0.727684
O O11 0.426914 0.246634 0.961789
O O12 0.246920 0.105615 0.390438
O O13 0.877271 0.113294 0.043061
O O14 0.410759 0.854732 0.267340
O O15 0.500000 0.500000 0.500000
#
# Coordination Sequence:
#
# PCOD8009814 Si02
#       7
#     2   2   2   2   2   2   2
#     4  11  22  40  63  90 122 167 209 259 308 367
#     4   9  20  41  63  92 125 165 206 254 314 368
#     4  10  21  39  61  93 122 161 211 259 303 369
#     4  10  21  37  61  90 126 162 203 257 316 360
#     4   9  19  37  64  90 115 163 217 253 290 374
#     4  10  22  37  62  92 136 157 196 262 324 365
#     4   9  21  39  66  88 117 164 219 253 292 370
#
# _framework density 23.578709
#
# number of rings (size 3 to 8) (size 9 to 14) (size 15 to 20)
#    0.000    2.286    1.429    0.000    6.000    2.286 
#    0.000    2.857    0.000    0.000    0.000    0.000 
#    0.000    0.000    0.000    0.000    0.000    0.000 
#
# Total GULP energy -173466.393108 kJ/mol
# GULP energy per Si atom -12390.456651 kJ/mol
# Density = 2.352504 g / cm^3
# Si number density = 23.578709 Si / 1000 Ang^3
#
#
#
# Elastic Constant Matrix: (Units=GPa)
#
#
# Indices 1 2 3 4 5 6 
#
# 1 115.8634 44.4112 49.2873 -28.0426 16.2840 -3.5283
# 2 44.4112 146.0054 58.1566 -31.1108 24.3059 -13.2978
# 3 49.2873 58.1566 137.5182 -31.8719 30.6686 -3.3610
# 4 -28.0426 -31.1108 -31.8719 29.2636 -2.7203 4.2731
# 5 16.2840 24.3059 30.6686 -2.7203 36.2771 -9.8392
# 6 -3.5283 -13.2978 -3.3610 4.2731 -9.8392 43.2592
#
#
#
# Elastic Compliance Matrix: (Units=1/GPa)
#
#
# Indices 1 2 3 4 5 6 
#
# 1 0.012147 -0.000737 -0.001041 0.009542 -0.003659 -0.001092
# 2 -0.000737 0.010140 -0.001010 0.008379 -0.004686 0.001085
# 3 -0.001041 -0.001010 0.012754 0.011327 -0.009518 -0.002688
# 4 0.009542 0.008379 0.011327 0.063893 -0.016248 -0.005773
# 5 -0.003659 -0.004686 -0.009518 -0.016248 0.041499 0.008565
# 6 -0.001092 0.001085 -0.002688 -0.005773 0.008565 0.025670
#
#
# Mechanical properties :
#
#
# Convention : Reuss Voigt Hill
#
# Bulk Modulus (GPa) = 33.93965 78.12191 56.03078
# Shear Modulus (GPa) = 27.54782 38.26213 32.90497
#
# Velocity S-wave (km/s) = 3.42180 4.03270 3.73974
# Velocity P-wave (km/s) = 5.48061 7.40863 6.51632
#
# Compressibility (1/GPa) = 0.02946406
#
# Stress axis : x y z
#
# Youngs Moduli (GPa) = 82.32745 98.61762 78.40453
#
# Poissons Ratio (x) = 0.07271 0.08161
# Poissons Ratio (y) = 0.06070 0.07922
# Poissons Ratio (z) = 0.08569 0.09964
#
# Static dielectric constant tensor:
#      x y z
#    x 4.466280 -0.350850 0.513830 
#    y -0.350850 5.004440 -0.684370 
#    z 0.513830 -0.684370 4.614870 
# 
# 
# High freq. dielectric constant tensor:
#      x y z
#    x 1.932020 -0.006000 0.022810 
#    y -0.006000 1.974810 -0.016150 
#    z 0.022810 -0.016150 1.927390 
# 
# From -- ./inp_files/205046.got.cif
#   From: 2010.06.25/outbox.cif.g09.slc.cpg/sg2_103_cif.got.tgz:205046.got - 2010.06.27 13:26:56.
