data_PCOD8009510
_publ_section_title
;
Structure prediction by ZEFSAII (Michael W. Deem and Ramdas Pophale) SiO2 
 PCOD8009510
Probable space group: P -1
;
_chemical_formula_sum "Si O2"
_cell_formula_units_Z 16
_cell_length_a 14.143606
_cell_length_b 11.768938
_cell_length_c 7.255155
_cell_angle_alpha 41.358736
_cell_angle_beta 79.967676
_cell_angle_gamma 62.654986
_cell_volume 678.222397
_symmetry_space_group_name_H-M "P -1"
_symmetry_group_IT_number 2
_symmetry_cell_setting 'triclinic'
loop_
_space_group_symop_operation_xyz
x,y,z
-x,-y,-z
loop_
_atom_site_type_symbol
_atom_site_label
_atom_site_fract_x
_atom_site_fract_y
_atom_site_fract_z
Si Si1 0.151888 0.006275 0.505307
Si Si2 0.212990 0.473760 0.119691
Si Si3 0.668414 0.894525 0.262163
Si Si4 0.143452 0.241458 0.905983
Si Si5 0.436019 0.348799 0.321278
Si Si6 0.076101 0.671132 0.277454
Si Si7 0.615125 0.237905 0.105100
Si Si8 0.911042 0.213174 0.488061
O O1 0.042706 0.079258 0.575983
O O2 0.254238 0.877804 0.759911
O O3 0.156565 0.871803 0.493189
O O4 0.155224 0.190778 0.181868
O O5 0.236188 0.253059 0.439623
O O6 0.334219 0.454643 0.078401
O O7 0.152314 0.626250 0.126630
O O8 0.138141 0.562380 0.854970
O O9 0.733366 0.891169 0.061084
O O10 0.586290 0.803548 0.362298
O O11 0.596450 0.119490 0.088794
O O12 0.093995 0.474073 0.613352
O O13 0.052875 0.191495 0.907013
O O14 0.551314 0.227496 0.321239
O O15 0.431702 0.530940 0.218660
O O16 0.108317 0.779338 0.294164
#
# Coordination Sequence:
#
# PCOD8009510 Si02
#       8
#     2   2   2   2   2   2   2   2
#     4  11  23  36  55  92 121 148 212 243 290 378
#     4   9  19  40  58  89 120 152 207 241 289 376
#     4   9  20  37  60  88 115 160 200 244 304 352
#     4  10  21  37  54  88 121 151 203 244 288 377
#     4   9  21  38  63  83 122 153 206 252 296 362
#     4  10  21  37  59  83 122 164 191 238 307 352
#     4  11  20  38  64  87 114 162 200 254 301 346
#     4  11  22  38  59  88 125 159 190 252 308 346
#
# _framework density 23.591083000000001
#
# number of rings (size 3 to 8) (size 9 to 14) (size 15 to 20)
#    0.750    1.250    2.500    1.125    1.750    2.000 
#    0.000    0.625    2.750    2.250    0.000    0.000 
#    0.000    0.000    0.000    0.000    0.000    0.000 
#
# Total GULP energy -198251.916227 kJ/mol
# GULP energy per Si atom -12390.744764 kJ/mol
# Density = 2.353739 g / cm^3
# Si number density = 23.591083 Si / 1000 Ang^3
#
#
#
# Elastic Constant Matrix: (Units=GPa)
#
#
# Indices 1 2 3 4 5 6 
#
# 1 66.0719 16.0133 -3.0581 -5.3969 -14.6997 -15.5762
# 2 16.0133 83.2876 11.7815 -12.3666 -4.6426 -2.3757
# 3 -3.0581 11.7815 31.9488 -6.8328 -5.3356 4.3190
# 4 -5.3969 -12.3666 -6.8328 34.9812 5.9782 0.6073
# 5 -14.6997 -4.6426 -5.3356 5.9782 22.2166 0.0211
# 6 -15.5762 -2.3757 4.3190 0.6073 0.0211 31.6702
#
#
#
# Elastic Compliance Matrix: (Units=1/GPa)
#
#
# Indices 1 2 3 4 5 6 
#
# 1 0.021867 -0.003720 0.004656 0.000281 0.014724 0.009826
# 2 -0.003720 0.013864 -0.004951 0.003660 -0.001738 -0.000184
# 3 0.004656 -0.004951 0.036572 0.004523 0.009615 -0.003162
# 4 0.000281 0.003660 0.004523 0.031942 -0.006557 -0.000812
# 5 0.014724 -0.001738 0.009615 -0.006557 0.058458 0.005887
# 6 0.009826 -0.000184 -0.003162 -0.000812 0.005887 0.036837
#
#
# Mechanical properties :
#
#
# Convention : Reuss Voigt Hill
#
# Bulk Modulus (GPa) = 15.55887 25.64241 20.60064
# Shear Modulus (GPa) = 21.83448 28.21172 25.02310
#
# Velocity S-wave (km/s) = 3.04557 3.46188 3.26037
# Velocity P-wave (km/s) = 4.35624 5.18388 4.78798
#
# Compressibility (1/GPa) = 0.06427201
#
# Stress axis : x y z
#
# Youngs Moduli (GPa) = 45.73034 72.13153 27.34331
#
# Poissons Ratio (x) = 0.26834 -0.12730
# Poissons Ratio (y) = 0.17012 0.13538
# Poissons Ratio (z) = -0.21291 0.35713
#
# Static dielectric constant tensor:
#      x y z
#    x 4.000920 -0.050890 -0.145270 
#    y -0.050890 3.940420 -0.225830 
#    z -0.145270 -0.225830 4.316790 
# 
# 
# High freq. dielectric constant tensor:
#      x y z
#    x 1.914300 -0.012230 -0.016090 
#    y -0.012230 1.913670 -0.019830 
#    z -0.016090 -0.019830 1.932070 
# 
# From -- ./inp_files/306236.got.cif
#   From: 2010.06.25/outbox.cif.g09.slc.cpg/sg2_154_cif.got.tgz:306236.got - 2010.06.27 13:26:56.
