data_PCOD8009065
_publ_section_title
;
Structure prediction by ZEFSAII (Michael W. Deem and Ramdas Pophale) SiO2 
 PCOD8009065
Probable space group: P -1
;
_chemical_formula_sum "Si O2"
_cell_formula_units_Z 16
_cell_length_a 22.531612
_cell_length_b 10.649723
_cell_length_c 19.948036
_cell_angle_alpha 140.326041
_cell_angle_beta 162.763691
_cell_angle_gamma 31.099020
_cell_volume 695.432860
_symmetry_space_group_name_H-M "P -1"
_symmetry_group_IT_number 2
_symmetry_cell_setting 'triclinic'
loop_
_space_group_symop_operation_xyz
x,y,z
-x,-y,-z
loop_
_atom_site_type_symbol
_atom_site_label
_atom_site_fract_x
_atom_site_fract_y
_atom_site_fract_z
Si Si1 0.687871 0.082174 0.307151
Si Si2 0.445808 0.173306 0.423611
Si Si3 0.576163 0.638808 0.097265
Si Si4 0.115449 0.198503 0.461304
Si Si5 0.331926 0.560593 0.191893
Si Si6 0.511417 0.714363 0.621742
Si Si7 0.789089 0.911921 0.204577
Si Si8 0.851925 0.633617 0.688387
O O1 0.571544 0.369786 0.320238
O O2 0.878476 0.884319 0.489522
O O3 0.845274 0.989242 0.368090
O O4 0.437436 0.102966 0.035929
O O5 0.648393 0.227948 0.675594
O O6 0.352526 0.243615 0.273797
O O7 0.200870 0.351031 0.282130
O O8 0.585088 0.875082 0.464069
O O9 0.688453 0.738686 0.308088
O O10 0.813879 0.440997 0.220043
O O11 0.500000 0.500000 0.000000
O O12 0.312409 0.867994 0.868976
O O13 0.216513 0.979154 0.425389
O O14 0.344425 0.380202 0.189722
O O15 0.052155 0.686894 0.910520
O O16 0.500000 0.500000 0.500000
O O17 0.049870 0.636186 0.346850
#
# Coordination Sequence:
#
# PCOD8009065 Si02
#       8
#     2   2   2   2   2   2   2   2
#     4   8  16  33  57  80 106 139 174 214 269 324
#     4  10  21  36  54  80 108 140 183 220 262 318
#     4  10  21  36  56  82 111 143 181 224 274 324
#     4   9  19  37  57  80 113 144 176 225 271 318
#     4   9  18  36  57  79 107 139 175 220 267 317
#     4   9  19  36  59  83 109 146 184 220 270 321
#     4   9  18  34  56  80 106 141 178 218 271 323
#     4  10  21  36  55  77 108 143 176 221 267 314
#
# _framework density 23.007254
#
# number of rings (size 3 to 8) (size 9 to 14) (size 15 to 20)
#    0.000    2.750    0.000    1.125    0.000    8.500 
#    0.000    7.500    0.000    0.000    0.000    0.000 
#    0.000    0.000    0.000    0.000    0.000    0.000 
#
# Total GULP energy -198252.695170 kJ/mol
# GULP energy per Si atom -12390.793448 kJ/mol
# Density = 2.295489 g / cm^3
# Si number density = 23.007254 Si / 1000 Ang^3
#
#
#
# Elastic Constant Matrix: (Units=GPa)
#
#
# Indices 1 2 3 4 5 6 
#
# 1 132.7649 65.5282 12.1857 -8.7007 7.6897 -11.9065
# 2 65.5282 158.0655 22.1568 -25.1490 -2.1042 -20.9161
# 3 12.1857 22.1568 33.1756 -6.1972 5.3282 -3.0965
# 4 -8.7007 -25.1490 -6.1972 22.8750 -1.1279 2.9619
# 5 7.6897 -2.1042 5.3282 -1.1279 20.0672 1.2863
# 6 -11.9065 -20.9161 -3.0965 2.9619 1.2863 39.7759
#
#
#
# Elastic Compliance Matrix: (Units=1/GPa)
#
#
# Indices 1 2 3 4 5 6 
#
# 1 0.009875 -0.004182 -0.000292 -0.001257 -0.004278 0.000966
# 2 -0.004182 0.010494 -0.004231 0.008593 0.004107 0.003164
# 3 -0.000292 -0.004231 0.035453 0.004316 -0.009531 0.000434
# 4 -0.001257 0.008593 0.004316 0.053968 0.003247 0.000355
# 5 -0.004278 0.004107 -0.009531 0.003247 0.054736 -0.001875
# 6 0.000966 0.003164 0.000434 0.000355 -0.001875 0.027162
#
#
# Mechanical properties :
#
#
# Convention : Reuss Voigt Hill
#
# Bulk Modulus (GPa) = 26.03368 58.19416 42.11392
# Shear Modulus (GPa) = 22.53241 31.48598 27.00919
#
# Velocity S-wave (km/s) = 3.13287 3.70337 3.43000
# Velocity P-wave (km/s) = 4.94232 6.60571 5.83360
#
# Compressibility (1/GPa) = 0.03841178
#
# Stress axis : x y z
#
# Youngs Moduli (GPa) = 101.26566 95.29361 28.20614
#
# Poissons Ratio (x) = 0.39852 0.00823
# Poissons Ratio (y) = 0.42349 0.11935
# Poissons Ratio (z) = 0.02954 0.40323
#
# Static dielectric constant tensor:
#      x y z
#    x 4.631700 -0.155690 -0.227240 
#    y -0.155690 4.253130 -0.137420 
#    z -0.227240 -0.137420 3.766150 
# 
# 
# High freq. dielectric constant tensor:
#      x y z
#    x 1.902760 -0.005120 0.008250 
#    y -0.005120 1.923230 -0.011840 
#    z 0.008250 -0.011840 1.870520 
# 
# From -- ./inp_files/602081.got.cif
#   From: 2010.06.25/outbox.cif.g09.slc.cpg/sg2_302_cif.got.tgz:602081.got - 2010.06.27 13:26:56.
