data_PCOD8009679
_publ_section_title
;
Structure prediction by ZEFSAII (Michael W. Deem and Ramdas Pophale) SiO2 
 PCOD8009679
Probable space group: P -1
;
_chemical_formula_sum "Si O2"
_cell_formula_units_Z 14
_cell_length_a 15.221310
_cell_length_b 9.217451
_cell_length_c 11.688723
_cell_angle_alpha 80.477930
_cell_angle_beta 25.503517
_cell_angle_gamma 91.353870
_cell_volume 636.011107
_symmetry_space_group_name_H-M "P -1"
_symmetry_group_IT_number 2
_symmetry_cell_setting 'triclinic'
loop_
_space_group_symop_operation_xyz
x,y,z
-x,-y,-z
loop_
_atom_site_type_symbol
_atom_site_label
_atom_site_fract_x
_atom_site_fract_y
_atom_site_fract_z
Si Si1 0.817677 0.093588 0.184353
Si Si2 0.519947 0.228841 0.261941
Si Si3 0.651105 0.341804 0.424091
Si Si4 0.676839 0.867678 0.723771
Si Si5 0.533888 0.141734 0.795594
Si Si6 0.725675 0.686789 0.280837
Si Si7 0.841578 0.090416 0.897709
O O1 0.746447 0.244061 0.240569
O O2 0.632332 0.955720 0.494138
O O3 0.831395 0.030086 0.048751
O O4 0.061071 0.152055 0.952592
O O5 0.455744 0.254531 0.205112
O O6 0.471185 0.351377 0.386627
O O7 0.776013 0.245803 0.958307
O O8 0.679766 0.297621 0.527928
O O9 0.791732 0.534141 0.218168
O O10 0.388485 0.295390 0.706261
O O11 0.919915 0.867664 0.443933
O O12 0.684548 0.046095 0.667925
O O13 0.554017 0.800238 0.996478
O O14 0.329617 0.038185 0.968467
#
# Coordination Sequence:
#
# PCOD8009679 Si02
#       7
#     2   2   2   2   2   2   2
#     4  12  21  36  61  87 115 150 194 239 288 336
#     4  11  21  35  59  90 116 146 196 238 284 340
#     4  11  23  40  56  87 120 152 187 237 287 353
#     4  10  21  37  59  88 112 151 191 246 281 328
#     4  10  22  38  58  88 116 147 198 235 286 340
#     4  11  24  37  58  86 122 153 185 235 296 341
#     4  11  20  34  61  84 118 143 193 241 286 330
#
# _framework density 22.012193
#
# number of rings (size 3 to 8) (size 9 to 14) (size 15 to 20)
#    0.000    1.143    5.714    2.571    2.000    0.000 
#    0.000    0.714    0.000    0.857    0.000    0.000 
#    0.000    0.000    0.000    0.000    0.000    0.000 
#
# Total GULP energy -173528.211037 kJ/mol
# GULP energy per Si atom -12394.872217 kJ/mol
# Density = 2.196209 g / cm^3
# Si number density = 22.012193 Si / 1000 Ang^3
#
#
#
# Elastic Constant Matrix: (Units=GPa)
#
#
# Indices 1 2 3 4 5 6 
#
# 1 78.5390 13.5602 12.9394 1.7443 7.1896 4.7316
# 2 13.5602 64.9470 8.8126 20.6959 3.5199 0.6250
# 3 12.9394 8.8126 64.2935 28.8950 -3.1126 -1.9725
# 4 1.7443 20.6959 28.8950 37.9227 1.6905 -5.2930
# 5 7.1896 3.5199 -3.1126 1.6905 42.8069 9.8090
# 6 4.7316 0.6250 -1.9725 -5.2930 9.8090 29.3133
#
#
#
# Elastic Compliance Matrix: (Units=1/GPa)
#
#
# Indices 1 2 3 4 5 6 
#
# 1 0.014341 -0.003818 -0.004782 0.005063 -0.002455 -0.000820
# 2 -0.003818 0.020254 0.004536 -0.014673 0.000411 -0.002298
# 3 -0.004782 0.004536 0.026269 -0.022865 0.003931 -0.003001
# 4 0.005063 -0.014673 -0.022865 0.053127 -0.005561 0.009411
# 5 -0.002455 0.000411 0.003931 -0.005561 0.026345 -0.009168
# 6 -0.000820 -0.002298 -0.003001 0.009411 -0.009168 0.038861
#
#
# Mechanical properties :
#
#
# Convention : Reuss Voigt Hill
#
# Bulk Modulus (GPa) = 18.96227 30.93377 24.94802
# Shear Modulus (GPa) = 24.40170 33.50642 28.95406
#
# Velocity S-wave (km/s) = 3.33311 3.90574 3.63073
# Velocity P-wave (km/s) = 4.84210 5.86713 5.37909
#
# Compressibility (1/GPa) = 0.05273630
#
# Stress axis : x y z
#
# Youngs Moduli (GPa) = 69.72924 49.37215 38.06839
#
# Poissons Ratio (x) = 0.18849 0.18205
# Poissons Ratio (y) = 0.26621 -0.17268
# Poissons Ratio (z) = 0.33346 -0.22395
#
# Static dielectric constant tensor:
#      x y z
#    x 4.282630 -0.040120 -0.055750 
#    y -0.040120 3.977570 0.525180 
#    z -0.055750 0.525180 3.781270 
# 
# 
# High freq. dielectric constant tensor:
#      x y z
#    x 1.882940 -0.001450 -0.012570 
#    y -0.001450 1.851920 0.049600 
#    z -0.012570 0.049600 1.829830 
# 
# From -- ./inp_files/436968.got.cif
#   From: 2010.06.25/outbox.cif.g09.slc.cpg/sg2_219_cif.got.tgz:436968.got - 2010.06.27 13:26:56.
