data_PCOD8009756
_publ_section_title
;
Structure prediction by ZEFSAII (Michael W. Deem and Ramdas Pophale) SiO2 
 PCOD8009756
Probable space group: P -1
;
_chemical_formula_sum "Si O2"
_cell_formula_units_Z 16
_cell_length_a 10.446828
_cell_length_b 7.225584
_cell_length_c 19.889106
_cell_angle_alpha 91.074249
_cell_angle_beta 147.426797
_cell_angle_gamma 87.062875
_cell_volume 806.378994
_symmetry_space_group_name_H-M "P -1"
_symmetry_group_IT_number 2
_symmetry_cell_setting 'triclinic'
loop_
_space_group_symop_operation_xyz
x,y,z
-x,-y,-z
loop_
_atom_site_type_symbol
_atom_site_label
_atom_site_fract_x
_atom_site_fract_y
_atom_site_fract_z
Si Si1 0.827395 0.856640 0.449587
Si Si2 0.573955 0.007920 0.636105
Si Si3 0.085343 0.686308 0.693133
Si Si4 0.990339 0.975174 0.093164
Si Si5 0.653403 0.684717 0.237959
Si Si6 0.537542 0.027223 0.096253
Si Si7 0.599635 0.699741 0.543677
Si Si8 0.127161 0.687528 0.046662
O O1 0.770971 0.724262 0.361997
O O2 0.962697 0.748228 0.569277
O O3 0.584810 0.971713 0.366676
O O4 0.000000 0.000000 0.500000
O O5 0.516637 0.815602 0.573808
O O6 0.516241 0.191410 0.569318
O O7 0.858248 0.998652 0.772687
O O8 0.197411 0.480585 0.732955
O O9 0.292736 0.809606 0.812104
O O10 0.885749 0.685145 0.662849
O O11 0.132328 0.801165 0.118867
O O12 0.721994 0.923461 0.986736
O O13 0.010361 0.169718 0.064500
O O14 0.387651 0.628254 0.133953
O O15 0.656981 0.849194 0.186255
O O16 0.500000 0.000000 0.000000
O O17 0.500000 0.500000 0.500000
O O18 0.000000 0.500000 0.000000
#
# Coordination Sequence:
#
# PCOD8009756 Si02
#       8
#     2   2   2   2   2   2   2   2
#     4  11  22  40  67  94 126 167 202 257 320 367
#     4  10  22  42  63  89 124 160 207 253 302 367
#     4  11  24  41  65  95 126 162 212 255 311 376
#     4  10  21  39  61  87 120 158 202 248 302 359
#     4  11  23  41  64  95 130 161 206 259 314 372
#     4  11  24  42  65  90 123 171 210 256 310 366
#     4  10  24  41  62  91 122 164 206 251 304 360
#     4  10  21  37  60  91 123 158 196 247 307 363
#
# _framework density 19.841785999999999
#
# number of rings (size 3 to 8) (size 9 to 14) (size 15 to 20)
#    0.000    1.500    2.500    1.875    1.750    4.500 
#    0.000    0.000    0.000    0.000    0.000    0.000 
#    0.000    0.000    0.000    0.000    0.000    0.000 
#
# Total GULP energy -198362.656911 kJ/mol
# GULP energy per Si atom -12397.666057 kJ/mol
# Density = 1.979663 g / cm^3
# Si number density = 19.841786 Si / 1000 Ang^3
#
#
#
# Elastic Constant Matrix: (Units=GPa)
#
#
# Indices 1 2 3 4 5 6 
#
# 1 94.0682 56.0566 36.9139 5.9962 2.4736 -1.2021
# 2 56.0566 139.2083 52.8094 12.3937 10.7625 0.6341
# 3 36.9139 52.8094 113.1546 12.8796 0.0586 0.1287
# 4 5.9962 12.3937 12.8796 25.9305 -2.4181 13.1191
# 5 2.4736 10.7625 0.0586 -2.4181 32.3895 8.9326
# 6 -1.2021 0.6341 0.1287 13.1191 8.9326 23.9224
#
#
#
# Elastic Compliance Matrix: (Units=1/GPa)
#
#
# Indices 1 2 3 4 5 6 
#
# 1 0.014543 -0.004946 -0.002411 -0.000232 0.000272 0.000901
# 2 -0.004946 0.011133 -0.002986 -0.005256 -0.004858 0.004169
# 3 -0.002411 -0.002986 0.011600 -0.005145 0.000024 0.002708
# 4 -0.000232 -0.005256 -0.005145 0.067771 0.018996 -0.044103
# 5 0.000272 -0.004858 0.000024 0.018996 0.040935 -0.025560
# 6 0.000901 0.004169 0.002708 -0.044103 -0.025560 0.075453
#
#
# Mechanical properties :
#
#
# Convention : Reuss Voigt Hill
#
# Bulk Modulus (GPa) = 60.27740 70.88788 65.58264
# Shear Modulus (GPa) = 20.18977 29.82522 25.00750
#
# Velocity S-wave (km/s) = 3.19335 3.88126 3.55399
# Velocity P-wave (km/s) = 6.63638 7.47594 7.06864
#
# Compressibility (1/GPa) = 0.01658997
#
# Stress axis : x y z
#
# Youngs Moduli (GPa) = 68.76025 89.82681 86.20729
#
# Poissons Ratio (x) = 0.44430 0.20782
# Poissons Ratio (y) = 0.34010 0.25741
# Poissons Ratio (z) = 0.16576 0.26822
#
# Static dielectric constant tensor:
#      x y z
#    x 3.812340 -0.139750 0.127000 
#    y -0.139750 3.488010 0.056370 
#    z 0.127000 0.056370 3.449570 
# 
# 
# High freq. dielectric constant tensor:
#      x y z
#    x 1.781250 -0.007060 0.006780 
#    y -0.007060 1.774060 -0.000110 
#    z 0.006780 -0.000110 1.785000 
# 
# From -- ./inp_files/70598.got.cif
#   From: 2010.06.25/outbox.cif.g09.slc.cpg/sg2_36_cif.got.tgz:70598.got - 2010.06.27 13:26:56.
