data_PCOD8009581
_publ_section_title
;
Structure prediction by ZEFSAII (Michael W. Deem and Ramdas Pophale) SiO2 
 PCOD8009581
Probable space group: P -1
;
_chemical_formula_sum "Si O2"
_cell_formula_units_Z 16
_cell_length_a 11.332111
_cell_length_b 21.389333
_cell_length_c 5.057210
_cell_angle_alpha 86.657177
_cell_angle_beta 107.406139
_cell_angle_gamma 141.405063
_cell_volume 697.218706
_symmetry_space_group_name_H-M "P -1"
_symmetry_group_IT_number 2
_symmetry_cell_setting 'triclinic'
loop_
_space_group_symop_operation_xyz
x,y,z
-x,-y,-z
loop_
_atom_site_type_symbol
_atom_site_label
_atom_site_fract_x
_atom_site_fract_y
_atom_site_fract_z
Si Si1 0.396606 0.601747 0.401395
Si Si2 0.452649 0.708932 0.919115
Si Si3 0.877352 0.104284 0.102867
Si Si4 0.723222 0.098501 0.503807
Si Si5 0.862823 0.956848 0.169648
Si Si6 0.979163 0.422100 0.399616
Si Si7 0.237685 0.336757 0.364545
Si Si8 0.942559 0.671332 0.258781
O O1 0.450734 0.675694 0.639878
O O2 0.152805 0.484231 0.272689
O O3 0.524525 0.588602 0.530553
O O4 0.449260 0.651580 0.140828
O O5 0.257864 0.677893 0.839463
O O6 0.657918 0.832441 0.060678
O O7 0.726462 0.083621 0.198409
O O8 0.110453 0.219149 0.308185
O O9 0.804647 0.005328 0.135049
O O10 0.861377 0.108799 0.776607
O O11 0.821899 0.207263 0.585039
O O12 0.500000 0.000000 0.500000
O O13 0.000000 0.000000 0.500000
O O14 0.000000 0.000000 0.000000
O O15 0.031868 0.392842 0.670480
O O16 0.000000 0.500000 0.500000
O O17 0.207715 0.359088 0.616654
O O18 0.158305 0.352964 0.084495
#
# Coordination Sequence:
#
# PCOD8009581 Si02
#       8
#     2   2   2   2   2   2   2   2
#     4  11  23  43  69  92 130 176 221 277 330 382
#     4  11  24  42  66  97 133 177 220 270 328 392
#     4  10  21  37  57  89 124 163 204 261 315 381
#     4  10  21  38  60  87 125 164 207 257 320 381
#     4  12  24  40  64  98 133 172 219 265 324 395
#     4  10  25  46  67  95 134 174 223 271 329 393
#     4  10  21  40  64  94 127 164 215 271 327 382
#     4  10  23  40  64  96 127 167 216 270 325 390
#
# _framework density 22.948322999999998
#
# number of rings (size 3 to 8) (size 9 to 14) (size 15 to 20)
#    0.000    1.500    0.000    4.500    1.750    7.000 
#    2.250    0.000    0.000    0.000    0.000    0.000 
#    0.000    0.000    0.000    0.000    0.000    0.000 
#
# Total GULP energy -198320.498047 kJ/mol
# GULP energy per Si atom -12395.031128 kJ/mol
# Density = 2.289609 g / cm^3
# Si number density = 22.948323 Si / 1000 Ang^3
#
#
#
# Elastic Constant Matrix: (Units=GPa)
#
#
# Indices 1 2 3 4 5 6 
#
# 1 92.1682 45.6993 28.2859 2.0853 14.7952 17.2941
# 2 45.6993 117.6247 28.4066 -8.2833 15.5954 21.5021
# 3 28.2859 28.4066 88.5266 -9.7574 -2.4143 7.9993
# 4 2.0853 -8.2833 -9.7574 38.3742 -0.2045 11.8258
# 5 14.7952 15.5954 -2.4143 -0.2045 40.4137 -3.9968
# 6 17.2941 21.5021 7.9993 11.8258 -3.9968 42.9158
#
#
#
# Elastic Compliance Matrix: (Units=1/GPa)
#
#
# Indices 1 2 3 4 5 6 
#
# 1 0.015365 -0.003930 -0.003623 -0.001532 -0.004685 -0.003561
# 2 -0.003930 0.012352 -0.001833 0.004175 -0.003988 -0.005785
# 3 -0.003623 -0.001833 0.013586 0.003539 0.002777 -0.000870
# 4 -0.001532 0.004175 0.003539 0.031300 -0.001761 -0.010923
# 5 -0.004685 -0.003988 0.002777 -0.001761 0.028802 0.006536
# 6 -0.003561 -0.005785 -0.000870 -0.010923 0.006536 0.031416
#
#
# Mechanical properties :
#
#
# Convention : Reuss Voigt Hill
#
# Bulk Modulus (GPa) = 44.38631 55.90035 50.14333
# Shear Modulus (GPa) = 31.42578 37.40260 34.41419
#
# Velocity S-wave (km/s) = 3.70458 4.04153 3.87672
# Velocity P-wave (km/s) = 6.13860 6.79638 6.47584
#
# Compressibility (1/GPa) = 0.02252947
#
# Stress axis : x y z
#
# Youngs Moduli (GPa) = 65.08119 80.96046 73.60268
#
# Poissons Ratio (x) = 0.31821 0.26667
# Poissons Ratio (y) = 0.25580 0.13495
# Poissons Ratio (z) = 0.23580 0.14844
#
# Static dielectric constant tensor:
#      x y z
#    x 4.696880 -0.842710 1.543470 
#    y -0.842710 6.788870 -3.054170 
#    z 1.543470 -3.054170 8.924380 
# 
# 
# High freq. dielectric constant tensor:
#      x y z
#    x 1.899730 0.006590 -0.003110 
#    y 0.006590 1.921910 -0.005500 
#    z -0.003110 -0.005500 1.911320 
# 
# From -- ./inp_files/82571.got.cif
#   From: 2010.06.25/outbox.cif.g09.slc.cpg/sg2_42_cif.got.tgz:82571.got - 2010.06.27 13:26:56.
