data_PCOD8009745
_publ_section_title
;
Structure prediction by ZEFSAII (Michael W. Deem and Ramdas Pophale) SiO2 
 PCOD8009745
Probable space group: P -1
;
_chemical_formula_sum "Si O2"
_cell_formula_units_Z 16
_cell_length_a 8.571829
_cell_length_b 17.647526
_cell_length_c 7.892050
_cell_angle_alpha 94.177447
_cell_angle_beta 125.588102
_cell_angle_gamma 115.618484
_cell_volume 785.049504
_symmetry_space_group_name_H-M "P -1"
_symmetry_group_IT_number 2
_symmetry_cell_setting 'triclinic'
loop_
_space_group_symop_operation_xyz
x,y,z
-x,-y,-z
loop_
_atom_site_type_symbol
_atom_site_label
_atom_site_fract_x
_atom_site_fract_y
_atom_site_fract_z
Si Si1 0.785348 0.653531 0.647724
Si Si2 0.749891 0.473314 0.185603
Si Si3 0.146855 0.657398 0.657125
Si Si4 0.573224 0.848497 0.857885
Si Si5 0.154337 0.160805 0.269257
Si Si6 0.383835 0.467671 0.181906
Si Si7 0.267879 0.083472 0.648344
Si Si8 0.592202 0.022281 0.875694
O O1 0.732708 0.730136 0.623962
O O2 0.567541 0.556323 0.423614
O O3 0.803583 0.626636 0.846960
O O4 0.020967 0.691954 0.696435
O O5 0.739587 0.379558 0.154965
O O6 0.512436 0.441488 0.127987
O O7 0.977589 0.566563 0.422481
O O8 0.759715 0.501936 0.003453
O O9 0.332881 0.744492 0.670255
O O10 0.773589 0.857137 0.869538
O O11 0.539919 0.924297 0.764316
O O12 0.638222 0.861980 0.102775
O O13 0.258048 0.139516 0.493625
O O14 0.871436 0.103047 0.069543
O O15 0.436761 0.051876 0.688050
O O16 0.000000 0.000000 0.500000
O O17 0.500000 0.000000 0.000000
#
# Coordination Sequence:
#
# PCOD8009745 Si02
#       8
#     2   2   2   2   2   2   2   2
#     4  10  21  37  60  89 125 164 205 262 314 369
#     4   9  19  38  61  86 120 163 208 255 315 376
#     4  10  21  38  60  89 126 161 205 264 313 367
#     4  11  24  43  64  94 130 166 213 268 311 379
#     4  12  24  44  65  95 132 168 213 263 314 380
#     4   9  19  38  60  86 121 163 207 255 315 378
#     4  11  24  43  70  94 125 174 207 259 330 372
#     4  10  21  43  66  92 131 161 210 265 308 378
#
# _framework density 20.380882
#
# number of rings (size 3 to 8) (size 9 to 14) (size 15 to 20)
#    0.000    1.750    2.500    2.625    1.750    2.000 
#    6.750    0.000    0.000    0.000    0.000    0.000 
#    0.000    0.000    0.000    0.000    0.000    0.000 
#
# Total GULP energy -198224.959862 kJ/mol
# GULP energy per Si atom -12389.059991 kJ/mol
# Density = 2.033449 g / cm^3
# Si number density = 20.380882 Si / 1000 Ang^3
#
#
#
# Elastic Constant Matrix: (Units=GPa)
#
#
# Indices 1 2 3 4 5 6 
#
# 1 110.1542 68.8780 45.7941 4.5094 9.5412 -2.3176
# 2 68.8780 49.5779 -19.0199 -64.7798 -10.6940 -5.2660
# 3 45.7941 -19.0199 17.9180 -51.8480 -3.0461 1.3939
# 4 4.5094 -64.7798 -51.8480 11.8514 -4.2688 5.2620
# 5 9.5412 -10.6940 -3.0461 -4.2688 26.6074 -1.1900
# 6 -2.3176 -5.2660 1.3939 5.2620 -1.1900 40.8745
#
#
#
# Elastic Compliance Matrix: (Units=1/GPa)
#
#
# Indices 1 2 3 4 5 6 
#
# 1 0.007814 -0.000009 0.002517 0.007832 -0.001292 -0.000690
# 2 -0.000009 0.007720 -0.011007 -0.006635 0.000882 0.002249
# 3 0.002517 -0.011007 0.012398 -0.008451 -0.005297 -0.000764
# 4 0.007832 -0.006635 -0.008451 0.006718 -0.005416 -0.001145
# 5 -0.001292 0.000882 -0.005297 -0.005416 0.037015 0.001996
# 6 -0.000690 0.002249 -0.000764 -0.001145 0.001996 0.024947
#
#
# Mechanical properties :
#
#
# Convention : Reuss Voigt Hill
#
# Bulk Modulus (GPa) = 91.45312 40.99494 66.22403
# Shear Modulus (GPa) = 42.64250 21.33320 31.98785
#
# Velocity S-wave (km/s) = 4.57911 3.23882 3.96599
# Velocity P-wave (km/s) = 8.53973 5.84335 7.31682
#
# Compressibility (1/GPa) = 0.01093456
#
# Stress axis : x y z
#
# Youngs Moduli (GPa) = 127.97596 129.53820 80.65934
#
# Poissons Ratio (x) = 0.00112 -0.20302
# Poissons Ratio (y) = 0.00111 0.88780
# Poissons Ratio (z) = -0.32212 1.42580
#
# Static dielectric constant tensor:
#      x y z
#    x 4.287950 -0.656030 0.186940 
#    y -0.656030 4.766520 -0.631360 
#    z 0.186940 -0.631360 3.612580 
# 
# 
# High freq. dielectric constant tensor:
#      x y z
#    x 1.802840 -0.000820 0.004320 
#    y -0.000820 1.813180 -0.006450 
#    z 0.004320 -0.006450 1.777220 
# 
# From -- ./inp_files/202294.got.cif
#   From: 2010.06.25/outbox.cif.g09.slc.cpg/sg2_102_cif.got.tgz:202294.got - 2010.06.27 13:26:56.
