data_PCOD8009280
_publ_section_title
;
Structure prediction by ZEFSAII (Michael W. Deem and Ramdas Pophale) SiO2 
 PCOD8009280
Probable space group: P -1
;
_chemical_formula_sum "Si O2"
_cell_formula_units_Z 16
_cell_length_a 14.131780
_cell_length_b 12.966465
_cell_length_c 10.716547
_cell_angle_alpha 79.381042
_cell_angle_beta 148.990732
_cell_angle_gamma 120.922165
_cell_volume 707.219030
_symmetry_space_group_name_H-M "P -1"
_symmetry_group_IT_number 2
_symmetry_cell_setting 'triclinic'
loop_
_space_group_symop_operation_xyz
x,y,z
-x,-y,-z
loop_
_atom_site_type_symbol
_atom_site_label
_atom_site_fract_x
_atom_site_fract_y
_atom_site_fract_z
Si Si1 0.661839 0.902190 0.887309
Si Si2 0.320868 0.890062 0.660307
Si Si3 0.809697 0.755827 0.208817
Si Si4 0.593984 0.340712 0.522992
Si Si5 0.400267 0.801459 0.007196
Si Si6 0.421647 0.477166 0.186938
Si Si7 0.880362 0.458754 0.072910
Si Si8 0.830986 0.801834 0.504331
O O1 0.408585 0.871692 0.634350
O O2 0.615489 0.833274 0.713114
O O3 0.676688 0.814403 0.024934
O O4 0.921087 0.074923 0.156914
O O5 0.049561 0.841695 0.363552
O O6 0.547053 0.064233 0.903532
O O7 0.302783 0.786615 0.761468
O O8 0.902048 0.785422 0.450192
O O9 0.618196 0.585776 0.984374
O O10 0.459895 0.400489 0.348494
O O11 0.683172 0.355326 0.760050
O O12 0.827370 0.431094 0.666700
O O13 0.172718 0.650683 0.858140
O O14 0.661480 0.838154 0.289418
O O15 0.173545 0.447098 0.953315
O O16 0.674548 0.650877 0.435166
#
# Coordination Sequence:
#
# PCOD8009280 Si02
#       8
#     2   2   2   2   2   2   2   2
#     4  11  22  38  60  89 123 154 202 240 296 356
#     4  11  21  35  60  86 123 158 188 241 304 346
#     4  11  21  37  58  89 124 157 194 240 294 363
#     4  10  23  42  66  85 115 162 199 251 294 344
#     4  10  21  36  60  89 117 161 195 239 297 354
#     4  10  23  38  63  89 117 156 201 243 300 348
#     4  10  22  44  63  85 120 152 209 248 291 345
#     4  11  20  38  57  90 127 156 192 244 293 359
#
# _framework density 22.623826999999999
#
# number of rings (size 3 to 8) (size 9 to 14) (size 15 to 20)
#    0.000    1.500    2.500    3.375    3.500    0.000 
#    0.000    5.000    2.750    0.000    0.000    0.000 
#    0.000    0.000    0.000    0.000    0.000    0.000 
#
# Total GULP energy -198349.121387 kJ/mol
# GULP energy per Si atom -12396.820087 kJ/mol
# Density = 2.257233 g / cm^3
# Si number density = 22.623827 Si / 1000 Ang^3
#
#
#
# Elastic Constant Matrix: (Units=GPa)
#
#
# Indices 1 2 3 4 5 6 
#
# 1 51.6619 19.1964 6.8161 6.0280 7.5019 -15.1911
# 2 19.1964 78.0811 14.3951 12.6846 1.7513 -14.6105
# 3 6.8161 14.3951 70.1272 12.9585 -8.1189 -8.3985
# 4 6.0280 12.6846 12.9585 28.8334 -7.9198 -1.3237
# 5 7.5019 1.7513 -8.1189 -7.9198 39.9373 -1.0659
# 6 -15.1911 -14.6105 -8.3985 -1.3237 -1.0659 21.4384
#
#
#
# Elastic Compliance Matrix: (Units=1/GPa)
#
#
# Indices 1 2 3 4 5 6 
#
# 1 0.026538 -0.002480 0.000273 -0.005308 -0.005430 0.016624
# 2 -0.002480 0.016226 -0.001119 -0.006133 -0.001465 0.008411
# 3 0.000273 -0.001119 0.016533 -0.006105 0.002299 0.005645
# 4 -0.005308 -0.006133 -0.006105 0.043208 0.008400 -0.007247
# 5 -0.005430 -0.001465 0.002299 0.008400 0.028202 -0.002024
# 6 0.016624 0.008411 0.005645 -0.007247 -0.002024 0.065820
#
#
# Mechanical properties :
#
#
# Convention : Reuss Voigt Hill
#
# Bulk Modulus (GPa) = 18.99490 31.18727 25.09108
# Shear Modulus (GPa) = 22.65221 28.67266 25.66243
#
# Velocity S-wave (km/s) = 3.16769 3.56387 3.37161
# Velocity P-wave (km/s) = 4.66832 5.54526 5.12558
#
# Compressibility (1/GPa) = 0.05264571
#
# Stress axis : x y z
#
# Youngs Moduli (GPa) = 37.68168 61.62818 60.48431
#
# Poissons Ratio (x) = 0.15284 -0.01650
# Poissons Ratio (y) = 0.09345 0.06766
# Poissons Ratio (z) = -0.01028 0.06894
#
# Static dielectric constant tensor:
#      x y z
#    x 3.983460 -0.428750 0.051270 
#    y -0.428750 3.993690 0.071670 
#    z 0.051270 0.071670 3.955980 
# 
# 
# High freq. dielectric constant tensor:
#      x y z
#    x 1.880710 -0.036500 0.008240 
#    y -0.036500 1.884620 0.005550 
#    z 0.008240 0.005550 1.889160 
# 
# From -- ./inp_files/390419.got.cif
#   From: 2010.06.25/outbox.cif.g09.slc.cpg/sg2_196_cif.got.tgz:390419.got - 2010.06.27 13:26:56.
