data_PCOD8009192
_publ_section_title
;
Structure prediction by ZEFSAII (Michael W. Deem and Ramdas Pophale) SiO2 
 PCOD8009192
Probable space group: P -1
;
_chemical_formula_sum "Si O2"
_cell_formula_units_Z 10
_cell_length_a 7.013059
_cell_length_b 11.316774
_cell_length_c 8.672508
_cell_angle_alpha 90.800905
_cell_angle_beta 77.152412
_cell_angle_gamma 41.614548
_cell_volume 428.053364
_symmetry_space_group_name_H-M "P -1"
_symmetry_group_IT_number 2
_symmetry_cell_setting 'triclinic'
loop_
_space_group_symop_operation_xyz
x,y,z
-x,-y,-z
loop_
_atom_site_type_symbol
_atom_site_label
_atom_site_fract_x
_atom_site_fract_y
_atom_site_fract_z
Si Si1 0.756483 0.351329 0.074384
Si Si2 0.811464 0.804824 0.261016
Si Si3 0.161495 0.049506 0.457913
Si Si4 0.676189 0.602284 0.693269
Si Si5 0.096701 0.609039 0.644926
O O1 0.654882 0.273730 0.169965
O O2 0.764916 0.447730 0.208714
O O3 0.500000 0.500000 0.000000
O O4 0.083482 0.195350 0.926456
O O5 0.777456 0.934005 0.379450
O O6 0.057452 0.598842 0.278979
O O7 0.486340 0.888906 0.306557
O O8 0.943176 0.240161 0.407760
O O9 0.000000 0.000000 0.500000
O O10 0.671887 0.572297 0.510549
O O11 0.763157 0.698955 0.705388
#
# Coordination Sequence:
#
# PCOD8009192 Si02
#       5
#     2   2   2   2   2
#     4  10  21  36  58  89 120 149 186 237 290 337
#     4   9  21  38  56  85 115 148 193 233 284 343
#     4  10  22  40  59  79 114 157 192 234 284 339
#     4   9  20  38  61  86 116 149 190 240 282 337
#     4  10  21  37  60  87 115 152 195 232 283 342
#
# _framework density 23.361574000000001
#
# number of rings (size 3 to 8) (size 9 to 14) (size 15 to 20)
#    0.000    2.400    0.000    0.600    0.000   16.800 
#    0.000    2.000    0.000    0.000    0.000    0.000 
#    0.000    0.000    0.000    0.000    0.000    0.000 
#
# Total GULP energy -123948.834333 kJ/mol
# GULP energy per Si atom -12394.883433 kJ/mol
# Density = 2.330840 g / cm^3
# Si number density = 23.361574 Si / 1000 Ang^3
#
#
#
# Elastic Constant Matrix: (Units=GPa)
#
#
# Indices 1 2 3 4 5 6 
#
# 1 208.6442 36.6144 98.5981 -1.0963 -27.7103 11.3087
# 2 36.6144 14.7290 16.9598 -5.6450 9.2001 2.7591
# 3 98.5981 16.9598 171.1229 -17.3808 -20.1961 -10.8882
# 4 -1.0963 -5.6450 -17.3808 22.3923 -12.9583 -0.3032
# 5 -27.7103 9.2001 -20.1961 -12.9583 54.9327 -2.6530
# 6 11.3087 2.7591 -10.8882 -0.3032 -2.6530 33.2709
#
#
#
# Elastic Compliance Matrix: (Units=1/GPa)
#
#
# Indices 1 2 3 4 5 6 
#
# 1 0.017257 -0.048475 -0.004418 -0.007069 0.013421 -0.002286
# 2 -0.048475 0.236423 -0.000789 0.022066 -0.059517 -0.007933
# 3 -0.004418 -0.000789 0.010372 0.010253 0.004396 0.005405
# 4 -0.007069 0.022066 0.010253 0.064899 0.012082 0.005483
# 5 0.013421 -0.059517 0.004396 0.012082 0.039654 0.005085
# 6 -0.002286 -0.007933 0.005405 0.005483 0.005085 0.033715
#
#
# Mechanical properties :
#
#
# Convention : Reuss Voigt Hill
#
# Bulk Modulus (GPa) = 6.38213 77.64896 42.01555
# Shear Modulus (GPa) = 8.89817 38.27410 23.58614
#
# Velocity S-wave (km/s) = 1.95376 4.05203 3.18089
# Velocity P-wave (km/s) = 2.79774 7.42980 5.61379
#
# Compressibility (1/GPa) = 0.15668751
#
# Stress axis : x y z
#
# Youngs Moduli (GPa) = 57.94864 4.22970 96.41639
#
# Poissons Ratio (x) = 0.20503 0.42598
# Poissons Ratio (y) = 2.80906 0.07606
# Poissons Ratio (z) = 0.25602 0.00334
#
# Static dielectric constant tensor:
#      x y z
#    x 4.640650 -0.050300 -0.513120 
#    y -0.050300 3.675150 -0.172170 
#    z -0.513120 -0.172170 4.861310 
# 
# 
# High freq. dielectric constant tensor:
#      x y z
#    x 1.944460 -0.007360 -0.018960 
#    y -0.007360 1.878730 -0.016480 
#    z -0.018960 -0.016480 1.923560 
# 
# From -- ./inp_files/16057.got.cif
#   From: 2010.06.25/outbox.cif.g09.slc.cpg/sg2_9_cif.got.tgz:16057.got - 2010.06.27 13:26:56.
