data_PCOD8009350
_publ_section_title
;
Structure prediction by ZEFSAII (Michael W. Deem and Ramdas Pophale) SiO2 
 PCOD8009350
Probable space group: P -1
;
_chemical_formula_sum "Si O2"
_cell_formula_units_Z 16
_cell_length_a 13.188644
_cell_length_b 16.682624
_cell_length_c 10.820908
_cell_angle_alpha 144.445662
_cell_angle_beta 72.462827
_cell_angle_gamma 134.878140
_cell_volume 735.345707
_symmetry_space_group_name_H-M "P -1"
_symmetry_group_IT_number 2
_symmetry_cell_setting 'triclinic'
loop_
_space_group_symop_operation_xyz
x,y,z
-x,-y,-z
loop_
_atom_site_type_symbol
_atom_site_label
_atom_site_fract_x
_atom_site_fract_y
_atom_site_fract_z
Si Si1 0.754679 0.531615 0.718104
Si Si2 0.082162 0.817940 0.779219
Si Si3 0.696007 0.207378 0.959732
Si Si4 0.284935 0.791799 0.554703
Si Si5 0.980619 0.765001 0.499787
Si Si6 0.317226 0.076830 0.252943
Si Si7 0.951633 0.986978 0.640548
Si Si8 0.195009 0.784674 0.315825
O O1 0.755888 0.412353 0.668454
O O2 0.543101 0.345194 0.518019
O O3 0.872682 0.602740 0.646434
O O4 0.856336 0.767499 0.046292
O O5 0.121074 0.705946 0.572272
O O6 0.080371 0.918308 0.785488
O O7 0.247374 0.037550 0.090485
O O8 0.673643 0.089535 0.695428
O O9 0.489086 0.051194 0.866055
O O10 0.744514 0.147676 0.974258
O O11 0.844796 0.491067 0.247073
O O12 0.296767 0.824757 0.445192
O O13 0.144107 0.888140 0.498964
O O14 0.869099 0.767071 0.473168
O O15 0.205628 0.061728 0.365446
O O16 0.000000 0.000000 0.500000
O O17 0.000000 0.500000 0.000000
#
# Coordination Sequence:
#
# PCOD8009350 Si02
#       8
#     2   2   2   2   2   2   2   2
#     4  10  24  40  65  90 128 164 211 253 305 372
#     4  10  23  39  66  91 130 162 208 258 307 363
#     4  10  21  36  63  93 126 157 213 259 308 368
#     4  10  21  36  61  98 121 164 207 259 314 360
#     4  10  23  39  61  95 122 167 208 253 311 367
#     4  10  24  42  64  95 122 169 206 255 311 364
#     4  11  25  45  67  88 128 166 205 255 314 372
#     4   9  19  34  58  85 125 159 204 260 308 357
#
# _framework density 21.758472999999999
#
# number of rings (size 3 to 8) (size 9 to 14) (size 15 to 20)
#    0.000    2.000    0.000    1.500   17.500    3.500 
#    4.500    1.250    0.000    0.000    0.000    0.000 
#    0.000    0.000    0.000    0.000    0.000    0.000 
#
# Total GULP energy -198286.355401 kJ/mol
# GULP energy per Si atom -12392.897213 kJ/mol
# Density = 2.170895 g / cm^3
# Si number density = 21.758473 Si / 1000 Ang^3
#
#
#
# Elastic Constant Matrix: (Units=GPa)
#
#
# Indices 1 2 3 4 5 6 
#
# 1 128.4987 41.3174 41.2424 6.3741 15.2564 -0.8925
# 2 41.3174 90.1214 39.0877 -10.2442 9.4387 4.8819
# 3 41.2424 39.0877 75.2903 -1.5621 10.8889 4.5948
# 4 6.3741 -10.2442 -1.5621 31.0669 -3.1963 7.8638
# 5 15.2564 9.4387 10.8889 -3.1963 27.2943 3.5348
# 6 -0.8925 4.8819 4.5948 7.8638 3.5348 31.6063
#
#
#
# Elastic Compliance Matrix: (Units=1/GPa)
#
#
# Indices 1 2 3 4 5 6 
#
# 1 0.010942 -0.003654 -0.003762 -0.004873 -0.004326 0.003117
# 2 -0.003654 0.016388 -0.006168 0.006715 0.000065 -0.003416
# 3 -0.003762 -0.006168 0.019097 -0.000251 -0.003217 -0.001507
# 4 -0.004873 0.006715 -0.000251 0.038996 0.006568 -0.011575
# 5 -0.004326 0.000065 -0.003217 0.006568 0.041860 -0.005980
# 6 0.003117 -0.003416 -0.001507 -0.011575 -0.005980 0.036023
#
#
# Mechanical properties :
#
#
# Convention : Reuss Voigt Hill
#
# Bulk Modulus (GPa) = 51.92643 59.68947 55.80795
# Shear Modulus (GPa) = 25.39447 29.47769 27.43608
#
# Velocity S-wave (km/s) = 3.42000 3.68471 3.55482
# Velocity P-wave (km/s) = 6.28585 6.75241 6.52331
#
# Compressibility (1/GPa) = 0.01925802
#
# Stress axis : x y z
#
# Youngs Moduli (GPa) = 91.39441 61.01943 52.36453
#
# Poissons Ratio (x) = 0.22298 0.19700
# Poissons Ratio (y) = 0.33398 0.32298
# Poissons Ratio (z) = 0.34383 0.37636
#
# Static dielectric constant tensor:
#      x y z
#    x 4.066110 0.160430 0.114850 
#    y 0.160430 4.279460 -0.217460 
#    z 0.114850 -0.217460 3.629620 
# 
# 
# High freq. dielectric constant tensor:
#      x y z
#    x 1.864460 0.002810 0.014300 
#    y 0.002810 1.857710 -0.021860 
#    z 0.014300 -0.021860 1.831910 
# 
# From -- ./inp_files/437094.got.cif
#   From: 2010.06.25/outbox.cif.g09.slc.cpg/sg2_219_cif.got.tgz:437094.got - 2010.06.27 13:26:56.
