data_PCOD8009787
_publ_section_title
;
Structure prediction by ZEFSAII (Michael W. Deem and Ramdas Pophale) SiO2 
 PCOD8009787
Probable space group: P -1
;
_chemical_formula_sum "Si O2"
_cell_formula_units_Z 12
_cell_length_a 18.931298
_cell_length_b 4.973239
_cell_length_c 8.775982
_cell_angle_alpha 96.930732
_cell_angle_beta 133.527182
_cell_angle_gamma 77.080999
_cell_volume 583.262992
_symmetry_space_group_name_H-M "P -1"
_symmetry_group_IT_number 2
_symmetry_cell_setting 'triclinic'
loop_
_space_group_symop_operation_xyz
x,y,z
-x,-y,-z
loop_
_atom_site_type_symbol
_atom_site_label
_atom_site_fract_x
_atom_site_fract_y
_atom_site_fract_z
Si Si1 0.628524 0.732246 0.009842
Si Si2 0.716013 0.209491 0.281728
Si Si3 0.887292 0.099577 0.294713
Si Si4 0.442410 0.973606 0.567579
Si Si5 0.200123 0.379753 0.977279
Si Si6 0.312634 0.556246 0.420492
O O1 0.640172 0.438655 0.089720
O O2 0.692715 0.703536 0.948826
O O3 0.666143 0.941627 0.196396
O O4 0.514724 0.842486 0.802886
O O5 0.823108 0.133774 0.356134
O O6 0.733942 0.300232 0.484970
O O7 0.124823 0.610088 0.788640
O O8 0.851143 0.885591 0.110259
O O9 0.000000 0.000000 0.500000
O O10 0.364894 0.768559 0.415375
O O11 0.500000 0.000000 0.500000
O O12 0.389391 0.278498 0.559300
O O13 0.220839 0.483070 0.183352
#
# Coordination Sequence:
#
# PCOD8009787 Si02
#       6
#     2   2   2   2   2   2
#     4  10  21  38  57  81 117 162 200 233 281 340
#     4  10  23  39  58  86 121 151 192 246 300 333
#     4  10  21  41  65  87 111 150 195 236 290 370
#     4  12  24  36  60  86 119 160 211 233 272 343
#     4  10  21  37  61  85 115 153 192 235 297 344
#     4  12  24  38  58  88 122 155 194 249 288 329
#
# _framework density 20.573910000000001
#
# number of rings (size 3 to 8) (size 9 to 14) (size 15 to 20)
#    0.000    1.333    1.667    4.000    4.667    4.000 
#    0.000    1.667    0.000    0.000    0.000    0.000 
#    0.000    0.000    0.000    0.000    0.000    0.000 
#
# Total GULP energy -148871.038299 kJ/mol
# GULP energy per Si atom -12405.919858 kJ/mol
# Density = 2.052708 g / cm^3
# Si number density = 20.573910 Si / 1000 Ang^3
#
#
#
# Elastic Constant Matrix: (Units=GPa)
#
#
# Indices 1 2 3 4 5 6 
#
# 1 63.3027 31.5426 44.2011 3.5420 -1.6234 -5.3145
# 2 31.5426 109.0357 25.0759 7.5387 7.5985 -5.6674
# 3 44.2011 25.0759 107.2593 11.8302 -4.4096 -25.7542
# 4 3.5420 7.5387 11.8302 39.1320 -11.2316 -0.6979
# 5 -1.6234 7.5985 -4.4096 -11.2316 22.3492 2.4942
# 6 -5.3145 -5.6674 -25.7542 -0.6979 2.4942 30.0646
#
#
#
# Elastic Compliance Matrix: (Units=1/GPa)
#
#
# Indices 1 2 3 4 5 6 
#
# 1 0.025664 -0.005723 -0.010887 0.003079 0.003892 -0.006120
# 2 -0.005723 0.011552 0.000221 -0.003545 -0.006282 0.001794
# 3 -0.010887 0.000221 0.017299 -0.004369 -0.001091 0.012925
# 4 0.003079 -0.003545 -0.004369 0.032143 0.017228 -0.004550
# 5 0.003892 -0.006282 -0.001091 0.017228 0.056241 -0.005697
# 6 -0.006120 0.001794 0.012925 -0.004550 -0.005697 0.043957
#
#
# Mechanical properties :
#
#
# Convention : Reuss Voigt Hill
#
# Bulk Modulus (GPa) = 46.00370 53.47076 49.73723
# Shear Modulus (GPa) = 22.03808 30.22770 26.13289
#
# Velocity S-wave (km/s) = 3.27642 3.83721 3.56785
# Velocity P-wave (km/s) = 6.05987 6.75857 6.41873
#
# Compressibility (1/GPa) = 0.02173738
#
# Stress axis : x y z
#
# Youngs Moduli (GPa) = 38.96442 86.56447 57.80840
#
# Poissons Ratio (x) = 0.49538 0.62938
# Poissons Ratio (y) = 0.22298 -0.01279
# Poissons Ratio (z) = 0.42422 -0.01915
#
# Static dielectric constant tensor:
#      x y z
#    x 3.471740 0.047500 -0.013040 
#    y 0.047500 4.081930 0.113490 
#    z -0.013040 0.113490 3.513920 
# 
# 
# High freq. dielectric constant tensor:
#      x y z
#    x 1.775810 0.006030 -0.008040 
#    y 0.006030 1.831100 0.007010 
#    z -0.008040 0.007010 1.797950 
# 
# From -- ./inp_files/143190.got.cif
#   From: 2010.06.25/outbox.cif.g09.slc.cpg/sg2_72_cif.got.tgz:143190.got - 2010.06.27 13:26:56.
