data_PCOD8009361
_publ_section_title
;
Structure prediction by ZEFSAII (Michael W. Deem and Ramdas Pophale) SiO2 
 PCOD8009361
Probable space group: P -1
;
_chemical_formula_sum "Si O2"
_cell_formula_units_Z 16
_cell_length_a 12.914974
_cell_length_b 16.287201
_cell_length_c 9.180656
_cell_angle_alpha 145.751411
_cell_angle_beta 63.972291
_cell_angle_gamma 130.157364
_cell_volume 810.435477
_symmetry_space_group_name_H-M "P -1"
_symmetry_group_IT_number 2
_symmetry_cell_setting 'triclinic'
loop_
_space_group_symop_operation_xyz
x,y,z
-x,-y,-z
loop_
_atom_site_type_symbol
_atom_site_label
_atom_site_fract_x
_atom_site_fract_y
_atom_site_fract_z
Si Si1 0.175464 0.241088 0.367341
Si Si2 0.672684 0.816851 0.037940
Si Si3 0.371404 0.715853 0.687612
Si Si4 0.640170 0.377470 0.111846
Si Si5 0.350830 0.923258 0.414780
Si Si6 0.346426 0.020662 0.234454
Si Si7 0.164584 0.329774 0.195728
Si Si8 0.059210 0.969139 0.274508
O O1 0.260617 0.414771 0.669689
O O2 0.108167 0.277956 0.323240
O O3 0.058636 0.087690 0.317212
O O4 0.277963 0.185409 0.160726
O O5 0.728767 0.018715 0.344914
O O6 0.506686 0.695665 0.981178
O O7 0.733335 0.736808 0.992635
O O8 0.390833 0.664576 0.760467
O O9 0.248748 0.538999 0.423751
O O10 0.516953 0.796701 0.633959
O O11 0.329766 0.856140 0.918073
O O12 0.717291 0.286387 0.866224
O O13 0.362902 0.007837 0.375895
O O14 0.500000 0.000000 0.500000
O O15 0.213542 0.024313 0.288455
O O16 0.038987 0.233136 0.015625
O O17 0.000000 0.000000 0.500000
#
# Coordination Sequence:
#
# PCOD8009361 Si02
#       8
#     2   2   2   2   2   2   2   2
#     4   9  20  35  61  79 112 157 203 233 278 353
#     4   9  17  30  58  86 111 146 199 237 289 332
#     4   9  19  38  61  89 113 147 202 244 295 346
#     4   9  16  32  59  86 114 146 194 250 287 340
#     4   9  18  34  53  86 120 146 186 244 297 346
#     4  10  21  36  62  86 121 154 189 245 306 340
#     4   9  21  37  60  85 115 154 200 238 278 357
#     4  12  24  39  56  85 125 158 190 243 297 349
#
# _framework density 19.742470999999998
#
# number of rings (size 3 to 8) (size 9 to 14) (size 15 to 20)
#    0.750    1.750    0.000    2.250    1.750    1.500 
#    4.500    1.250    2.750    3.000    0.000    0.000 
#    0.000    0.000    0.000    0.000    0.000    0.000 
#
# Total GULP energy -198263.932307 kJ/mol
# GULP energy per Si atom -12391.495769 kJ/mol
# Density = 1.969754 g / cm^3
# Si number density = 19.742471 Si / 1000 Ang^3
#
#
#
# Elastic Constant Matrix: (Units=GPa)
#
#
# Indices 1 2 3 4 5 6 
#
# 1 47.1424 24.2319 21.2137 -0.7032 8.5947 -0.1066
# 2 24.2319 75.3525 56.3357 13.5257 0.4477 4.9080
# 3 21.2137 56.3357 153.5831 5.9888 -2.4219 7.1667
# 4 -0.7032 13.5257 5.9888 23.4983 4.0112 -0.4719
# 5 8.5947 0.4477 -2.4219 4.0112 32.8765 -1.1534
# 6 -0.1066 4.9080 7.1667 -0.4719 -1.1534 15.5936
#
#
#
# Elastic Compliance Matrix: (Units=1/GPa)
#
#
# Indices 1 2 3 4 5 6 
#
# 1 0.028483 -0.010257 -0.000791 0.008439 -0.008274 0.003430
# 2 -0.010257 0.024226 -0.006679 -0.013209 0.003303 -0.004781
# 3 -0.000791 -0.006679 0.009124 0.001330 0.000738 -0.002002
# 4 0.008439 -0.013209 0.001330 0.051540 -0.008056 0.004568
# 5 -0.008274 0.003303 0.000738 -0.008056 0.033600 0.000806
# 6 0.003430 -0.004781 -0.002002 0.004568 0.000806 0.066775
#
#
# Mechanical properties :
#
#
# Convention : Reuss Voigt Hill
#
# Bulk Modulus (GPa) = 37.91190 53.29338 45.60264
# Shear Modulus (GPa) = 19.38022 26.01346 22.69684
#
# Velocity S-wave (km/s) = 3.13653 3.63387 3.39432
# Velocity P-wave (km/s) = 5.68876 6.68278 6.20571
#
# Compressibility (1/GPa) = 0.02637694
#
# Stress axis : x y z
#
# Youngs Moduli (GPa) = 35.10894 41.27841 109.60527
#
# Poissons Ratio (x) = 0.42339 0.08675
# Poissons Ratio (y) = 0.36011 0.73208
# Poissons Ratio (z) = 0.02779 0.27571
#
# Static dielectric constant tensor:
#      x y z
#    x 3.375940 -0.048960 -0.130410 
#    y -0.048960 3.206500 0.020900 
#    z -0.130410 0.020900 4.093620 
# 
# 
# High freq. dielectric constant tensor:
#      x y z
#    x 1.752390 -0.004920 -0.000580 
#    y -0.004920 1.733630 0.000700 
#    z -0.000580 0.000700 1.785010 
# 
# From -- ./inp_files/274623.got.cif
#   From: 2010.06.25/outbox.cif.g09.slc.cpg/sg2_138_cif.got.tgz:274623.got - 2010.06.27 13:26:56.
