data_PCOD8009729
_publ_section_title
;
Structure prediction by ZEFSAII (Michael W. Deem and Ramdas Pophale) SiO2 
 PCOD8009729
Probable space group: P -1
;
_chemical_formula_sum "Si O2"
_cell_formula_units_Z 14
_cell_length_a 12.605536
_cell_length_b 6.015092
_cell_length_c 12.504137
_cell_angle_alpha 119.411920
_cell_angle_beta 87.616777
_cell_angle_gamma 121.526527
_cell_volume 673.786467
_symmetry_space_group_name_H-M "P -1"
_symmetry_group_IT_number 2
_symmetry_cell_setting 'triclinic'
loop_
_space_group_symop_operation_xyz
x,y,z
-x,-y,-z
loop_
_atom_site_type_symbol
_atom_site_label
_atom_site_fract_x
_atom_site_fract_y
_atom_site_fract_z
Si Si1 0.333054 0.400653 0.191049
Si Si2 0.442244 0.642619 0.794018
Si Si3 0.639045 0.365371 0.976688
Si Si4 0.200653 0.209482 0.562769
Si Si5 0.860422 0.288611 0.904742
Si Si6 0.036761 0.266294 0.417426
Si Si7 0.816839 0.344691 0.682131
O O1 0.457464 0.449312 0.255330
O O2 0.354860 0.415610 0.065529
O O3 0.312863 0.667550 0.290786
O O4 0.202651 0.068604 0.147461
O O5 0.336079 0.497156 0.670985
O O6 0.515762 0.013330 0.875833
O O7 0.375163 0.508939 0.880690
O O8 0.772185 0.391383 0.979764
O O9 0.159672 0.338898 0.498734
O O10 0.220424 0.947863 0.458653
O O11 0.090273 0.078443 0.629815
O O12 0.879087 0.333736 0.786929
O O13 0.000000 0.500000 0.000000
O O14 0.079310 0.326389 0.305483
O O15 0.000000 0.500000 0.500000
#
# Coordination Sequence:
#
# PCOD8009729 Si02
#       7
#     2   2   2   2   2   2   2
#     4  10  21  39  58  83 119 152 190 241 290 342
#     4  10  21  38  59  84 116 154 196 239 285 342
#     4   9  21  38  57  85 117 150 194 243 287 341
#     4  10  21  37  60  87 116 153 194 237 287 346
#     4  10  22  38  60  87 114 150 193 240 292 343
#     4   9  20  37  56  84 118 149 188 238 288 342
#     4  10  21  38  58  85 120 151 189 241 289 344
#
# _framework density 20.778096000000001
#
# number of rings (size 3 to 8) (size 9 to 14) (size 15 to 20)
#    0.000    2.286    0.000    1.286    0.000   10.857 
#    0.000   10.000    0.000    0.000    0.000    0.000 
#    0.000    0.000    0.000    0.000    0.000    0.000 
#
# Total GULP energy -173574.994366 kJ/mol
# GULP energy per Si atom -12398.213883 kJ/mol
# Density = 2.073080 g / cm^3
# Si number density = 20.778096 Si / 1000 Ang^3
#
#
#
# Elastic Constant Matrix: (Units=GPa)
#
#
# Indices 1 2 3 4 5 6 
#
# 1 100.9552 32.2448 54.2315 9.4922 17.8249 2.1966
# 2 32.2448 116.4132 51.7642 -30.8753 15.9246 5.1432
# 3 54.2315 51.7642 104.2976 -4.7272 18.3063 13.6212
# 4 9.4922 -30.8753 -4.7272 31.9302 7.8895 -1.0424
# 5 17.8249 15.9246 18.3063 7.8895 37.6897 0.4416
# 6 2.1966 5.1432 13.6212 -1.0424 0.4416 33.9487
#
#
#
# Elastic Compliance Matrix: (Units=1/GPa)
#
#
# Indices 1 2 3 4 5 6 
#
# 1 0.015706 -0.003669 -0.006904 -0.009009 -0.000662 0.002042
# 2 -0.003669 0.018011 -0.004813 0.019691 -0.007660 0.000144
# 3 -0.006904 -0.004813 0.016814 0.000422 -0.002892 -0.005520
# 4 -0.009009 0.019691 0.000422 0.057084 -0.016207 -0.000606
# 5 -0.000662 -0.007660 -0.002892 -0.016207 0.034863 0.001413
# 6 0.002042 0.000144 -0.005520 -0.000606 0.001413 0.031480
#
#
# Mechanical properties :
#
#
# Convention : Reuss Voigt Hill
#
# Bulk Modulus (GPa) = 50.61201 66.46079 58.53640
# Shear Modulus (GPa) = 23.66128 32.94210 28.30169
#
# Velocity S-wave (km/s) = 3.37821 3.98606 3.69466
# Velocity P-wave (km/s) = 6.29505 7.29660 6.81425
#
# Compressibility (1/GPa) = 0.01975816
#
# Stress axis : x y z
#
# Youngs Moduli (GPa) = 63.67145 55.52305 59.47389
#
# Poissons Ratio (x) = 0.20373 0.41061
# Poissons Ratio (y) = 0.23362 0.28623
# Poissons Ratio (z) = 0.43959 0.26722
#
# Static dielectric constant tensor:
#      x y z
#    x 3.968740 0.184850 -0.208140 
#    y 0.184850 4.150440 -0.432630 
#    z -0.208140 -0.432630 3.465750 
# 
# 
# High freq. dielectric constant tensor:
#      x y z
#    x 1.830210 -0.001200 -0.008800 
#    y -0.001200 1.820150 -0.025510 
#    z -0.008800 -0.025510 1.780920 
# 
# From -- ./inp_files/65877.got.cif
#   From: 2010.06.25/outbox.cif.g09.slc.cpg/sg2_33_cif.got.tgz:65877.got - 2010.06.27 13:26:56.
