data_PCOD8009048
_publ_section_title
;
Structure prediction by ZEFSAII (Michael W. Deem and Ramdas Pophale) SiO2 
 PCOD8009048
Probable space group: P -1
;
_chemical_formula_sum "Si O2"
_cell_formula_units_Z 12
_cell_length_a 6.785460
_cell_length_b 12.158746
_cell_length_c 14.993445
_cell_angle_alpha 37.905126
_cell_angle_beta 109.722151
_cell_angle_gamma 116.005250
_cell_volume 682.934196
_symmetry_space_group_name_H-M "P -1"
_symmetry_group_IT_number 2
_symmetry_cell_setting 'triclinic'
loop_
_space_group_symop_operation_xyz
x,y,z
-x,-y,-z
loop_
_atom_site_type_symbol
_atom_site_label
_atom_site_fract_x
_atom_site_fract_y
_atom_site_fract_z
Si Si1 0.270631 0.059545 0.828582
Si Si2 0.707072 0.941775 0.543614
Si Si3 0.893923 0.608004 0.344984
Si Si4 0.402755 0.412444 0.347128
Si Si5 0.145638 0.060517 0.618434
Si Si6 0.253001 0.747200 0.161361
O O1 0.137768 0.207206 0.732758
O O2 0.208775 0.976477 0.772970
O O3 0.532404 0.150370 0.813650
O O4 0.189406 0.891151 0.993615
O O5 0.649064 0.714727 0.669401
O O6 0.791016 0.037138 0.398542
O O7 0.500000 0.000000 0.500000
O O8 0.883464 0.020908 0.597919
O O9 0.661682 0.472661 0.364502
O O10 0.000000 0.500000 0.500000
O O11 0.048770 0.663326 0.247677
O O12 0.276878 0.284131 0.493233
O O13 0.308541 0.588100 0.211308
#
# Coordination Sequence:
#
# PCOD8009048 Si02
#       6
#     2   2   2   2   2   2
#     4  10  21  36  53  79 109 148 169 206 270 313
#     4   9  20  34  56  79 101 134 177 230 263 296
#     4  11  21  31  56  83 108 136 178 215 257 314
#     4   9  20  34  53  81 102 138 174 220 266 297
#     4   9  19  35  56  78 103 133 184 217 261 304
#     4  10  21  36  52  77 118 139 170 212 258 325
#
# _framework density 17.57124
#
# number of rings (size 3 to 8) (size 9 to 14) (size 15 to 20)
#    1.000    1.333    0.000    2.500    4.667    2.667 
#    0.000    0.833    0.000    2.000    0.000    0.000 
#    0.000    0.000    0.000    0.000    0.000    0.000 
#
# Total GULP energy -148724.599156 kJ/mol
# GULP energy per Si atom -12393.716596 kJ/mol
# Density = 1.753125 g / cm^3
# Si number density = 17.571240 Si / 1000 Ang^3
#
#
#
# Elastic Constant Matrix: (Units=GPa)
#
#
# Indices 1 2 3 4 5 6 
#
# 1 118.9222 51.4605 56.6555 0.7543 1.8786 16.8214
# 2 51.4605 94.5526 55.4288 8.9649 -0.9135 14.1140
# 3 56.6555 55.4288 116.2411 6.5382 9.6554 11.5652
# 4 0.7543 8.9649 6.5382 24.5317 3.5337 -0.1490
# 5 1.8786 -0.9135 9.6554 3.5337 24.2119 -7.0174
# 6 16.8214 14.1140 11.5652 -0.1490 -7.0174 25.0004
#
#
#
# Elastic Compliance Matrix: (Units=1/GPa)
#
#
# Indices 1 2 3 4 5 6 
#
# 1 0.012701 -0.004264 -0.003692 0.002325 -0.001408 -0.004812
# 2 -0.004264 0.017325 -0.005813 -0.005113 0.003065 -0.003393
# 3 -0.003692 -0.005813 0.013956 -0.000617 -0.006106 -0.002407
# 4 0.002325 -0.005113 -0.000617 0.043660 -0.006486 0.000047
# 5 -0.001408 0.003065 -0.006106 -0.006486 0.049517 0.015902
# 6 -0.004812 -0.003393 -0.002407 0.000047 0.015902 0.050730
#
#
# Mechanical properties :
#
#
# Convention : Reuss Voigt Hill
#
# Bulk Modulus (GPa) = 60.81188 72.97837 66.89512
# Shear Modulus (GPa) = 22.63383 25.82687 24.23035
#
# Velocity S-wave (km/s) = 3.59293 3.83801 3.71749
# Velocity P-wave (km/s) = 7.20389 7.82709 7.52195
#
# Compressibility (1/GPa) = 0.01644416
#
# Stress axis : x y z
#
# Youngs Moduli (GPa) = 78.73303 57.71960 71.65599
#
# Poissons Ratio (x) = 0.24611 0.26458
# Poissons Ratio (y) = 0.33571 0.41651
# Poissons Ratio (z) = 0.29071 0.33550
#
# Static dielectric constant tensor:
#      x y z
#    x 3.345210 0.181320 -0.060520 
#    y 0.181320 3.331500 -0.133740 
#    z -0.060520 -0.133740 3.112390 
# 
# 
# High freq. dielectric constant tensor:
#      x y z
#    x 1.691020 0.007840 -0.002560 
#    y 0.007840 1.673480 -0.005150 
#    z -0.002560 -0.005150 1.656460 
# 
# From -- ./inp_files/31658.got.cif
#   From: 2010.06.25/outbox.cif.g09.slc.cpg/sg2_16_cif.got.tgz:31658.got - 2010.06.27 13:26:56.
