data_PCOD8009545
_publ_section_title
;
Structure prediction by ZEFSAII (Michael W. Deem and Ramdas Pophale) SiO2 
 PCOD8009545
Probable space group: P -1
;
_chemical_formula_sum "Si O2"
_cell_formula_units_Z 12
_cell_length_a 9.427597
_cell_length_b 13.357105
_cell_length_c 5.117114
_cell_angle_alpha 92.494498
_cell_angle_beta 108.163037
_cell_angle_gamma 119.775655
_cell_volume 515.839218
_symmetry_space_group_name_H-M "P -1"
_symmetry_group_IT_number 2
_symmetry_cell_setting 'triclinic'
loop_
_space_group_symop_operation_xyz
x,y,z
-x,-y,-z
loop_
_atom_site_type_symbol
_atom_site_label
_atom_site_fract_x
_atom_site_fract_y
_atom_site_fract_z
Si Si1 0.576185 0.678254 0.938238
Si Si2 0.713329 0.130351 0.897496
Si Si3 0.531585 0.144932 0.291208
Si Si4 0.084716 0.300932 0.962911
Si Si5 0.081669 0.577685 0.309115
Si Si6 0.374469 0.554535 0.342269
O O1 0.560018 0.782556 0.823124
O O2 0.785661 0.732206 0.109179
O O3 0.510542 0.574081 0.660244
O O4 0.467581 0.614991 0.129393
O O5 0.633694 0.174029 0.630345
O O6 0.631067 0.990895 0.816717
O O7 0.672526 0.169588 0.151333
O O8 0.927441 0.192272 0.025570
O O9 0.209398 0.419675 0.218122
O O10 0.971979 0.325130 0.692057
O O11 0.292798 0.630882 0.423990
O O12 0.000000 0.500000 0.500000
O O13 0.000000 0.500000 0.000000
#
# Coordination Sequence:
#
# PCOD8009545 Si02
#       6
#     2   2   2   2   2   2
#     4  12  24  39  62  89 128 161 197 249 305 359
#     4  10  23  42  67  88 118 158 208 251 295 364
#     4  10  22  44  65  89 118 160 202 251 308 355
#     4  11  24  39  62  94 123 158 204 251 300 355
#     4  10  21  37  57  80 113 155 200 237 278 347
#     4  11  24  41  59  87 128 167 197 240 302 364
#
# _framework density 23.263065000000001
#
# number of rings (size 3 to 8) (size 9 to 14) (size 15 to 20)
#    0.000    1.333    0.000    6.000    0.000   10.000 
#    0.000    0.000    0.000    8.000    0.000    0.000 
#    0.000    0.000    0.000    0.000    0.000    0.000 
#
# Total GULP energy -148678.139530 kJ/mol
# GULP energy per Si atom -12389.844961 kJ/mol
# Density = 2.321012 g / cm^3
# Si number density = 23.263065 Si / 1000 Ang^3
#
#
#
# Elastic Constant Matrix: (Units=GPa)
#
#
# Indices 1 2 3 4 5 6 
#
# 1 163.8909 70.8699 42.3463 -5.6873 4.8333 42.0191
# 2 70.8699 117.8200 34.3233 -17.2347 4.3686 26.5907
# 3 42.3463 34.3233 113.3096 -30.5882 -14.0520 14.7089
# 4 -5.6873 -17.2347 -30.5882 22.2236 8.9402 -5.2480
# 5 4.8333 4.3686 -14.0520 8.9402 34.4451 -4.0136
# 6 42.0191 26.5907 14.7089 -5.2480 -4.0136 36.5604
#
#
#
# Elastic Compliance Matrix: (Units=1/GPa)
#
#
# Indices 1 2 3 4 5 6 
#
# 1 0.011252 -0.004575 -0.003836 -0.007460 -0.001713 -0.009321
# 2 -0.004575 0.013706 0.000474 0.010893 -0.004173 -0.003796
# 3 -0.003836 0.000474 0.015782 0.020644 0.001659 0.000860
# 4 -0.007460 0.010893 0.020644 0.086316 -0.013943 0.003205
# 5 -0.001713 -0.004173 0.001659 -0.013943 0.034814 0.006157
# 6 -0.009321 -0.003796 0.000860 0.003205 0.006157 0.041615
#
#
# Mechanical properties :
#
#
# Convention : Reuss Voigt Hill
#
# Bulk Modulus (GPa) = 40.21380 76.67771 58.44576
# Shear Modulus (GPa) = 21.96364 35.14457 28.55410
#
# Velocity S-wave (km/s) = 3.07602 3.89105 3.50729
# Velocity P-wave (km/s) = 5.47174 7.29518 6.44824
#
# Compressibility (1/GPa) = 0.02486709
#
# Stress axis : x y z
#
# Youngs Moduli (GPa) = 88.87008 72.95975 63.36165
#
# Poissons Ratio (x) = 0.33380 0.24303
# Poissons Ratio (y) = 0.40659 -0.03002
# Poissons Ratio (z) = 0.34088 -0.03457
#
# Static dielectric constant tensor:
#      x y z
#    x 4.030380 -0.765970 -0.557910 
#    y -0.765970 4.193660 -0.461760 
#    z -0.557910 -0.461760 3.483070 
# 
# 
# High freq. dielectric constant tensor:
#      x y z
#    x 1.944690 0.001440 0.010080 
#    y 0.001440 1.923330 -0.005390 
#    z 0.010080 -0.005390 1.920030 
# 
# From -- ./inp_files/32626.got.cif
#   From: 2010.06.25/outbox.cif.g09.slc.cpg/sg2_17_cif.got.tgz:32626.got - 2010.06.27 13:26:56.
