data_PCOD8009286
_publ_section_title
;
Structure prediction by ZEFSAII (Michael W. Deem and Ramdas Pophale) SiO2 
 PCOD8009286
Probable space group: P -1
;
_chemical_formula_sum "Si O2"
_cell_formula_units_Z 16
_cell_length_a 16.710194
_cell_length_b 11.903450
_cell_length_c 9.375281
_cell_angle_alpha 38.773067
_cell_angle_beta 134.905167
_cell_angle_gamma 133.819078
_cell_volume 783.600304
_symmetry_space_group_name_H-M "P -1"
_symmetry_group_IT_number 2
_symmetry_cell_setting 'triclinic'
loop_
_space_group_symop_operation_xyz
x,y,z
-x,-y,-z
loop_
_atom_site_type_symbol
_atom_site_label
_atom_site_fract_x
_atom_site_fract_y
_atom_site_fract_z
Si Si1 0.273223 0.634608 0.310904
Si Si2 0.127782 0.270313 0.314860
Si Si3 0.778833 0.965465 0.867875
Si Si4 0.468526 0.304697 0.067737
Si Si5 0.721935 0.327356 0.396268
Si Si6 0.232936 0.323127 0.088023
Si Si7 0.499344 0.551866 0.610898
Si Si8 0.141600 0.928284 0.837081
O O1 0.191641 0.463302 0.285215
O O2 0.251548 0.580685 0.503641
O O3 0.412287 0.677614 0.402521
O O4 0.241483 0.825046 0.049415
O O5 0.153570 0.296821 0.153895
O O6 0.987187 0.219220 0.215836
O O7 0.174966 0.103179 0.596608
O O8 0.784940 0.168583 0.610440
O O9 0.644741 0.852452 0.858015
O O10 0.824493 0.853767 0.914419
O O11 0.862214 0.994274 0.083637
O O12 0.580357 0.227850 0.295291
O O13 0.500000 0.500000 0.000000
O O14 0.446860 0.354566 0.827399
O O15 0.773381 0.488603 0.184006
O O16 0.368130 0.332583 0.284093
O O17 0.500000 0.500000 0.500000
#
# Coordination Sequence:
#
# PCOD8009286 Si02
#       8
#     2   2   2   2   2   2   2   2
#     4  11  20  40  65  84 121 157 202 244 289 361
#     4  11  23  42  62  84 124 157 203 251 296 343
#     4  11  21  38  60  88 120 152 203 245 287 353
#     4  11  18  34  60  84 119 163 192 228 299 360
#     4  10  21  36  60  90 117 158 198 237 295 358
#     4  11  22  38  61  89 123 157 188 247 309 344
#     4  11  20  34  58  93 119 155 189 234 309 360
#     4  10  25  41  62  89 110 167 210 240 291 352
#
# _framework density 20.418572999999999
#
# number of rings (size 3 to 8) (size 9 to 14) (size 15 to 20)
#    0.000    1.250    5.000    2.250    0.000    2.500 
#    0.000    3.125    0.000    0.000    0.000    0.000 
#    0.000    0.000    0.000    0.000    0.000    0.000 
#
# Total GULP energy -198433.715534 kJ/mol
# GULP energy per Si atom -12402.107221 kJ/mol
# Density = 2.037210 g / cm^3
# Si number density = 20.418573 Si / 1000 Ang^3
#
#
#
# Elastic Constant Matrix: (Units=GPa)
#
#
# Indices 1 2 3 4 5 6 
#
# 1 65.6806 17.4844 42.0684 -11.8955 -19.4746 -15.9379
# 2 17.4844 74.7073 22.4868 -5.1939 -13.0876 -18.4570
# 3 42.0684 22.4868 117.2866 -10.5356 -19.3937 -12.4956
# 4 -11.8955 -5.1939 -10.5356 23.0312 -0.6395 0.1581
# 5 -19.4746 -13.0876 -19.3937 -0.6395 33.2805 8.4290
# 6 -15.9379 -18.4570 -12.4956 0.1581 8.4290 19.7964
#
#
#
# Elastic Compliance Matrix: (Units=1/GPa)
#
#
# Indices 1 2 3 4 5 6 
#
# 1 0.027301 0.001765 -0.005793 0.012004 0.009518 0.015820
# 2 0.001765 0.018278 -0.001479 0.004340 0.003375 0.016056
# 3 -0.005793 -0.001479 0.011533 0.002027 0.002779 0.000038
# 4 0.012004 0.004340 0.002027 0.051674 0.008085 0.011136
# 5 0.009518 0.003375 0.002779 0.008085 0.039851 -0.004469
# 6 0.015820 0.016056 0.000038 0.011136 -0.004469 0.080059
#
#
# Mechanical properties :
#
#
# Convention : Reuss Voigt Hill
#
# Bulk Modulus (GPa) = 21.69313 46.86152 34.27732
# Shear Modulus (GPa) = 19.60212 26.93061 23.26637
#
# Velocity S-wave (km/s) = 3.10177 3.63564 3.37927
# Velocity P-wave (km/s) = 4.84513 6.37371 5.66124
#
# Compressibility (1/GPa) = 0.04609754
#
# Stress axis : x y z
#
# Youngs Moduli (GPa) = 36.62886 54.71185 86.70728
#
# Poissons Ratio (x) = -0.09654 0.50230
# Poissons Ratio (y) = -0.06463 0.12820
# Poissons Ratio (z) = 0.21219 0.08089
#
# Static dielectric constant tensor:
#      x y z
#    x 3.596550 -0.025300 -0.145830 
#    y -0.025300 3.894250 0.129880 
#    z -0.145830 0.129880 4.104090 
# 
# 
# High freq. dielectric constant tensor:
#      x y z
#    x 1.779920 -0.007860 -0.006090 
#    y -0.007860 1.793570 0.011200 
#    z -0.006090 0.011200 1.812790 
# 
# From -- ./inp_files/234791.got.cif
#   From: 2010.06.25/outbox.cif.g09.slc.cpg/sg2_118_cif.got.tgz:234791.got - 2010.06.27 13:26:56.
