data_PCOD8009849
_publ_section_title
;
Structure prediction by ZEFSAII (Michael W. Deem and Ramdas Pophale) SiO2 
 PCOD8009849
Probable space group: P -1
;
_chemical_formula_sum "Si O2"
_cell_formula_units_Z 16
_cell_length_a 13.388410
_cell_length_b 16.337703
_cell_length_c 8.774163
_cell_angle_alpha 138.962473
_cell_angle_beta 42.852226
_cell_angle_gamma 145.103615
_cell_volume 686.594658
_symmetry_space_group_name_H-M "P -1"
_symmetry_group_IT_number 2
_symmetry_cell_setting 'triclinic'
loop_
_space_group_symop_operation_xyz
x,y,z
-x,-y,-z
loop_
_atom_site_type_symbol
_atom_site_label
_atom_site_fract_x
_atom_site_fract_y
_atom_site_fract_z
Si Si1 0.579081 0.135499 0.408888
Si Si2 0.795889 0.018953 0.940838
Si Si3 0.216254 0.831804 0.380511
Si Si4 0.840601 0.692315 0.193147
Si Si5 0.548886 0.465371 0.558923
Si Si6 0.841927 0.418580 0.685674
Si Si7 0.139301 0.215344 0.356811
Si Si8 0.562599 0.193128 0.154680
O O1 0.647256 0.295320 0.642835
O O2 0.557407 0.142459 0.261678
O O3 0.389471 0.988787 0.486452
O O4 0.736175 0.110635 0.230926
O O5 0.999629 0.143755 0.826510
O O6 0.812152 0.906017 0.871106
O O7 0.643419 0.917884 0.838959
O O8 0.132798 0.676832 0.353038
O O9 0.063292 0.861482 0.585929
O O10 0.289515 0.815240 0.113438
O O11 0.641692 0.638211 0.277378
O O12 0.854579 0.718507 0.392775
O O13 0.851125 0.551860 0.950910
O O14 0.500000 0.500000 0.500000
O O15 0.702571 0.631061 0.700674
O O16 0.632460 0.370046 0.315773
O O17 0.000000 0.500000 0.500000
#
# Coordination Sequence:
#
# PCOD8009849 Si02
#       8
#     2   2   2   2   2   2   2   2
#     4  11  25  45  70 100 135 183 221 277 336 403
#     4  11  21  40  68  99 140 164 220 278 341 394
#     4  11  25  43  74 101 130 179 229 282 338 384
#     4  11  22  39  69  96 134 181 213 272 350 386
#     4  10  21  37  62 101 138 168 210 276 345 389
#     4  12  27  47  65  94 143 185 228 267 331 415
#     4  11  23  39  70 107 128 167 225 288 337 396
#     4  11  22  42  74 106 133 166 235 286 327 399
#
# _framework density 23.303415000000001
#
# number of rings (size 3 to 8) (size 9 to 14) (size 15 to 20)
#    0.000    1.000    3.750    5.250    5.250    1.000 
#    0.000    1.250    0.000    0.000    0.000    0.000 
#    0.000    0.000    0.000    0.000    0.000    0.000 
#
# Total GULP energy -198314.427242 kJ/mol
# GULP energy per Si atom -12394.651703 kJ/mol
# Density = 2.325037 g / cm^3
# Si number density = 23.303415 Si / 1000 Ang^3
#
#
#
# Elastic Constant Matrix: (Units=GPa)
#
#
# Indices 1 2 3 4 5 6 
#
# 1 76.0708 25.4807 20.8950 -1.9076 -29.2302 -0.2498
# 2 25.4807 151.7389 17.7682 3.4865 -19.8157 4.3620
# 3 20.8950 17.7682 36.6746 3.9427 -10.0253 -5.0625
# 4 -1.9076 3.4865 3.9427 37.7255 0.7408 -11.6642
# 5 -29.2302 -19.8157 -10.0253 0.7408 33.3841 -2.3963
# 6 -0.2498 4.3620 -5.0625 -11.6642 -2.3963 41.5838
#
#
#
# Elastic Compliance Matrix: (Units=1/GPa)
#
#
# Indices 1 2 3 4 5 6 
#
# 1 0.021859 -0.000685 -0.007734 0.001882 0.016421 0.000736
# 2 -0.000685 0.007440 -0.002455 -0.000883 0.003016 -0.001157
# 3 -0.007734 -0.002455 0.034327 -0.002627 0.002410 0.003792
# 4 0.001882 -0.000883 -0.002627 0.029445 0.000260 0.008058
# 5 0.016421 0.003016 0.002410 0.000260 0.047045 0.002860
# 6 0.000736 -0.001157 0.003792 0.008058 0.002860 0.027060
#
#
# Mechanical properties :
#
#
# Convention : Reuss Voigt Hill
#
# Bulk Modulus (GPa) = 23.87853 43.64135 33.75994
# Shear Modulus (GPa) = 24.64463 35.89471 30.26967
#
# Velocity S-wave (km/s) = 3.25553 3.92895 3.60799
# Velocity P-wave (km/s) = 4.93967 6.27298 5.64582
#
# Compressibility (1/GPa) = 0.04187863
#
# Stress axis : x y z
#
# Youngs Moduli (GPa) = 45.74824 134.40627 29.13140
#
# Poissons Ratio (x) = 0.09207 0.22530
# Poissons Ratio (y) = 0.03134 0.07151
# Poissons Ratio (z) = 0.35382 0.32994
#
# Static dielectric constant tensor:
#      x y z
#    x 4.069290 0.225530 -0.296550 
#    y 0.225530 6.678850 0.146360 
#    z -0.296550 0.146360 4.300330 
# 
# 
# High freq. dielectric constant tensor:
#      x y z
#    x 1.899350 0.002540 -0.016280 
#    y 0.002540 1.955030 0.006880 
#    z -0.016280 0.006880 1.907890 
# 
# From -- ./inp_files/318140.got.cif
#   From: 2010.06.25/outbox.cif.g09.slc.cpg/sg2_160_cif.got.tgz:318140.got - 2010.06.27 13:26:56.
