data_PCOD8009602
_publ_section_title
;
Structure prediction by ZEFSAII (Michael W. Deem and Ramdas Pophale) SiO2 
 PCOD8009602
Probable space group: P -1
;
_chemical_formula_sum "Si O2"
_cell_formula_units_Z 16
_cell_length_a 9.014423
_cell_length_b 20.513068
_cell_length_c 6.778841
_cell_angle_alpha 96.269937
_cell_angle_beta 131.674240
_cell_angle_gamma 63.931380
_cell_volume 809.157406
_symmetry_space_group_name_H-M "P -1"
_symmetry_group_IT_number 2
_symmetry_cell_setting 'triclinic'
loop_
_space_group_symop_operation_xyz
x,y,z
-x,-y,-z
loop_
_atom_site_type_symbol
_atom_site_label
_atom_site_fract_x
_atom_site_fract_y
_atom_site_fract_z
Si Si1 0.785489 0.286136 0.987006
Si Si2 0.129244 0.286136 0.987006
Si Si3 0.520371 0.457734 0.804895
Si Si4 0.821003 0.798422 0.394571
Si Si5 0.895727 0.044861 0.724103
Si Si6 0.476725 0.798422 0.394571
Si Si7 0.130944 0.542266 0.195105
Si Si8 0.238654 0.044861 0.724103
O O1 0.587357 0.371605 0.876058
O O2 0.671196 0.234371 0.845804
O O3 0.928046 0.278643 0.913379
O O4 0.946707 0.261264 0.312675
O O5 0.205866 0.234371 0.845804
O O6 0.045491 0.371605 0.876058
O O7 0.343440 0.261264 0.312675
O O8 0.275038 0.500000 0.500000
O O9 0.711905 0.461176 0.846162
O O10 0.500000 0.500000 0.000000
O O11 0.600860 0.817570 0.336861
O O12 0.830789 0.873983 0.396116
O O13 0.682639 0.126017 0.603884
O O14 0.089370 0.054780 0.788301
O O15 0.806210 0.000000 0.500000
O O16 0.000000 0.000000 0.000000
O O17 0.000000 0.500000 0.000000
O O18 0.500000 0.000000 0.000000
#
# Coordination Sequence:
#
# PCOD8009602 Si02
#       8
#     2   2   2   2   2   2   2   2
#     4  10  22  39  58  84 118 153 192 239 288 340
#     4  10  22  39  58  84 118 153 192 239 288 340
#     4  10  21  37  58  85 116 152 194 239 288 341
#     4  11  23  38  59  86 115 151 193 236 286 341
#     4  11  24  41  62  88 117 151 191 234 284 341
#     4  11  23  38  59  86 115 151 193 236 286 341
#     4  10  21  37  58  85 116 152 194 239 288 341
#     4  11  24  41  62  88 117 151 191 234 284 341
#
# _framework density 19.773657
#
# number of rings (size 3 to 8) (size 9 to 14) (size 15 to 20)
#    0.000    1.500    0.000    4.500    0.000    9.500 
#    0.000    0.000    0.000    0.000    0.000    0.000 
#    0.000    0.000    0.000    0.000    0.000    0.000 
#
# Total GULP energy -198508.955201 kJ/mol
# GULP energy per Si atom -12406.809700 kJ/mol
# Density = 1.972865 g / cm^3
# Si number density = 19.773657 Si / 1000 Ang^3
#
#
#
# Elastic Constant Matrix: (Units=GPa)
#
#
# Indices 1 2 3 4 5 6 
#
# 1 99.6184 52.7297 51.7779 6.3741 1.6614 2.1310
# 2 52.7297 125.1448 31.3051 -3.8344 -1.7896 -0.4234
# 3 51.7779 31.3051 97.1277 -1.2677 -1.2373 -1.4337
# 4 6.3741 -3.8344 -1.2677 42.3155 -0.3370 -0.3717
# 5 1.6614 -1.7896 -1.2373 -0.3370 32.4726 4.3594
# 6 2.1310 -0.4234 -1.4337 -0.3717 4.3594 38.4881
#
#
#
# Elastic Compliance Matrix: (Units=1/GPa)
#
#
# Indices 1 2 3 4 5 6 
#
# 1 0.017024 -0.005447 -0.007397 -0.003300 -0.001332 -0.001159
# 2 -0.005447 0.010460 -0.000429 0.001765 0.000813 0.000326
# 3 -0.007397 -0.000429 0.014420 0.001521 0.000804 0.000866
# 4 -0.003300 0.001765 0.001521 0.024343 0.000518 0.000435
# 5 -0.001332 0.000813 0.000804 0.000518 0.031406 -0.003440
# 6 -0.001159 0.000326 0.000866 0.000435 -0.003440 0.026476
#
#
# Mechanical properties :
#
#
# Convention : Reuss Voigt Hill
#
# Bulk Modulus (GPa) = 65.11346 65.94625 65.52986
# Shear Modulus (GPa) = 32.09340 35.06046 33.57693
#
# Velocity S-wave (km/s) = 4.03307 4.21537 4.12523
# Velocity P-wave (km/s) = 7.39516 7.55748 7.47676
#
# Compressibility (1/GPa) = 0.01535781
#
# Stress axis : x y z
#
# Youngs Moduli (GPa) = 58.73936 95.60201 69.34647
#
# Poissons Ratio (x) = 0.52073 0.51296
# Poissons Ratio (y) = 0.31995 0.02978
# Poissons Ratio (z) = 0.43450 0.04106
#
# Static dielectric constant tensor:
#      x y z
#    x 3.696760 -0.003080 -0.010290 
#    y -0.003080 4.020800 -0.270800 
#    z -0.010290 -0.270800 3.706360 
# 
# 
# High freq. dielectric constant tensor:
#      x y z
#    x 1.774700 0.000290 0.000530 
#    y 0.000290 1.788200 -0.004280 
#    z 0.000530 -0.004280 1.786590 
# 
# From -- ./inp_files/14797.got.cif
#   From: 2010.06.25/outbox.cif.g09.slc.cpg/sg2_8_cif.got.tgz:14797.got - 2010.06.27 13:26:56.
