data_PCOD8009748
_publ_section_title
;
Structure prediction by ZEFSAII (Michael W. Deem and Ramdas Pophale) SiO2 
 PCOD8009748
Probable space group: P -1
;
_chemical_formula_sum "Si O2"
_cell_formula_units_Z 16
_cell_length_a 12.846205
_cell_length_b 22.790190
_cell_length_c 9.444541
_cell_angle_alpha 62.690408
_cell_angle_beta 34.308034
_cell_angle_gamma 37.661123
_cell_volume 784.658413
_symmetry_space_group_name_H-M "P -1"
_symmetry_group_IT_number 2
_symmetry_cell_setting 'triclinic'
loop_
_space_group_symop_operation_xyz
x,y,z
-x,-y,-z
loop_
_atom_site_type_symbol
_atom_site_label
_atom_site_fract_x
_atom_site_fract_y
_atom_site_fract_z
Si Si1 0.108159 0.705000 0.521568
Si Si2 0.353217 0.482177 0.103266
Si Si3 0.681612 0.048471 0.308828
Si Si4 0.471932 0.644545 0.439331
Si Si5 0.645291 0.299197 0.175511
Si Si6 0.741881 0.712517 0.377611
Si Si7 0.941716 0.625715 0.943230
Si Si8 0.251141 0.113924 0.504929
O O1 0.187436 0.720696 0.559665
O O2 0.836054 0.828312 0.610802
O O3 0.436873 0.600090 0.178180
O O4 0.947556 0.681124 0.757915
O O5 0.351614 0.422483 0.284287
O O6 0.990225 0.608630 0.327141
O O7 0.500000 0.500000 0.000000
O O8 0.378844 0.180184 0.559860
O O9 0.589453 0.045601 0.260034
O O10 0.729830 0.970927 0.443231
O O11 0.000000 0.000000 0.000000
O O12 0.324552 0.681437 0.721141
O O13 0.646521 0.663398 0.198161
O O14 0.718154 0.512117 0.286741
O O15 0.569813 0.243841 0.326608
O O16 0.982094 0.212735 0.814360
O O17 0.908418 0.669043 0.085896
#
# Coordination Sequence:
#
# PCOD8009748 Si02
#       8
#     2   2   2   2   2   2   2   2
#     4  11  22  39  62  89 130 159 193 251 302 366
#     4  11  22  35  56  97 127 158 200 247 305 365
#     4  11  23  43  67  87 117 160 207 262 304 350
#     4  10  21  37  60  89 130 165 196 235 301 376
#     4  10  21  38  62  94 124 156 202 249 300 370
#     4  11  21  38  62  89 121 164 202 253 305 355
#     4  10  22  36  57  92 127 166 198 236 300 375
#     4  10  24  43  64  95 115 155 214 252 306 360
#
# _framework density 20.391037000000001
#
# number of rings (size 3 to 8) (size 9 to 14) (size 15 to 20)
#    0.000    1.500    2.500    3.000    3.500    1.000 
#    4.500    0.625    0.000    2.250    0.000    0.000 
#    0.000    0.000    0.000    0.000    0.000    0.000 
#
# Total GULP energy -198427.902851 kJ/mol
# GULP energy per Si atom -12401.743928 kJ/mol
# Density = 2.034463 g / cm^3
# Si number density = 20.391037 Si / 1000 Ang^3
#
#
#
# Elastic Constant Matrix: (Units=GPa)
#
#
# Indices 1 2 3 4 5 6 
#
# 1 115.9839 62.6752 33.2571 -10.0565 1.2265 -6.6876
# 2 62.6752 161.9484 33.4944 -10.1180 0.9035 -6.5134
# 3 33.2571 33.4944 47.4935 -11.3750 -0.1078 -6.4004
# 4 -10.0565 -10.1180 -11.3750 29.7085 -1.1941 3.3260
# 5 1.2265 0.9035 -0.1078 -1.1941 31.4175 0.2024
# 6 -6.6876 -6.5134 -6.4004 3.3260 0.2024 36.7216
#
#
#
# Elastic Compliance Matrix: (Units=1/GPa)
#
#
# Indices 1 2 3 4 5 6 
#
# 1 0.012286 -0.003464 -0.005938 0.000630 -0.000380 0.000533
# 2 -0.003464 0.008221 -0.003258 0.000350 -0.000101 0.000228
# 3 -0.005938 -0.003258 0.029809 0.008008 0.000714 0.002807
# 4 0.000630 0.000350 0.008008 0.037320 0.001423 -0.001815
# 5 -0.000380 -0.000101 0.000714 0.001423 0.031905 -0.000267
# 6 0.000533 0.000228 0.002807 -0.001815 -0.000267 0.028025
#
#
# Mechanical properties :
#
#
# Convention : Reuss Voigt Hill
#
# Bulk Modulus (GPa) = 40.00593 64.91993 52.46293
# Shear Modulus (GPa) = 27.59121 32.63611 30.11366
#
# Velocity S-wave (km/s) = 3.68245 4.00498 3.84710
# Velocity P-wave (km/s) = 6.14349 7.30021 6.74669
#
# Compressibility (1/GPa) = 0.02499630
#
# Stress axis : x y z
#
# Youngs Moduli (GPa) = 81.39549 121.64534 33.54653
#
# Poissons Ratio (x) = 0.42132 0.19921
# Poissons Ratio (y) = 0.28191 0.10929
# Poissons Ratio (z) = 0.48336 0.39629
#
# Static dielectric constant tensor:
#      x y z
#    x 3.762020 -0.013530 0.003930 
#    y -0.013530 3.883170 -0.057410 
#    z 0.003930 -0.057410 3.547860 
# 
# 
# High freq. dielectric constant tensor:
#      x y z
#    x 1.803570 0.009930 -0.006310 
#    y 0.009930 1.801930 -0.008640 
#    z -0.006310 -0.008640 1.779200 
# 
# From -- ./inp_files/281490.got.cif
#   From: 2010.06.25/outbox.cif.g09.slc.cpg/sg2_141_cif.got.tgz:281490.got - 2010.06.27 13:26:56.
