data_PCOD8009033
_publ_section_title
;
Structure prediction by ZEFSAII (Michael W. Deem and Ramdas Pophale) SiO2 
 PCOD8009033
Probable space group: P -1
;
_chemical_formula_sum "Si O2"
_cell_formula_units_Z 16
_cell_length_a 8.129254
_cell_length_b 11.537419
_cell_length_c 18.827517
_cell_angle_alpha 49.226472
_cell_angle_beta 145.971207
_cell_angle_gamma 117.261313
_cell_volume 733.789088
_symmetry_space_group_name_H-M "P -1"
_symmetry_group_IT_number 2
_symmetry_cell_setting 'triclinic'
loop_
_space_group_symop_operation_xyz
x,y,z
-x,-y,-z
loop_
_atom_site_type_symbol
_atom_site_label
_atom_site_fract_x
_atom_site_fract_y
_atom_site_fract_z
Si Si1 0.250480 0.130302 0.821136
Si Si2 0.053363 0.841126 0.161839
Si Si3 0.169579 0.967834 0.408551
Si Si4 0.849962 0.824661 0.947631
Si Si5 0.801044 0.345537 0.368247
Si Si6 0.574453 0.588682 0.421798
Si Si7 0.412985 0.604912 0.205790
Si Si8 0.830213 0.142037 0.336948
O O1 0.396705 0.256117 0.781034
O O2 0.048920 0.224189 0.774548
O O3 0.026574 0.052666 0.722903
O O4 0.500000 0.000000 0.000000
O O5 0.400367 0.767895 0.298360
O O6 0.000774 0.026958 0.073552
O O7 0.848896 0.792935 0.044608
O O8 0.214869 0.812439 0.533438
O O9 0.500000 0.000000 0.500000
O O10 0.980585 0.119943 0.321732
O O11 0.518839 0.860384 0.785782
O O12 0.059759 0.679418 0.040167
O O13 0.507239 0.476872 0.228948
O O14 0.845655 0.306562 0.315375
O O15 0.077423 0.419158 0.462113
O O16 0.500000 0.500000 0.500000
O O17 0.464323 0.522096 0.335173
O O18 0.000000 0.000000 0.500000
#
# Coordination Sequence:
#
# PCOD8009033 Si02
#       8
#     2   2   2   2   2   2   2   2
#     4  12  23  39  68 102 137 174 231 289 338 408
#     4  10  21  35  65  93 128 173 223 278 340 382
#     4  11  26  42  67 101 140 176 226 287 342 415
#     4  10  21  41  63  95 134 173 227 279 332 404
#     4  11  24  42  67  95 140 176 226 278 341 412
#     4  11  23  39  66  96 134 174 224 284 337 395
#     4  11  24  42  64 103 134 177 228 287 339 393
#     4  10  23  41  63  91 130 178 223 268 341 406
#
# _framework density 21.80463
#
# number of rings (size 3 to 8) (size 9 to 14) (size 15 to 20)
#    0.000    1.250    2.500    3.375    8.750    0.500 
#    0.000    0.000    0.000    8.250    0.000    0.000 
#    0.000    0.000    0.000    0.000    0.000    0.000 
#
# Total GULP energy -198302.976891 kJ/mol
# GULP energy per Si atom -12393.936056 kJ/mol
# Density = 2.175500 g / cm^3
# Si number density = 21.804630 Si / 1000 Ang^3
#
#
#
# Elastic Constant Matrix: (Units=GPa)
#
#
# Indices 1 2 3 4 5 6 
#
# 1 123.0859 39.3611 50.3596 -1.9969 15.5616 -18.5282
# 2 39.3611 76.3475 46.5918 -1.5291 10.4154 -20.6107
# 3 50.3596 46.5918 125.2177 11.6095 22.3527 -17.1364
# 4 -1.9969 -1.5291 11.6095 30.8251 -1.4756 8.0405
# 5 15.5616 10.4154 22.3527 -1.4756 42.9534 -8.9940
# 6 -18.5282 -20.6107 -17.1364 8.0405 -8.9940 46.9705
#
#
#
# Elastic Compliance Matrix: (Units=1/GPa)
#
#
# Indices 1 2 3 4 5 6 
#
# 1 0.010687 -0.003253 -0.002780 0.001170 -0.001320 0.001321
# 2 -0.003253 0.019443 -0.005443 0.001497 0.000413 0.005086
# 3 -0.002780 -0.005443 0.012576 -0.005721 -0.004144 0.001289
# 4 0.001170 0.001497 -0.005721 0.036630 0.002014 -0.006854
# 5 -0.001320 0.000413 -0.004144 0.002014 0.026487 0.002876
# 6 0.001321 0.005086 0.001289 -0.006854 0.002876 0.026237
#
#
# Mechanical properties :
#
#
# Convention : Reuss Voigt Hill
#
# Bulk Modulus (GPa) = 50.62087 66.36400 58.49243
# Shear Modulus (GPa) = 30.94153 36.70570 33.82361
#
# Velocity S-wave (km/s) = 3.77109 4.10736 3.94282
# Velocity P-wave (km/s) = 6.49828 7.27982 6.90012
#
# Compressibility (1/GPa) = 0.01975470
#
# Stress axis : x y z
#
# Youngs Moduli (GPa) = 93.57486 51.43182 79.51814
#
# Poissons Ratio (x) = 0.16732 0.22103
# Poissons Ratio (y) = 0.30442 0.43279
# Poissons Ratio (z) = 0.26010 0.27993
#
# Static dielectric constant tensor:
#      x y z
#    x 4.545170 -0.301760 0.042190 
#    y -0.301760 4.009610 -0.112850 
#    z 0.042190 -0.112850 4.050030 
# 
# 
# High freq. dielectric constant tensor:
#      x y z
#    x 1.872040 -0.022500 0.013250 
#    y -0.022500 1.825080 -0.005610 
#    z 0.013250 -0.005610 1.862840 
# 
# From -- ./inp_files/589031.got.cif
#   From: 2010.06.25/outbox.cif.g09.slc.cpg/sg2_295_cif.got.tgz:589031.got - 2010.06.27 13:26:56.
