data_PCOD8009560
_publ_section_title
;
Structure prediction by ZEFSAII (Michael W. Deem and Ramdas Pophale) SiO2 
 PCOD8009560
Probable space group: P -1
;
_chemical_formula_sum "Si O2"
_cell_formula_units_Z 14
_cell_length_a 9.528034
_cell_length_b 14.157576
_cell_length_c 15.138879
_cell_angle_alpha 29.832077
_cell_angle_beta 64.405583
_cell_angle_gamma 85.776605
_cell_volume 679.201675
_symmetry_space_group_name_H-M "P -1"
_symmetry_group_IT_number 2
_symmetry_cell_setting 'triclinic'
loop_
_space_group_symop_operation_xyz
x,y,z
-x,-y,-z
loop_
_atom_site_type_symbol
_atom_site_label
_atom_site_fract_x
_atom_site_fract_y
_atom_site_fract_z
Si Si1 0.674790 0.222714 0.886009
Si Si2 0.644339 0.252045 0.315496
Si Si3 0.740160 0.295217 0.609353
Si Si4 0.035787 0.470989 0.134603
Si Si5 0.960959 0.155352 0.938093
Si Si6 0.779109 0.971343 0.323403
Si Si7 0.092231 0.329104 0.423127
O O1 0.676321 0.299375 0.723290
O O2 0.861428 0.224946 0.841841
O O3 0.699433 0.413407 0.795664
O O4 0.462536 0.939232 0.198589
O O5 0.473600 0.246052 0.415664
O O6 0.791742 0.262358 0.338824
O O7 0.500000 0.000000 0.500000
O O8 0.808924 0.496712 0.007458
O O9 0.825671 0.557041 0.324921
O O10 0.899527 0.246707 0.601772
O O11 0.065045 0.381261 0.289115
O O12 0.108663 0.749469 0.896667
O O13 0.813520 0.987558 0.196272
O O14 0.000000 0.000000 0.000000
O O15 0.892178 0.885048 0.409077
#
# Coordination Sequence:
#
# PCOD8009560 Si02
#       7
#     2   2   2   2   2   2   2
#     4  10  21  38  57  84 121 169 206 253 303 354
#     4   9  22  42  66  89 124 159 202 256 310 371
#     4  10  21  37  57  84 125 165 208 252 304 354
#     4  10  21  43  64  91 123 161 202 256 313 358
#     4  11  21  36  58  87 127 164 205 253 298 359
#     4  11  22  38  63  95 122 163 206 250 306 366
#     4  11  22  38  64  90 124 160 204 255 302 364
#
# _framework density 20.612432999999999
#
# number of rings (size 3 to 8) (size 9 to 14) (size 15 to 20)
#    0.000    1.714    2.857    3.429    2.000    2.286 
#    0.000    6.429    0.000    0.000    0.000    0.000 
#    0.000    0.000    0.000    0.000    0.000    0.000 
#
# Total GULP energy -173497.146096 kJ/mol
# GULP energy per Si atom -12392.653293 kJ/mol
# Density = 2.056552 g / cm^3
# Si number density = 20.612433 Si / 1000 Ang^3
#
#
#
# Elastic Constant Matrix: (Units=GPa)
#
#
# Indices 1 2 3 4 5 6 
#
# 1 64.6727 35.6534 44.5048 5.7489 8.5048 -1.2085
# 2 35.6534 86.1034 43.4181 19.4037 -1.7081 2.1304
# 3 44.5048 43.4181 98.4367 6.4767 -5.8928 -5.9001
# 4 5.7489 19.4037 6.4767 32.7599 0.5888 0.8722
# 5 8.5048 -1.7081 -5.8928 0.5888 39.4691 -1.4389
# 6 -1.2085 2.1304 -5.9001 0.8722 -1.4389 41.4160
#
#
#
# Elastic Compliance Matrix: (Units=1/GPa)
#
#
# Indices 1 2 3 4 5 6 
#
# 1 0.026621 -0.006547 -0.009715 0.001277 -0.007509 -0.000558
# 2 -0.006547 0.018831 -0.004750 -0.009052 0.001594 -0.001590
# 3 -0.009715 -0.004750 0.017000 0.001009 0.004503 0.002518
# 4 0.001277 -0.009052 0.001009 0.035486 -0.001051 -0.000137
# 5 -0.007509 0.001594 0.004503 -0.001051 0.027760 0.001327
# 6 -0.000558 -0.001590 0.002518 -0.000137 0.001327 0.024618
#
#
# Mechanical properties :
#
#
# Convention : Reuss Voigt Hill
#
# Bulk Modulus (GPa) = 48.95319 55.15173 52.05246
# Shear Modulus (GPa) = 25.10670 31.10474 28.10572
#
# Velocity S-wave (km/s) = 3.49382 3.88884 3.69661
# Velocity P-wave (km/s) = 6.33061 6.85410 6.59755
#
# Compressibility (1/GPa) = 0.02042768
#
# Stress axis : x y z
#
# Youngs Moduli (GPa) = 37.56453 53.10351 58.82228
#
# Poissons Ratio (x) = 0.34768 0.57145
# Poissons Ratio (y) = 0.24594 0.27942
# Poissons Ratio (z) = 0.36494 0.25225
#
# Static dielectric constant tensor:
#      x y z
#    x 3.644190 -0.013120 -0.325650 
#    y -0.013120 3.909880 0.118880 
#    z -0.325650 0.118880 4.192170 
# 
# 
# High freq. dielectric constant tensor:
#      x y z
#    x 1.786530 0.009920 -0.016560 
#    y 0.009920 1.809710 0.010060 
#    z -0.016560 0.010060 1.808550 
# 
# From -- ./inp_files/335320.got.cif
#   From: 2010.06.25/outbox.cif.g09.slc.cpg/sg2_168_cif.got.tgz:335320.got - 2010.06.27 13:26:56.
