data_PCOD8009196
_publ_section_title
;
Structure prediction by ZEFSAII (Michael W. Deem and Ramdas Pophale) SiO2 
 PCOD8009196
Probable space group: P -1
;
_chemical_formula_sum "Si O2"
_cell_formula_units_Z 16
_cell_length_a 6.865137
_cell_length_b 10.887938
_cell_length_c 17.359718
_cell_angle_alpha 57.585825
_cell_angle_beta 70.334419
_cell_angle_gamma 115.941658
_cell_volume 649.079337
_symmetry_space_group_name_H-M "P -1"
_symmetry_group_IT_number 2
_symmetry_cell_setting 'triclinic'
loop_
_space_group_symop_operation_xyz
x,y,z
-x,-y,-z
loop_
_atom_site_type_symbol
_atom_site_label
_atom_site_fract_x
_atom_site_fract_y
_atom_site_fract_z
Si Si1 0.951849 0.761944 0.057875
Si Si2 0.846526 0.390276 0.155140
Si Si3 0.680633 0.907612 0.794473
Si Si4 0.846272 0.095850 0.304373
Si Si5 0.836318 0.271378 0.561883
Si Si6 0.328481 0.112204 0.450664
Si Si7 0.450077 0.483567 0.337664
Si Si8 0.934943 0.026704 0.880528
O O1 0.043664 0.644675 0.064812
O O2 0.572037 0.563313 0.204848
O O3 0.182506 0.951650 0.033134
O O4 0.987423 0.882998 0.937832
O O5 0.542558 0.183201 0.324074
O O6 0.691856 0.321731 0.112047
O O7 0.041321 0.345291 0.159244
O O8 0.910951 0.906761 0.733057
O O9 0.815657 0.137636 0.675196
O O10 0.667236 0.899466 0.891918
O O11 0.746105 0.058120 0.421055
O O12 0.519540 0.883567 0.370409
O O13 0.079861 0.342408 0.438956
O O14 0.000000 0.500000 0.500000
O O15 0.491021 0.334829 0.403028
O O16 0.000000 0.000000 0.500000
O O17 0.706590 0.713911 0.280157
#
# Coordination Sequence:
#
# PCOD8009196 Si02
#       8
#     2   2   2   2   2   2   2   2
#     4   8  19  39  63  86 110 157 214 242 297 341
#     4  10  21  36  58  90 116 157 201 245 288 360
#     4  11  22  38  58  90 127 151 196 241 304 356
#     4  11  22  35  56  91 126 162 186 237 304 355
#     4  11  23  34  55  94 124 155 194 235 300 370
#     4  11  18  35  57  84 122 156 193 235 287 364
#     4   9  18  35  58  84 118 149 194 242 281 351
#     4   9  19  37  65  84 110 167 199 251 296 342
#
# _framework density 24.650297999999999
#
# number of rings (size 3 to 8) (size 9 to 14) (size 15 to 20)
#    0.750    1.250    2.500    1.875    1.750    1.500 
#    0.000    0.625    0.000    2.250    0.000    0.000 
#    0.000    0.000    0.000    0.000    0.000    0.000 
#
# Total GULP energy -198245.876970 kJ/mol
# GULP energy per Si atom -12390.367311 kJ/mol
# Density = 2.459419 g / cm^3
# Si number density = 24.650298 Si / 1000 Ang^3
#
#
#
# Elastic Constant Matrix: (Units=GPa)
#
#
# Indices 1 2 3 4 5 6 
#
# 1 68.6925 21.4889 14.9114 -3.5996 22.2471 10.0341
# 2 21.4889 103.0091 31.1169 -4.6490 33.3973 8.1478
# 3 14.9114 31.1169 62.1521 -16.5254 35.8637 15.4500
# 4 -3.5996 -4.6490 -16.5254 40.6304 -3.1515 13.3402
# 5 22.2471 33.3973 35.8637 -3.1515 48.4140 5.3331
# 6 10.0341 8.1478 15.4500 13.3402 5.3331 30.0077
#
#
#
# Elastic Compliance Matrix: (Units=1/GPa)
#
#
# Indices 1 2 3 4 5 6 
#
# 1 0.019160 -0.001226 0.007634 0.007411 -0.011899 -0.011184
# 2 -0.001226 0.012821 -0.001782 0.000488 -0.006801 -0.001162
# 3 0.007634 -0.001782 0.053478 0.031718 -0.035714 -0.037356
# 4 0.007411 0.000488 0.031718 0.048862 -0.019969 -0.037115
# 5 -0.011899 -0.006801 -0.035714 -0.019969 0.053371 0.023606
# 6 -0.011184 -0.001162 -0.037356 -0.037115 0.023606 0.068918
#
#
# Mechanical properties :
#
#
# Convention : Reuss Voigt Hill
#
# Bulk Modulus (GPa) = 10.55840 40.98756 25.77298
# Shear Modulus (GPa) = 17.92585 34.89950 26.41268
#
# Velocity S-wave (km/s) = 2.69960 3.76677 3.27692
# Velocity P-wave (km/s) = 3.74295 5.96505 4.97953
#
# Compressibility (1/GPa) = 0.09471131
#
# Stress axis : x y z
#
# Youngs Moduli (GPa) = 52.19251 77.99798 18.69938
#
# Poissons Ratio (x) = 0.09562 -0.14275
# Poissons Ratio (y) = 0.06399 0.03332
# Poissons Ratio (z) = -0.39844 0.13896
#
# Static dielectric constant tensor:
#      x y z
#    x 4.204100 -0.318030 0.355690 
#    y -0.318030 4.716410 -0.349860 
#    z 0.355690 -0.349860 4.890070 
# 
# 
# High freq. dielectric constant tensor:
#      x y z
#    x 1.959670 -0.016570 0.013150 
#    y -0.016570 1.980520 -0.008670 
#    z 0.013150 -0.008670 1.989350 
# 
# From -- ./inp_files/583013.got.cif
#   From: 2010.06.25/outbox.cif.g09.slc.cpg/sg2_292_cif.got.tgz:583013.got - 2010.06.27 13:26:56.
