data_PCOD8009661
_publ_section_title
;
Structure prediction by ZEFSAII (Michael W. Deem and Ramdas Pophale) SiO2 
 PCOD8009661
Probable space group: P -1
;
_chemical_formula_sum "Si O2"
_cell_formula_units_Z 16
_cell_length_a 8.561741
_cell_length_b 21.366917
_cell_length_c 6.108886
_cell_angle_alpha 120.007796
_cell_angle_beta 52.978552
_cell_angle_gamma 116.262932
_cell_volume 756.337276
_symmetry_space_group_name_H-M "P -1"
_symmetry_group_IT_number 2
_symmetry_cell_setting 'triclinic'
loop_
_space_group_symop_operation_xyz
x,y,z
-x,-y,-z
loop_
_atom_site_type_symbol
_atom_site_label
_atom_site_fract_x
_atom_site_fract_y
_atom_site_fract_z
Si Si1 0.852925 0.796980 0.157716
Si Si2 0.978943 0.283634 0.744532
Si Si3 0.433484 0.101515 0.305507
Si Si4 0.179448 0.849116 0.642976
Si Si5 0.303911 0.340007 0.232009
Si Si6 0.242085 0.597553 0.931782
Si Si7 0.078149 0.458846 0.557938
Si Si8 0.635649 0.041325 0.646199
O O1 0.716756 0.842831 0.485382
O O2 0.987827 0.762602 0.152232
O O3 0.711554 0.733239 0.027243
O O4 0.000674 0.852663 0.969372
O O5 0.852852 0.232286 0.574839
O O6 0.189724 0.323823 0.531904
O O7 0.849163 0.343473 0.032957
O O8 0.608837 0.133216 0.383153
O O9 0.308538 0.020798 0.348285
O O10 0.520105 0.093980 0.976867
O O11 0.176005 0.907237 0.546473
O O12 0.530269 0.371836 0.153792
O O13 0.213939 0.400440 0.273159
O O14 0.217315 0.519084 0.697901
O O15 0.118462 0.587152 0.241871
O O16 0.000000 0.500000 0.500000
O O17 0.500000 0.000000 0.500000
#
# Coordination Sequence:
#
# PCOD8009661 Si02
#       8
#     2   2   2   2   2   2   2   2
#     4  11  23  37  60  89 116 153 200 242 291 351
#     4  10  22  37  55  85 119 152 195 241 287 343
#     4  10  21  39  61  86 115 154 197 240 295 353
#     4  10  21  39  59  84 119 154 192 245 295 345
#     4  10  22  38  57  86 117 153 196 236 288 346
#     4  10  21  38  58  82 117 156 191 236 288 340
#     4  10  21  37  59  86 116 150 193 240 285 339
#     4   9  20  39  61  85 117 152 193 243 294 351
#
# _framework density 21.154585000000001
#
# number of rings (size 3 to 8) (size 9 to 14) (size 15 to 20)
#    0.000    2.000    0.000    2.625    0.000    8.000 
#    0.000    8.750    0.000    0.000    0.000    0.000 
#    0.000    0.000    0.000    0.000    0.000    0.000 
#
# Total GULP energy -198388.468600 kJ/mol
# GULP energy per Si atom -12399.279288 kJ/mol
# Density = 2.110644 g / cm^3
# Si number density = 21.154585 Si / 1000 Ang^3
#
#
#
# Elastic Constant Matrix: (Units=GPa)
#
#
# Indices 1 2 3 4 5 6 
#
# 1 88.0735 56.5540 41.5484 -18.5849 -15.7449 -3.1182
# 2 56.5540 124.3374 57.9976 -9.9041 -16.9412 -0.3245
# 3 41.5484 57.9976 102.9392 -0.8832 -9.6946 -7.1968
# 4 -18.5849 -9.9041 -0.8832 29.5290 -8.5172 -2.4746
# 5 -15.7449 -16.9412 -9.6946 -8.5172 27.5261 -0.7571
# 6 -3.1182 -0.3245 -7.1968 -2.4746 -0.7571 35.3439
#
#
#
# Elastic Compliance Matrix: (Units=1/GPa)
#
#
# Indices 1 2 3 4 5 6 
#
# 1 0.022847 -0.004952 -0.004842 0.016685 0.013545 0.002443
# 2 -0.004952 0.013543 -0.005278 0.002432 0.004365 -0.001123
# 3 -0.004842 -0.005278 0.014524 -0.004888 -0.002357 0.002089
# 4 0.016685 0.002432 -0.004888 0.052880 0.025813 0.004754
# 5 0.013545 0.004365 -0.002357 0.025813 0.054023 0.003720
# 6 0.002443 -0.001123 0.002089 0.004754 0.003720 0.029337
#
#
# Mechanical properties :
#
#
# Convention : Reuss Voigt Hill
#
# Bulk Modulus (GPa) = 48.14569 69.72780 58.93675
# Shear Modulus (GPa) = 22.29949 29.09648 25.69798
#
# Velocity S-wave (km/s) = 3.25024 3.71269 3.48914
# Velocity P-wave (km/s) = 6.07403 7.17017 6.64474
#
# Compressibility (1/GPa) = 0.02077029
#
# Stress axis : x y z
#
# Youngs Moduli (GPa) = 43.76922 73.84099 68.84954
#
# Poissons Ratio (x) = 0.36569 0.33335
# Poissons Ratio (y) = 0.21676 0.36338
# Poissons Ratio (z) = 0.21192 0.38972
#
# Static dielectric constant tensor:
#      x y z
#    x 3.497700 -0.036300 0.116300 
#    y -0.036300 4.478060 0.033280 
#    z 0.116300 0.033280 3.911610 
# 
# 
# High freq. dielectric constant tensor:
#      x y z
#    x 1.811300 0.004560 0.009390 
#    y 0.004560 1.850850 0.004260 
#    z 0.009390 0.004260 1.823920 
# 
# From -- ./inp_files/11286.got.cif
#   From: 2010.06.25/outbox.cif.g09.slc.cpg/sg2_6_cif.got.tgz:11286.got - 2010.06.27 13:26:56.
