data_PCOD8009415
_publ_section_title
;
Structure prediction by ZEFSAII (Michael W. Deem and Ramdas Pophale) SiO2 
 PCOD8009415
Probable space group: P -1
;
_chemical_formula_sum "Si O2"
_cell_formula_units_Z 16
_cell_length_a 11.571884
_cell_length_b 8.019155
_cell_length_c 21.739218
_cell_angle_alpha 102.074238
_cell_angle_beta 149.833406
_cell_angle_gamma 96.350976
_cell_volume 798.106172
_symmetry_space_group_name_H-M "P -1"
_symmetry_group_IT_number 2
_symmetry_cell_setting 'triclinic'
loop_
_space_group_symop_operation_xyz
x,y,z
-x,-y,-z
loop_
_atom_site_type_symbol
_atom_site_label
_atom_site_fract_x
_atom_site_fract_y
_atom_site_fract_z
Si Si1 0.461445 0.305255 0.840393
Si Si2 0.664446 0.277052 0.120514
Si Si3 0.162572 0.168626 0.141100
Si Si4 0.392947 0.975306 0.303146
Si Si5 0.044375 0.754486 0.343717
Si Si6 0.137610 0.265226 0.875052
Si Si7 0.317364 0.895598 0.006258
Si Si8 0.694088 0.419376 0.827835
O O1 0.127242 0.170605 0.694226
O O2 0.583551 0.169078 0.893697
O O3 0.499964 0.385088 0.794310
O O4 0.638417 0.488288 0.986918
O O5 0.877350 0.507937 0.264997
O O6 0.609700 0.118417 0.137527
O O7 0.336391 0.189936 0.948211
O O8 0.797693 0.261269 0.117852
O O9 0.293659 0.408728 0.197662
O O10 0.405601 0.140317 0.273584
O O11 0.943774 0.102646 0.091544
O O12 0.000000 0.000000 0.000000
O O13 0.439970 0.806367 0.284071
O O14 0.078880 0.848526 0.177425
O O15 0.632623 0.111672 0.475009
O O16 0.046418 0.776192 0.273174
O O17 0.000000 0.500000 0.000000
#
# Coordination Sequence:
#
# PCOD8009415 Si02
#       8
#     2   2   2   2   2   2   2   2
#     4  11  20  40  69  89 120 166 216 260 303 374
#     4  10  21  36  63  94 122 166 212 249 310 378
#     4  12  23  41  68  96 118 164 219 266 305 364
#     4  12  25  43  63  97 132 165 205 264 325 371
#     4  11  24  40  61  94 135 165 196 260 332 376
#     4  11  18  40  65  90 121 169 209 248 311 387
#     4  11  19  36  65  93 122 156 221 260 294 367
#     4  12  23  41  69  93 119 165 224 265 301 368
#
# _framework density 20.047457999999999
#
# number of rings (size 3 to 8) (size 9 to 14) (size 15 to 20)
#    0.000    0.750    7.500    1.125    1.750    0.500 
#    2.250    1.250    0.000    0.000    0.000    0.000 
#    0.000    0.000    0.000    0.000    0.000    0.000 
#
# Total GULP energy -198315.941247 kJ/mol
# GULP energy per Si atom -12394.746328 kJ/mol
# Density = 2.000183 g / cm^3
# Si number density = 20.047458 Si / 1000 Ang^3
#
#
#
# Elastic Constant Matrix: (Units=GPa)
#
#
# Indices 1 2 3 4 5 6 
#
# 1 106.3705 19.8011 9.7329 -4.3798 -8.9932 -2.5142
# 2 19.8011 102.7138 14.3543 -3.4351 -7.5683 -4.0573
# 3 9.7329 14.3543 75.4480 -4.6905 -9.8052 -8.7142
# 4 -4.3798 -3.4351 -4.6905 20.0858 0.0513 -2.0130
# 5 -8.9932 -7.5683 -9.8052 0.0513 23.4297 0.4380
# 6 -2.5142 -4.0573 -8.7142 -2.0130 0.4380 31.9460
#
#
#
# Elastic Compliance Matrix: (Units=1/GPa)
#
#
# Indices 1 2 3 4 5 6 
#
# 1 0.010090 -0.001569 -0.000408 0.001885 0.003181 0.000559
# 2 -0.001569 0.010462 -0.001323 0.001222 0.002204 0.000891
# 3 -0.000408 -0.001323 0.014974 0.003571 0.005599 0.004033
# 4 0.001885 0.001222 0.003571 0.051685 0.002415 0.004501
# 5 0.003181 0.002204 0.005599 0.002415 0.046923 0.001567
# 6 0.000559 0.000891 0.004033 0.004501 0.001567 0.032822
#
#
# Mechanical properties :
#
#
# Convention : Reuss Voigt Hill
#
# Bulk Modulus (GPa) = 34.56994 41.36766 37.96880
# Shear Modulus (GPa) = 27.29301 31.13522 29.21412
#
# Velocity S-wave (km/s) = 3.69375 3.94518 3.82153
# Velocity P-wave (km/s) = 5.95594 6.43679 6.20103
#
# Compressibility (1/GPa) = 0.02892686
#
# Stress axis : x y z
#
# Youngs Moduli (GPa) = 99.10614 95.58835 66.78260
#
# Poissons Ratio (x) = 0.14995 0.02726
# Poissons Ratio (y) = 0.15546 0.08833
# Poissons Ratio (z) = 0.04045 0.12643
#
# Static dielectric constant tensor:
#      x y z
#    x 3.762280 -0.050080 0.012180 
#    y -0.050080 4.121640 -0.064540 
#    z 0.012180 -0.064540 3.213910 
# 
# 
# High freq. dielectric constant tensor:
#      x y z
#    x 1.796660 0.001500 -0.002590 
#    y 0.001500 1.796840 -0.003570 
#    z -0.002590 -0.003570 1.735680 
# 
# From -- ./inp_files/416272.got.cif
#   From: 2010.06.25/outbox.cif.g09.slc.cpg/sg2_209_cif.got.tgz:416272.got - 2010.06.27 13:26:56.
