data_PCOD8009895
_publ_section_title
;
Structure prediction by ZEFSAII (Michael W. Deem and Ramdas Pophale) SiO2 
 PCOD8009895
Probable space group: P -1
;
_chemical_formula_sum "Si O2"
_cell_formula_units_Z 16
_cell_length_a 17.440875
_cell_length_b 9.064217
_cell_length_c 12.613182
_cell_angle_alpha 109.100505
_cell_angle_beta 39.684570
_cell_angle_gamma 77.474483
_cell_volume 757.768510
_symmetry_space_group_name_H-M "P -1"
_symmetry_group_IT_number 2
_symmetry_cell_setting 'triclinic'
loop_
_space_group_symop_operation_xyz
x,y,z
-x,-y,-z
loop_
_atom_site_type_symbol
_atom_site_label
_atom_site_fract_x
_atom_site_fract_y
_atom_site_fract_z
Si Si1 0.863236 0.238923 0.279103
Si Si2 0.019730 0.405793 0.620168
Si Si3 0.673648 0.749045 0.591547
Si Si4 0.211398 0.869753 0.942285
Si Si5 0.767030 0.481851 0.066081
Si Si6 0.634598 0.207383 0.462035
Si Si7 0.784575 0.743223 0.259328
Si Si8 0.249879 0.101089 0.105108
O O1 0.764827 0.492303 0.396188
O O2 0.696107 0.283579 0.495314
O O3 0.000000 0.000000 0.000000
O O4 0.997717 0.151817 0.213229
O O5 0.196955 0.316137 0.465942
O O6 0.102271 0.232896 0.389709
O O7 0.845076 0.693573 0.836618
O O8 0.935633 0.361302 0.779084
O O9 0.670662 0.864296 0.519412
O O10 0.449979 0.960815 0.908377
O O11 0.175191 0.725988 0.975473
O O12 0.354822 0.739976 0.658509
O O13 0.291961 0.888947 0.959055
O O14 0.576116 0.629913 0.240341
O O15 0.707279 0.685547 0.252544
O O16 0.773899 0.918638 0.252425
O O17 0.000000 0.500000 0.000000
#
# Coordination Sequence:
#
# PCOD8009895 Si02
#       8
#     2   2   2   2   2   2   2   2
#     4  10  21  37  62  91 128 163 201 253 307 379
#     4  11  25  44  64  94 126 162 218 267 310 359
#     4  12  22  42  67  94 128 166 211 255 316 377
#     4  11  21  40  62  88 129 163 206 255 309 375
#     4  12  23  38  61  92 128 162 204 261 315 375
#     4  11  22  37  60  94 125 164 206 247 318 391
#     4  12  21  35  60  92 128 159 197 256 322 371
#     4  11  24  44  69  89 120 173 217 262 307 367
#
# _framework density 21.114628
#
# number of rings (size 3 to 8) (size 9 to 14) (size 15 to 20)
#    0.000    0.750    2.500    7.875    0.000    0.500 
#    0.000    0.000    0.000    1.500    0.000    0.000 
#    0.000    0.000    0.000    0.000    0.000    0.000 
#
# Total GULP energy -198325.939442 kJ/mol
# GULP energy per Si atom -12395.371215 kJ/mol
# Density = 2.106657 g / cm^3
# Si number density = 21.114628 Si / 1000 Ang^3
#
#
#
# Elastic Constant Matrix: (Units=GPa)
#
#
# Indices 1 2 3 4 5 6 
#
# 1 84.2858 13.5339 27.8040 -9.6962 -25.7265 3.0942
# 2 13.5339 118.5751 22.9315 -8.1025 -1.0122 0.8509
# 3 27.8040 22.9315 78.8021 -6.7085 -18.2767 -4.8960
# 4 -9.6962 -8.1025 -6.7085 25.1131 -5.2425 -6.2885
# 5 -25.7265 -1.0122 -18.2767 -5.2425 45.6781 1.0708
# 6 3.0942 0.8509 -4.8960 -6.2885 1.0708 28.8256
#
#
#
# Elastic Compliance Matrix: (Units=1/GPa)
#
#
# Indices 1 2 3 4 5 6 
#
# 1 0.016538 -0.000745 -0.003032 0.006922 0.008905 -0.001089
# 2 -0.000745 0.009110 -0.002488 0.001727 -0.001010 -0.000197
# 3 -0.003032 -0.002488 0.016310 0.004454 0.005182 0.003948
# 4 0.006922 0.001727 0.004454 0.049131 0.011117 0.010268
# 5 0.008905 -0.001010 0.005182 0.011117 0.030205 0.001257
# 6 -0.001089 -0.000197 0.003948 0.010268 0.001257 0.037678
#
#
# Mechanical properties :
#
#
# Convention : Reuss Voigt Hill
#
# Bulk Modulus (GPa) = 33.97835 45.57799 39.77817
# Shear Modulus (GPa) = 27.57680 34.41626 30.99653
#
# Velocity S-wave (km/s) = 3.61785 4.04167 3.83562
# Velocity P-wave (km/s) = 5.79475 6.58885 6.20452
#
# Compressibility (1/GPa) = 0.02943051
#
# Stress axis : x y z
#
# Youngs Moduli (GPa) = 60.46550 109.76458 61.31187
#
# Poissons Ratio (x) = 0.08172 0.18588
# Poissons Ratio (y) = 0.04502 0.15254
# Poissons Ratio (z) = 0.18331 0.27309
#
# Static dielectric constant tensor:
#      x y z
#    x 4.025340 0.243800 -0.753560 
#    y 0.243800 4.107290 -0.067810 
#    z -0.753560 -0.067810 3.591760 
# 
# 
# High freq. dielectric constant tensor:
#      x y z
#    x 1.830820 0.004140 -0.033780 
#    y 0.004140 1.831080 0.007550 
#    z -0.033780 0.007550 1.812310 
# 
# From -- ./inp_files/244501.got.cif
#   From: 2010.06.25/outbox.cif.g09.slc.cpg/sg2_123_cif.got.tgz:244501.got - 2010.06.27 13:26:56.
