data_PCOD8009755
_publ_section_title
;
Structure prediction by ZEFSAII (Michael W. Deem and Ramdas Pophale) SiO2 
 PCOD8009755
Probable space group: P -1
;
_chemical_formula_sum "Si O2"
_cell_formula_units_Z 16
_cell_length_a 8.944637
_cell_length_b 11.892704
_cell_length_c 9.500905
_cell_angle_alpha 94.764958
_cell_angle_beta 85.830270
_cell_angle_gamma 123.776820
_cell_volume 836.743517
_symmetry_space_group_name_H-M "P -1"
_symmetry_group_IT_number 2
_symmetry_cell_setting 'triclinic'
loop_
_space_group_symop_operation_xyz
x,y,z
-x,-y,-z
loop_
_atom_site_type_symbol
_atom_site_label
_atom_site_fract_x
_atom_site_fract_y
_atom_site_fract_z
Si Si1 0.877046 0.018985 0.117161
Si Si2 0.551377 0.757182 0.063063
Si Si3 0.035643 0.351640 0.793485
Si Si4 0.796441 0.799490 0.281746
Si Si5 0.940585 0.303818 0.114718
Si Si6 0.642339 0.354838 0.210247
Si Si7 0.485949 0.626589 0.487703
Si Si8 0.775233 0.419127 0.742069
O O1 0.937205 0.172052 0.145973
O O2 0.667567 0.922805 0.068831
O O3 0.888237 0.960424 0.263994
O O4 0.000000 0.000000 0.000000
O O5 0.674507 0.719633 0.140976
O O6 0.363961 0.692828 0.149919
O O7 0.515018 0.702615 0.901247
O O8 0.048770 0.230593 0.719765
O O9 0.236679 0.484020 0.798971
O O10 0.916890 0.377280 0.697118
O O11 0.944475 0.318640 0.948682
O O12 0.671032 0.750450 0.422287
O O13 0.761104 0.290925 0.180936
O O14 0.120394 0.431735 0.181556
O O15 0.543668 0.315391 0.362546
O O16 0.500000 0.500000 0.500000
O O17 0.315340 0.578699 0.394904
#
# Coordination Sequence:
#
# PCOD8009755 Si02
#       8
#     2   2   2   2   2   2   2   2
#     4  10  21  37  60  91 123 157 194 250 303 355
#     4   9  19  37  60  89 116 152 203 243 297 343
#     4  11  18  35  63  89 125 146 198 259 300 339
#     4   9  21  38  58  86 122 156 196 246 297 350
#     4  11  20  36  62  96 125 147 201 255 301 348
#     4  11  21  36  60  95 118 157 201 253 296 350
#     4  11  23  39  59  89 123 159 203 245 295 359
#     4  10  21  38  63  91 118 157 198 250 303 345
#
# _framework density 19.121749999999999
#
# number of rings (size 3 to 8) (size 9 to 14) (size 15 to 20)
#    0.750    1.000    5.000    0.750    0.000    5.000 
#    0.000    0.625    0.000    4.500    0.000    0.000 
#    0.000    0.000    0.000    0.000    0.000    0.000 
#
# Total GULP energy -198275.409523 kJ/mol
# GULP energy per Si atom -12392.213095 kJ/mol
# Density = 1.907823 g / cm^3
# Si number density = 19.121750 Si / 1000 Ang^3
#
#
#
# Elastic Constant Matrix: (Units=GPa)
#
#
# Indices 1 2 3 4 5 6 
#
# 1 90.4072 37.8588 44.4763 -3.4981 -4.1997 -10.3161
# 2 37.8588 90.5231 23.2918 -20.6602 -4.1603 -0.8859
# 3 44.4763 23.2918 108.0584 -13.1731 -12.3721 -0.2159
# 4 -3.4981 -20.6602 -13.1731 25.7678 4.3287 3.1179
# 5 -4.1997 -4.1603 -12.3721 4.3287 34.6461 -1.5917
# 6 -10.3161 -0.8859 -0.2159 3.1179 -1.5917 30.9282
#
#
#
# Elastic Compliance Matrix: (Units=1/GPa)
#
#
# Indices 1 2 3 4 5 6 
#
# 1 0.017938 -0.007491 -0.006688 -0.007806 0.000161 0.006517
# 2 -0.007491 0.016964 0.001035 0.013584 -0.000354 -0.003393
# 3 -0.006688 0.001035 0.012894 0.006322 0.003009 -0.002594
# 4 -0.007806 0.013584 0.006322 0.053501 -0.004099 -0.007775
# 5 0.000161 -0.000354 0.003009 -0.004099 0.030521 0.002049
# 6 0.006517 -0.003393 -0.002594 -0.007775 0.002049 0.035281
#
#
# Mechanical properties :
#
#
# Convention : Reuss Voigt Hill
#
# Bulk Modulus (GPa) = 46.49597 55.58248 51.03923
# Shear Modulus (GPa) = 24.93053 30.49254 27.71154
#
# Velocity S-wave (km/s) = 3.61470 3.99764 3.81099
# Velocity P-wave (km/s) = 6.46452 7.10204 6.79076
#
# Compressibility (1/GPa) = 0.02150724
#
# Stress axis : x y z
#
# Youngs Moduli (GPa) = 55.74859 58.94695 77.55505
#
# Poissons Ratio (x) = 0.44160 0.51872
# Poissons Ratio (y) = 0.41764 -0.08030
# Poissons Ratio (z) = 0.37287 -0.06104
#
# Static dielectric constant tensor:
#      x y z
#    x 3.532780 0.089880 -0.029520 
#    y 0.089880 3.440950 -0.253010 
#    z -0.029520 -0.253010 3.431940 
# 
# 
# High freq. dielectric constant tensor:
#      x y z
#    x 1.749880 0.003570 -0.003620 
#    y 0.003570 1.726600 -0.024690 
#    z -0.003620 -0.024690 1.726910 
# 
# From -- ./inp_files/187678.got.cif
#   From: 2010.06.25/outbox.cif.g09.slc.cpg/sg2_94_cif.got.tgz:187678.got - 2010.06.27 13:26:56.
