data_PCOD8009268
_publ_section_title
;
Structure prediction by ZEFSAII (Michael W. Deem and Ramdas Pophale) SiO2 
 PCOD8009268
Probable space group: P -1
;
_chemical_formula_sum "Si O2"
_cell_formula_units_Z 16
_cell_length_a 15.261978
_cell_length_b 12.908281
_cell_length_c 9.320023
_cell_angle_alpha 50.176463
_cell_angle_beta 109.117330
_cell_angle_gamma 67.421167
_cell_volume 766.147787
_symmetry_space_group_name_H-M "P -1"
_symmetry_group_IT_number 2
_symmetry_cell_setting 'triclinic'
loop_
_space_group_symop_operation_xyz
x,y,z
-x,-y,-z
loop_
_atom_site_type_symbol
_atom_site_label
_atom_site_fract_x
_atom_site_fract_y
_atom_site_fract_z
Si Si1 0.320259 0.717945 0.770140
Si Si2 0.028529 0.948718 0.230149
Si Si3 0.925811 0.410302 0.445051
Si Si4 0.290141 0.305382 0.387336
Si Si5 0.922656 0.510181 0.659893
Si Si6 0.842557 0.250763 0.118953
Si Si7 0.778628 0.878057 0.668965
Si Si8 0.397074 0.062010 0.262242
O O1 0.192231 0.827199 0.480293
O O2 0.307047 0.644714 0.973678
O O3 0.284225 0.913908 0.627348
O O4 0.500000 0.500000 0.000000
O O5 0.045916 0.771274 0.438859
O O6 0.868974 0.191219 0.015369
O O7 0.000000 0.000000 0.000000
O O8 0.962463 0.370325 0.669390
O O9 0.047783 0.367317 0.467923
O O10 0.738970 0.670972 0.095549
O O11 0.255112 0.309435 0.531858
O O12 0.248605 0.222994 0.347018
O O13 0.480956 0.114303 0.647145
O O14 0.185781 0.555727 0.048945
O O15 0.032824 0.330910 0.011055
O O16 0.000000 0.000000 0.500000
O O17 0.689272 0.969687 0.695557
O O18 0.500000 0.000000 0.500000
#
# Coordination Sequence:
#
# PCOD8009268 Si02
#       8
#     2   2   2   2   2   2   2   2
#     4  11  24  39  64  95 126 163 212 258 310 373
#     4  11  24  42  65  85 132 168 208 249 321 371
#     4  10  22  39  60  86 120 160 199 249 306 363
#     4  11  21  36  62  87 123 152 205 250 302 353
#     4  10  21  36  60  91 114 152 209 249 295 358
#     4  10  23  37  62  95 123 163 211 255 310 372
#     4  10  21  36  60  85 124 152 201 249 303 350
#     4   9  21  35  60  86 115 155 197 246 303 356
#
# _framework density 20.883700000000001
#
# number of rings (size 3 to 8) (size 9 to 14) (size 15 to 20)
#    0.000    1.750    0.000    4.125   15.750    0.500 
#    0.000    0.625    0.000    0.000    0.000    0.000 
#    0.000    0.000    0.000    0.000    0.000    0.000 
#
# Total GULP energy -198262.472834 kJ/mol
# GULP energy per Si atom -12391.404552 kJ/mol
# Density = 2.083617 g / cm^3
# Si number density = 20.883700 Si / 1000 Ang^3
#
#
#
# Elastic Constant Matrix: (Units=GPa)
#
#
# Indices 1 2 3 4 5 6 
#
# 1 136.0201 68.2258 38.7688 -21.1435 -9.4619 -18.6645
# 2 68.2258 101.4193 37.0167 -16.7788 -12.7472 -5.8184
# 3 38.7688 37.0167 51.0249 -7.3545 -14.7293 2.4886
# 4 -21.1435 -16.7788 -7.3545 32.5446 5.4989 -7.1181
# 5 -9.4619 -12.7472 -14.7293 5.4989 31.8413 -9.8775
# 6 -18.6645 -5.8184 2.4886 -7.1181 -9.8775 52.3886
#
#
#
# Elastic Compliance Matrix: (Units=1/GPa)
#
#
# Indices 1 2 3 4 5 6 
#
# 1 0.013381 -0.005821 -0.005461 0.005618 -0.000271 0.005093
# 2 -0.005821 0.017203 -0.007166 0.003411 0.001542 0.000931
# 3 -0.005461 -0.007166 0.031526 -0.002347 0.009648 -0.002739
# 4 0.005618 0.003411 -0.002347 0.037562 -0.002317 0.007159
# 5 -0.000271 0.001542 0.009648 -0.002317 0.038862 0.006629
# 6 0.005093 0.000931 -0.002739 0.007159 0.006629 0.023359
#
#
# Mechanical properties :
#
#
# Convention : Reuss Voigt Hill
#
# Bulk Modulus (GPa) = 39.65894 64.05410 51.85652
# Shear Modulus (GPa) = 24.13192 32.98511 28.55852
#
# Velocity S-wave (km/s) = 3.40301 3.97856 3.70199
# Velocity P-wave (km/s) = 5.87131 7.20026 6.56947
#
# Compressibility (1/GPa) = 0.02521499
#
# Stress axis : x y z
#
# Youngs Moduli (GPa) = 74.73093 58.12955 31.71943
#
# Poissons Ratio (x) = 0.33837 0.17322
# Poissons Ratio (y) = 0.43501 0.22730
# Poissons Ratio (z) = 0.40811 0.41655
#
# Static dielectric constant tensor:
#      x y z
#    x 5.307280 -0.506770 0.603990 
#    y -0.506770 4.154340 -0.161940 
#    z 0.603990 -0.161940 3.977310 
# 
# 
# High freq. dielectric constant tensor:
#      x y z
#    x 1.839010 -0.015440 -0.011740 
#    y -0.015440 1.810670 -0.015100 
#    z -0.011740 -0.015100 1.794280 
# 
# From -- ./inp_files/306528.got.cif
#   From: 2010.06.25/outbox.cif.g09.slc.cpg/sg2_154_cif.got.tgz:306528.got - 2010.06.27 13:26:56.
