data_PCOD8009678
_publ_section_title
;
Structure prediction by ZEFSAII (Michael W. Deem and Ramdas Pophale) SiO2 
 PCOD8009678
Probable space group: P -1
;
_chemical_formula_sum "Si O2"
_cell_formula_units_Z 12
_cell_length_a 16.052891
_cell_length_b 15.396373
_cell_length_c 5.375784
_cell_angle_alpha 82.981602
_cell_angle_beta 73.099542
_cell_angle_gamma 144.564270
_cell_volume 561.868016
_symmetry_space_group_name_H-M "P -1"
_symmetry_group_IT_number 2
_symmetry_cell_setting 'triclinic'
loop_
_space_group_symop_operation_xyz
x,y,z
-x,-y,-z
loop_
_atom_site_type_symbol
_atom_site_label
_atom_site_fract_x
_atom_site_fract_y
_atom_site_fract_z
Si Si1 0.535063 0.438590 0.260681
Si Si2 0.507375 0.761998 0.318757
Si Si3 0.802435 0.586626 0.603302
Si Si4 0.816844 0.772895 0.269367
Si Si5 0.810494 0.143971 0.677488
Si Si6 0.640969 0.045119 0.349411
O O1 0.448438 0.295084 0.596479
O O2 0.711085 0.657003 0.139162
O O3 0.351094 0.333350 0.372092
O O4 0.616787 0.452639 0.966396
O O5 0.288828 0.564590 0.460311
O O6 0.512762 0.840695 0.504140
O O7 0.668547 0.932044 0.908869
O O8 0.897617 0.755744 0.323069
O O9 0.965759 0.686617 0.592161
O O10 0.000000 0.000000 0.000000
O O11 0.766389 0.154639 0.455840
O O12 0.780354 0.179296 0.935724
O O13 0.500000 0.000000 0.500000
#
# Coordination Sequence:
#
# PCOD8009678 Si02
#       6
#     2   2   2   2   2   2
#     4  10  21  37  59  87 131 163 219 259 315 367
#     4   9  22  38  64  90 127 168 212 259 320 373
#     4  11  22  38  62  94 126 169 217 265 314 381
#     4  10  22  37  57  88 126 172 215 260 314 372
#     4  10  23  39  68  94 128 168 211 261 323 378
#     4  10  22  44  68  95 129 166 211 264 322 385
#
# _framework density 21.357329
#
# number of rings (size 3 to 8) (size 9 to 14) (size 15 to 20)
#    1.000    1.000    0.000    3.000    4.667    2.000 
#    0.000    1.667    0.000    0.000    0.000    0.000 
#    0.000    0.000    0.000    0.000    0.000    0.000 
#
# Total GULP energy -148711.347764 kJ/mol
# GULP energy per Si atom -12392.612314 kJ/mol
# Density = 2.130872 g / cm^3
# Si number density = 21.357329 Si / 1000 Ang^3
#
#
#
# Elastic Constant Matrix: (Units=GPa)
#
#
# Indices 1 2 3 4 5 6 
#
# 1 97.9423 49.5949 13.3404 5.1221 -26.7532 26.2164
# 2 49.5949 87.9110 32.6847 5.7832 -10.8671 14.8770
# 3 13.3404 32.6847 66.8307 10.7541 -14.9220 8.6439
# 4 5.1221 5.7832 10.7541 35.1851 3.7504 2.2006
# 5 -26.7532 -10.8671 -14.9220 3.7504 30.0350 3.1827
# 6 26.2164 14.8770 8.6439 2.2006 3.1827 37.0561
#
#
#
# Elastic Compliance Matrix: (Units=1/GPa)
#
#
# Indices 1 2 3 4 5 6 
#
# 1 0.029215 -0.012978 0.010972 -0.007394 0.029836 -0.020142
# 2 -0.012978 0.020534 -0.010688 0.002609 -0.010206 0.004152
# 3 0.010972 -0.010688 0.025518 -0.009197 0.020863 -0.010670
# 4 -0.007394 0.002609 -0.009197 0.033120 -0.014945 0.005646
# 5 0.029836 -0.010206 0.020863 -0.014945 0.071283 -0.027113
# 6 -0.020142 0.004152 -0.010670 0.005646 -0.027113 0.044051
#
#
# Mechanical properties :
#
#
# Convention : Reuss Voigt Hill
#
# Bulk Modulus (GPa) = 20.04783 49.32490 34.68637
# Shear Modulus (GPa) = 18.81571 30.92615 24.87093
#
# Velocity S-wave (km/s) = 2.97138 3.80943 3.41620
# Velocity P-wave (km/s) = 4.60210 6.51876 5.64241
#
# Compressibility (1/GPa) = 0.04988070
#
# Stress axis : x y z
#
# Youngs Moduli (GPa) = 34.22884 48.69897 39.18742
#
# Poissons Ratio (x) = 0.63201 -0.42997
# Poissons Ratio (y) = 0.44422 0.41883
# Poissons Ratio (z) = -0.37556 0.52048
#
# Static dielectric constant tensor:
#      x y z
#    x 3.740120 0.090020 0.050060 
#    y 0.090020 3.872770 0.100500 
#    z 0.050060 0.100500 3.550800 
# 
# 
# High freq. dielectric constant tensor:
#      x y z
#    x 1.829600 0.006120 0.001190 
#    y 0.006120 1.836340 0.003910 
#    z 0.001190 0.003910 1.818910 
# 
# From -- ./inp_files/8290.got.cif
#   From: 2010.06.25/outbox.cif.g09.slc.cpg/sg2_5_cif.got.tgz:8290.got - 2010.06.27 13:26:56.
