data_PCOD8009443
_publ_section_title
;
Structure prediction by ZEFSAII (Michael W. Deem and Ramdas Pophale) SiO2 
 PCOD8009443
Probable space group: P -1
;
_chemical_formula_sum "Si O2"
_cell_formula_units_Z 14
_cell_length_a 8.325740
_cell_length_b 7.535312
_cell_length_c 11.529118
_cell_angle_alpha 73.723767
_cell_angle_beta 54.786721
_cell_angle_gamma 88.331416
_cell_volume 559.109171
_symmetry_space_group_name_H-M "P -1"
_symmetry_group_IT_number 2
_symmetry_cell_setting 'triclinic'
loop_
_space_group_symop_operation_xyz
x,y,z
-x,-y,-z
loop_
_atom_site_type_symbol
_atom_site_label
_atom_site_fract_x
_atom_site_fract_y
_atom_site_fract_z
Si Si1 0.303079 0.018355 0.146081
Si Si2 0.721677 0.082959 0.342103
Si Si3 0.081715 0.248430 0.615489
Si Si4 0.397144 0.446554 0.740028
Si Si5 0.706194 0.359452 0.475348
Si Si6 0.613903 0.795223 0.678559
Si Si7 0.052228 0.172769 0.032337
O O1 0.372628 0.116340 0.218560
O O2 0.189878 0.144205 0.089401
O O3 0.156521 0.820936 0.269095
O O4 0.500000 0.000000 0.000000
O O5 0.784460 0.173427 0.428738
O O6 0.489014 0.075169 0.398305
O O7 0.800000 0.883504 0.329491
O O8 0.847055 0.218289 0.165660
O O9 0.119650 0.465476 0.599224
O O10 0.166356 0.226615 0.454799
O O11 0.553814 0.310149 0.658000
O O12 0.410419 0.589212 0.600137
O O13 0.485568 0.585030 0.782229
O O14 0.174369 0.343532 0.877077
O O15 0.000000 0.000000 0.000000
#
# Coordination Sequence:
#
# PCOD8009443 Si02
#       7
#     2   2   2   2   2   2   2
#     4  11  24  38  57  86 120 161 198 242 304 355
#     4  10  21  36  64  92 116 154 201 245 294 352
#     4  10  21  40  63  87 122 157 200 248 289 352
#     4   9  19  36  57  85 122 152 194 249 292 351
#     4   9  19  36  61  91 114 151 203 248 291 341
#     4  10  21  38  60  87 119 159 196 243 303 349
#     4  11  23  39  60  87 120 158 200 246 297 356
#
# _framework density 25.039833999999999
#
# number of rings (size 3 to 8) (size 9 to 14) (size 15 to 20)
#    0.000    2.000    0.000    4.286    0.000    6.286 
#    0.000    1.429    0.000    9.429    0.000    0.000 
#    0.000    0.000    0.000    0.000    0.000    0.000 
#
# Total GULP energy -173458.937371 kJ/mol
# GULP energy per Si atom -12389.924098 kJ/mol
# Density = 2.498284 g / cm^3
# Si number density = 25.039834 Si / 1000 Ang^3
#
#
#
# Elastic Constant Matrix: (Units=GPa)
#
#
# Indices 1 2 3 4 5 6 
#
# 1 79.9917 31.7754 22.0447 14.6403 3.1149 29.5406
# 2 31.7754 126.5497 66.0423 2.8192 -9.7203 45.2099
# 3 22.0447 66.0423 141.9060 3.2966 -30.9742 43.3641
# 4 14.6403 2.8192 3.2966 42.0789 15.4404 2.4270
# 5 3.1149 -9.7203 -30.9742 15.4404 49.4079 -3.2397
# 6 29.5406 45.2099 43.3641 2.4270 -3.2397 38.3814
#
#
#
# Elastic Compliance Matrix: (Units=1/GPa)
#
#
# Indices 1 2 3 4 5 6 
#
# 1 0.019331 0.000345 0.002759 -0.006457 0.001425 -0.017873
# 2 0.000345 0.014125 -0.002052 -0.000292 0.000611 -0.014516
# 3 0.002759 -0.002052 0.013967 -0.004216 0.008545 -0.014499
# 4 -0.006457 -0.000292 -0.004216 0.030059 -0.011213 0.007230
# 5 0.001425 0.000611 0.008545 -0.011213 0.028584 -0.008349
# 6 -0.017873 -0.014516 -0.014499 0.007230 -0.008349 0.072129
#
#
# Mechanical properties :
#
#
# Convention : Reuss Voigt Hill
#
# Bulk Modulus (GPa) = 20.19072 65.35248 42.77160
# Shear Modulus (GPa) = 25.96075 41.21262 33.58668
#
# Velocity S-wave (km/s) = 3.22340 4.06135 3.66639
# Velocity P-wave (km/s) = 4.68345 6.93893 5.91961
#
# Compressibility (1/GPa) = 0.04952771
#
# Stress axis : x y z
#
# Youngs Moduli (GPa) = 51.73141 70.79510 71.59750
#
# Poissons Ratio (x) = -0.02440 -0.19756
# Poissons Ratio (y) = -0.01783 0.14688
# Poissons Ratio (z) = -0.14274 0.14524
#
# Static dielectric constant tensor:
#      x y z
#    x 4.110270 -0.006440 -0.060650 
#    y -0.006440 4.733730 0.197000 
#    z -0.060650 0.197000 4.933170 
# 
# 
# High freq. dielectric constant tensor:
#      x y z
#    x 1.960700 0.023700 -0.012780 
#    y 0.023700 2.006040 -0.000260 
#    z -0.012780 -0.000260 2.018760 
# 
# From -- ./inp_files/330718.got.cif
#   From: 2010.06.25/outbox.cif.g09.slc.cpg/sg2_166_cif.got.tgz:330718.got - 2010.06.27 13:26:56.
