data_PCOD8009147
_publ_section_title
;
Structure prediction by ZEFSAII (Michael W. Deem and Ramdas Pophale) SiO2 
 PCOD8009147
Probable space group: P -1
;
_chemical_formula_sum "Si O2"
_cell_formula_units_Z 14
_cell_length_a 11.774964
_cell_length_b 11.790219
_cell_length_c 15.616985
_cell_angle_alpha 142.868645
_cell_angle_beta 139.700921
_cell_angle_gamma 36.906202
_cell_volume 737.570647
_symmetry_space_group_name_H-M "P -1"
_symmetry_group_IT_number 2
_symmetry_cell_setting 'triclinic'
loop_
_space_group_symop_operation_xyz
x,y,z
-x,-y,-z
loop_
_atom_site_type_symbol
_atom_site_label
_atom_site_fract_x
_atom_site_fract_y
_atom_site_fract_z
Si Si1 0.577122 0.860451 0.274218
Si Si2 0.908382 0.339782 0.989360
Si Si3 0.212041 0.023466 0.846921
Si Si4 0.429335 0.194595 0.956750
Si Si5 0.174202 0.042180 0.251810
Si Si6 0.058258 0.559092 0.750100
Si Si7 0.065569 0.173296 0.457698
O O1 0.507247 0.898939 0.158685
O O2 0.387366 0.988800 0.303121
O O3 0.697211 0.601440 0.208436
O O4 0.738622 0.944156 0.437205
O O5 0.844348 0.170703 0.885778
O O6 0.067032 0.244464 0.946187
O O7 0.713190 0.549529 0.968092
O O8 0.007346 0.396450 0.160885
O O9 0.319102 0.072900 0.861007
O O10 0.085137 0.919816 0.670844
O O11 0.371771 0.856530 0.906196
O O12 0.151767 0.139437 0.391218
O O13 0.996698 0.222470 0.199847
O O14 0.951218 0.431093 0.568848
#
# Coordination Sequence:
#
# PCOD8009147 Si02
#       7
#     2   2   2   2   2   2   2
#     4   9  21  36  54  84 114 141 184 222 272 327
#     4  10  21  36  57  86 109 145 186 225 271 325
#     4  10  21  39  62  79 107 146 187 230 275 319
#     4  10  21  39  60  81 108 144 190 230 267 325
#     4  11  19  34  58  81 114 150 178 220 272 330
#     4   9  20  35  52  83 117 145 175 226 272 323
#     4   9  21  38  53  85 113 145 179 227 277 319
#
# _framework density 18.981231999999999
#
# number of rings (size 3 to 8) (size 9 to 14) (size 15 to 20)
#    0.857    1.429    0.000    2.571    0.000    6.286 
#    5.143    0.000    0.000    2.571    0.000    0.000 
#    0.000    0.000    0.000    0.000    0.000    0.000 
#
# Total GULP energy -173510.660432 kJ/mol
# GULP energy per Si atom -12393.618602 kJ/mol
# Density = 1.893803 g / cm^3
# Si number density = 18.981232 Si / 1000 Ang^3
#
#
#
# Elastic Constant Matrix: (Units=GPa)
#
#
# Indices 1 2 3 4 5 6 
#
# 1 45.8631 15.0244 26.7330 -7.1801 15.6899 -2.4981
# 2 15.0244 94.5688 40.1146 -2.8684 2.9910 5.6684
# 3 26.7330 40.1146 91.5320 -4.3769 5.3713 0.7656
# 4 -7.1801 -2.8684 -4.3769 16.1078 1.0526 0.5216
# 5 15.6899 2.9910 5.3713 1.0526 21.4887 -1.6912
# 6 -2.4981 5.6684 0.7656 0.5216 -1.6912 22.4955
#
#
#
# Elastic Compliance Matrix: (Units=1/GPa)
#
#
# Indices 1 2 3 4 5 6 
#
# 1 0.039122 -0.001434 -0.008451 0.016558 -0.026860 0.002590
# 2 -0.001434 0.013282 -0.005373 0.000356 0.000263 -0.003312
# 3 -0.008451 -0.005373 0.015532 -0.000709 0.003081 0.000135
# 4 0.016558 0.000356 -0.000709 0.070379 -0.015490 -0.001023
# 5 -0.026860 0.000263 0.003081 -0.015490 0.066272 0.002188
# 6 0.002590 -0.003312 0.000135 -0.001023 0.002188 0.045759
#
#
# Mechanical properties :
#
#
# Convention : Reuss Voigt Hill
#
# Bulk Modulus (GPa) = 26.72356 43.96756 35.34556
# Shear Modulus (GPa) = 17.04528 22.02451 19.53490
#
# Velocity S-wave (km/s) = 2.99993 3.41006 3.21155
# Velocity P-wave (km/s) = 5.10969 6.22243 5.69331
#
# Compressibility (1/GPa) = 0.03742017
#
# Stress axis : x y z
#
# Youngs Moduli (GPa) = 25.56096 75.28858 64.38199
#
# Poissons Ratio (x) = 0.10797 0.54411
# Poissons Ratio (y) = 0.03666 0.34592
# Poissons Ratio (z) = 0.21602 0.40452
#
# Static dielectric constant tensor:
#      x y z
#    x 3.302340 -0.062320 -0.227410 
#    y -0.062320 3.493600 -0.011500 
#    z -0.227410 -0.011500 3.471380 
# 
# 
# High freq. dielectric constant tensor:
#      x y z
#    x 1.725260 -0.005560 -0.020170 
#    y -0.005560 1.737680 -0.002970 
#    z -0.020170 -0.002970 1.737810 
# 
# From -- ./inp_files/255033.got.cif
#   From: 2010.06.25/outbox.cif.g09.slc.cpg/sg2_128_cif.got.tgz:255033.got - 2010.06.27 13:26:56.
