data_PCOD8009348
_publ_section_title
;
Structure prediction by ZEFSAII (Michael W. Deem and Ramdas Pophale) SiO2 
 PCOD8009348
Probable space group: P -1
;
_chemical_formula_sum "Si O2"
_cell_formula_units_Z 12
_cell_length_a 11.919516
_cell_length_b 5.200303
_cell_length_c 20.945360
_cell_angle_alpha 89.598648
_cell_angle_beta 26.548245
_cell_angle_gamma 96.354980
_cell_volume 560.043520
_symmetry_space_group_name_H-M "P -1"
_symmetry_group_IT_number 2
_symmetry_cell_setting 'triclinic'
loop_
_space_group_symop_operation_xyz
x,y,z
-x,-y,-z
loop_
_atom_site_type_symbol
_atom_site_label
_atom_site_fract_x
_atom_site_fract_y
_atom_site_fract_z
Si Si1 0.135809 0.883803 0.243749
Si Si2 0.639226 0.476107 0.494150
Si Si3 0.812517 0.696141 0.024235
Si Si4 0.639864 0.733953 0.976248
Si Si5 0.315228 0.028607 0.458409
Si Si6 0.659968 0.156678 0.171385
O O1 0.951331 0.587636 0.324355
O O2 0.997906 0.020996 0.369659
O O3 0.148640 0.049153 0.171381
O O4 0.421647 0.865920 0.117750
O O5 0.500000 0.500000 0.500000
O O6 0.540987 0.672532 0.592012
O O7 0.573446 0.181422 0.557321
O O8 0.646367 0.425769 0.142334
O O9 0.699132 0.942288 0.100794
O O10 0.787315 0.644659 0.960933
O O11 0.113210 0.769636 0.891010
O O12 0.500000 0.500000 0.000000
O O13 0.388517 0.022234 0.346571
#
# Coordination Sequence:
#
# PCOD8009348 Si02
#       6
#     2   2   2   2   2   2
#     4   9  24  38  62  98 126 171 209 265 328 384
#     4  10  21  36  61  96 129 164 212 262 330 371
#     4  10  24  41  67  93 126 172 219 261 322 379
#     4  11  23  43  67  92 137 170 217 267 322 393
#     4  10  21  39  62  90 133 158 211 272 314 385
#     4  10  22  44  64  96 127 168 219 267 315 382
#
# _framework density 21.426905000000001
#
# number of rings (size 3 to 8) (size 9 to 14) (size 15 to 20)
#    1.000    1.000    0.000    2.500    7.000    1.333 
#    0.000    1.667    0.000    0.000    0.000    0.000 
#    0.000    0.000    0.000    0.000    0.000    0.000 
#
# Total GULP energy -148693.920621 kJ/mol
# GULP energy per Si atom -12391.160052 kJ/mol
# Density = 2.137814 g / cm^3
# Si number density = 21.426905 Si / 1000 Ang^3
#
#
#
# Elastic Constant Matrix: (Units=GPa)
#
#
# Indices 1 2 3 4 5 6 
#
# 1 95.4725 22.7280 19.1869 -8.0054 17.3762 -2.1127
# 2 22.7280 118.7420 20.6559 -6.7296 8.0660 -11.3174
# 3 19.1869 20.6559 114.5055 -5.6738 20.3643 -8.8100
# 4 -8.0054 -6.7296 -5.6738 23.5633 -3.6273 8.0272
# 5 17.3762 8.0660 20.3643 -3.6273 19.7719 -4.6605
# 6 -2.1127 -11.3174 -8.8100 8.0272 -4.6605 28.5941
#
#
#
# Elastic Compliance Matrix: (Units=1/GPa)
#
#
# Indices 1 2 3 4 5 6 
#
# 1 0.013067 -0.001826 0.000023 0.003074 -0.010757 -0.002366
# 2 -0.001826 0.009298 -0.001060 0.000727 -0.000263 0.002972
# 3 0.000023 -0.001060 0.010887 0.000327 -0.010473 0.001138
# 4 0.003074 0.000727 0.000327 0.048448 0.002592 -0.012563
# 5 -0.010757 -0.000263 -0.010473 0.002592 0.073063 0.007055
# 6 -0.002366 0.002972 0.001138 -0.012563 0.007055 0.041001
#
#
# Mechanical properties :
#
#
# Convention : Reuss Voigt Hill
#
# Bulk Modulus (GPa) = 36.32838 50.42908 43.37873
# Shear Modulus (GPa) = 23.73443 32.12915 27.93179
#
# Velocity S-wave (km/s) = 3.33181 3.87651 3.61444
# Velocity P-wave (km/s) = 5.63850 6.60477 6.14067
#
# Compressibility (1/GPa) = 0.02752669
#
# Stress axis : x y z
#
# Youngs Moduli (GPa) = 76.52644 107.55286 91.85441
#
# Poissons Ratio (x) = 0.19637 -0.00212
# Poissons Ratio (y) = 0.13972 0.09735
# Poissons Ratio (z) = -0.00176 0.11399
#
# Static dielectric constant tensor:
#      x y z
#    x 3.471210 -0.077320 0.085070 
#    y -0.077320 3.986100 -0.008620 
#    z 0.085070 -0.008620 3.949470 
# 
# 
# High freq. dielectric constant tensor:
#      x y z
#    x 1.808890 -0.010290 0.014630 
#    y -0.010290 1.850940 -0.001130 
#    z 0.014630 -0.001130 1.841390 
# 
# From -- ./inp_files/61627.got.cif
#   From: 2010.06.25/outbox.cif.g09.slc.cpg/sg2_31_cif.got.tgz:61627.got - 2010.06.27 13:26:56.
