data_PCOD8009259
_publ_section_title
;
Structure prediction by ZEFSAII (Michael W. Deem and Ramdas Pophale) SiO2 
 PCOD8009259
Probable space group: P -1
;
_chemical_formula_sum "Si O2"
_cell_formula_units_Z 16
_cell_length_a 14.601956
_cell_length_b 8.744006
_cell_length_c 28.307734
_cell_angle_alpha 42.107311
_cell_angle_beta 20.102702
_cell_angle_gamma 51.506658
_cell_volume 788.520729
_symmetry_space_group_name_H-M "P -1"
_symmetry_group_IT_number 2
_symmetry_cell_setting 'triclinic'
loop_
_space_group_symop_operation_xyz
x,y,z
-x,-y,-z
loop_
_atom_site_type_symbol
_atom_site_label
_atom_site_fract_x
_atom_site_fract_y
_atom_site_fract_z
Si Si1 0.198041 0.869442 0.694926
Si Si2 0.788546 0.500983 0.908369
Si Si3 0.886577 0.241828 0.773694
Si Si4 0.193950 0.747946 0.828033
Si Si5 0.841477 0.674228 0.738761
Si Si6 0.176043 0.200364 0.466452
Si Si7 0.219431 0.694398 0.294101
Si Si8 0.778619 0.035555 0.971295
O O1 0.200475 0.721331 0.774921
O O2 0.015512 0.665649 0.795604
O O3 0.500000 0.000000 0.500000
O O4 0.106671 0.102905 0.693641
O O5 0.832605 0.656760 0.803751
O O6 0.831945 0.244234 0.936531
O O7 0.482815 0.443358 0.094056
O O8 0.018950 0.524680 0.659977
O O9 0.722272 0.221775 0.808089
O O10 0.706463 0.126467 0.933972
O O11 0.511978 0.819141 0.676332
O O12 0.054083 0.953657 0.860662
O O13 0.000000 0.500000 0.000000
O O14 0.978325 0.953176 0.595573
O O15 0.168638 0.409285 0.386014
O O16 0.052125 0.246618 0.566925
O O17 0.488329 0.816923 0.170007
#
# Coordination Sequence:
#
# PCOD8009259 Si02
#       8
#     2   2   2   2   2   2   2   2
#     4  11  24  41  64  91 123 165 206 251 306 374
#     4  10  21  37  61  90 122 156 206 255 306 356
#     4  10  23  35  63  92 118 151 209 257 304 355
#     4  11  23  41  62  89 126 167 204 245 307 371
#     4  10  21  36  59  93 123 156 197 263 309 352
#     4  11  23  39  62  86 127 166 201 245 309 366
#     4  11  21  38  62  89 121 162 206 251 298 366
#     4  10  21  39  62  90 121 159 205 252 306 362
#
# _framework density 20.291160000000001
#
# number of rings (size 3 to 8) (size 9 to 14) (size 15 to 20)
#    0.000    1.500    2.500    2.625    7.000    1.500 
#    0.000    4.375    0.000    0.000    0.000    0.000 
#    0.000    0.000    0.000    0.000    0.000    0.000 
#
# Total GULP energy -198259.981793 kJ/mol
# GULP energy per Si atom -12391.248862 kJ/mol
# Density = 2.024498 g / cm^3
# Si number density = 20.291160 Si / 1000 Ang^3
#
#
#
# Elastic Constant Matrix: (Units=GPa)
#
#
# Indices 1 2 3 4 5 6 
#
# 1 75.4478 37.7916 44.1722 -2.4409 -0.6218 0.9181
# 2 37.7916 134.3087 60.7725 -17.5622 -1.2644 4.3293
# 3 44.1722 60.7725 121.0128 -12.5419 -18.8408 5.8071
# 4 -2.4409 -17.5622 -12.5419 35.1531 0.3078 -1.0256
# 5 -0.6218 -1.2644 -18.8408 0.3078 22.3494 1.9641
# 6 0.9181 4.3293 5.8071 -1.0256 1.9641 24.3164
#
#
#
# Elastic Compliance Matrix: (Units=1/GPa)
#
#
# Indices 1 2 3 4 5 6 
#
# 1 0.018201 -0.002592 -0.006463 -0.002244 -0.005203 0.001643
# 2 -0.002592 0.010677 -0.004552 0.003551 -0.003328 -0.000298
# 3 -0.006463 -0.004552 0.015327 0.002531 0.012759 -0.003530
# 4 -0.002244 0.003551 0.002531 0.030952 0.001845 0.000005
# 5 -0.005203 -0.003328 0.012759 0.001845 0.055728 -0.006682
# 6 0.001643 -0.000298 -0.003530 0.000005 -0.006682 0.042498
#
#
# Mechanical properties :
#
#
# Convention : Reuss Voigt Hill
#
# Bulk Modulus (GPa) = 58.85627 68.47135 63.66381
# Shear Modulus (GPa) = 24.24101 28.89930 26.57015
#
# Velocity S-wave (km/s) = 3.46013 3.77799 3.62255
# Velocity P-wave (km/s) = 6.71060 7.26971 6.99574
#
# Compressibility (1/GPa) = 0.01699054
#
# Stress axis : x y z
#
# Youngs Moduli (GPa) = 54.94114 93.65909 65.24502
#
# Poissons Ratio (x) = 0.24278 0.42171
# Poissons Ratio (y) = 0.14242 0.29697
# Poissons Ratio (z) = 0.35511 0.42630
#
# Static dielectric constant tensor:
#      x y z
#    x 3.443100 -0.062770 0.184370 
#    y -0.062770 3.916730 0.028480 
#    z 0.184370 0.028480 3.639030 
# 
# 
# High freq. dielectric constant tensor:
#      x y z
#    x 1.767870 0.002140 0.007730 
#    y 0.002140 1.813120 -0.004840 
#    z 0.007730 -0.004840 1.791200 
# 
# From -- ./inp_files/205720.got.cif
#   From: 2010.06.25/outbox.cif.g09.slc.cpg/sg2_103_cif.got.tgz:205720.got - 2010.06.27 13:26:56.
