data_PCOD8009141
_publ_section_title
;
Structure prediction by ZEFSAII (Michael W. Deem and Ramdas Pophale) SiO2 
 PCOD8009141
Probable space group: P -1
;
_chemical_formula_sum "Si O2"
_cell_formula_units_Z 16
_cell_length_a 15.035600
_cell_length_b 9.356987
_cell_length_c 14.289488
_cell_angle_alpha 134.490440
_cell_angle_beta 38.050316
_cell_angle_gamma 113.952510
_cell_volume 833.863689
_symmetry_space_group_name_H-M "P -1"
_symmetry_group_IT_number 2
_symmetry_cell_setting 'triclinic'
loop_
_space_group_symop_operation_xyz
x,y,z
-x,-y,-z
loop_
_atom_site_type_symbol
_atom_site_label
_atom_site_fract_x
_atom_site_fract_y
_atom_site_fract_z
Si Si1 0.392218 0.286669 0.344545
Si Si2 0.107340 0.717212 0.465381
Si Si3 0.312768 0.591375 0.887935
Si Si4 0.797475 0.672972 0.667402
Si Si5 0.192668 0.482334 0.759891
Si Si6 0.473957 0.177868 0.918263
Si Si7 0.372585 0.505307 0.003024
Si Si8 0.002739 0.185547 0.806437
O O1 0.553238 0.311410 0.197256
O O2 0.292805 0.294274 0.339176
O O3 0.296955 0.476169 0.579790
O O4 0.414807 0.063854 0.277728
O O5 0.145017 0.571234 0.459064
O O6 0.227719 0.629552 0.243024
O O7 0.943794 0.746074 0.568381
O O8 0.107639 0.941765 0.608462
O O9 0.302290 0.433640 0.739585
O O10 0.334689 0.464448 0.909352
O O11 0.148102 0.780361 0.118081
O O12 0.690095 0.816423 0.903097
O O13 0.108493 0.311501 0.735506
O O14 0.062725 0.716046 0.990949
O O15 0.523519 0.343189 0.017965
O O16 0.460601 0.271672 0.866602
#
# Coordination Sequence:
#
# PCOD8009141 Si02
#       8
#     2   2   2   2   2   2   2   2
#     4  12  21  36  61  82 114 153 185 229 285 330
#     4  10  21  37  57  85 119 145 181 231 289 336
#     4  10  21  37  60  80 116 144 191 232 274 327
#     4  10  22  35  56  89 117 143 183 232 283 346
#     4   9  22  38  56  83 110 151 197 234 260 331
#     4  10  21  37  55  85 118 144 181 232 291 336
#     4  10  21  36  57  85 116 146 180 236 282 339
#     4   9  20  39  59  78 116 147 190 234 275 321
#
# _framework density 19.187788999999999
#
# number of rings (size 3 to 8) (size 9 to 14) (size 15 to 20)
#    0.750    1.250    1.250    2.250    3.500    0.500 
#    0.000    1.250    2.750    0.000    0.000    0.000 
#    0.000    0.000    0.000    0.000    0.000    0.000 
#
# Total GULP energy -198247.337769 kJ/mol
# GULP energy per Si atom -12390.458611 kJ/mol
# Density = 1.914412 g / cm^3
# Si number density = 19.187789 Si / 1000 Ang^3
#
#
#
# Elastic Constant Matrix: (Units=GPa)
#
#
# Indices 1 2 3 4 5 6 
#
# 1 67.9184 43.5535 30.5436 5.4614 -7.2415 -3.7226
# 2 43.5535 83.4312 37.8027 -0.6573 -1.6783 -2.5799
# 3 30.5436 37.8027 59.1006 -5.2577 -1.5511 -0.9097
# 4 5.4614 -0.6573 -5.2577 15.7300 1.3698 -1.0415
# 5 -7.2415 -1.6783 -1.5511 1.3698 28.4884 -7.7400
# 6 -3.7226 -2.5799 -0.9097 -1.0415 -7.7400 26.0572
#
#
#
# Elastic Compliance Matrix: (Units=1/GPa)
#
#
# Indices 1 2 3 4 5 6 
#
# 1 0.027121 -0.010164 -0.008407 -0.013030 0.007638 0.004323
# 2 -0.010164 0.020883 -0.007990 0.001888 -0.001922 -0.000159
# 3 -0.008407 -0.007990 0.027358 0.011827 -0.002002 -0.001159
# 4 -0.013030 0.001888 0.011827 0.072649 -0.006096 -0.000169
# 5 0.007638 -0.001922 -0.002002 -0.006096 0.040546 0.012631
# 6 0.004323 -0.000159 -0.001159 -0.000169 0.012631 0.042684
#
#
# Mechanical properties :
#
#
# Convention : Reuss Voigt Hill
#
# Bulk Modulus (GPa) = 44.96444 48.25000 46.60722
# Shear Modulus (GPa) = 17.13640 20.62515 18.88078
#
# Velocity S-wave (km/s) = 2.99170 3.28214 3.14028
# Velocity P-wave (km/s) = 5.95134 6.29000 6.12301
#
# Compressibility (1/GPa) = 0.02223979
#
# Stress axis : x y z
#
# Youngs Moduli (GPa) = 36.87123 47.88509 36.55291
#
# Poissons Ratio (x) = 0.48671 0.30732
# Poissons Ratio (y) = 0.37476 0.29205
# Poissons Ratio (z) = 0.30999 0.38259
#
# Static dielectric constant tensor:
#      x y z
#    x 3.426180 0.046660 -0.222150 
#    y 0.046660 3.412870 -0.138890 
#    z -0.222150 -0.138890 3.508690 
# 
# 
# High freq. dielectric constant tensor:
#      x y z
#    x 1.734390 0.008620 -0.015900 
#    y 0.008620 1.737160 -0.018660 
#    z -0.015900 -0.018660 1.747150 
# 
# From -- ./inp_files/503921.got.cif
#   From: 2010.06.25/outbox.cif.g09.slc.cpg/sg2_252_cif.got.tgz:503921.got - 2010.06.27 13:26:56.
