data_PCOD8009041
_publ_section_title
;
Structure prediction by ZEFSAII (Michael W. Deem and Ramdas Pophale) SiO2 
 PCOD8009041
Probable space group: P -1
;
_chemical_formula_sum "Si O2"
_cell_formula_units_Z 16
_cell_length_a 20.664935
_cell_length_b 9.204367
_cell_length_c 9.122860
_cell_angle_alpha 43.789195
_cell_angle_beta 127.362139
_cell_angle_gamma 138.544072
_cell_volume 786.733096
_symmetry_space_group_name_H-M "P -1"
_symmetry_group_IT_number 2
_symmetry_cell_setting 'triclinic'
loop_
_space_group_symop_operation_xyz
x,y,z
-x,-y,-z
loop_
_atom_site_type_symbol
_atom_site_label
_atom_site_fract_x
_atom_site_fract_y
_atom_site_fract_z
Si Si1 0.866732 0.393560 0.402867
Si Si2 0.822519 0.525962 0.952784
Si Si3 0.358266 0.493707 0.162117
Si Si4 0.458341 0.693860 0.454182
Si Si5 0.483115 0.347667 0.940583
Si Si6 0.682835 0.168340 0.788353
Si Si7 0.960317 0.086219 0.752570
Si Si8 0.676280 0.030323 0.558426
O O1 0.896714 0.199251 0.628969
O O2 0.758081 0.282547 0.398423
O O3 0.944152 0.676930 0.374049
O O4 0.873803 0.439376 0.201399
O O5 0.734423 0.491300 0.955506
O O6 0.784395 0.346619 0.887900
O O7 0.890903 0.815780 0.769905
O O8 0.436590 0.647371 0.287059
O O9 0.416162 0.624192 0.993127
O O10 0.318585 0.198788 0.325158
O O11 0.457391 0.461689 0.688359
O O12 0.371757 0.691571 0.423088
O O13 0.565666 0.959994 0.433465
O O14 0.500000 0.500000 0.000000
O O15 0.393061 0.059305 0.042652
O O16 0.704470 0.076977 0.735546
O O17 0.000000 0.000000 0.000000
#
# Coordination Sequence:
#
# PCOD8009041 Si02
#       8
#     2   2   2   2   2   2   2   2
#     4  10  21  35  68  86 108 148 190 234 291 342
#     4  10  22  36  60  87 114 145 194 237 277 346
#     4  10  21  36  55  82 117 155 194 240 269 331
#     4  10  23  37  54  78 122 158 197 238 267 330
#     4  11  21  34  52  75 114 159 193 231 280 316
#     4  11  24  36  54  84 121 161 188 230 286 331
#     4   9  19  41  62  91 112 137 185 243 294 341
#     4  11  20  37  55  85 117 152 196 234 280 333
#
# _framework density 20.337266
#
# number of rings (size 3 to 8) (size 9 to 14) (size 15 to 20)
#    0.000    1.750    3.750    1.875    5.250    1.000 
#    0.000    0.625    0.000    6.750    0.000    0.000 
#    0.000    0.000    0.000    0.000    0.000    0.000 
#
# Total GULP energy -198239.305764 kJ/mol
# GULP energy per Si atom -12389.956610 kJ/mol
# Density = 2.029098 g / cm^3
# Si number density = 20.337266 Si / 1000 Ang^3
#
#
#
# Elastic Constant Matrix: (Units=GPa)
#
#
# Indices 1 2 3 4 5 6 
#
# 1 37.4278 28.1241 17.6760 8.7549 -5.9486 -4.0101
# 2 28.1241 148.6769 36.0583 -6.4573 -17.6440 8.3613
# 3 17.6760 36.0583 66.0301 -4.5543 2.5365 3.6225
# 4 8.7549 -6.4573 -4.5543 32.9662 5.7219 -6.9334
# 5 -5.9486 -17.6440 2.5365 5.7219 29.9858 -2.3363
# 6 -4.0101 8.3613 3.6225 -6.9334 -2.3363 30.6350
#
#
#
# Elastic Compliance Matrix: (Units=1/GPa)
#
#
# Indices 1 2 3 4 5 6 
#
# 1 0.040158 -0.005145 -0.009494 -0.013356 0.008714 0.005425
# 2 -0.005145 0.009273 -0.003633 0.001492 0.004294 -0.002110
# 3 -0.009494 -0.003633 0.020418 0.005421 -0.006936 -0.001968
# 4 -0.013356 0.001492 0.005421 0.037539 -0.009003 0.005013
# 5 0.008714 0.004294 -0.006936 -0.009003 0.040050 0.001805
# 6 0.005425 -0.002110 -0.001968 0.005013 0.001805 0.035433
#
#
# Mechanical properties :
#
#
# Convention : Reuss Voigt Hill
#
# Bulk Modulus (GPa) = 30.02502 46.20574 38.11538
# Shear Modulus (GPa) = 21.69023 30.06914 25.87969
#
# Velocity S-wave (km/s) = 3.26931 3.84933 3.57112
# Velocity P-wave (km/s) = 5.38951 6.52116 5.98215
#
# Compressibility (1/GPa) = 0.03330556
#
# Stress axis : x y z
#
# Youngs Moduli (GPa) = 24.90155 107.83516 48.97524
#
# Poissons Ratio (x) = 0.55480 0.46498
# Poissons Ratio (y) = 0.12812 0.17793
# Poissons Ratio (z) = 0.23642 0.39178
#
# Static dielectric constant tensor:
#      x y z
#    x 3.586250 0.212390 0.137010 
#    y 0.212390 4.116310 -0.262280 
#    z 0.137010 -0.262280 3.849700 
# 
# 
# High freq. dielectric constant tensor:
#      x y z
#    x 1.766610 0.010890 0.011810 
#    y 0.010890 1.806420 -0.011130 
#    z 0.011810 -0.011130 1.789060 
# 
# From -- ./inp_files/206566.got.cif
#   From: 2010.06.25/outbox.cif.g09.slc.cpg/sg2_104_cif.got.tgz:206566.got - 2010.06.27 13:26:56.
