data_PCOD8009542
_publ_section_title
;
Structure prediction by ZEFSAII (Michael W. Deem and Ramdas Pophale) SiO2 
 PCOD8009542
Probable space group: P -1
;
_chemical_formula_sum "Si O2"
_cell_formula_units_Z 14
_cell_length_a 10.895067
_cell_length_b 5.226444
_cell_length_c 17.885068
_cell_angle_alpha 68.571700
_cell_angle_beta 139.520995
_cell_angle_gamma 98.890634
_cell_volume 602.470957
_symmetry_space_group_name_H-M "P -1"
_symmetry_group_IT_number 2
_symmetry_cell_setting 'triclinic'
loop_
_space_group_symop_operation_xyz
x,y,z
-x,-y,-z
loop_
_atom_site_type_symbol
_atom_site_label
_atom_site_fract_x
_atom_site_fract_y
_atom_site_fract_z
Si Si1 0.666021 0.799817 0.425787
Si Si2 0.408272 0.555031 0.711060
Si Si3 0.081120 0.352091 0.867476
Si Si4 0.965389 0.024070 0.239533
Si Si5 0.720169 0.161864 0.702517
Si Si6 0.948973 0.552627 0.384380
Si Si7 0.203671 0.321291 0.089339
O O1 0.610039 0.679975 0.333563
O O2 0.511734 0.722750 0.423631
O O3 0.884269 0.646988 0.567194
O O4 0.659231 0.130843 0.386182
O O5 0.263104 0.519482 0.716401
O O6 0.628046 0.498567 0.847456
O O7 0.154220 0.123918 0.860807
O O8 0.845685 0.390509 0.762094
O O9 0.188054 0.231833 0.005611
O O10 0.129782 0.648883 0.834387
O O11 0.188628 0.981356 0.317521
O O12 0.951243 0.873710 0.328512
O O13 0.740662 0.943911 0.803833
O O14 0.000000 0.500000 0.500000
O O15 0.000000 0.500000 0.000000
#
# Coordination Sequence:
#
# PCOD8009542 Si02
#       7
#     2   2   2   2   2   2   2
#     4  10  21  37  63  88 117 155 199 255 294 350
#     4  10  23  37  61  92 114 155 211 243 285 362
#     4  10  21  37  56  94 125 156 189 247 299 352
#     4  10  23  37  60  88 127 153 199 251 293 353
#     4   9  21  35  61  93 126 146 202 234 306 354
#     4  10  23  46  64  83 118 165 208 248 299 351
#     4  11  18  37  66  90 124 161 193 238 305 359
#
# _framework density 23.237634
#
# number of rings (size 3 to 8) (size 9 to 14) (size 15 to 20)
#    0.857    1.143    1.429    1.714    2.000    8.571 
#    0.000    2.143    0.000    0.000    0.000    0.000 
#    0.000    0.000    0.000    0.000    0.000    0.000 
#
# Total GULP energy -173432.981429 kJ/mol
# GULP energy per Si atom -12388.070102 kJ/mol
# Density = 2.318474 g / cm^3
# Si number density = 23.237634 Si / 1000 Ang^3
#
#
#
# Elastic Constant Matrix: (Units=GPa)
#
#
# Indices 1 2 3 4 5 6 
#
# 1 77.1797 30.9318 35.8564 3.7655 3.6989 32.7800
# 2 30.9318 106.5117 18.0216 -3.9542 -2.4369 17.0695
# 3 35.8564 18.0216 47.6270 12.0917 13.5154 20.0559
# 4 3.7655 -3.9542 12.0917 27.1944 8.4535 -3.9909
# 5 3.6989 -2.4369 13.5154 8.4535 45.1416 -1.8685
# 6 32.7800 17.0695 20.0559 -3.9909 -1.8685 39.0081
#
#
#
# Elastic Compliance Matrix: (Units=1/GPa)
#
#
# Indices 1 2 3 4 5 6 
#
# 1 0.026029 -0.003193 -0.012528 -0.000883 0.001029 -0.014076
# 2 -0.003193 0.010949 -0.002555 0.002767 0.001080 -0.000460
# 3 -0.012528 -0.002555 0.044058 -0.017173 -0.009634 -0.013225
# 4 -0.000883 0.002767 -0.017173 0.047803 -0.003046 0.013106
# 5 0.001029 0.001080 -0.009634 -0.003046 0.025769 0.004539
# 6 -0.014076 -0.000460 -0.013225 0.013106 0.004539 0.046023
#
#
# Mechanical properties :
#
#
# Convention : Reuss Voigt Hill
#
# Bulk Modulus (GPa) = 22.47975 44.54866 33.51421
# Shear Modulus (GPa) = 19.84043 32.03606 25.93825
#
# Velocity S-wave (km/s) = 2.92517 3.71702 3.34461
# Velocity P-wave (km/s) = 4.59387 6.13467 5.41931
#
# Compressibility (1/GPa) = 0.04448448
#
# Stress axis : x y z
#
# Youngs Moduli (GPa) = 38.41896 91.33060 22.69740
#
# Poissons Ratio (x) = 0.29159 0.28436
# Poissons Ratio (y) = 0.12266 0.05799
# Poissons Ratio (z) = 0.48132 0.23333
#
# Static dielectric constant tensor:
#      x y z
#    x 4.916330 0.348290 1.021960 
#    y 0.348290 4.120160 0.165690 
#    z 1.021960 0.165690 5.212210 
# 
# 
# High freq. dielectric constant tensor:
#      x y z
#    x 1.912970 0.015420 0.004780 
#    y 0.015420 1.920270 0.003510 
#    z 0.004780 0.003510 1.889560 
# 
# From -- ./inp_files/592446.got.cif
#   From: 2010.06.25/outbox.cif.g09.slc.cpg/sg2_297_cif.got.tgz:592446.got - 2010.06.27 13:26:56.
