data_PCOD8009995
_publ_section_title
;
Structure prediction by ZEFSAII (Michael W. Deem and Ramdas Pophale) SiO2 
 PCOD8009995
Probable space group: P -1
;
_chemical_formula_sum "Si O2"
_cell_formula_units_Z 16
_cell_length_a 9.053406
_cell_length_b 18.611552
_cell_length_c 10.029561
_cell_angle_alpha 115.154325
_cell_angle_beta 29.822566
_cell_angle_gamma 113.810466
_cell_volume 758.445604
_symmetry_space_group_name_H-M "P -1"
_symmetry_group_IT_number 2
_symmetry_cell_setting 'triclinic'
loop_
_space_group_symop_operation_xyz
x,y,z
-x,-y,-z
loop_
_atom_site_type_symbol
_atom_site_label
_atom_site_fract_x
_atom_site_fract_y
_atom_site_fract_z
Si Si1 0.282510 0.970810 0.028051
Si Si2 0.645834 0.029601 0.545655
Si Si3 0.863898 0.700836 0.639921
Si Si4 0.686365 0.532354 0.754811
Si Si5 0.323974 0.467470 0.735792
Si Si6 0.604509 0.701702 0.553330
Si Si7 0.873845 0.200750 0.885257
Si Si8 0.600379 0.201981 0.811359
O O1 0.481900 0.975961 0.744882
O O2 0.154153 0.880062 0.073781
O O3 0.500000 0.000000 0.000000
O O4 0.001719 0.023982 0.273964
O O5 0.580615 0.121519 0.680191
O O6 0.500000 0.000000 0.500000
O O7 0.776840 0.626174 0.744340
O O8 0.731353 0.681716 0.582713
O O9 0.212241 0.727666 0.363436
O O10 0.729264 0.773059 0.880979
O O11 0.484824 0.501661 0.766742
O O12 0.000000 0.500000 0.500000
O O13 0.500000 0.500000 0.000000
O O14 0.500000 0.500000 0.500000
O O15 0.352989 0.372800 0.635427
O O16 0.000000 0.500000 0.000000
O O17 0.781519 0.774221 0.393698
O O18 0.273032 0.729053 0.860403
O O19 0.732295 0.185443 0.839473
#
# Coordination Sequence:
#
# PCOD8009995 Si02
#       8
#     2   2   2   2   2   2   2   2
#     4  12  24  42  68  97 129 168 222 269 320 378
#     4  12  26  44  64  98 137 174 213 264 328 389
#     4  10  21  39  65  92 123 169 217 262 314 388
#     4  12  26  44  64  97 135 170 211 264 328 386
#     4  12  24  42  68  96 126 167 219 266 320 379
#     4  10  21  38  63  96 126 161 217 272 318 371
#     4  10  21  37  63  97 125 162 215 276 318 366
#     4  10  21  38  65  93 123 167 220 261 314 389
#
# _framework density 21.095777999999999
#
# number of rings (size 3 to 8) (size 9 to 14) (size 15 to 20)
#    0.000    1.000    2.500    4.500    7.000    0.000 
#    0.000    7.500    0.000    0.000    0.000    0.000 
#    0.000    0.000    0.000    0.000    0.000    0.000 
#
# Total GULP energy -198287.832325 kJ/mol
# GULP energy per Si atom -12392.989520 kJ/mol
# Density = 2.104776 g / cm^3
# Si number density = 21.095778 Si / 1000 Ang^3
#
#
#
# Elastic Constant Matrix: (Units=GPa)
#
#
# Indices 1 2 3 4 5 6 
#
# 1 110.2566 31.9228 52.1248 0.2965 3.2928 10.6616
# 2 31.9228 113.3700 24.6868 1.3095 15.0281 -6.4008
# 3 52.1248 24.6868 132.2498 -8.2693 0.9232 5.3874
# 4 0.2965 1.3095 -8.2693 49.4914 -7.6054 12.3687
# 5 3.2928 15.0281 0.9232 -7.6054 36.8927 -4.0985
# 6 10.6616 -6.4008 5.3874 12.3687 -4.0985 25.0731
#
#
#
# Elastic Compliance Matrix: (Units=1/GPa)
#
#
# Indices 1 2 3 4 5 6 
#
# 1 0.012363 -0.002871 -0.004071 0.000645 -0.000308 -0.005484
# 2 -0.002871 0.010705 -0.001168 -0.002242 -0.004020 0.004654
# 3 -0.004071 -0.001168 0.009578 0.002179 0.000876 -0.001557
# 4 0.000645 -0.002242 0.002179 0.024472 0.004439 -0.012661
# 5 -0.000308 -0.004020 0.000876 0.004439 0.029842 0.001605
# 6 -0.005484 0.004654 -0.001557 -0.012661 0.001605 0.050246
#
#
# Mechanical properties :
#
#
# Convention : Reuss Voigt Hill
#
# Bulk Modulus (GPa) = 60.88217 63.70502 62.29360
# Shear Modulus (GPa) = 31.46590 38.76757 35.11674
#
# Velocity S-wave (km/s) = 3.86628 4.29148 4.08442
# Velocity P-wave (km/s) = 6.98952 7.40401 7.19975
#
# Compressibility (1/GPa) = 0.01642517
#
# Stress axis : x y z
#
# Youngs Moduli (GPa) = 80.88393 93.41347 104.40895
#
# Poissons Ratio (x) = 0.26819 0.42506
# Poissons Ratio (y) = 0.23222 0.12200
# Poissons Ratio (z) = 0.32929 0.10915
#
# Static dielectric constant tensor:
#      x y z
#    x 3.504870 -0.088620 -0.059060 
#    y -0.088620 4.018620 -0.131070 
#    z -0.059060 -0.131070 4.143260 
# 
# 
# High freq. dielectric constant tensor:
#      x y z
#    x 1.794270 -0.008110 0.001740 
#    y -0.008110 1.840360 -0.007660 
#    z 0.001740 -0.007660 1.854750 
# 
# From -- ./inp_files/223734.got.cif
#   From: 2010.06.25/outbox.cif.g09.slc.cpg/sg2_112_cif.got.tgz:223734.got - 2010.06.27 13:26:56.
