data_PCOD8009074
_publ_section_title
;
Structure prediction by ZEFSAII (Michael W. Deem and Ramdas Pophale) SiO2 
 PCOD8009074
Probable space group: P -1
;
_chemical_formula_sum "Si O2"
_cell_formula_units_Z 14
_cell_length_a 10.242451
_cell_length_b 12.846623
_cell_length_c 9.109457
_cell_angle_alpha 87.918778
_cell_angle_beta 100.825812
_cell_angle_gamma 32.302984
_cell_volume 584.081356
_symmetry_space_group_name_H-M "P -1"
_symmetry_group_IT_number 2
_symmetry_cell_setting 'triclinic'
loop_
_space_group_symop_operation_xyz
x,y,z
-x,-y,-z
loop_
_atom_site_type_symbol
_atom_site_label
_atom_site_fract_x
_atom_site_fract_y
_atom_site_fract_z
Si Si1 0.589240 0.243935 0.959242
Si Si2 0.416778 0.113943 0.251977
Si Si3 0.352413 0.961958 0.429095
Si Si4 0.115272 0.546656 0.024585
Si Si5 0.783964 0.547850 0.368119
Si Si6 0.084374 0.331614 0.714783
Si Si7 0.969615 0.164636 0.111850
O O1 0.396457 0.406082 0.771191
O O2 0.712379 0.265578 0.049072
O O3 0.408370 0.306344 0.042103
O O4 0.819214 0.010057 0.962822
O O5 0.297920 0.117098 0.351873
O O6 0.590532 0.082419 0.380394
O O7 0.613312 0.918711 0.191109
O O8 0.154167 0.336246 0.093897
O O9 0.618717 0.739467 0.423311
O O10 0.101142 0.065296 0.308786
O O11 0.110938 0.662592 0.941820
O O12 0.103310 0.573974 0.194590
O O13 0.933565 0.529345 0.294230
O O14 0.973248 0.358383 0.533987
#
# Coordination Sequence:
#
# PCOD8009074 Si02
#       7
#     2   2   2   2   2   2   2
#     4  10  21  38  64  82 111 153 193 231 278 338
#     4   9  18  31  54  81 114 144 180 228 285 332
#     4   8  16  33  55  80 105 146 187 227 273 336
#     4  11  22  36  57  91 114 145 190 240 281 330
#     4   9  20  36  55  82 111 153 188 225 282 349
#     4  10  21  36  54  83 123 145 183 236 287 336
#     4   9  20  40  61  83 112 149 198 229 277 337
#
# _framework density 23.969263000000002
#
# number of rings (size 3 to 8) (size 9 to 14) (size 15 to 20)
#    0.000    2.571    0.000    1.714   10.000    0.571 
#    2.571    0.714    0.000    2.571    0.000    0.000 
#    0.000    0.000    0.000    0.000    0.000    0.000 
#
# Total GULP energy -173457.002202 kJ/mol
# GULP energy per Si atom -12389.785872 kJ/mol
# Density = 2.391471 g / cm^3
# Si number density = 23.969263 Si / 1000 Ang^3
#
#
#
# Elastic Constant Matrix: (Units=GPa)
#
#
# Indices 1 2 3 4 5 6 
#
# 1 62.7397 20.3778 42.2839 2.3945 26.8141 -28.6296
# 2 20.3778 70.3531 42.2552 -5.2731 -6.5081 -18.8647
# 3 42.2839 42.2552 144.3740 -2.2709 23.0403 -24.7966
# 4 2.3945 -5.2731 -2.2709 34.3051 -5.7670 -1.3232
# 5 26.8141 -6.5081 23.0403 -5.7670 43.3828 1.1371
# 6 -28.6296 -18.8647 -24.7966 -1.3232 1.1371 30.2575
#
#
#
# Elastic Compliance Matrix: (Units=1/GPa)
#
#
# Indices 1 2 3 4 5 6 
#
# 1 0.062207 -0.008142 0.000280 -0.010622 -0.042677 0.055153
# 2 -0.008142 0.021767 -0.005635 0.005600 0.012007 0.001043
# 3 0.000280 -0.005635 0.010541 -0.001134 -0.006914 0.005601
# 4 -0.010622 0.005600 -0.001134 0.032527 0.012503 -0.006536
# 5 -0.042677 0.012007 -0.006914 0.012503 0.057617 -0.040179
# 6 0.055153 0.001043 0.005601 -0.006536 -0.040179 0.091700
#
#
# Mechanical properties :
#
#
# Convention : Reuss Voigt Hill
#
# Bulk Modulus (GPa) = 14.81004 54.14450 34.47727
# Shear Modulus (GPa) = 15.34403 33.09241 24.21822
#
# Velocity S-wave (km/s) = 2.53287 3.71970 3.18211
# Velocity P-wave (km/s) = 3.84006 6.40987 5.28358
#
# Compressibility (1/GPa) = 0.06752177
#
# Stress axis : x y z
#
# Youngs Moduli (GPa) = 16.07538 45.94106 94.86506
#
# Poissons Ratio (x) = 0.37403 -0.02657
# Poissons Ratio (y) = 0.13088 0.53459
# Poissons Ratio (z) = -0.00450 0.25889
#
# Static dielectric constant tensor:
#      x y z
#    x 3.819740 -0.064630 0.291350 
#    y -0.064630 4.505230 -0.160510 
#    z 0.291350 -0.160510 4.664860 
# 
# 
# High freq. dielectric constant tensor:
#      x y z
#    x 1.880720 -0.001340 0.019410 
#    y -0.001340 1.982650 0.002140 
#    z 0.019410 0.002140 1.962880 
# 
# From -- ./inp_files/199673.got.cif
#   From: 2010.06.25/outbox.cif.g09.slc.cpg/sg2_100_cif.got.tgz:199673.got - 2010.06.27 13:26:56.
