data_PCOD8009796
_publ_section_title
;
Structure prediction by ZEFSAII (Michael W. Deem and Ramdas Pophale) SiO2 
 PCOD8009796
Probable space group: P -1
;
_chemical_formula_sum "Si O2"
_cell_formula_units_Z 16
_cell_length_a 8.907510
_cell_length_b 14.189816
_cell_length_c 9.789424
_cell_angle_alpha 63.322820
_cell_angle_beta 135.091732
_cell_angle_gamma 115.425804
_cell_volume 768.284245
_symmetry_space_group_name_H-M "P -1"
_symmetry_group_IT_number 2
_symmetry_cell_setting 'triclinic'
loop_
_space_group_symop_operation_xyz
x,y,z
-x,-y,-z
loop_
_atom_site_type_symbol
_atom_site_label
_atom_site_fract_x
_atom_site_fract_y
_atom_site_fract_z
Si Si1 0.731758 0.324877 0.407859
Si Si2 0.331872 0.588422 0.973729
Si Si3 0.101272 0.150584 0.647194
Si Si4 0.683234 0.025360 0.207674
Si Si5 0.644615 0.079998 0.442220
Si Si6 0.285098 0.350574 0.163801
Si Si7 0.949075 0.249882 0.233132
Si Si8 0.802250 0.691065 0.170604
O O1 0.750165 0.404238 0.238953
O O2 0.632589 0.203560 0.378329
O O3 0.539008 0.353829 0.360173
O O4 0.963256 0.340009 0.623843
O O5 0.232607 0.674626 0.944476
O O6 0.237041 0.470836 0.044123
O O7 0.593951 0.603537 0.136722
O O8 0.228672 0.204337 0.827166
O O9 0.895064 0.068817 0.626544
O O10 0.025574 0.245170 0.444678
O O11 0.214503 0.082391 0.658189
O O12 0.571170 0.043997 0.265907
O O13 0.850295 0.129881 0.200522
O O14 0.500000 0.000000 0.000000
O O15 0.500000 0.000000 0.500000
O O16 0.150175 0.292076 0.239173
O O17 0.212712 0.288109 0.014780
#
# Coordination Sequence:
#
# PCOD8009796 Si02
#       8
#     2   2   2   2   2   2   2   2
#     4  10  21  41  63  90 126 164 205 262 313 366
#     4  11  21  43  65  89 123 170 211 256 315 361
#     4  10  22  41  64  87 122 171 197 245 322 371
#     4  11  23  39  64  91 122 168 204 245 316 376
#     4  10  21  37  61  87 120 158 203 252 302 368
#     4  11  26  37  67  92 125 165 211 263 309 363
#     4  11  22  45  59  92 132 158 207 266 306 372
#     4  10  21  43  65  90 123 162 213 257 303 376
#
# _framework density 20.825624999999999
#
# number of rings (size 3 to 8) (size 9 to 14) (size 15 to 20)
#    0.000    1.500    3.750    4.125    5.250    4.000 
#    2.250    1.875    0.000    0.000    0.000    0.000 
#    0.000    0.000    0.000    0.000    0.000    0.000 
#
# Total GULP energy -198250.702832 kJ/mol
# GULP energy per Si atom -12390.668927 kJ/mol
# Density = 2.077823 g / cm^3
# Si number density = 20.825625 Si / 1000 Ang^3
#
#
#
# Elastic Constant Matrix: (Units=GPa)
#
#
# Indices 1 2 3 4 5 6 
#
# 1 120.8935 36.6513 37.7118 -12.6575 1.0125 16.1931
# 2 36.6513 86.2685 36.0778 -9.0556 -10.2160 -0.3340
# 3 37.7118 36.0778 72.0485 8.6755 15.9545 5.2412
# 4 -12.6575 -9.0556 8.6755 34.5397 -2.8446 0.9705
# 5 1.0125 -10.2160 15.9545 -2.8446 31.6143 -9.5091
# 6 16.1931 -0.3340 5.2412 0.9705 -9.5091 37.9123
#
#
#
# Elastic Compliance Matrix: (Units=1/GPa)
#
#
# Indices 1 2 3 4 5 6 
#
# 1 0.011780 -0.001799 -0.005932 0.005557 0.001321 -0.004038
# 2 -0.001799 0.022642 -0.016454 0.010755 0.018969 0.007725
# 3 -0.005932 -0.016454 0.033656 -0.016859 -0.026153 -0.008392
# 4 0.005557 0.010755 -0.016859 0.039296 0.016283 0.003130
# 5 0.001321 0.018969 -0.026153 0.016283 0.057568 0.017241
# 6 -0.004038 0.007725 -0.008392 0.003130 0.017241 0.033574
#
#
# Mechanical properties :
#
#
# Convention : Reuss Voigt Hill
#
# Bulk Modulus (GPa) = 50.74521 55.56582 53.15551
# Shear Modulus (GPa) = 19.72731 32.06456 25.89593
#
# Velocity S-wave (km/s) = 3.08110 3.92812 3.53011
# Velocity P-wave (km/s) = 6.08910 6.87843 6.49577
#
# Compressibility (1/GPa) = 0.01970629
#
# Stress axis : x y z
#
# Youngs Moduli (GPa) = 84.89309 44.16479 29.71269
#
# Poissons Ratio (x) = 0.07947 0.17627
# Poissons Ratio (y) = 0.15277 0.48889
# Poissons Ratio (z) = 0.50362 0.72668
#
# Static dielectric constant tensor:
#      x y z
#    x 3.620590 -0.013400 0.169040 
#    y -0.013400 3.637030 0.095550 
#    z 0.169040 0.095550 3.710080 
# 
# 
# High freq. dielectric constant tensor:
#      x y z
#    x 1.819720 -0.012820 0.017010 
#    y -0.012820 1.816430 0.001780 
#    z 0.017010 0.001780 1.799800 
# 
# From -- ./inp_files/206583.got.cif
#   From: 2010.06.25/outbox.cif.g09.slc.cpg/sg2_104_cif.got.tgz:206583.got - 2010.06.27 13:26:56.
