data_PCOD8009336
_publ_section_title
;
Structure prediction by ZEFSAII (Michael W. Deem and Ramdas Pophale) SiO2 
 PCOD8009336
Probable space group: P -1
;
_chemical_formula_sum "Si O2"
_cell_formula_units_Z 16
_cell_length_a 5.502454
_cell_length_b 17.078764
_cell_length_c 18.604507
_cell_angle_alpha 149.995589
_cell_angle_beta 54.547638
_cell_angle_gamma 129.310974
_cell_volume 674.228959
_symmetry_space_group_name_H-M "P -1"
_symmetry_group_IT_number 2
_symmetry_cell_setting 'triclinic'
loop_
_space_group_symop_operation_xyz
x,y,z
-x,-y,-z
loop_
_atom_site_type_symbol
_atom_site_label
_atom_site_fract_x
_atom_site_fract_y
_atom_site_fract_z
Si Si1 0.635233 0.118393 0.677428
Si Si2 0.220055 0.338155 0.444221
Si Si3 0.359867 0.214413 0.659163
Si Si4 0.350087 0.376752 0.293152
Si Si5 0.787679 0.493236 0.712581
Si Si6 0.779934 0.167455 0.058962
Si Si7 0.656837 0.133948 0.212468
Si Si8 0.197154 0.000604 0.788059
O O1 0.494985 0.209852 0.712874
O O2 0.424458 0.112502 0.778951
O O3 0.996616 0.210512 0.712802
O O4 0.595357 0.933907 0.512580
O O5 0.388421 0.439183 0.421298
O O6 0.418699 0.228101 0.354102
O O7 0.114597 0.447989 0.610277
O O8 0.890528 0.195807 0.367764
O O9 0.569730 0.386989 0.727129
O O10 0.402030 0.528868 0.348891
O O11 0.548935 0.260587 0.142487
O O12 0.990237 0.271986 0.266765
O O13 0.886664 0.687014 0.869082
O O14 0.628183 0.068815 0.081510
O O15 0.874614 0.050101 0.890324
O O16 0.632709 0.979584 0.146941
#
# Coordination Sequence:
#
# PCOD8009336 Si02
#       8
#     2   2   2   2   2   2   2   2
#     4  10  23  43  67  98 125 160 219 279 324 382
#     4  10  21  36  61  92 120 160 215 256 313 379
#     4  10  23  43  68  96 126 162 215 278 333 377
#     4   9  21  38  56  89 128 165 203 256 310 390
#     4  11  22  39  62  89 123 169 203 262 325 382
#     4  10  23  39  58  89 132 167 208 251 320 389
#     4   9  21  37  61  90 126 165 210 260 311 380
#     4  11  22  39  63  91 122 168 211 264 317 379
#
# _framework density 23.730808
#
# number of rings (size 3 to 8) (size 9 to 14) (size 15 to 20)
#    0.000    2.000    1.250    0.750    3.500   14.000 
#    0.000    1.250    0.000    0.000    0.000    0.000 
#    0.000    0.000    0.000    0.000    0.000    0.000 
#
# Total GULP energy -198353.912514 kJ/mol
# GULP energy per Si atom -12397.119532 kJ/mol
# Density = 2.367680 g / cm^3
# Si number density = 23.730808 Si / 1000 Ang^3
#
#
#
# Elastic Constant Matrix: (Units=GPa)
#
#
# Indices 1 2 3 4 5 6 
#
# 1 127.4173 64.8055 26.7167 -9.9801 -13.8527 -21.0964
# 2 64.8055 200.7488 41.9275 -15.6997 -9.8546 -16.9008
# 3 26.7167 41.9275 100.5206 -9.2628 -7.7131 -5.2207
# 4 -9.9801 -15.6997 -9.2628 28.8360 3.0263 -4.6431
# 5 -13.8527 -9.8546 -7.7131 3.0263 35.0147 0.2167
# 6 -21.0964 -16.9008 -5.2207 -4.6431 0.2167 39.8755
#
#
#
# Elastic Compliance Matrix: (Units=1/GPa)
#
#
# Indices 1 2 3 4 5 6 
#
# 1 0.010631 -0.002469 -0.001096 0.002422 0.003031 0.004700
# 2 -0.002469 0.006457 -0.001728 0.002317 0.000250 0.001472
# 3 -0.001096 -0.001728 0.011293 0.002231 0.001372 0.000419
# 4 0.002422 0.002317 0.002231 0.038770 -0.001293 0.007077
# 5 0.003031 0.000250 0.001372 -0.001293 0.030233 0.001575
# 6 0.004700 0.001472 0.000419 0.007077 0.001575 0.029059
#
#
# Mechanical properties :
#
#
# Convention : Reuss Voigt Hill
#
# Bulk Modulus (GPa) = 56.19478 77.28734 66.74106
# Shear Modulus (GPa) = 34.97466 40.42771 37.70119
#
# Velocity S-wave (km/s) = 3.84319 4.13194 3.99018
# Velocity P-wave (km/s) = 6.58976 7.44332 7.02951
#
# Compressibility (1/GPa) = 0.01779525
#
# Stress axis : x y z
#
# Youngs Moduli (GPa) = 94.06189 154.87721 88.55257
#
# Poissons Ratio (x) = 0.38243 0.09704
# Poissons Ratio (y) = 0.23226 0.15299
# Poissons Ratio (z) = 0.10308 0.26758
#
# Static dielectric constant tensor:
#      x y z
#    x 5.902540 -0.306510 0.659040 
#    y -0.306510 4.199010 -0.060600 
#    z 0.659040 -0.060600 4.318040 
# 
# 
# High freq. dielectric constant tensor:
#      x y z
#    x 1.976080 0.014870 0.005220 
#    y 0.014870 1.925050 0.007900 
#    z 0.005220 0.007900 1.929600 
# 
# From -- ./inp_files/94797.got.cif
#   From: 2010.06.25/outbox.cif.g09.slc.cpg/sg2_48_cif.got.tgz:94797.got - 2010.06.27 13:26:56.
