data_PCOD8009827
_publ_section_title
;
Structure prediction by ZEFSAII (Michael W. Deem and Ramdas Pophale) SiO2 
 PCOD8009827
Probable space group: P -1
;
_chemical_formula_sum "Si O2"
_cell_formula_units_Z 14
_cell_length_a 9.648282
_cell_length_b 14.303468
_cell_length_c 7.254283
_cell_angle_alpha 123.137651
_cell_angle_beta 52.398118
_cell_angle_gamma 102.787334
_cell_volume 654.586534
_symmetry_space_group_name_H-M "P -1"
_symmetry_group_IT_number 2
_symmetry_cell_setting 'triclinic'
loop_
_space_group_symop_operation_xyz
x,y,z
-x,-y,-z
loop_
_atom_site_type_symbol
_atom_site_label
_atom_site_fract_x
_atom_site_fract_y
_atom_site_fract_z
Si Si1 0.270174 0.811289 0.918464
Si Si2 0.975202 0.712079 0.201780
Si Si3 0.539313 0.091355 0.835278
Si Si4 0.090538 0.629446 0.399527
Si Si5 0.407838 0.759280 0.358368
Si Si6 0.777743 0.943546 0.734867
Si Si7 0.792672 0.630396 0.925869
O O1 0.405264 0.806847 0.975586
O O2 0.391317 0.784060 0.613019
O O3 0.149500 0.714494 0.937708
O O4 0.151513 0.939793 0.141677
O O5 0.930894 0.839806 0.455388
O O6 0.014317 0.627290 0.251015
O O7 0.826132 0.673983 0.152122
O O8 0.332049 0.090860 0.037385
O O9 0.580279 0.120923 0.623376
O O10 0.650089 0.970550 0.685530
O O11 0.236349 0.711066 0.374339
O O12 0.183255 0.504569 0.244961
O O13 0.927904 0.673394 0.717677
O O14 0.590654 0.674489 0.077831
#
# Coordination Sequence:
#
# PCOD8009827 Si02
#       7
#     2   2   2   2   2   2   2
#     4  10  21  37  61  92 127 158 204 245 302 375
#     4  12  21  43  64  88 129 166 201 259 309 359
#     4   9  20  39  59  89 128 161 201 253 297 371
#     4  11  24  46  63  92 124 160 213 261 304 366
#     4  12  22  42  66  92 127 164 200 258 314 359
#     4   9  20  39  60  91 126 163 204 248 301 373
#     4  11  26  41  67  93 120 163 213 257 310 365
#
# _framework density 21.387547999999999
#
# number of rings (size 3 to 8) (size 9 to 14) (size 15 to 20)
#    0.857    0.571    2.857    3.000    0.000    0.571 
#    2.571    2.143    0.000    0.000    0.000    0.000 
#    0.000    0.000    0.000    0.000    0.000    0.000 
#
# Total GULP energy -173535.454077 kJ/mol
# GULP energy per Si atom -12395.389577 kJ/mol
# Density = 2.133887 g / cm^3
# Si number density = 21.387548 Si / 1000 Ang^3
#
#
#
# Elastic Constant Matrix: (Units=GPa)
#
#
# Indices 1 2 3 4 5 6 
#
# 1 54.1704 0.3149 9.1196 -12.4398 -6.2388 -3.3317
# 2 0.3149 69.6950 21.7499 -20.2757 -13.7875 -7.8768
# 3 9.1196 21.7499 82.8162 -15.8995 -9.9433 -14.8670
# 4 -12.4398 -20.2757 -15.8995 40.3085 -0.0888 2.2276
# 5 -6.2388 -13.7875 -9.9433 -0.0888 27.0013 -0.0221
# 6 -3.3317 -7.8768 -14.8670 2.2276 -0.0221 28.9627
#
#
#
# Elastic Compliance Matrix: (Units=1/GPa)
#
#
# Indices 1 2 3 4 5 6 
#
# 1 0.021407 0.004173 -0.000537 0.008361 0.006909 0.002684
# 2 0.004173 0.020659 -0.001714 0.010785 0.010921 0.004398
# 3 -0.000537 -0.001714 0.015280 0.004625 0.004649 0.006964
# 4 0.008361 0.010785 0.004625 0.034458 0.009258 0.003626
# 5 0.006909 0.010921 0.004649 0.009258 0.045955 0.005474
# 6 0.002684 0.004398 0.006964 0.003626 0.005474 0.039332
#
#
# Mechanical properties :
#
#
# Convention : Reuss Voigt Hill
#
# Bulk Modulus (GPa) = 16.34196 29.89448 23.11822
# Shear Modulus (GPa) = 25.82053 30.95430 28.38741
#
# Velocity S-wave (km/s) = 3.47835 3.80847 3.64715
# Velocity P-wave (km/s) = 4.87743 5.77470 5.34493
#
# Compressibility (1/GPa) = 0.06119216
#
# Stress axis : x y z
#
# Youngs Moduli (GPa) = 46.71312 48.40419 65.44365
#
# Poissons Ratio (x) = -0.20201 0.03513
# Poissons Ratio (y) = -0.19495 0.11217
# Poissons Ratio (z) = 0.02507 0.08297
#
# Static dielectric constant tensor:
#      x y z
#    x 3.528530 0.041600 -0.035690 
#    y 0.041600 3.717980 -0.223120 
#    z -0.035690 -0.223120 3.701910 
# 
# 
# High freq. dielectric constant tensor:
#      x y z
#    x 1.822520 0.007630 -0.003900 
#    y 0.007630 1.837100 -0.022260 
#    z -0.003900 -0.022260 1.833720 
# 
# From -- ./inp_files/39585.got.cif
#   From: 2010.06.25/outbox.cif.g09.slc.cpg/sg2_20_cif.got.tgz:39585.got - 2010.06.27 13:26:56.
