data_PCOD8009444
_publ_section_title
;
Structure prediction by ZEFSAII (Michael W. Deem and Ramdas Pophale) SiO2 
 PCOD8009444
Probable space group: P -1
;
_chemical_formula_sum "Si O2"
_cell_formula_units_Z 14
_cell_length_a 20.621906
_cell_length_b 8.220914
_cell_length_c 12.672987
_cell_angle_alpha 52.437333
_cell_angle_beta 27.858838
_cell_angle_gamma 38.069088
_cell_volume 590.573189
_symmetry_space_group_name_H-M "P -1"
_symmetry_group_IT_number 2
_symmetry_cell_setting 'triclinic'
loop_
_space_group_symop_operation_xyz
x,y,z
-x,-y,-z
loop_
_atom_site_type_symbol
_atom_site_label
_atom_site_fract_x
_atom_site_fract_y
_atom_site_fract_z
Si Si1 0.943638 0.638915 0.322028
Si Si2 0.836994 0.743582 0.211101
Si Si3 0.030776 0.939565 0.811107
Si Si4 0.364768 0.252915 0.859954
Si Si5 0.322518 0.627011 0.950523
Si Si6 0.389554 0.222899 0.161014
Si Si7 0.401052 0.316797 0.537727
O O1 0.852182 0.637132 0.347875
O O2 0.823329 0.654131 0.581926
O O3 0.924597 0.904933 0.245591
O O4 0.159114 0.359611 0.125099
O O5 0.638069 0.867906 0.393835
O O6 0.000000 0.500000 0.000000
O O7 0.874405 0.950154 0.089887
O O8 0.221904 0.630393 0.634493
O O9 0.906097 0.128938 0.813040
O O10 0.388857 0.419027 0.839343
O O11 0.406688 0.291977 0.666354
O O12 0.508050 0.928098 0.815139
O O13 0.417717 0.753950 0.745585
O O14 0.383114 0.468941 0.038860
O O15 0.500000 0.000000 0.000000
#
# Coordination Sequence:
#
# PCOD8009444 Si02
#       7
#     2   2   2   2   2   2   2
#     4  11  21  39  66  91 122 161 205 255 303 361
#     4  10  21  38  60  94 128 155 199 252 319 358
#     4  10  21  36  64  92 121 149 209 253 306 353
#     4  10  21  36  65  92 122 158 205 257 306 355
#     4  10  23  37  60  92 121 164 204 246 306 363
#     4  10  23  41  59  94 125 162 206 248 305 365
#     4  11  22  39  62  92 129 155 199 260 306 359
#
# _framework density 23.705781999999999
#
# number of rings (size 3 to 8) (size 9 to 14) (size 15 to 20)
#    0.000    1.714    2.857    2.571    4.000    6.857 
#    0.000    0.714    0.000    2.571    0.000    0.000 
#    0.000    0.000    0.000    0.000    0.000    0.000 
#
# Total GULP energy -173461.606979 kJ/mol
# GULP energy per Si atom -12390.114784 kJ/mol
# Density = 2.365183 g / cm^3
# Si number density = 23.705782 Si / 1000 Ang^3
#
#
#
# Elastic Constant Matrix: (Units=GPa)
#
#
# Indices 1 2 3 4 5 6 
#
# 1 90.2364 38.4042 53.4532 -14.8645 -22.1529 -6.8217
# 2 38.4042 123.2586 53.7444 -14.4495 1.6085 -22.4207
# 3 53.4532 53.7444 154.6535 -7.2530 -16.9167 -10.0465
# 4 -14.8645 -14.4495 -7.2530 37.5669 -4.3002 -2.7018
# 5 -22.1529 1.6085 -16.9167 -4.3002 28.8671 0.8076
# 6 -6.8217 -22.4207 -10.0465 -2.7018 0.8076 33.9056
#
#
#
# Elastic Compliance Matrix: (Units=1/GPa)
#
#
# Indices 1 2 3 4 5 6 
#
# 1 0.019473 -0.003765 -0.003491 0.007251 0.014170 0.000634
# 2 -0.003765 0.012146 -0.002921 0.002519 -0.005091 0.006731
# 3 -0.003491 -0.002921 0.008951 -0.000478 0.002660 -0.000083
# 4 0.007251 0.002519 -0.000478 0.031861 0.009742 0.005290
# 5 0.014170 -0.005091 0.002660 0.009742 0.048813 -0.000113
# 6 0.000634 0.006731 -0.000083 0.005290 -0.000113 0.034472
#
#
# Mechanical properties :
#
#
# Convention : Reuss Voigt Hill
#
# Bulk Modulus (GPa) = 49.46471 73.26133 61.36302
# Shear Modulus (GPa) = 27.35113 34.90437 31.12775
#
# Velocity S-wave (km/s) = 3.40041 3.84135 3.62759
# Velocity P-wave (km/s) = 6.02731 7.11661 6.59449
#
# Compressibility (1/GPa) = 0.02021643
#
# Stress axis : x y z
#
# Youngs Moduli (GPa) = 51.35204 82.33309 111.71994
#
# Poissons Ratio (x) = 0.30996 0.39002
# Poissons Ratio (y) = 0.19333 0.32634
# Poissons Ratio (z) = 0.17927 0.24050
#
# Static dielectric constant tensor:
#      x y z
#    x 4.635110 -0.439360 -0.337580 
#    y -0.439360 4.916910 -0.085500 
#    z -0.337580 -0.085500 4.589930 
# 
# 
# High freq. dielectric constant tensor:
#      x y z
#    x 1.926010 -0.024460 -0.021630 
#    y -0.024460 1.954760 0.011610 
#    z -0.021630 0.011610 1.936770 
# 
# From -- ./inp_files/380992.got.cif
#   From: 2010.06.25/outbox.cif.g09.slc.cpg/sg2_191_cif.got.tgz:380992.got - 2010.06.27 13:26:56.
