data_PCOD8009104
_publ_section_title
;
Structure prediction by ZEFSAII (Michael W. Deem and Ramdas Pophale) SiO2 
 PCOD8009104
Probable space group: P -1
;
_chemical_formula_sum "Si O2"
_cell_formula_units_Z 14
_cell_length_a 6.534218
_cell_length_b 28.620863
_cell_length_c 25.644822
_cell_angle_alpha 8.700713
_cell_angle_beta 74.445440
_cell_angle_gamma 73.227970
_cell_volume 689.786953
_symmetry_space_group_name_H-M "P -1"
_symmetry_group_IT_number 2
_symmetry_cell_setting 'triclinic'
loop_
_space_group_symop_operation_xyz
x,y,z
-x,-y,-z
loop_
_atom_site_type_symbol
_atom_site_label
_atom_site_fract_x
_atom_site_fract_y
_atom_site_fract_z
Si Si1 0.931223 0.802785 0.269352
Si Si2 0.965008 0.130330 0.642469
Si Si3 0.884051 0.568977 0.800723
Si Si4 0.344429 0.022821 0.551652
Si Si5 0.759453 0.536461 0.295987
Si Si6 0.725002 0.208529 0.923481
Si Si7 0.815271 0.793305 0.744411
O O1 0.848558 0.500968 0.584871
O O2 0.139791 0.694378 0.410371
O O3 0.743985 0.014534 0.082176
O O4 0.000000 0.000000 0.000000
O O5 0.777199 0.339801 0.457985
O O6 0.030956 0.342451 0.358138
O O7 0.884509 0.827699 0.958285
O O8 0.173773 0.022932 0.782343
O O9 0.725071 0.859024 0.516426
O O10 0.748178 0.290860 0.109588
O O11 0.087984 0.500778 0.901774
O O12 0.602151 0.971655 0.590525
O O13 0.253369 0.283537 0.225589
O O14 0.517574 0.665725 0.184359
O O15 0.000000 0.000000 0.500000
#
# Coordination Sequence:
#
# PCOD8009104 Si02
#       7
#     2   2   2   2   2   2   2
#     4  10  21  36  56  84 111 140 183 223 262 320
#     4  10  22  37  55  81 109 141 184 222 262 321
#     4  11  22  37  57  81 108 141 181 223 266 320
#     4  10  22  37  56  81 108 140 178 221 273 323
#     4  10  21  38  57  79 111 146 177 221 272 312
#     4  10  21  37  56  79 112 146 177 222 270 313
#     4   9  21  38  57  80 110 141 176 223 273 321
#
# _framework density 20.296122
#
# number of rings (size 3 to 8) (size 9 to 14) (size 15 to 20)
#    0.000    2.000    0.000    2.571    0.000   10.857 
#    0.000    0.000    0.000    0.000    0.000    0.000 
#    0.000    0.000    0.000    0.000    0.000    0.000 
#
# Total GULP energy -173595.276248 kJ/mol
# GULP energy per Si atom -12399.662589 kJ/mol
# Density = 2.024993 g / cm^3
# Si number density = 20.296122 Si / 1000 Ang^3
#
#
#
# Elastic Constant Matrix: (Units=GPa)
#
#
# Indices 1 2 3 4 5 6 
#
# 1 89.8772 41.9067 28.7858 8.5664 16.0576 -23.4226
# 2 41.9067 118.4902 43.5002 1.8617 16.5790 -14.7200
# 3 28.7858 43.5002 78.9396 6.2471 6.8069 -0.2897
# 4 8.5664 1.8617 6.2471 45.2406 0.0802 -1.0975
# 5 16.0576 16.5790 6.8069 0.0802 20.1681 -10.5730
# 6 -23.4226 -14.7200 -0.2897 -1.0975 -10.5730 26.8343
#
#
#
# Elastic Compliance Matrix: (Units=1/GPa)
#
#
# Indices 1 2 3 4 5 6 
#
# 1 0.018004 -0.002504 -0.004597 -0.002359 -0.004126 0.012569
# 2 -0.002504 0.012356 -0.005525 0.000801 -0.004926 0.002624
# 3 -0.004597 -0.005525 0.017629 -0.001518 -0.001724 -0.007594
# 4 -0.002359 0.000801 -0.001518 0.022723 0.001602 -0.000076
# 5 -0.004126 -0.004926 -0.001724 0.001602 0.068326 0.020665
# 6 0.012569 0.002624 -0.007594 -0.000076 0.020665 0.057734
#
#
# Mechanical properties :
#
#
# Convention : Reuss Voigt Hill
#
# Bulk Modulus (GPa) = 43.97883 57.29916 50.63899
# Shear Modulus (GPa) = 21.77680 29.98956 25.88318
#
# Velocity S-wave (km/s) = 3.27915 3.84813 3.57498
# Velocity P-wave (km/s) = 6.00439 6.93087 6.48420
#
# Compressibility (1/GPa) = 0.02273822
#
# Stress axis : x y z
#
# Youngs Moduli (GPa) = 55.54416 80.93163 56.72321
#
# Poissons Ratio (x) = 0.20265 0.26074
# Poissons Ratio (y) = 0.13908 0.31338
# Poissons Ratio (z) = 0.25532 0.44713
#
# Static dielectric constant tensor:
#      x y z
#    x 3.798110 0.123810 0.188480 
#    y 0.123810 3.754880 -0.088570 
#    z 0.188480 -0.088570 3.772670 
# 
# 
# High freq. dielectric constant tensor:
#      x y z
#    x 1.789640 -0.005190 0.004210 
#    y -0.005190 1.800580 -0.007440 
#    z 0.004210 -0.007440 1.792420 
# 
# From -- ./inp_files/8809.got.cif
#   From: 2010.06.25/outbox.cif.g09.slc.cpg/sg2_5_cif.got.tgz:8809.got - 2010.06.27 13:26:56.
