data_PCOD8009618
_publ_section_title
;
Structure prediction by ZEFSAII (Michael W. Deem and Ramdas Pophale) SiO2 
 PCOD8009618
Probable space group: P -1
;
_chemical_formula_sum "Si O2"
_cell_formula_units_Z 16
_cell_length_a 10.569464
_cell_length_b 5.348448
_cell_length_c 14.765867
_cell_angle_alpha 87.102522
_cell_angle_beta 104.903733
_cell_angle_gamma 71.007256
_cell_volume 754.446490
_symmetry_space_group_name_H-M "P -1"
_symmetry_group_IT_number 2
_symmetry_cell_setting 'triclinic'
loop_
_space_group_symop_operation_xyz
x,y,z
-x,-y,-z
loop_
_atom_site_type_symbol
_atom_site_label
_atom_site_fract_x
_atom_site_fract_y
_atom_site_fract_z
Si Si1 0.186402 0.876108 0.614597
Si Si2 0.140263 0.875232 0.083463
Si Si3 0.888760 0.408174 0.749792
Si Si4 0.282478 0.285667 0.134656
Si Si5 0.425225 0.972513 0.742038
Si Si6 0.508358 0.804431 0.424149
Si Si7 0.144244 0.380878 0.700547
Si Si8 0.261200 0.656638 0.450701
O O1 0.118999 0.667702 0.645243
O O2 0.180420 0.891172 0.502754
O O3 0.347790 0.788316 0.683009
O O4 0.104005 0.179801 0.627340
O O5 0.102651 0.852099 0.183486
O O6 0.223185 0.572995 0.066730
O O7 0.233528 0.060789 0.083024
O O8 0.000000 0.000000 0.000000
O O9 0.781385 0.669514 0.775277
O O10 0.842778 0.397326 0.638228
O O11 0.043334 0.427560 0.768883
O O12 0.451754 0.193251 0.164169
O O13 0.509661 0.066044 0.679425
O O14 0.306941 0.227359 0.763817
O O15 0.383599 0.692021 0.412078
O O16 0.665262 0.587537 0.462209
O O17 0.500000 0.000000 0.500000
#
# Coordination Sequence:
#
# PCOD8009618 Si02
#       8
#     2   2   2   2   2   2   2   2
#     4  10  22  38  55  80 124 176 198 244 280 340
#     4  10  23  44  67  95 120 147 188 254 319 361
#     4  10  25  37  62  91 117 161 202 253 294 366
#     4  10  23  37  69  94 115 152 199 246 295 370
#     4  10  21  37  58  88 121 161 206 239 295 340
#     4  11  19  32  52  79 120 162 196 264 286 334
#     4  10  23  39  57  80 127 168 202 242 294 337
#     4  11  21  34  53  84 122 162 216 242 294 335
#
# _framework density 21.207599999999999
#
# number of rings (size 3 to 8) (size 9 to 14) (size 15 to 20)
#    1.500    0.250    2.500    1.875    5.250    1.000 
#    0.000    0.000    0.000    1.500    0.000    0.000 
#    0.000    0.000    0.000    0.000    0.000    0.000 
#
# Total GULP energy -198213.332273 kJ/mol
# GULP energy per Si atom -12388.333267 kJ/mol
# Density = 2.115933 g / cm^3
# Si number density = 21.207600 Si / 1000 Ang^3
#
#
#
# Elastic Constant Matrix: (Units=GPa)
#
#
# Indices 1 2 3 4 5 6 
#
# 1 74.1615 20.1941 7.3826 0.0997 6.0719 -2.7585
# 2 20.1941 105.2702 14.5914 -1.4653 9.3529 21.6620
# 3 7.3826 14.5914 36.3797 -6.1626 19.1391 2.5374
# 4 0.0997 -1.4653 -6.1626 25.5572 -2.6983 5.0582
# 5 6.0719 9.3529 19.1391 -2.6983 25.8385 3.2900
# 6 -2.7585 21.6620 2.5374 5.0582 3.2900 27.0632
#
#
#
# Elastic Compliance Matrix: (Units=1/GPa)
#
#
# Indices 1 2 3 4 5 6 
#
# 1 0.014946 -0.003595 -0.001056 -0.001768 -0.002263 0.005105
# 2 -0.003595 0.012895 -0.003546 0.002076 0.000394 -0.010791
# 3 -0.001056 -0.003546 0.047833 0.007660 -0.033207 0.000851
# 4 -0.001768 0.002076 0.007660 0.043186 -0.000148 -0.010613
# 5 -0.002263 0.000394 -0.033207 -0.000148 0.064338 -0.005226
# 6 0.005105 -0.010791 0.000851 -0.010613 -0.005226 0.048648
#
#
# Mechanical properties :
#
#
# Convention : Reuss Voigt Hill
#
# Bulk Modulus (GPa) = 16.86896 33.34974 25.10935
# Shear Modulus (GPa) = 18.65687 27.26801 22.96244
#
# Velocity S-wave (km/s) = 2.96923 3.58965 3.29408
# Velocity P-wave (km/s) = 4.44147 5.73936 5.13161
#
# Compressibility (1/GPa) = 0.05928048
#
# Stress axis : x y z
#
# Youngs Moduli (GPa) = 66.90911 77.55044 20.90622
#
# Poissons Ratio (x) = 0.27877 0.02208
# Poissons Ratio (y) = 0.24052 0.07412
# Poissons Ratio (z) = 0.07066 0.27496
#
# Static dielectric constant tensor:
#      x y z
#    x 4.083590 -0.067120 0.049840 
#    y -0.067120 3.830370 0.023710 
#    z 0.049840 0.023710 3.259670 
# 
# 
# High freq. dielectric constant tensor:
#      x y z
#    x 1.836080 -0.001250 0.012630 
#    y -0.001250 1.830960 0.001430 
#    z 0.012630 0.001430 1.777580 
# 
# From -- ./inp_files/510441.got.cif
#   From: 2010.06.25/outbox.cif.g09.slc.cpg/sg2_256_cif.got.tgz:510441.got - 2010.06.27 13:26:56.
