data_PCOD8009593
_publ_section_title
;
Structure prediction by ZEFSAII (Michael W. Deem and Ramdas Pophale) SiO2 
 PCOD8009593
Probable space group: P -1
;
_chemical_formula_sum "Si O2"
_cell_formula_units_Z 14
_cell_length_a 20.840613
_cell_length_b 11.874669
_cell_length_c 12.060792
_cell_angle_alpha 121.716842
_cell_angle_beta 154.623344
_cell_angle_gamma 41.849063
_cell_volume 731.446146
_symmetry_space_group_name_H-M "P -1"
_symmetry_group_IT_number 2
_symmetry_cell_setting 'triclinic'
loop_
_space_group_symop_operation_xyz
x,y,z
-x,-y,-z
loop_
_atom_site_type_symbol
_atom_site_label
_atom_site_fract_x
_atom_site_fract_y
_atom_site_fract_z
Si Si1 0.795937 0.541469 0.825102
Si Si2 0.254089 0.194712 0.751210
Si Si3 0.667855 0.508146 0.272973
Si Si4 0.849392 0.483680 0.128579
Si Si5 0.847604 0.316376 0.235773
Si Si6 0.080264 0.250687 0.927459
Si Si7 0.390898 0.799406 0.172114
O O1 0.556769 0.663868 0.463035
O O2 0.995664 0.342746 0.965731
O O3 0.812704 0.469442 0.936626
O O4 0.825702 0.679927 0.948820
O O5 0.277513 0.297195 0.929516
O O6 0.111613 0.333503 0.491819
O O7 0.118117 0.159664 0.576640
O O8 0.500000 0.000000 0.000000
O O9 0.746112 0.484507 0.257155
O O10 0.537776 0.710526 0.240986
O O11 0.881395 0.321875 0.580475
O O12 0.500000 0.500000 0.000000
O O13 0.751291 0.429020 0.024790
O O14 0.788330 0.202882 0.109509
O O15 0.272848 0.016234 0.116051
#
# Coordination Sequence:
#
# PCOD8009593 Si02
#       7
#     2   2   2   2   2   2   2
#     4  10  21  39  57  78 117 154 191 237 286 325
#     4   9  19  38  56  86 111 148 187 226 288 336
#     4   9  19  37  56  84 118 147 181 233 294 329
#     4   9  20  38  58  84 117 144 189 235 281 346
#     4   9  19  38  57  85 121 143 186 238 285 342
#     4  10  21  37  58  84 111 152 201 236 269 346
#     4  10  21  38  57  86 114 153 195 229 286 335
#
# _framework density 19.140166000000001
#
# number of rings (size 3 to 8) (size 9 to 14) (size 15 to 20)
#    0.857    1.714    0.000    1.286    0.000    4.000 
#   12.857    0.714    0.000    0.000    0.000    0.000 
#    0.000    0.000    0.000    0.000    0.000    0.000 
#
# Total GULP energy -173442.544883 kJ/mol
# GULP energy per Si atom -12388.753206 kJ/mol
# Density = 1.909660 g / cm^3
# Si number density = 19.140166 Si / 1000 Ang^3
#
#
#
# Elastic Constant Matrix: (Units=GPa)
#
#
# Indices 1 2 3 4 5 6 
#
# 1 134.2946 47.1219 35.7035 -6.0339 -6.5449 -18.9467
# 2 47.1219 102.7315 33.5719 -17.6964 2.8802 -17.2512
# 3 35.7035 33.5719 71.4351 -4.4223 12.7657 -14.3432
# 4 -6.0339 -17.6964 -4.4223 31.0430 -4.9455 5.5346
# 5 -6.5449 2.8802 12.7657 -4.9455 36.1422 3.6167
# 6 -18.9467 -17.2512 -14.3432 5.5346 3.6167 21.8613
#
#
#
# Elastic Compliance Matrix: (Units=1/GPa)
#
#
# Indices 1 2 3 4 5 6 
#
# 1 0.010056 -0.003040 -0.003375 -0.000481 0.002814 0.003758
# 2 -0.003040 0.014211 -0.003903 0.006178 0.000097 0.004438
# 3 -0.003375 -0.003903 0.020982 -0.003145 -0.009150 0.010071
# 4 -0.000481 0.006178 -0.003145 0.037698 0.006513 -0.008227
# 5 0.002814 0.000097 -0.009150 0.006513 0.033360 -0.010656
# 6 0.003758 0.004438 0.010071 -0.008227 -0.010656 0.062956
#
#
# Mechanical properties :
#
#
# Convention : Reuss Voigt Hill
#
# Bulk Modulus (GPa) = 40.62907 60.13953 50.38430
# Shear Modulus (GPa) = 24.02645 30.61356 27.32001
#
# Velocity S-wave (km/s) = 3.54685 4.00364 3.78215
# Velocity P-wave (km/s) = 6.16820 7.27056 6.74195
#
# Compressibility (1/GPa) = 0.02461292
#
# Stress axis : x y z
#
# Youngs Moduli (GPa) = 99.44135 70.36842 47.65900
#
# Poissons Ratio (x) = 0.21394 0.16086
# Poissons Ratio (y) = 0.30234 0.18600
# Poissons Ratio (z) = 0.33564 0.27462
#
# Static dielectric constant tensor:
#      x y z
#    x 4.723760 -0.178020 -0.263040 
#    y -0.178020 3.392690 0.071040 
#    z -0.263040 0.071040 3.512060 
# 
# 
# High freq. dielectric constant tensor:
#      x y z
#    x 1.740240 -0.017350 0.006330 
#    y -0.017350 1.728280 0.011480 
#    z 0.006330 0.011480 1.739230 
# 
# From -- ./inp_files/470824.got.cif
#   From: 2010.06.25/outbox.cif.g09.slc.cpg/sg2_236_cif.got.tgz:470824.got - 2010.06.27 13:26:56.
