data_PCOD8009425
_publ_section_title
;
Structure prediction by ZEFSAII (Michael W. Deem and Ramdas Pophale) SiO2 
 PCOD8009425
Probable space group: P -1
;
_chemical_formula_sum "Si O2"
_cell_formula_units_Z 14
_cell_length_a 13.916553
_cell_length_b 6.985481
_cell_length_c 21.428589
_cell_angle_alpha 97.554013
_cell_angle_beta 22.471661
_cell_angle_gamma 84.484270
_cell_volume 646.192487
_symmetry_space_group_name_H-M "P -1"
_symmetry_group_IT_number 2
_symmetry_cell_setting 'triclinic'
loop_
_space_group_symop_operation_xyz
x,y,z
-x,-y,-z
loop_
_atom_site_type_symbol
_atom_site_label
_atom_site_fract_x
_atom_site_fract_y
_atom_site_fract_z
Si Si1 0.148336 0.627548 0.061466
Si Si2 0.117231 0.953948 0.997633
Si Si3 0.833482 0.273095 0.616295
Si Si4 0.854065 0.379833 0.267463
Si Si5 0.800068 0.580143 0.543310
Si Si6 0.373184 0.739616 0.049303
Si Si7 0.930238 0.761949 0.731138
O O1 0.197478 0.756559 0.093147
O O2 0.892976 0.583188 0.230428
O O3 0.027132 0.796141 0.080782
O O4 0.474379 0.382896 0.841814
O O5 0.483735 0.809899 0.767330
O O6 0.000000 0.000000 0.000000
O O7 0.974775 0.194854 0.130902
O O8 0.921814 0.361627 0.507377
O O9 0.957406 0.347407 0.603690
O O10 0.000000 0.000000 0.500000
O O11 0.500000 0.500000 0.500000
O O12 0.053979 0.260742 0.204577
O O13 0.774054 0.474350 0.488294
O O14 0.120268 0.989368 0.247254
O O15 0.500000 0.500000 0.000000
O O16 0.649801 0.763593 0.870083
#
# Coordination Sequence:
#
# PCOD8009425 Si02
#       7
#     2   2   2   2   2   2   2
#     4  11  23  43  68 101 133 176 227 271 340 402
#     4  11  25  48  68  93 137 182 224 282 331 398
#     4  10  21  36  63  96 133 173 210 270 332 403
#     4  12  26  45  70  96 132 180 233 283 330 396
#     4  10  22  38  63  97 132 170 220 265 335 399
#     4  11  22  38  66 101 139 173 212 276 342 407
#     4  11  23  39  66 101 138 172 217 277 340 400
#
# _framework density 21.665372000000001
#
# number of rings (size 3 to 8) (size 9 to 14) (size 15 to 20)
#    0.000    1.143    4.286    1.714    2.000    1.143 
#    0.000    1.429    0.000    0.000    0.000    0.000 
#    0.000    0.000    0.000    0.000    0.000    0.000 
#
# Total GULP energy -173521.860508 kJ/mol
# GULP energy per Si atom -12394.418608 kJ/mol
# Density = 2.161606 g / cm^3
# Si number density = 21.665372 Si / 1000 Ang^3
#
#
#
# Elastic Constant Matrix: (Units=GPa)
#
#
# Indices 1 2 3 4 5 6 
#
# 1 142.1984 70.9207 43.6483 12.3154 11.8347 10.8686
# 2 70.9207 165.9021 61.8396 6.0218 1.9686 9.1836
# 3 43.6483 61.8396 91.8272 1.1795 5.9654 13.2860
# 4 12.3154 6.0218 1.1795 40.5871 10.4929 7.5633
# 5 11.8347 1.9686 5.9654 10.4929 32.6284 9.9957
# 6 10.8686 9.1836 13.2860 7.5633 9.9957 32.3450
#
#
#
# Elastic Compliance Matrix: (Units=1/GPa)
#
#
# Indices 1 2 3 4 5 6 
#
# 1 0.009675 -0.003196 -0.002232 -0.001756 -0.002245 -0.000323
# 2 -0.003196 0.009173 -0.004769 -0.000701 0.001681 0.000073
# 3 -0.002232 -0.004769 0.015865 0.002049 -0.001065 -0.004563
# 4 -0.001756 -0.000701 0.002049 0.027920 -0.007354 -0.004309
# 5 -0.002245 0.001681 -0.001065 -0.007354 0.036644 -0.008890
# 6 -0.000323 0.000073 -0.004563 -0.004309 -0.008890 0.036634
#
#
# Mechanical properties :
#
#
# Convention : Reuss Voigt Hill
#
# Bulk Modulus (GPa) = 69.83004 83.63833 76.73419
# Shear Modulus (GPa) = 31.04109 36.01339 33.52724
#
# Velocity S-wave (km/s) = 3.78928 4.08150 3.93810
# Velocity P-wave (km/s) = 7.17258 7.80384 7.49486
#
# Compressibility (1/GPa) = 0.01432048
#
# Stress axis : x y z
#
# Youngs Moduli (GPa) = 103.36029 109.01651 63.03032
#
# Poissons Ratio (x) = 0.34840 0.14065
# Poissons Ratio (y) = 0.33032 0.30059
# Poissons Ratio (z) = 0.23065 0.51990
#
# Static dielectric constant tensor:
#      x y z
#    x 4.077070 0.094560 0.195240 
#    y 0.094560 4.093340 0.196150 
#    z 0.195240 0.196150 3.896290 
# 
# 
# High freq. dielectric constant tensor:
#      x y z
#    x 1.849740 0.010190 0.013220 
#    y 0.010190 1.860860 0.015040 
#    z 0.013220 0.015040 1.841730 
# 
# From -- ./inp_files/319180.got.cif
#   From: 2010.06.25/outbox.cif.g09.slc.cpg/sg2_160_cif.got.tgz:319180.got - 2010.06.27 13:26:56.
