data_PCOD8009585
_publ_section_title
;
Structure prediction by ZEFSAII (Michael W. Deem and Ramdas Pophale) SiO2 
 PCOD8009585
Probable space group: P -1
;
_chemical_formula_sum "Si O2"
_cell_formula_units_Z 14
_cell_length_a 14.515108
_cell_length_b 24.648371
_cell_length_c 25.202559
_cell_angle_alpha 11.827155
_cell_angle_beta 159.355328
_cell_angle_gamma 156.698821
_cell_volume 651.185949
_symmetry_space_group_name_H-M "P -1"
_symmetry_group_IT_number 2
_symmetry_cell_setting 'triclinic'
loop_
_space_group_symop_operation_xyz
x,y,z
-x,-y,-z
loop_
_atom_site_type_symbol
_atom_site_label
_atom_site_fract_x
_atom_site_fract_y
_atom_site_fract_z
Si Si1 0.125721 0.094294 0.805579
Si Si2 0.564771 0.113472 0.519585
Si Si3 0.411407 0.212901 0.948807
Si Si4 0.025985 0.787075 0.762503
Si Si5 0.758701 0.469540 0.634244
Si Si6 0.465346 0.789807 0.474640
Si Si7 0.676370 0.442421 0.099804
O O1 0.246714 0.325684 0.612940
O O2 0.247657 0.821984 0.114610
O O3 0.810266 0.077644 0.646419
O O4 0.181303 0.156056 0.838004
O O5 0.682142 0.161609 0.596138
O O6 0.375872 0.855324 0.662855
O O7 0.400676 0.363233 0.174930
O O8 0.677230 0.180235 0.087348
O O9 0.391412 0.006923 0.183660
O O10 0.390543 0.504234 0.683328
O O11 0.772159 0.818664 0.632426
O O12 0.000000 0.000000 0.500000
O O13 0.000000 0.500000 0.000000
O O14 0.500000 0.500000 0.500000
O O15 0.015440 0.519800 0.760054
O O16 0.500000 0.500000 0.000000
#
# Coordination Sequence:
#
# PCOD8009585 Si02
#       7
#     2   2   2   2   2   2   2
#     4  12  24  43  66  95 131 175 214 258 338 390
#     4  12  24  40  70  97 125 175 220 259 319 400
#     4  10  21  37  60  86 132 171 198 263 316 372
#     4   8  16  32  52  75 113 162 203 245 300 354
#     4  12  27  45  68  99 129 163 222 281 324 388
#     4  10  21  37  57  94 125 163 218 255 302 383
#     4  12  23  45  69  91 127 172 215 267 334 376
#
# _framework density 21.499234999999999
#
# number of rings (size 3 to 8) (size 9 to 14) (size 15 to 20)
#    0.000    1.143    2.857    3.429    0.000    3.429 
#    0.000    2.857    0.000    0.000    0.000    0.000 
#    0.000    0.000    0.000    0.000    0.000    0.000 
#
# Total GULP energy -173525.764006 kJ/mol
# GULP energy per Si atom -12394.697429 kJ/mol
# Density = 2.145030 g / cm^3
# Si number density = 21.499235 Si / 1000 Ang^3
#
#
#
# Elastic Constant Matrix: (Units=GPa)
#
#
# Indices 1 2 3 4 5 6 
#
# 1 115.2336 58.1695 46.3947 -16.4051 -10.5544 4.3338
# 2 58.1695 125.1071 47.0824 -19.5020 -1.3203 4.8381
# 3 46.3947 47.0824 126.3185 -30.6510 -26.0201 11.1460
# 4 -16.4051 -19.5020 -30.6510 64.4839 3.1266 5.8593
# 5 -10.5544 -1.3203 -26.0201 3.1266 37.3564 5.6237
# 6 4.3338 4.8381 11.1460 5.8593 5.6237 32.1863
#
#
#
# Elastic Compliance Matrix: (Units=1/GPa)
#
#
# Indices 1 2 3 4 5 6 
#
# 1 0.012207 -0.004731 -0.002133 0.000629 0.001838 -0.000629
# 2 -0.004731 0.011409 -0.002949 0.000968 -0.003116 0.000312
# 3 -0.002133 -0.002949 0.013529 0.005138 0.009266 -0.006509
# 4 0.000629 0.000968 0.005138 0.018794 0.003117 -0.005976
# 5 0.001838 -0.003116 0.009266 0.003117 0.034823 -0.009640
# 6 -0.000629 0.000312 -0.006509 -0.005976 -0.009640 0.036133
#
#
# Mechanical properties :
#
#
# Convention : Reuss Voigt Hill
#
# Bulk Modulus (GPa) = 57.08569 74.43917 65.76243
# Shear Modulus (GPa) = 32.81682 41.13951 36.97817
#
# Velocity S-wave (km/s) = 3.91118 4.37914 4.15176
# Velocity P-wave (km/s) = 6.85613 7.76328 7.32376
#
# Compressibility (1/GPa) = 0.01751753
#
# Stress axis : x y z
#
# Youngs Moduli (GPa) = 81.92302 87.65281 73.91451
#
# Poissons Ratio (x) = 0.41468 0.15768
# Poissons Ratio (y) = 0.38758 0.21799
# Poissons Ratio (z) = 0.17476 0.25850
#
# Static dielectric constant tensor:
#      x y z
#    x 3.789400 0.316800 0.088140 
#    y 0.316800 4.210970 0.025220 
#    z 0.088140 0.025220 4.217020 
# 
# 
# High freq. dielectric constant tensor:
#      x y z
#    x 1.829450 0.011860 -0.000610 
#    y 0.011860 1.851400 -0.005830 
#    z -0.000610 -0.005830 1.866920 
# 
# From -- ./inp_files/118599.got.cif
#   From: 2010.06.25/outbox.cif.g09.slc.cpg/sg2_60_cif.got.tgz:118599.got - 2010.06.27 13:26:56.
