data_PCOD8009735
_publ_section_title
;
Structure prediction by ZEFSAII (Michael W. Deem and Ramdas Pophale) SiO2 
 PCOD8009735
Probable space group: P -1
;
_chemical_formula_sum "Si O2"
_cell_formula_units_Z 16
_cell_length_a 10.986670
_cell_length_b 15.825164
_cell_length_c 6.035645
_cell_angle_alpha 62.987682
_cell_angle_beta 95.554191
_cell_angle_gamma 128.085550
_cell_volume 710.256345
_symmetry_space_group_name_H-M "P -1"
_symmetry_group_IT_number 2
_symmetry_cell_setting 'triclinic'
loop_
_space_group_symop_operation_xyz
x,y,z
-x,-y,-z
loop_
_atom_site_type_symbol
_atom_site_label
_atom_site_fract_x
_atom_site_fract_y
_atom_site_fract_z
Si Si1 0.678368 0.648195 0.200330
Si Si2 0.623523 0.918105 0.527160
Si Si3 0.122012 0.925643 0.239448
Si Si4 0.678629 0.495387 0.725234
Si Si5 0.390460 0.749161 0.033577
Si Si6 0.907608 0.733439 0.760865
Si Si7 0.209063 0.841126 0.969296
Si Si8 0.697330 0.838861 0.246966
O O1 0.704612 0.556401 0.415022
O O2 0.503747 0.573258 0.149293
O O3 0.700323 0.730064 0.315521
O O4 0.810234 0.738360 0.930844
O O5 0.445991 0.813733 0.721096
O O6 0.678503 0.848076 0.495999
O O7 0.736666 0.998373 0.653183
O O8 0.641078 0.014998 0.243769
O O9 0.953471 0.832577 0.455864
O O10 0.136934 0.839212 0.192882
O O11 0.138204 0.027634 0.967444
O O12 0.799725 0.594692 0.812508
O O13 0.708002 0.398001 0.829114
O O14 0.272902 0.766972 0.100482
O O15 0.543508 0.811427 0.141038
O O16 0.071097 0.772064 0.840452
#
# Coordination Sequence:
#
# PCOD8009735 Si02
#       8
#     2   2   2   2   2   2   2   2
#     4  10  22  41  61  84 115 149 191 245 287 330
#     4   9  19  36  60  90 117 148 190 234 288 344
#     4   9  20  38  58  87 119 151 189 233 288 343
#     4  10  23  40  60  85 111 150 198 240 283 334
#     4  10  21  37  60  88 117 152 192 235 284 339
#     4  11  22  39  60  82 117 157 192 230 285 345
#     4  10  21  38  59  87 122 151 184 236 289 340
#     4   9  20  37  60  89 117 147 190 240 288 336
#
# _framework density 22.527080000000002
#
# number of rings (size 3 to 8) (size 9 to 14) (size 15 to 20)
#    0.000    2.250    0.000    1.500    0.000   13.500 
#    0.000   11.250    0.000    0.000    0.000    0.000 
#    0.000    0.000    0.000    0.000    0.000    0.000 
#
# Total GULP energy -198342.576818 kJ/mol
# GULP energy per Si atom -12396.411051 kJ/mol
# Density = 2.247581 g / cm^3
# Si number density = 22.527080 Si / 1000 Ang^3
#
#
#
# Elastic Constant Matrix: (Units=GPa)
#
#
# Indices 1 2 3 4 5 6 
#
# 1 22.7923 31.2030 27.8867 -16.8682 -12.0614 6.0621
# 2 31.2030 138.8906 33.4068 -5.1335 -4.7354 -10.4046
# 3 27.8867 33.4068 93.1965 -8.2654 -22.7732 -7.8351
# 4 -16.8682 -5.1335 -8.2654 33.4098 -1.5852 2.7396
# 5 -12.0614 -4.7354 -22.7732 -1.5852 28.5084 1.0810
# 6 6.0621 -10.4046 -7.8351 2.7396 1.0810 25.3694
#
#
#
# Elastic Compliance Matrix: (Units=1/GPa)
#
#
# Indices 1 2 3 4 5 6 
#
# 1 -0.505632 0.097599 0.073200 -0.247633 -0.161240 0.217070
# 2 0.097599 -0.010782 -0.017053 0.048065 0.030049 -0.039481
# 3 0.073200 -0.017053 0.004596 0.039504 0.035098 -0.028827
# 4 -0.247633 0.048065 0.039504 -0.089982 -0.074175 0.103964
# 5 -0.161240 0.030049 0.035098 -0.074175 -0.006891 0.069996
# 6 0.217070 -0.039481 -0.028827 0.103964 0.069996 -0.051757
#
#
# Mechanical properties :
#
#
# Convention : Reuss Voigt Hill
#
# Bulk Modulus (GPa) = -4.89415 48.87472 21.99028
# Shear Modulus (GPa) = -4.82603 28.28304 11.72850
#
# Velocity S-wave (km/s) = -1.46526 3.54717 2.28423
# Velocity P-wave (km/s) = 2.24497 6.20642 4.09144
#
# Compressibility (1/GPa) = -0.20432557
#
# Stress axis : x y z
#
# Youngs Moduli (GPa) = -1.97772 -92.75116 217.57690
#
# Poissons Ratio (x) = 9.05246 -15.92661
# Poissons Ratio (y) = 0.19302 3.71040
# Poissons Ratio (z) = 0.14477 -1.58171
#
# Static dielectric constant tensor:
#      x y z
#    x 3.682310 0.044260 -0.261680 
#    y 0.044260 4.203510 -0.179560 
#    z -0.261680 -0.179560 4.464340 
# 
# 
# High freq. dielectric constant tensor:
#      x y z
#    x 1.856760 0.002390 -0.008790 
#    y 0.002390 1.897330 0.000830 
#    z -0.008790 0.000830 1.890350 
# 
# From -- ./inp_files/71708.got.cif
#   From: 2010.06.25/outbox.cif.g09.slc.cpg/sg2_36_cif.got.tgz:71708.got - 2010.06.27 13:26:56.
