data_PCOD8009615
_publ_section_title
;
Structure prediction by ZEFSAII (Michael W. Deem and Ramdas Pophale) SiO2 
 PCOD8009615
Probable space group: P -1
;
_chemical_formula_sum "Si O2"
_cell_formula_units_Z 14
_cell_length_a 8.557393
_cell_length_b 19.662515
_cell_length_c 15.901503
_cell_angle_alpha 162.226257
_cell_angle_beta 129.173504
_cell_angle_gamma 50.696290
_cell_volume 627.388888
_symmetry_space_group_name_H-M "P -1"
_symmetry_group_IT_number 2
_symmetry_cell_setting 'triclinic'
loop_
_space_group_symop_operation_xyz
x,y,z
-x,-y,-z
loop_
_atom_site_type_symbol
_atom_site_label
_atom_site_fract_x
_atom_site_fract_y
_atom_site_fract_z
Si Si1 0.693373 0.720983 0.626279
Si Si2 0.912367 0.277003 0.155898
Si Si3 0.952183 0.511191 0.095065
Si Si4 0.282879 0.023399 0.378448
Si Si5 0.326882 0.562193 0.400937
Si Si6 0.364793 0.737708 0.229101
Si Si7 0.314816 0.783647 0.829537
O O1 0.783911 0.507298 0.346008
O O2 0.467393 0.702779 0.558924
O O3 0.844583 0.724382 0.763298
O O4 0.682362 0.952080 0.845104
O O5 0.849861 0.284673 0.242115
O O6 0.860438 0.050269 0.829360
O O7 0.815935 0.749620 0.343325
O O8 0.148749 0.494950 0.202282
O O9 0.836355 0.295223 0.824384
O O10 0.000000 0.500000 0.000000
O O11 0.499872 0.070097 0.466339
O O12 0.307302 0.813501 0.203690
O O13 0.243225 0.717448 0.634257
O O14 0.458093 0.335388 0.212821
O O15 0.500000 0.500000 0.000000
#
# Coordination Sequence:
#
# PCOD8009615 Si02
#       7
#     2   2   2   2   2   2   2
#     4  10  21  37  58  87 125 161 199 245 300 366
#     4  10  22  37  61  94 120 157 208 248 302 373
#     4  11  25  43  64  92 124 164 211 256 310 370
#     4  10  22  42  65  89 123 163 206 261 311 361
#     4  10  23  39  59  92 128 162 202 246 305 373
#     4   9  22  42  64  88 118 160 212 259 306 361
#     4  10  21  38  61  90 126 162 199 249 307 363
#
# _framework density 22.314708
#
# number of rings (size 3 to 8) (size 9 to 14) (size 15 to 20)
#    0.000    2.000    0.000    1.714    0.000   16.571 
#    0.000    0.000    0.000    0.000    0.000    0.000 
#    0.000    0.000    0.000    0.000    0.000    0.000 
#
# Total GULP energy -173463.573336 kJ/mol
# GULP energy per Si atom -12390.255238 kJ/mol
# Density = 2.226392 g / cm^3
# Si number density = 22.314708 Si / 1000 Ang^3
#
#
#
# Elastic Constant Matrix: (Units=GPa)
#
#
# Indices 1 2 3 4 5 6 
#
# 1 98.9397 34.8822 47.8736 -13.7171 27.7750 -0.4474
# 2 34.8822 97.4104 42.8476 -4.9729 11.7068 -4.1502
# 3 47.8736 42.8476 122.3524 -2.3707 17.5409 5.9137
# 4 -13.7171 -4.9729 -2.3707 53.1761 -3.0645 6.1796
# 5 27.7750 11.7068 17.5409 -3.0645 38.6125 -1.0432
# 6 -0.4474 -4.1502 5.9137 6.1796 -1.0432 22.8858
#
#
#
# Elastic Compliance Matrix: (Units=1/GPa)
#
#
# Indices 1 2 3 4 5 6 
#
# 1 0.015809 -0.002773 -0.003911 0.003205 -0.008512 -0.000436
# 2 -0.002773 0.013002 -0.003592 -0.000049 -0.000232 0.003235
# 3 -0.003911 -0.003592 0.011322 -0.000503 -0.001378 -0.003580
# 4 0.003205 -0.000049 -0.000503 0.020186 -0.000603 -0.005294
# 5 -0.008512 -0.000232 -0.001378 -0.000603 0.032718 0.001802
# 6 -0.000436 0.003235 -0.003580 -0.005294 0.001802 0.046710
#
#
# Mechanical properties :
#
#
# Convention : Reuss Voigt Hill
#
# Bulk Modulus (GPa) = 51.07058 63.32325 57.19691
# Shear Modulus (GPa) = 29.97115 35.80816 32.88965
#
# Velocity S-wave (km/s) = 3.66883 4.01020 3.84331
# Velocity P-wave (km/s) = 6.39400 7.06267 6.73663
#
# Compressibility (1/GPa) = 0.01958075
#
# Stress axis : x y z
#
# Youngs Moduli (GPa) = 63.25479 76.91031 88.32100
#
# Poissons Ratio (x) = 0.21325 0.34544
# Poissons Ratio (y) = 0.17539 0.31729
# Poissons Ratio (z) = 0.24740 0.27629
#
# Static dielectric constant tensor:
#      x y z
#    x 4.150430 -0.170340 0.262410 
#    y -0.170340 3.956660 0.192440 
#    z 0.262410 0.192440 4.193090 
# 
# 
# High freq. dielectric constant tensor:
#      x y z
#    x 1.870900 -0.013210 0.021240 
#    y -0.013210 1.873680 0.015320 
#    z 0.021240 0.015320 1.886300 
# 
# From -- ./inp_files/507382.got.cif
#   From: 2010.06.25/outbox.cif.g09.slc.cpg/sg2_254_cif.got.tgz:507382.got - 2010.06.27 13:26:56.
