data_PCOD8009919
_publ_section_title
;
Structure prediction by ZEFSAII (Michael W. Deem and Ramdas Pophale) SiO2 
 PCOD8009919
Probable space group: P -1
;
_chemical_formula_sum "Si O2"
_cell_formula_units_Z 16
_cell_length_a 18.164598
_cell_length_b 16.318222
_cell_length_c 11.477168
_cell_angle_alpha 157.666475
_cell_angle_beta 131.621783
_cell_angle_gamma 37.977340
_cell_volume 764.223892
_symmetry_space_group_name_H-M "P -1"
_symmetry_group_IT_number 2
_symmetry_cell_setting 'triclinic'
loop_
_space_group_symop_operation_xyz
x,y,z
-x,-y,-z
loop_
_atom_site_type_symbol
_atom_site_label
_atom_site_fract_x
_atom_site_fract_y
_atom_site_fract_z
Si Si1 0.336978 0.515730 0.333338
Si Si2 0.114159 0.898640 0.066441
Si Si3 0.341324 0.000798 0.628468
Si Si4 0.907559 0.482627 0.303998
Si Si5 0.308630 0.926846 0.233579
Si Si6 0.076198 0.216746 0.642940
Si Si7 0.054692 0.996853 0.673444
Si Si8 0.511121 0.512599 0.330584
O O1 0.202879 0.810240 0.583373
O O2 0.408766 0.517216 0.300774
O O3 0.401467 0.478637 0.475308
O O4 0.322956 0.280223 0.991052
O O5 0.239337 0.784844 0.975784
O O6 0.088979 0.174608 0.460730
O O7 0.141371 0.663572 0.871405
O O8 0.000000 0.000000 0.000000
O O9 0.364741 0.913337 0.401888
O O10 0.453986 0.768167 0.520314
O O11 0.218315 0.046716 0.612414
O O12 0.000000 0.500000 0.500000
O O13 0.783202 0.766328 0.506521
O O14 0.993784 0.306217 0.051166
O O15 0.417245 0.757268 0.029059
O O16 0.999346 0.101206 0.422662
O O17 0.000000 0.500000 0.000000
O O18 0.000000 0.000000 0.500000
#
# Coordination Sequence:
#
# PCOD8009919 Si02
#       8
#     2   2   2   2   2   2   2   2
#     4  11  24  44  66  94 132 172 221 273 325 392
#     4  10  22  38  61  95 131 166 211 261 329 391
#     4  11  23  43  68  95 130 170 223 271 331 388
#     4  11  22  38  62  96 132 168 208 264 331 387
#     4  11  24  42  66  94 133 172 222 271 322 393
#     4  10  21  37  62  95 125 158 206 267 328 385
#     4  11  22  38  65  96 131 163 208 270 333 388
#     4  11  26  45  64  94 130 178 229 266 316 391
#
# _framework density 20.936274000000001
#
# number of rings (size 3 to 8) (size 9 to 14) (size 15 to 20)
#    0.000    1.250    2.500    3.000    3.500    3.500 
#    0.000    2.500    0.000    0.000    0.000    0.000 
#    0.000    0.000    0.000    0.000    0.000    0.000 
#
# Total GULP energy -198227.346529 kJ/mol
# GULP energy per Si atom -12389.209158 kJ/mol
# Density = 2.088862 g / cm^3
# Si number density = 20.936274 Si / 1000 Ang^3
#
#
#
# Elastic Constant Matrix: (Units=GPa)
#
#
# Indices 1 2 3 4 5 6 
#
# 1 98.7442 39.5271 40.1619 7.1385 -11.8240 -8.2361
# 2 39.5271 132.2174 43.6357 1.3721 -12.7140 4.9909
# 3 40.1619 43.6357 122.3422 4.4907 -18.2957 -1.3974
# 4 7.1385 1.3721 4.4907 40.0732 -1.4651 0.9464
# 5 -11.8240 -12.7140 -18.2957 -1.4651 33.5537 -0.0377
# 6 -8.2361 4.9909 -1.3974 0.9464 -0.0377 35.8438
#
#
#
# Elastic Compliance Matrix: (Units=1/GPa)
#
#
# Indices 1 2 3 4 5 6 
#
# 1 0.013099 -0.002892 -0.002880 -0.001922 0.001869 0.003353
# 2 -0.002892 0.009366 -0.002236 0.000543 0.001332 -0.002069
# 3 -0.002880 -0.002236 0.010510 -0.000449 0.003849 0.000075
# 4 -0.001922 0.000543 -0.000449 0.025371 0.000390 -0.001204
# 5 0.001869 0.001332 0.003849 0.000390 0.033083 0.000419
# 6 0.003353 -0.002069 0.000075 -0.001204 0.000419 0.028993
#
#
# Mechanical properties :
#
#
# Convention : Reuss Voigt Hill
#
# Bulk Modulus (GPa) = 58.96577 66.66148 62.81363
# Shear Modulus (GPa) = 35.18898 37.22607 36.20753
#
# Velocity S-wave (km/s) = 4.10416 4.22129 4.16314
# Velocity P-wave (km/s) = 7.11930 7.46112 7.29221
#
# Compressibility (1/GPa) = 0.01695899
#
# Stress axis : x y z
#
# Youngs Moduli (GPa) = 76.34270 106.76527 95.15187
#
# Poissons Ratio (x) = 0.30880 0.27404
# Poissons Ratio (y) = 0.22081 0.21271
# Poissons Ratio (z) = 0.21987 0.23868
#
# Static dielectric constant tensor:
#      x y z
#    x 5.668260 0.831350 -1.677320 
#    y 0.831350 4.025280 -1.020350 
#    z -1.677320 -1.020350 5.431430 
# 
# 
# High freq. dielectric constant tensor:
#      x y z
#    x 1.832040 -0.000910 -0.008320 
#    y -0.000910 1.822920 -0.012370 
#    z -0.008320 -0.012370 1.829170 
# 
# From -- ./inp_files/472541.got.cif
#   From: 2010.06.25/outbox.cif.g09.slc.cpg/sg2_237_cif.got.tgz:472541.got - 2010.06.27 13:26:56.
