data_PCOD8009378
_publ_section_title
;
Structure prediction by ZEFSAII (Michael W. Deem and Ramdas Pophale) SiO2 
 PCOD8009378
Probable space group: P -1
;
_chemical_formula_sum "Si O2"
_cell_formula_units_Z 14
_cell_length_a 23.263893
_cell_length_b 5.194554
_cell_length_c 5.616394
_cell_angle_alpha 107.753036
_cell_angle_beta 118.409390
_cell_angle_gamma 68.337003
_cell_volume 547.831851
_symmetry_space_group_name_H-M "P -1"
_symmetry_group_IT_number 2
_symmetry_cell_setting 'triclinic'
loop_
_space_group_symop_operation_xyz
x,y,z
-x,-y,-z
loop_
_atom_site_type_symbol
_atom_site_label
_atom_site_fract_x
_atom_site_fract_y
_atom_site_fract_z
Si Si1 0.578999 0.503387 0.947904
Si Si2 0.330709 0.119879 0.012507
Si Si3 0.294711 0.313445 0.497164
Si Si4 0.915868 0.890586 0.936137
Si Si5 0.777134 0.047221 0.491359
Si Si6 0.957116 0.406596 0.189578
Si Si7 0.454342 0.303082 0.561801
O O1 0.499547 0.523303 0.745941
O O2 0.597095 0.619880 0.752492
O O3 0.617549 0.184090 0.994052
O O4 0.584682 0.680365 0.253459
O O5 0.254059 0.077382 0.833589
O O6 0.336646 0.310174 0.834224
O O7 0.339867 0.245132 0.326383
O O8 0.242883 0.617550 0.452215
O O9 0.254966 0.071848 0.375169
O O10 0.902940 0.680961 0.054881
O O11 0.914738 0.192580 0.136729
O O12 0.991258 0.754604 0.953792
O O13 0.858689 0.932768 0.629729
O O14 0.000000 0.500000 0.500000
O O15 0.500000 0.000000 0.500000
#
# Coordination Sequence:
#
# PCOD8009378 Si02
#       7
#     2   2   2   2   2   2   2
#     4  10  21  39  59  90 124 158 214 250 316 374
#     4  10  24  41  64  92 129 174 213 267 316 386
#     4  10  24  41  64  90 130 167 221 255 326 371
#     4  10  21  39  60  90 125 152 215 246 318 374
#     4  10  24  40  63  94 127 173 209 271 315 385
#     4  10  21  38  62  91 120 165 196 260 307 378
#     4  10  21  36  62  91 123 163 202 261 310 372
#
# _framework density 25.555285999999999
#
# number of rings (size 3 to 8) (size 9 to 14) (size 15 to 20)
#    0.857    1.143    0.000    2.571    2.000    4.571 
#    0.000    0.000    0.000    0.000    0.000    0.000 
#    0.000    0.000    0.000    0.000    0.000    0.000 
#
# Total GULP energy -173484.330724 kJ/mol
# GULP energy per Si atom -12391.737909 kJ/mol
# Density = 2.549712 g / cm^3
# Si number density = 25.555286 Si / 1000 Ang^3
#
#
#
# Elastic Constant Matrix: (Units=GPa)
#
#
# Indices 1 2 3 4 5 6 
#
# 1 63.8745 38.3163 42.6981 -12.1789 1.8467 17.7183
# 2 38.3163 175.9015 73.9970 -29.3691 -8.7022 23.9119
# 3 42.6981 73.9970 198.7133 -7.9513 21.3537 -3.4121
# 4 -12.1789 -29.3691 -7.9513 40.0770 -0.0276 0.3709
# 5 1.8467 -8.7022 21.3537 -0.0276 40.4106 -4.1605
# 6 17.7183 23.9119 -3.4121 0.3709 -4.1605 34.3447
#
#
#
# Elastic Compliance Matrix: (Units=1/GPa)
#
#
# Indices 1 2 3 4 5 6 
#
# 1 0.023858 -0.000358 -0.004983 0.006116 0.000173 -0.012599
# 2 -0.000358 0.009318 -0.003612 0.006063 0.003284 -0.006329
# 3 -0.004983 -0.003612 0.007882 -0.002650 -0.004161 0.005393
# 4 0.006116 0.006063 -0.002650 0.030801 0.001647 -0.007773
# 5 0.000173 0.003284 -0.004161 0.001647 0.027702 0.000549
# 6 -0.012599 -0.006329 0.005393 -0.007773 0.000549 0.040709
#
#
# Mechanical properties :
#
#
# Convention : Reuss Voigt Hill
#
# Bulk Modulus (GPa) = 43.19516 83.16801 63.18159
# Shear Modulus (GPa) = 30.14021 41.86500 36.00261
#
# Velocity S-wave (km/s) = 3.43798 4.05188 3.75749
# Velocity P-wave (km/s) = 5.71830 7.38277 6.60319
#
# Compressibility (1/GPa) = 0.02315074
#
# Stress axis : x y z
#
# Youngs Moduli (GPa) = 41.91552 107.32483 126.87524
#
# Poissons Ratio (x) = 0.03846 0.63223
# Poissons Ratio (y) = 0.01502 0.45822
# Poissons Ratio (z) = 0.20887 0.38761
#
# Static dielectric constant tensor:
#      x y z
#    x 4.814500 0.333260 0.057600 
#    y 0.333260 4.876020 -0.112380 
#    z 0.057600 -0.112380 5.218440 
# 
# 
# High freq. dielectric constant tensor:
#      x y z
#    x 2.030950 0.034970 0.024440 
#    y 0.034970 2.015850 -0.008830 
#    z 0.024440 -0.008830 2.056250 
# 
# From -- ./inp_files/125921.got.cif
#   From: 2010.06.25/outbox.cif.g09.slc.cpg/sg2_63_cif.got.tgz:125921.got - 2010.06.27 13:26:56.
