data_PCOD8009385
_publ_section_title
;
Structure prediction by ZEFSAII (Michael W. Deem and Ramdas Pophale) SiO2 
 PCOD8009385
Probable space group: P -1
;
_chemical_formula_sum "Si O2"
_cell_formula_units_Z 16
_cell_length_a 12.184834
_cell_length_b 22.583873
_cell_length_c 5.035851
_cell_angle_alpha 83.911253
_cell_angle_beta 82.216269
_cell_angle_gamma 30.671766
_cell_volume 700.245371
_symmetry_space_group_name_H-M "P -1"
_symmetry_group_IT_number 2
_symmetry_cell_setting 'triclinic'
loop_
_space_group_symop_operation_xyz
x,y,z
-x,-y,-z
loop_
_atom_site_type_symbol
_atom_site_label
_atom_site_fract_x
_atom_site_fract_y
_atom_site_fract_z
Si Si1 0.833816 0.176733 0.179997
Si Si2 0.455692 0.239634 0.800522
Si Si3 0.258273 0.910193 0.729796
Si Si4 0.618928 0.471665 0.229784
Si Si5 0.288676 0.199733 0.780501
Si Si6 0.546871 0.326030 0.715550
Si Si7 0.100833 0.228782 0.333450
Si Si8 0.212787 0.046095 0.412911
O O1 0.894575 0.077640 0.191181
O O2 0.654045 0.277971 0.411350
O O3 0.061425 0.104915 0.178225
O O4 0.743792 0.238200 0.898036
O O5 0.610037 0.166714 0.536172
O O6 0.254609 0.286708 0.805630
O O7 0.396305 0.336754 0.810137
O O8 0.580726 0.155670 0.050239
O O9 0.139697 0.028753 0.661807
O O10 0.500000 0.500000 0.500000
O O11 0.610535 0.546727 0.226877
O O12 0.865823 0.337486 0.226831
O O13 0.500000 0.500000 0.000000
O O14 0.123522 0.260858 0.567336
O O15 0.534913 0.075841 0.670843
O O16 0.257758 0.175718 0.068472
O O17 0.164923 0.135127 0.479262
#
# Coordination Sequence:
#
# PCOD8009385 Si02
#       8
#     2   2   2   2   2   2   2   2
#     4  10  21  36  62  94 122 153 200 248 301 359
#     4   9  19  38  61  83 118 159 199 247 295 344
#     4   9  19  34  56  89 121 155 198 245 295 351
#     4  12  25  45  68  93 121 153 194 252 307 355
#     4  11  24  42  58  86 124 163 202 245 287 350
#     4  10  21  40  63  91 120 155 200 253 304 348
#     4  12  26  41  61  89 121 160 205 243 292 361
#     4  11  22  38  60  87 125 168 197 239 296 356
#
# _framework density 22.849131
#
# number of rings (size 3 to 8) (size 9 to 14) (size 15 to 20)
#    0.000    1.500    0.000    5.625    0.000    6.000 
#    0.000    8.750    0.000    0.000    0.000    0.000 
#    0.000    0.000    0.000    0.000    0.000    0.000 
#
# Total GULP energy -198293.816615 kJ/mol
# GULP energy per Si atom -12393.363538 kJ/mol
# Density = 2.279713 g / cm^3
# Si number density = 22.849131 Si / 1000 Ang^3
#
#
#
# Elastic Constant Matrix: (Units=GPa)
#
#
# Indices 1 2 3 4 5 6 
#
# 1 130.1818 40.2655 12.9008 -14.3579 25.8138 18.3656
# 2 40.2655 84.9000 5.9295 -1.7852 -3.7021 24.2469
# 3 12.9008 5.9295 91.1723 -13.3108 29.5548 6.8476
# 4 -14.3579 -1.7852 -13.3108 21.5166 5.5508 -1.5776
# 5 25.8138 -3.7021 29.5548 5.5508 28.3368 -1.5726
# 6 18.3656 24.2469 6.8476 -1.5776 -1.5726 39.4714
#
#
#
# Elastic Compliance Matrix: (Units=1/GPa)
#
#
# Indices 1 2 3 4 5 6 
#
# 1 0.032440 -0.016415 0.029832 0.057193 -0.074618 -0.010873
# 2 -0.016415 0.022741 -0.016620 -0.030146 0.040997 -0.003020
# 3 0.029832 -0.016620 0.051906 0.075171 -0.098966 -0.013614
# 4 0.057193 -0.030146 0.075171 0.170710 -0.169050 -0.021046
# 5 -0.074618 0.040997 -0.098966 -0.169050 0.246607 0.029773
# 6 -0.010873 -0.003020 -0.013614 -0.021046 0.029773 0.034956
#
#
# Mechanical properties :
#
#
# Convention : Reuss Voigt Hill
#
# Bulk Modulus (GPa) = 9.93233 47.16063 28.54648
# Shear Modulus (GPa) = 8.34270 34.34217 21.34244
#
# Velocity S-wave (km/s) = 1.91289 3.88106 3.05955
# Velocity P-wave (km/s) = 3.03895 6.38500 5.00017
#
# Compressibility (1/GPa) = 0.10068132
#
# Stress axis : x y z
#
# Youngs Moduli (GPa) = 30.82607 43.97427 19.26548
#
# Poissons Ratio (x) = 0.72182 -0.57473
# Poissons Ratio (y) = 0.50600 0.32020
# Poissons Ratio (z) = -0.91961 0.73087
#
# Static dielectric constant tensor:
#      x y z
#    x 4.921520 0.555550 -0.014730 
#    y 0.555550 3.725730 -0.198870 
#    z -0.014730 -0.198870 4.238710 
# 
# 
# High freq. dielectric constant tensor:
#      x y z
#    x 1.923380 0.021460 0.006780 
#    y 0.021460 1.861570 -0.006500 
#    z 0.006780 -0.006500 1.920460 
# 
# From -- ./inp_files/83229.got.cif
#   From: 2010.06.25/outbox.cif.g09.slc.cpg/sg2_42_cif.got.tgz:83229.got - 2010.06.27 13:26:56.
