data_PCOD8009896
_publ_section_title
;
Structure prediction by ZEFSAII (Michael W. Deem and Ramdas Pophale) SiO2 
 PCOD8009896
Probable space group: P -1
;
_chemical_formula_sum "Si O2"
_cell_formula_units_Z 12
_cell_length_a 10.978179
_cell_length_b 11.648770
_cell_length_c 6.466707
_cell_angle_alpha 78.997446
_cell_angle_beta 58.865920
_cell_angle_gamma 118.931708
_cell_volume 500.807391
_symmetry_space_group_name_H-M "P -1"
_symmetry_group_IT_number 2
_symmetry_cell_setting 'triclinic'
loop_
_space_group_symop_operation_xyz
x,y,z
-x,-y,-z
loop_
_atom_site_type_symbol
_atom_site_label
_atom_site_fract_x
_atom_site_fract_y
_atom_site_fract_z
Si Si1 0.767773 0.855048 0.472560
Si Si2 0.276485 0.388422 0.167293
Si Si3 0.454315 0.888179 0.268069
Si Si4 0.896782 0.785780 0.023437
Si Si5 0.213224 0.816167 0.888658
Si Si6 0.347236 0.677661 0.079942
O O1 0.842774 0.786102 0.564590
O O2 0.549082 0.774669 0.742209
O O3 0.919262 0.046957 0.312107
O O4 0.772581 0.812573 0.246152
O O5 0.250819 0.361604 0.953531
O O6 0.500000 0.500000 0.000000
O O7 0.213613 0.483828 0.258043
O O8 0.272364 0.821658 0.596875
O O9 0.647618 0.998957 0.208283
O O10 0.400110 0.735262 0.254554
O O11 0.500000 0.000000 0.000000
O O12 0.990218 0.738285 0.106094
O O13 0.223848 0.709494 0.064572
#
# Coordination Sequence:
#
# PCOD8009896 Si02
#       6
#     2   2   2   2   2   2
#     4  10  23  41  64  89 119 160 204 248 295 355
#     4  10  24  41  59  87 124 165 200 241 302 362
#     4   9  18  35  59  88 122 156 196 240 295 359
#     4  11  23  40  63  92 122 155 203 254 299 352
#     4  10  21  37  62  92 120 155 200 251 300 351
#     4  10  22  40  64  91 121 161 199 243 304 360
#
# _framework density 23.961309
#
# number of rings (size 3 to 8) (size 9 to 14) (size 15 to 20)
#    0.000    2.000    0.000    3.500    0.000   16.667 
#    0.000    1.667    0.000    0.000    0.000    0.000 
#    0.000    0.000    0.000    0.000    0.000    0.000 
#
# Total GULP energy -148717.525729 kJ/mol
# GULP energy per Si atom -12393.127144 kJ/mol
# Density = 2.390677 g / cm^3
# Si number density = 23.961309 Si / 1000 Ang^3
#
#
#
# Elastic Constant Matrix: (Units=GPa)
#
#
# Indices 1 2 3 4 5 6 
#
# 1 116.6516 62.7107 17.8217 2.7333 3.0329 -2.0769
# 2 62.7107 169.2565 13.4766 32.6519 7.2522 3.3752
# 3 17.8217 13.4766 40.9752 16.6677 0.2564 4.0026
# 4 2.7333 32.6519 16.6677 30.5872 -5.6792 10.2423
# 5 3.0329 7.2522 0.2564 -5.6792 29.1796 -4.3828
# 6 -2.0769 3.3752 4.0026 10.2423 -4.3828 41.4190
#
#
#
# Elastic Compliance Matrix: (Units=1/GPa)
#
#
# Indices 1 2 3 4 5 6 
#
# 1 0.012740 -0.006150 -0.007605 0.010108 0.002179 -0.000394
# 2 -0.006150 0.010916 0.005218 -0.015383 -0.004876 0.001586
# 3 -0.007605 0.005218 0.036637 -0.026452 -0.005738 0.001587
# 4 0.010108 -0.015383 -0.026452 0.069124 0.014774 -0.011213
# 5 0.002179 -0.004876 -0.005738 0.014774 0.038403 0.001471
# 6 -0.000394 0.001586 0.001587 -0.011213 0.001471 0.026770
#
#
# Mechanical properties :
#
#
# Convention : Reuss Voigt Hill
#
# Bulk Modulus (GPa) = 23.13806 57.21127 40.17466
# Shear Modulus (GPa) = 22.11682 35.76209 28.93945
#
# Velocity S-wave (km/s) = 3.04142 3.86747 3.47905
# Velocity P-wave (km/s) = 4.69160 6.62355 5.73945
#
# Compressibility (1/GPa) = 0.04321883
#
# Stress axis : x y z
#
# Youngs Moduli (GPa) = 78.49163 91.60561 27.29445
#
# Poissons Ratio (x) = 0.56339 0.20758
# Poissons Ratio (y) = 0.48274 -0.14241
# Poissons Ratio (z) = 0.59694 -0.47797
#
# Static dielectric constant tensor:
#      x y z
#    x 4.346600 -0.344850 0.328310 
#    y -0.344850 4.991160 0.104920 
#    z 0.328310 0.104920 4.134590 
# 
# 
# High freq. dielectric constant tensor:
#      x y z
#    x 1.944010 -0.009440 0.011320 
#    y -0.009440 1.958430 0.015020 
#    z 0.011320 0.015020 1.930530 
# 
# From -- ./inp_files/25211.got.cif
#   From: 2010.06.25/outbox.cif.g09.slc.cpg/sg2_13_cif.got.tgz:25211.got - 2010.06.27 13:26:56.
