data_PCOD8009582
_publ_section_title
;
Structure prediction by ZEFSAII (Michael W. Deem and Ramdas Pophale) SiO2 
 PCOD8009582
Probable space group: P -1
;
_chemical_formula_sum "Si O2"
_cell_formula_units_Z 16
_cell_length_a 8.318896
_cell_length_b 17.465663
_cell_length_c 20.476389
_cell_angle_alpha 19.483060
_cell_angle_beta 117.057856
_cell_angle_gamma 125.999572
_cell_volume 746.522072
_symmetry_space_group_name_H-M "P -1"
_symmetry_group_IT_number 2
_symmetry_cell_setting 'triclinic'
loop_
_space_group_symop_operation_xyz
x,y,z
-x,-y,-z
loop_
_atom_site_type_symbol
_atom_site_label
_atom_site_fract_x
_atom_site_fract_y
_atom_site_fract_z
Si Si1 0.315841 0.026470 0.475805
Si Si2 0.116997 0.778226 0.070763
Si Si3 0.832343 0.690757 0.201000
Si Si4 0.045207 0.560477 0.090313
Si Si5 0.251615 0.452347 0.423776
Si Si6 0.708808 0.590836 0.394222
Si Si7 0.972862 0.004716 0.341522
Si Si8 0.376026 0.412648 0.287939
O O1 0.147561 0.749349 0.704695
O O2 0.500000 0.000000 0.500000
O O3 0.418193 0.271381 0.349133
O O4 0.197660 0.096491 0.342381
O O5 0.026974 0.670359 0.068997
O O6 0.291224 0.704502 0.183407
O O7 0.926246 0.604602 0.228288
O O8 0.215869 0.094928 0.838242
O O9 0.796684 0.531945 0.391371
O O10 0.602667 0.636111 0.181539
O O11 0.000000 0.000000 0.000000
O O12 0.268388 0.576204 0.112393
O O13 0.028549 0.730476 0.892044
O O14 0.452459 0.416974 0.485307
O O15 0.210447 0.493146 0.459490
O O16 0.050282 0.172303 0.584257
O O17 0.775055 0.817667 0.502934
#
# Coordination Sequence:
#
# PCOD8009582 Si02
#       8
#     2   2   2   2   2   2   2   2
#     4  11  25  44  70  94 128 163 202 259 324 378
#     4  11  20  36  62  87 124 170 203 257 312 362
#     4  10  22  40  60  91 131 168 211 256 315 373
#     4  11  22  41  68  96 125 164 214 259 309 373
#     4  11  20  36  62  88 122 163 211 255 309 369
#     4  10  21  37  57  90 124 165 212 255 305 370
#     4  11  22  41  67  96 126 164 211 261 310 373
#     4  11  23  43  66  93 126 167 212 260 311 372
#
# _framework density 21.432721999999998
#
# number of rings (size 3 to 8) (size 9 to 14) (size 15 to 20)
#    0.000    1.250    5.000    2.625    0.000    4.000 
#    0.000    3.750    0.000    0.000    0.000    0.000 
#    0.000    0.000    0.000    0.000    0.000    0.000 
#
# Total GULP energy -198343.231488 kJ/mol
# GULP energy per Si atom -12396.451968 kJ/mol
# Density = 2.138394 g / cm^3
# Si number density = 21.432722 Si / 1000 Ang^3
#
#
#
# Elastic Constant Matrix: (Units=GPa)
#
#
# Indices 1 2 3 4 5 6 
#
# 1 97.5461 45.7894 11.3663 0.4249 -5.0143 -5.8521
# 2 45.7894 124.3012 39.5627 3.7755 -4.2242 6.8749
# 3 11.3663 39.5627 88.4473 19.2827 10.1524 12.6777
# 4 0.4249 3.7755 19.2827 41.7638 0.9103 2.0261
# 5 -5.0143 -4.2242 10.1524 0.9103 26.0485 -2.0322
# 6 -5.8521 6.8749 12.6777 2.0261 -2.0322 33.6507
#
#
#
# Elastic Compliance Matrix: (Units=1/GPa)
#
#
# Indices 1 2 3 4 5 6 
#
# 1 0.012831 -0.004757 -0.000300 0.000226 0.002075 0.003428
# 2 -0.004757 0.011495 -0.004952 0.001295 0.002738 -0.001223
# 3 -0.000300 -0.004952 0.016684 -0.006827 -0.007544 -0.005370
# 4 0.000226 0.001295 -0.006827 0.026891 0.002041 0.000851
# 5 0.002075 0.002738 -0.007544 0.002041 0.042499 0.005087
# 6 0.003428 -0.001223 -0.005370 0.000851 0.005087 0.032842
#
#
# Mechanical properties :
#
#
# Convention : Reuss Voigt Hill
#
# Bulk Modulus (GPa) = 47.63692 55.97015 51.80354
# Shear Modulus (GPa) = 29.36754 34.53104 31.94929
#
# Velocity S-wave (km/s) = 3.70566 4.01825 3.86512
# Velocity P-wave (km/s) = 6.37054 6.90648 6.64392
#
# Compressibility (1/GPa) = 0.02099212
#
# Stress axis : x y z
#
# Youngs Moduli (GPa) = 77.93716 86.99683 59.93883
#
# Poissons Ratio (x) = 0.41385 0.01798
# Poissons Ratio (y) = 0.37075 0.29679
# Poissons Ratio (z) = 0.02337 0.43077
#
# Static dielectric constant tensor:
#      x y z
#    x 4.025580 -0.209490 -0.113450 
#    y -0.209490 4.247450 0.121590 
#    z -0.113450 0.121590 3.705360 
# 
# 
# High freq. dielectric constant tensor:
#      x y z
#    x 1.830510 -0.009390 -0.002580 
#    y -0.009390 1.860960 0.003470 
#    z -0.002580 0.003470 1.821270 
# 
# From -- ./inp_files/307026.got.cif
#   From: 2010.06.25/outbox.cif.g09.slc.cpg/sg2_154_cif.got.tgz:307026.got - 2010.06.27 13:26:56.
