data_PCOD8009465
_publ_section_title
;
Structure prediction by ZEFSAII (Michael W. Deem and Ramdas Pophale) SiO2 
 PCOD8009465
Probable space group: P -1
;
_chemical_formula_sum "Si O2"
_cell_formula_units_Z 14
_cell_length_a 13.161836
_cell_length_b 9.504523
_cell_length_c 18.892495
_cell_angle_alpha 32.875853
_cell_angle_beta 33.458585
_cell_angle_gamma 34.498687
_cell_volume 644.309327
_symmetry_space_group_name_H-M "P -1"
_symmetry_group_IT_number 2
_symmetry_cell_setting 'triclinic'
loop_
_space_group_symop_operation_xyz
x,y,z
-x,-y,-z
loop_
_atom_site_type_symbol
_atom_site_label
_atom_site_fract_x
_atom_site_fract_y
_atom_site_fract_z
Si Si1 0.906204 0.807553 0.669546
Si Si2 0.582950 0.326128 0.699408
Si Si3 0.572522 0.817743 0.761224
Si Si4 0.309302 0.054900 0.938826
Si Si5 0.090454 0.876855 0.923505
Si Si6 0.496873 0.585941 0.130385
Si Si7 0.280002 0.297138 0.642048
O O1 0.789702 0.740689 0.700624
O O2 0.091391 0.511666 0.710140
O O3 0.752137 0.995558 0.740502
O O4 0.000000 0.000000 0.500000
O O5 0.543641 0.441060 0.752672
O O6 0.654931 0.535609 0.525825
O O7 0.379505 0.317557 0.785829
O O8 0.417602 0.824692 0.911002
O O9 0.609700 0.579086 0.782302
O O10 0.472059 0.131989 0.650650
O O11 0.388922 0.911764 0.029753
O O12 0.070610 0.146168 0.028885
O O13 0.203461 0.070772 0.746410
O O14 0.262364 0.554658 0.967428
O O15 0.000000 0.000000 0.000000
#
# Coordination Sequence:
#
# PCOD8009465 Si02
#       7
#     2   2   2   2   2   2   2
#     4   9  20  38  60  88 120 159 203 247 300 360
#     4  10  24  40  62  93 128 167 189 257 324 353
#     4  10  21  36  65  90 112 168 207 250 301 349
#     4  11  22  40  62  94 123 162 209 246 308 363
#     4  11  23  39  65  97 112 165 210 255 298 355
#     4  11  23  41  62  90 131 157 206 253 305 370
#     4  10  21  42  63  90 125 153 215 249 297 371
#
# _framework density 21.728693
#
# number of rings (size 3 to 8) (size 9 to 14) (size 15 to 20)
#    0.000    1.714    2.857    1.714    4.000    8.000 
#    0.000   12.143    0.000    0.000    0.000    0.000 
#    0.000    0.000    0.000    0.000    0.000    0.000 
#
# Total GULP energy -173479.836680 kJ/mol
# GULP energy per Si atom -12391.416906 kJ/mol
# Density = 2.167924 g / cm^3
# Si number density = 21.728693 Si / 1000 Ang^3
#
#
#
# Elastic Constant Matrix: (Units=GPa)
#
#
# Indices 1 2 3 4 5 6 
#
# 1 86.4369 27.5766 44.5454 10.5461 -5.3622 5.2036
# 2 27.5766 58.3466 13.7035 6.1325 0.6659 -8.6421
# 3 44.5454 13.7035 86.2091 0.9213 -10.4020 -3.9896
# 4 10.5461 6.1325 0.9213 27.5681 4.2544 7.2707
# 5 -5.3622 0.6659 -10.4020 4.2544 39.0654 1.3396
# 6 5.2036 -8.6421 -3.9896 7.2707 1.3396 42.0687
#
#
#
# Elastic Compliance Matrix: (Units=1/GPa)
#
#
# Indices 1 2 3 4 5 6 
#
# 1 0.019256 -0.007137 -0.008820 -0.004612 0.001053 -0.003921
# 2 -0.007137 0.021687 0.000430 -0.003534 -0.001057 0.006023
# 3 -0.008820 0.000430 0.016534 0.001650 0.002924 0.002369
# 4 -0.004612 -0.003534 0.001650 0.041292 -0.004390 -0.006996
# 5 0.001053 -0.001057 0.002924 -0.004390 0.027023 -0.000172
# 6 -0.003921 0.006023 0.002369 -0.006996 -0.000172 0.026932
#
#
# Mechanical properties :
#
#
# Convention : Reuss Voigt Hill
#
# Bulk Modulus (GPa) = 37.84936 44.73816 41.29376
# Shear Modulus (GPa) = 25.96235 31.41824 28.69030
#
# Velocity S-wave (km/s) = 3.46040 3.80667 3.63766
# Velocity P-wave (km/s) = 5.78124 6.32100 6.05714
#
# Compressibility (1/GPa) = 0.02642053
#
# Stress axis : x y z
#
# Youngs Moduli (GPa) = 51.93206 46.11054 60.48229
#
# Poissons Ratio (x) = 0.32911 0.53348
# Poissons Ratio (y) = 0.37066 -0.02599
# Poissons Ratio (z) = 0.45806 -0.01981
#
# Static dielectric constant tensor:
#      x y z
#    x 3.870070 -0.284100 -0.189890 
#    y -0.284100 4.636790 -0.080250 
#    z -0.189890 -0.080250 3.931990 
# 
# 
# High freq. dielectric constant tensor:
#      x y z
#    x 1.845700 -0.011510 -0.017470 
#    y -0.011510 1.846620 -0.010440 
#    z -0.017470 -0.010440 1.851360 
# 
# From -- ./inp_files/172735.got.cif
#   From: 2010.06.25/outbox.cif.g09.slc.cpg/sg2_87_cif.got.tgz:172735.got - 2010.06.27 13:26:56.
