data_PCOD8009527
_publ_section_title
;
Structure prediction by ZEFSAII (Michael W. Deem and Ramdas Pophale) SiO2 
 PCOD8009527
Probable space group: P -1
;
_chemical_formula_sum "Si O2"
_cell_formula_units_Z 16
_cell_length_a 15.953119
_cell_length_b 14.895839
_cell_length_c 8.457959
_cell_angle_alpha 93.230223
_cell_angle_beta 55.796173
_cell_angle_gamma 138.856399
_cell_volume 807.544232
_symmetry_space_group_name_H-M "P -1"
_symmetry_group_IT_number 2
_symmetry_cell_setting 'triclinic'
loop_
_space_group_symop_operation_xyz
x,y,z
-x,-y,-z
loop_
_atom_site_type_symbol
_atom_site_label
_atom_site_fract_x
_atom_site_fract_y
_atom_site_fract_z
Si Si1 0.415914 0.176821 0.806985
Si Si2 0.136488 0.840405 0.259184
Si Si3 0.831213 0.323064 0.958185
Si Si4 0.739737 0.269798 0.412052
Si Si5 0.509522 0.474458 0.241987
Si Si6 0.429462 0.010096 0.212970
Si Si7 0.662421 0.504071 0.781592
Si Si8 0.751505 0.798357 0.224557
O O1 0.570332 0.218103 0.588290
O O2 0.524547 0.316168 0.844973
O O3 0.348756 0.187232 0.733193
O O4 0.205197 0.974572 0.085816
O O5 0.259532 0.943604 0.307089
O O6 0.898705 0.659654 0.535208
O O7 0.184441 0.787972 0.107003
O O8 0.804635 0.294807 0.170063
O O9 0.632422 0.222456 0.083316
O O10 0.049748 0.537437 0.699835
O O11 0.660646 0.117350 0.559128
O O12 0.368637 0.432063 0.285128
O O13 0.693956 0.670502 0.157486
O O14 0.355092 0.301633 0.504112
O O15 0.612692 0.482529 0.015934
O O16 0.500000 0.000000 0.000000
O O17 0.000000 0.000000 0.000000
#
# Coordination Sequence:
#
# PCOD8009527 Si02
#       8
#     2   2   2   2   2   2   2   2
#     4  11  22  37  61  85 116 152 199 238 282 345
#     4  11  22  38  58  88 115 158 193 238 290 337
#     4  10  22  38  60  79 117 159 193 240 291 334
#     4  11  21  40  58  84 113 160 198 236 290 337
#     4   9  21  42  63  86 119 151 187 236 297 344
#     4  10  21  37  56  81 118 150 192 240 287 337
#     4  10  21  41  62  85 118 152 192 239 285 352
#     4  10  21  41  64  90 117 150 186 240 292 345
#
# _framework density 19.813155999999999
#
# number of rings (size 3 to 8) (size 9 to 14) (size 15 to 20)
#    0.000    1.750    3.750    1.125    0.000    4.000 
#    9.000    3.750    0.000    0.000    0.000    0.000 
#    0.000    0.000    0.000    0.000    0.000    0.000 
#
# Total GULP energy -198348.179307 kJ/mol
# GULP energy per Si atom -12396.761207 kJ/mol
# Density = 1.976806 g / cm^3
# Si number density = 19.813156 Si / 1000 Ang^3
#
#
#
# Elastic Constant Matrix: (Units=GPa)
#
#
# Indices 1 2 3 4 5 6 
#
# 1 -44.0709 115.8993 -193.5103 67.0087 135.6800 -64.0514
# 2 115.8993 26.6943 213.5725 -59.5643 -99.7348 66.8181
# 3 -193.5103 213.5725 -361.6870 133.9372 271.0097 -137.0310
# 4 67.0087 -59.5643 133.9372 -2.9079 -74.2421 39.0792
# 5 135.6800 -99.7348 271.0097 -74.2421 -131.0242 81.9238
# 6 -64.0514 66.8181 -137.0310 39.0792 81.9238 -16.9340
#
#
#
# Elastic Compliance Matrix: (Units=1/GPa)
#
#
# Indices 1 2 3 4 5 6 
#
# 1 0.017850 -0.001519 -0.007126 0.000085 0.002435 -0.003866
# 2 -0.001519 0.009945 0.000465 0.000493 -0.008902 -0.000707
# 3 -0.007126 0.000465 0.008947 0.002017 0.007273 -0.003768
# 4 0.000085 0.000493 0.002017 0.027325 -0.009204 0.003827
# 5 0.002435 -0.008902 0.007273 -0.009204 0.027595 0.009069
# 6 -0.003866 -0.000707 -0.003768 0.003827 0.009069 0.035981
#
#
# Mechanical properties :
#
#
# Convention : Reuss Voigt Hill
#
# Bulk Modulus (GPa) = 49.06502 -11.90451 18.58026
# Shear Modulus (GPa) = 33.15744 -64.50820 -15.67538
#
# Velocity S-wave (km/s) = 4.09529 -5.71218 -2.81581
# Velocity P-wave (km/s) = 6.86873 7.03752 1.08333
#
# Compressibility (1/GPa) = 0.02038112
#
# Stress axis : x y z
#
# Youngs Moduli (GPa) = 56.02301 100.55655 111.76882
#
# Poissons Ratio (x) = 0.15277 0.79649
# Poissons Ratio (y) = 0.08511 -0.05201
# Poissons Ratio (z) = 0.39924 -0.04679
#
# Static dielectric constant tensor:
#      x y z
#    x 3.609470 0.324400 -0.140740 
#    y 0.324400 3.891510 -0.201250 
#    z -0.140740 -0.201250 3.768940 
# 
# 
# High freq. dielectric constant tensor:
#      x y z
#    x 1.766010 0.016400 0.004720 
#    y 0.016400 1.777510 -0.010580 
#    z 0.004720 -0.010580 1.781700 
# 
# From -- ./inp_files/313312.got.cif
#   From: 2010.06.25/outbox.cif.g09.slc.cpg/sg2_157_cif.got.tgz:313312.got - 2010.06.27 13:26:56.
