data_PCOD8009519
_publ_section_title
;
Structure prediction by ZEFSAII (Michael W. Deem and Ramdas Pophale) SiO2 
 PCOD8009519
Probable space group: P -1
;
_chemical_formula_sum "Si O2"
_cell_formula_units_Z 16
_cell_length_a 13.202385
_cell_length_b 15.424951
_cell_length_c 10.994477
_cell_angle_alpha 69.342946
_cell_angle_beta 22.486972
_cell_angle_gamma 68.864542
_cell_volume 797.536692
_symmetry_space_group_name_H-M "P -1"
_symmetry_group_IT_number 2
_symmetry_cell_setting 'triclinic'
loop_
_space_group_symop_operation_xyz
x,y,z
-x,-y,-z
loop_
_atom_site_type_symbol
_atom_site_label
_atom_site_fract_x
_atom_site_fract_y
_atom_site_fract_z
Si Si1 0.031658 0.680585 0.650335
Si Si2 0.408454 0.943013 0.516650
Si Si3 0.386547 0.123221 0.323374
Si Si4 0.611257 0.356451 0.283948
Si Si5 0.628660 0.779484 0.207531
Si Si6 0.540262 0.777010 0.042556
Si Si7 0.070000 0.476468 0.796392
Si Si8 0.180045 0.815892 0.004318
O O1 0.310991 0.714862 0.285517
O O2 0.060145 0.570080 0.683002
O O3 0.924250 0.730705 0.872054
O O4 0.818531 0.710611 0.765505
O O5 0.638916 0.867165 0.244038
O O6 0.500000 0.000000 0.500000
O O7 0.318414 0.016575 0.473788
O O8 0.176348 0.883498 0.854958
O O9 0.124337 0.190005 0.617041
O O10 0.447898 0.137365 0.106163
O O11 0.643330 0.144877 0.104659
O O12 0.536891 0.300173 0.513763
O O13 0.363989 0.426006 0.481081
O O14 0.691745 0.286926 0.118409
O O15 0.859318 0.412132 0.009877
O O16 0.486286 0.815770 0.220677
O O17 0.000000 0.500000 0.000000
#
# Coordination Sequence:
#
# PCOD8009519 Si02
#       8
#     2   2   2   2   2   2   2   2
#     4  10  21  37  55  86 119 151 186 238 291 339
#     4   9  20  40  61  90 118 151 190 240 287 343
#     4  11  21  40  63  82 114 158 200 233 279 348
#     4  11  22  35  60  90 119 150 186 244 292 350
#     4   9  21  37  57  89 122 149 188 236 297 337
#     4  10  21  38  58  84 114 162 190 235 286 336
#     4  12  20  34  59  88 120 149 193 234 295 348
#     4  10  22  40  60  87 119 150 192 240 293 335
#
# _framework density 20.061772999999999
#
# number of rings (size 3 to 8) (size 9 to 14) (size 15 to 20)
#    0.750    1.000    1.250    3.750    0.000    0.500 
#    9.000    0.625    0.000   15.000    0.000    0.000 
#    0.000    0.000    0.000    0.000    0.000    0.000 
#
# Total GULP energy -198285.199569 kJ/mol
# GULP energy per Si atom -12392.824973 kJ/mol
# Density = 2.001611 g / cm^3
# Si number density = 20.061773 Si / 1000 Ang^3
#
#
#
# Elastic Constant Matrix: (Units=GPa)
#
#
# Indices 1 2 3 4 5 6 
#
# 1 86.4570 54.9358 47.0734 -10.0746 -4.9927 -17.0940
# 2 54.9358 150.4590 62.7280 0.1447 -4.7716 -9.9783
# 3 47.0734 62.7280 98.9167 -6.0715 -25.6210 -11.7065
# 4 -10.0746 0.1447 -6.0715 25.9565 -3.7375 1.0052
# 5 -4.9927 -4.7716 -25.6210 -3.7375 41.4871 -3.4534
# 6 -17.0940 -9.9783 -11.7065 1.0052 -3.4534 27.5115
#
#
#
# Elastic Compliance Matrix: (Units=1/GPa)
#
#
# Indices 1 2 3 4 5 6 
#
# 1 0.019493 -0.004435 -0.005177 0.006047 -0.000145 0.008061
# 2 -0.004435 0.010482 -0.005842 -0.003569 -0.003402 -0.001737
# 3 -0.005177 -0.005842 0.020175 0.004283 0.011932 0.004590
# 4 0.006047 -0.003569 0.004283 0.042779 0.007117 0.003615
# 5 -0.000145 -0.003402 0.011932 0.007117 0.032334 0.007552
# 6 0.008061 -0.001737 0.004590 0.003615 0.007552 0.043497
#
#
# Mechanical properties :
#
#
# Convention : Reuss Voigt Hill
#
# Bulk Modulus (GPa) = 51.97006 73.92300 62.94653
# Shear Modulus (GPa) = 24.26240 30.39740 27.32990
#
# Velocity S-wave (km/s) = 3.48139 3.89677 3.69492
# Velocity P-wave (km/s) = 6.49010 7.56135 7.04611
#
# Compressibility (1/GPa) = 0.01924185
#
# Stress axis : x y z
#
# Youngs Moduli (GPa) = 51.30041 95.40460 49.56744
#
# Poissons Ratio (x) = 0.42312 0.25659
# Poissons Ratio (y) = 0.22752 0.28958
# Poissons Ratio (z) = 0.26556 0.55737
#
# Static dielectric constant tensor:
#      x y z
#    x 4.026130 0.455410 -0.173170 
#    y 0.455410 4.600760 -0.338540 
#    z -0.173170 -0.338540 3.704340 
# 
# 
# High freq. dielectric constant tensor:
#      x y z
#    x 1.764090 -0.011470 -0.002950 
#    y -0.011470 1.782580 -0.003780 
#    z -0.002950 -0.003780 1.781570 
# 
# From -- ./inp_files/455678.got.cif
#   From: 2010.06.25/outbox.cif.g09.slc.cpg/sg2_228_cif.got.tgz:455678.got - 2010.06.27 13:26:56.
