data_PCOD8009449
_publ_section_title
;
Structure prediction by ZEFSAII (Michael W. Deem and Ramdas Pophale) SiO2 
 PCOD8009449
Probable space group: P -1
;
_chemical_formula_sum "Si O2"
_cell_formula_units_Z 16
_cell_length_a 14.944740
_cell_length_b 8.165956
_cell_length_c 13.239461
_cell_angle_alpha 131.988365
_cell_angle_beta 71.958618
_cell_angle_gamma 71.111801
_cell_volume 753.715226
_symmetry_space_group_name_H-M "P -1"
_symmetry_group_IT_number 2
_symmetry_cell_setting 'triclinic'
loop_
_space_group_symop_operation_xyz
x,y,z
-x,-y,-z
loop_
_atom_site_type_symbol
_atom_site_label
_atom_site_fract_x
_atom_site_fract_y
_atom_site_fract_z
Si Si1 0.941028 0.312785 0.522665
Si Si2 0.189815 0.927641 0.879270
Si Si3 0.245568 0.125575 0.507269
Si Si4 0.272924 0.272932 0.924796
Si Si5 0.448904 0.141096 0.463516
Si Si6 0.973488 0.730663 0.728638
Si Si7 0.926805 0.434281 0.056493
Si Si8 0.211426 0.714313 0.301247
O O1 0.896331 0.647822 0.676772
O O2 0.806273 0.399533 0.637246
O O3 0.999895 0.145229 0.321712
O O4 0.057784 0.072146 0.468987
O O5 0.328439 0.538441 0.659856
O O6 0.224381 0.124736 0.929183
O O7 0.134891 0.976871 0.032157
O O8 0.059190 0.069785 0.911923
O O9 0.385433 0.024781 0.395771
O O10 0.184022 0.273992 0.702385
O O11 0.126518 0.402411 0.583834
O O12 0.298753 0.779625 0.329081
O O13 0.162491 0.544264 0.987520
O O14 0.427616 0.982544 0.701575
O O15 0.282985 0.442499 0.076710
O O16 0.500000 0.000000 0.500000
O O17 0.000000 0.500000 0.000000
#
# Coordination Sequence:
#
# PCOD8009449 Si02
#       8
#     2   2   2   2   2   2   2   2
#     4   9  18  33  60  98 129 162 192 266 323 379
#     4  10  22  41  65  96 128 164 215 269 310 379
#     4  10  22  42  57  96 128 164 210 261 314 382
#     4  11  22  43  67  95 125 175 212 258 320 376
#     4  12  26  43  62  89 131 176 215 257 316 379
#     4   9  18  36  63  95 128 154 212 262 321 364
#     4   9  20  38  67  97 125 161 211 263 319 371
#     4  10  21  36  64  93 131 162 207 255 322 383
#
# _framework density 21.228176000000001
#
# number of rings (size 3 to 8) (size 9 to 14) (size 15 to 20)
#    0.000    2.000    2.500    0.375    7.000    3.500 
#    2.250    0.000    0.000    1.500    0.000    0.000 
#    0.000    0.000    0.000    0.000    0.000    0.000 
#
# Total GULP energy -198276.042321 kJ/mol
# GULP energy per Si atom -12392.252645 kJ/mol
# Density = 2.117986 g / cm^3
# Si number density = 21.228176 Si / 1000 Ang^3
#
#
#
# Elastic Constant Matrix: (Units=GPa)
#
#
# Indices 1 2 3 4 5 6 
#
# 1 97.4942 32.1250 41.3710 0.7626 3.4888 8.8052
# 2 32.1250 91.4509 47.0885 -18.9880 7.8183 0.5852
# 3 41.3710 47.0885 111.0321 -2.6272 -0.7908 -3.2387
# 4 0.7626 -18.9880 -2.6272 36.7081 5.6834 -3.2409
# 5 3.4888 7.8183 -0.7908 5.6834 29.5918 1.6911
# 6 8.8052 0.5852 -3.2387 -3.2409 1.6911 13.2021
#
#
#
# Elastic Compliance Matrix: (Units=1/GPa)
#
#
# Indices 1 2 3 4 5 6 
#
# 1 0.014238 -0.003518 -0.004222 -0.003484 0.000452 -0.011289
# 2 -0.003518 0.017936 -0.006000 0.010256 -0.006651 0.003449
# 3 -0.004222 -0.006000 0.013257 -0.001966 0.002499 0.005531
# 4 -0.003484 0.010256 -0.001966 0.034972 -0.009709 0.011216
# 5 0.000452 -0.006651 0.002499 -0.009709 0.037807 -0.006620
# 6 -0.011289 0.003449 0.005531 0.011216 -0.006620 0.088081
#
#
# Mechanical properties :
#
#
# Convention : Reuss Voigt Hill
#
# Bulk Modulus (GPa) = 55.70482 60.12737 57.91609
# Shear Modulus (GPa) = 20.85477 27.85992 24.35734
#
# Velocity S-wave (km/s) = 3.13774 3.62664 3.39101
# Velocity P-wave (km/s) = 6.27895 6.77661 6.53252
#
# Compressibility (1/GPa) = 0.01795177
#
# Stress axis : x y z
#
# Youngs Moduli (GPa) = 70.23287 55.75434 75.43340
#
# Poissons Ratio (x) = 0.19612 0.31848
# Poissons Ratio (y) = 0.24705 0.45260
# Poissons Ratio (z) = 0.29652 0.33452
#
# Static dielectric constant tensor:
#      x y z
#    x 4.136440 0.075860 0.070400 
#    y 0.075860 4.138400 -0.172550 
#    z 0.070400 -0.172550 3.565640 
# 
# 
# High freq. dielectric constant tensor:
#      x y z
#    x 1.826320 0.017290 0.015880 
#    y 0.017290 1.844170 -0.016510 
#    z 0.015880 -0.016510 1.814220 
# 
# From -- ./inp_files/516064.got.cif
#   From: 2010.06.25/outbox.cif.g09.slc.cpg/sg2_259_cif.got.tgz:516064.got - 2010.06.27 13:26:56.
