data_PCOD8009506
_publ_section_title
;
Structure prediction by ZEFSAII (Michael W. Deem and Ramdas Pophale) SiO2 
 PCOD8009506
Probable space group: P -1
;
_chemical_formula_sum "Si O2"
_cell_formula_units_Z 16
_cell_length_a 8.050840
_cell_length_b 11.885693
_cell_length_c 12.263221
_cell_angle_alpha 109.737153
_cell_angle_beta 128.300105
_cell_angle_gamma 56.734599
_cell_volume 770.001077
_symmetry_space_group_name_H-M "P -1"
_symmetry_group_IT_number 2
_symmetry_cell_setting 'triclinic'
loop_
_space_group_symop_operation_xyz
x,y,z
-x,-y,-z
loop_
_atom_site_type_symbol
_atom_site_label
_atom_site_fract_x
_atom_site_fract_y
_atom_site_fract_z
Si Si1 0.587120 0.840363 0.606294
Si Si2 0.185322 0.601836 0.060691
Si Si3 0.546113 0.086393 0.184113
Si Si4 0.666512 0.089663 0.689691
Si Si5 0.064400 0.604232 0.770692
Si Si6 0.533784 0.314357 0.103229
Si Si7 0.888257 0.869594 0.112070
Si Si8 0.585399 0.683937 0.185926
O O1 0.446797 0.881023 0.676301
O O2 0.400058 0.851417 0.440643
O O3 0.800836 0.688876 0.642358
O O4 0.699936 0.939836 0.659091
O O5 0.301393 0.447350 0.098059
O O6 0.400473 0.633613 0.133657
O O7 0.012362 0.705727 0.116088
O O8 0.038586 0.624857 0.896992
O O9 0.596520 0.193048 0.171203
O O10 0.760464 0.937624 0.195682
O O11 0.300642 0.085163 0.049544
O O12 0.453069 0.186002 0.716295
O O13 0.915300 0.083163 0.825006
O O14 0.240383 0.657861 0.809241
O O15 0.156842 0.445280 0.731227
O O16 0.458391 0.274746 0.944838
#
# Coordination Sequence:
#
# PCOD8009506 Si02
#       8
#     2   2   2   2   2   2   2   2
#     4  11  23  38  55  80 109 143 189 216 270 321
#     4   8  15  33  55  83 109 140 175 220 271 317
#     4  11  23  34  54  87 109 140 179 228 268 320
#     4  10  23  40  57  74 107 153 180 223 264 321
#     4   9  16  34  57  83 109 139 178 224 261 320
#     4   9  18  32  58  86 114 135 170 225 281 314
#     4  10  21  37  54  81 109 143 178 224 270 312
#     4   8  17  32  59  83 105 139 181 221 268 314
#
# _framework density 20.779191999999998
#
# number of rings (size 3 to 8) (size 9 to 14) (size 15 to 20)
#    0.000    2.500    1.250    2.250    3.500    2.000 
#    0.000    0.000    0.000    6.750    0.000    0.000 
#    0.000    0.000    0.000    0.000    0.000    0.000 
#
# Total GULP energy -198329.953693 kJ/mol
# GULP energy per Si atom -12395.622106 kJ/mol
# Density = 2.073190 g / cm^3
# Si number density = 20.779192 Si / 1000 Ang^3
#
#
#
# Elastic Constant Matrix: (Units=GPa)
#
#
# Indices 1 2 3 4 5 6 
#
# 1 61.5548 29.6596 24.0180 -2.8233 -12.3218 -16.9953
# 2 29.6596 87.7767 16.0083 -0.6916 -5.5357 -37.8765
# 3 24.0180 16.0083 37.9855 0.9212 -17.3700 -8.5031
# 4 -2.8233 -0.6916 0.9212 22.8626 0.3295 -2.0449
# 5 -12.3218 -5.5357 -17.3700 0.3295 27.8153 7.2425
# 6 -16.9953 -37.8765 -8.5031 -2.0449 7.2425 39.4966
#
#
#
# Elastic Compliance Matrix: (Units=1/GPa)
#
#
# Indices 1 2 3 4 5 6 
#
# 1 0.024640 -0.004346 -0.012420 0.003726 0.001282 0.003719
# 2 -0.004346 0.021532 -0.004660 0.002071 -0.005493 0.018890
# 3 -0.012420 -0.004660 0.046000 -0.004264 0.023503 -0.004441
# 4 0.003726 0.002071 -0.004264 0.044960 -0.002557 0.005468
# 5 0.001282 -0.005493 0.023503 -0.002557 0.052589 -0.009432
# 6 0.003719 0.018890 -0.004441 0.005468 -0.009432 0.046091
#
#
# Mechanical properties :
#
#
# Convention : Reuss Voigt Hill
#
# Bulk Modulus (GPa) = 20.27568 36.29878 28.28723
# Shear Modulus (GPa) = 16.94320 25.87696 21.41008
#
# Velocity S-wave (km/s) = 2.85861 3.53275 3.21341
# Velocity P-wave (km/s) = 4.54691 5.84356 5.23553
#
# Compressibility (1/GPa) = 0.04932017
#
# Stress axis : x y z
#
# Youngs Moduli (GPa) = 40.58415 46.44257 21.73932
#
# Poissons Ratio (x) = 0.20183 0.27000
# Poissons Ratio (y) = 0.17637 0.10131
# Poissons Ratio (z) = 0.50406 0.21642
#
# Static dielectric constant tensor:
#      x y z
#    x 3.721140 -0.612930 -0.149030 
#    y -0.612930 4.516530 0.166300 
#    z -0.149030 0.166300 3.485940 
# 
# 
# High freq. dielectric constant tensor:
#      x y z
#    x 1.798120 -0.019400 -0.002510 
#    y -0.019400 1.833660 -0.000220 
#    z -0.002510 -0.000220 1.770890 
# 
# From -- ./inp_files/392751.got.cif
#   From: 2010.06.25/outbox.cif.g09.slc.cpg/sg2_197_cif.got.tgz:392751.got - 2010.06.27 13:26:56.
