data_PCOD8009140
_publ_section_title
;
Structure prediction by ZEFSAII (Michael W. Deem and Ramdas Pophale) SiO2 
 PCOD8009140
Probable space group: P -1
;
_chemical_formula_sum "Si O2"
_cell_formula_units_Z 16
_cell_length_a 26.204443
_cell_length_b 26.705400
_cell_length_c 8.347039
_cell_angle_alpha 132.348726
_cell_angle_beta 133.356896
_cell_angle_gamma 11.139285
_cell_volume 820.522984
_symmetry_space_group_name_H-M "P -1"
_symmetry_group_IT_number 2
_symmetry_cell_setting 'triclinic'
loop_
_space_group_symop_operation_xyz
x,y,z
-x,-y,-z
loop_
_atom_site_type_symbol
_atom_site_label
_atom_site_fract_x
_atom_site_fract_y
_atom_site_fract_z
Si Si1 0.940286 0.750457 0.308052
Si Si2 0.809848 0.250821 0.776950
Si Si3 0.738704 0.749990 0.369691
Si Si4 0.523038 0.245460 0.984275
Si Si5 0.420197 0.250461 0.061373
Si Si6 0.667860 0.249117 0.386745
Si Si7 0.209352 0.249941 0.853272
Si Si8 0.045643 0.745524 0.818057
O O1 0.196346 0.501662 0.211985
O O2 0.003733 0.750919 0.568630
O O3 0.868754 0.750127 0.250443
O O4 0.698261 0.999795 0.212526
O O5 0.728066 0.249874 0.659307
O O6 0.569605 0.501184 0.692525
O O7 0.873298 0.251189 0.042563
O O8 0.069644 0.001253 0.692174
O O9 0.795550 0.750087 0.350122
O O10 0.000000 0.500000 0.500000
O O11 0.500000 0.000000 0.500000
O O12 0.663269 0.749813 0.124360
O O13 0.448228 0.250349 0.939732
O O14 0.585367 0.248988 0.254434
O O15 0.278755 0.490468 0.868334
O O16 0.777606 0.990897 0.874914
O O17 0.000000 0.500000 0.000000
O O18 0.500000 0.000000 0.000000
#
# Coordination Sequence:
#
# PCOD8009140 Si02
#       8
#     2   2   2   2   2   2   2   2
#     4  12  24  41  60  81 114 154 182 223 279 337
#     4   8  14  27  49  78 109 135 181 228 267 313
#     4  12  26  41  62  87 110 140 184 238 278 320
#     4  10  21  36  57  85 114 144 189 232 274 324
#     4  12  25  42  57  83 118 150 180 223 289 337
#     4   8  14  27  49  77 108 142 173 226 277 311
#     4  12  23  44  62  82 110 147 189 222 272 342
#     4  10  21  36  58  87 109 146 192 232 268 320
#
# _framework density 19.499756999999999
#
# number of rings (size 3 to 8) (size 9 to 14) (size 15 to 20)
#    0.000    1.500    2.500    3.000    3.500    0.000 
#    0.000    0.000    0.000    1.500    0.000    0.000 
#    0.000    0.000    0.000    0.000    0.000    0.000 
#
# Total GULP energy -198242.898660 kJ/mol
# GULP energy per Si atom -12390.181166 kJ/mol
# Density = 1.945537 g / cm^3
# Si number density = 19.499757 Si / 1000 Ang^3
#
#
#
# Elastic Constant Matrix: (Units=GPa)
#
#
# Indices 1 2 3 4 5 6 
#
# 1 34.0215 15.6924 12.0642 -0.7421 -12.8066 -2.1071
# 2 15.6924 154.6421 36.2547 -2.3545 -12.0962 -7.5298
# 3 12.0642 36.2547 130.7436 -2.5117 2.5701 -3.1812
# 4 -0.7421 -2.3545 -2.5117 36.9023 -0.3693 -4.4782
# 5 -12.8066 -12.0962 2.5701 -0.3693 28.7320 1.3118
# 6 -2.1071 -7.5298 -3.1812 -4.4782 1.3118 26.3528
#
#
#
# Elastic Compliance Matrix: (Units=1/GPa)
#
#
# Indices 1 2 3 4 5 6 
#
# 1 0.037561 -0.001691 -0.003267 0.000763 0.016266 0.001446
# 2 -0.001691 0.007362 -0.001881 0.000540 0.002443 0.001711
# 3 -0.003267 -0.001881 0.008550 0.000421 -0.003028 0.000456
# 4 0.000763 0.000540 0.000421 0.027785 0.000661 0.004955
# 5 0.016266 0.002443 -0.003028 0.000661 0.043381 -0.000414
# 6 0.001446 0.001711 0.000456 0.004955 -0.000414 0.039469
#
#
# Mechanical properties :
#
#
# Convention : Reuss Voigt Hill
#
# Bulk Modulus (GPa) = 25.12936 49.71443 37.42189
# Shear Modulus (GPa) = 26.17098 35.42383 30.79741
#
# Velocity S-wave (km/s) = 3.66747 4.26682 3.97845
# Velocity P-wave (km/s) = 5.55416 7.05865 6.35111
#
# Compressibility (1/GPa) = 0.03979410
#
# Stress axis : x y z
#
# Youngs Moduli (GPa) = 26.62355 135.83558 116.95355
#
# Poissons Ratio (x) = 0.22974 0.38206
# Poissons Ratio (y) = 0.04503 0.22003
# Poissons Ratio (z) = 0.08697 0.25556
#
# Static dielectric constant tensor:
#      x y z
#    x 3.571000 -0.038650 0.518970 
#    y -0.038650 3.978140 -0.008470 
#    z 0.518970 -0.008470 4.063910 
# 
# 
# High freq. dielectric constant tensor:
#      x y z
#    x 1.727540 -0.004400 0.028380 
#    y -0.004400 1.792520 0.002420 
#    z 0.028380 0.002420 1.767980 
# 
# From -- ./inp_files/140766.got.cif
#   From: 2010.06.25/outbox.cif.g09.slc.cpg/sg2_71_cif.got.tgz:140766.got - 2010.06.27 13:26:56.
