data_PCOD8009289
_publ_section_title
;
Structure prediction by ZEFSAII (Michael W. Deem and Ramdas Pophale) SiO2 
 PCOD8009289
Probable space group: P -1
;
_chemical_formula_sum "Si O2"
_cell_formula_units_Z 16
_cell_length_a 12.391425
_cell_length_b 15.750697
_cell_length_c 11.091670
_cell_angle_alpha 88.594998
_cell_angle_beta 70.033326
_cell_angle_gamma 28.684026
_cell_volume 774.093867
_symmetry_space_group_name_H-M "P -1"
_symmetry_group_IT_number 2
_symmetry_cell_setting 'triclinic'
loop_
_space_group_symop_operation_xyz
x,y,z
-x,-y,-z
loop_
_atom_site_type_symbol
_atom_site_label
_atom_site_fract_x
_atom_site_fract_y
_atom_site_fract_z
Si Si1 0.715092 0.474381 0.432269
Si Si2 0.797250 0.130888 0.761804
Si Si3 0.713334 0.401859 0.015080
Si Si4 0.336518 0.048619 0.728783
Si Si5 0.802630 0.262626 0.243473
Si Si6 0.671010 0.771341 0.369711
Si Si7 0.086777 0.379146 0.361523
Si Si8 0.736035 0.095509 0.538112
O O1 0.888409 0.287227 0.289093
O O2 0.517225 0.558844 0.602385
O O3 0.509319 0.666467 0.411088
O O4 0.931834 0.391366 0.425147
O O5 0.450602 0.395904 0.902287
O O6 0.847912 0.033589 0.633111
O O7 0.931838 0.989359 0.831387
O O8 0.989713 0.084460 0.656946
O O9 0.772237 0.305384 0.113596
O O10 0.500000 0.500000 0.000000
O O11 0.038858 0.195498 0.839188
O O12 0.240060 0.213305 0.753966
O O13 0.552730 0.883402 0.539677
O O14 0.550020 0.883403 0.769666
O O15 0.396273 0.907997 0.411146
O O16 0.968559 0.508567 0.282189
O O17 0.000000 0.500000 0.500000
#
# Coordination Sequence:
#
# PCOD8009289 Si02
#       8
#     2   2   2   2   2   2   2   2
#     4   9  18  37  64  94 120 151 201 257 296 351
#     4  10  21  36  60  91 118 156 198 245 297 356
#     4  12  26  42  58  85 129 161 194 249 304 366
#     4  10  22  38  57  88 116 157 204 235 302 362
#     4  10  22  38  61  93 120 157 201 245 306 358
#     4   9  19  37  61  86 113 152 201 251 285 346
#     4   9  19  35  61  89 118 149 197 252 294 345
#     4   9  17  35  63  90 118 149 202 250 293 340
#
# _framework density 20.669328
#
# number of rings (size 3 to 8) (size 9 to 14) (size 15 to 20)
#    0.000    2.250    1.250    0.750    3.500    5.500 
#    0.000    1.250    0.000    0.000    0.000    0.000 
#    0.000    0.000    0.000    0.000    0.000    0.000 
#
# Total GULP energy -198287.479925 kJ/mol
# GULP energy per Si atom -12392.967495 kJ/mol
# Density = 2.062228 g / cm^3
# Si number density = 20.669328 Si / 1000 Ang^3
#
#
#
# Elastic Constant Matrix: (Units=GPa)
#
#
# Indices 1 2 3 4 5 6 
#
# 1 122.2605 34.7476 24.9372 -6.1061 -25.2938 -8.9959
# 2 34.7476 136.8623 47.0878 -3.3879 -14.8161 -3.7596
# 3 24.9372 47.0878 53.0503 -1.5149 -15.9806 -2.0141
# 4 -6.1061 -3.3879 -1.5149 31.3439 -3.9143 -5.3786
# 5 -25.2938 -14.8161 -15.9806 -3.9143 26.6675 4.3240
# 6 -8.9959 -3.7596 -2.0141 -5.3786 4.3240 27.4662
#
#
#
# Elastic Compliance Matrix: (Units=1/GPa)
#
#
# Indices 1 2 3 4 5 6 
#
# 1 0.011037 -0.001273 -0.001083 0.003558 0.009212 0.002608
# 2 -0.001273 0.010705 -0.009088 0.000480 -0.000731 0.000591
# 3 -0.001083 -0.009088 0.031406 0.001795 0.013172 -0.001018
# 4 0.003558 0.000480 0.001795 0.035002 0.008746 0.006840
# 5 0.009212 -0.000731 0.013172 0.008746 0.055518 -0.003144
# 6 0.002608 0.000591 -0.001018 0.006840 -0.003144 0.039103
#
#
# Mechanical properties :
#
#
# Convention : Reuss Voigt Hill
#
# Bulk Modulus (GPa) = 33.04505 58.41316 45.72910
# Shear Modulus (GPa) = 23.17534 30.78887 26.98210
#
# Velocity S-wave (km/s) = 3.35213 3.86371 3.61698
# Velocity P-wave (km/s) = 5.56817 6.94453 6.29409
#
# Compressibility (1/GPa) = 0.03026172
#
# Stress axis : x y z
#
# Youngs Moduli (GPa) = 90.60194 93.41005 31.84081
#
# Poissons Ratio (x) = 0.11888 0.03449
# Poissons Ratio (y) = 0.11530 0.28937
# Poissons Ratio (z) = 0.09813 0.84891
#
# Static dielectric constant tensor:
#      x y z
#    x 3.830090 0.062210 -0.148510 
#    y 0.062210 4.187850 0.119500 
#    z -0.148510 0.119500 3.359470 
# 
# 
# High freq. dielectric constant tensor:
#      x y z
#    x 1.810580 0.001470 -0.010080 
#    y 0.001470 1.828910 0.003650 
#    z -0.010080 0.003650 1.759390 
# 
# From -- ./inp_files/433933.got.cif
#   From: 2010.06.25/outbox.cif.g09.slc.cpg/sg2_217_cif.got.tgz:433933.got - 2010.06.27 13:26:56.
