data_PCOD8009112
_publ_section_title
;
Structure prediction by ZEFSAII (Michael W. Deem and Ramdas Pophale) SiO2 
 PCOD8009112
Probable space group: P -1
;
_chemical_formula_sum "Si O2"
_cell_formula_units_Z 14
_cell_length_a 14.074348
_cell_length_b 13.832338
_cell_length_c 13.807425
_cell_angle_alpha 20.928978
_cell_angle_beta 39.225345
_cell_angle_gamma 38.660782
_cell_volume 587.340308
_symmetry_space_group_name_H-M "P -1"
_symmetry_group_IT_number 2
_symmetry_cell_setting 'triclinic'
loop_
_space_group_symop_operation_xyz
x,y,z
-x,-y,-z
loop_
_atom_site_type_symbol
_atom_site_label
_atom_site_fract_x
_atom_site_fract_y
_atom_site_fract_z
Si Si1 0.637078 0.208034 0.273169
Si Si2 0.948603 0.248534 0.086145
Si Si3 0.440357 0.825878 0.848071
Si Si4 0.444697 0.547082 0.390832
Si Si5 0.726304 0.911751 0.083596
Si Si6 0.761733 0.595573 0.077996
Si Si7 0.131118 0.899522 0.415400
O O1 0.808991 0.221829 0.153850
O O2 0.647638 0.111596 0.243506
O O3 0.580141 0.982320 0.594942
O O4 0.512034 0.499571 0.112808
O O5 0.893170 0.478196 0.001596
O O6 0.034335 0.947598 0.346177
O O7 0.097935 0.292461 0.866171
O O8 0.308577 0.923138 0.942470
O O9 0.500000 0.500000 0.500000
O O10 0.393790 0.279110 0.645091
O O11 0.595158 0.579704 0.178922
O O12 0.309501 0.842570 0.205244
O O13 0.785140 0.422035 0.325011
O O14 0.752583 0.901976 0.837558
O O15 0.000000 0.000000 0.500000
#
# Coordination Sequence:
#
# PCOD8009112 Si02
#       7
#     2   2   2   2   2   2   2
#     4  10  23  42  70  89 120 158 208 252 306 375
#     4  11  23  38  60  92 120 159 199 251 310 358
#     4  10  22  45  65  93 119 159 204 255 306 367
#     4  12  25  43  62  90 126 171 210 249 297 359
#     4  12  25  39  63  92 130 157 203 259 308 359
#     4  11  22  39  61  81 120 166 209 243 294 363
#     4  10  21  36  56  86 120 155 202 253 292 349
#
# _framework density 23.836265999999998
#
# number of rings (size 3 to 8) (size 9 to 14) (size 15 to 20)
#    0.000    1.143    0.000    7.286    0.000    8.571 
#    0.000    1.429    0.000    6.857    0.000    0.000 
#    0.000    0.000    0.000    0.000    0.000    0.000 
#
# Total GULP energy -173493.125718 kJ/mol
# GULP energy per Si atom -12392.366123 kJ/mol
# Density = 2.378201 g / cm^3
# Si number density = 23.836266 Si / 1000 Ang^3
#
#
#
# Elastic Constant Matrix: (Units=GPa)
#
#
# Indices 1 2 3 4 5 6 
#
# 1 106.1404 46.9869 11.3290 14.3007 -11.7717 0.6021
# 2 46.9869 149.4487 13.4049 6.2606 3.4133 3.3986
# 3 11.3290 13.4049 87.8920 2.0044 -11.3861 12.4063
# 4 14.3007 6.2606 2.0044 24.6848 -0.1238 -2.5968
# 5 -11.7717 3.4133 -11.3861 -0.1238 21.2861 0.3388
# 6 0.6021 3.3986 12.4063 -2.5968 0.3388 37.0675
#
#
#
# Elastic Compliance Matrix: (Units=1/GPa)
#
#
# Indices 1 2 3 4 5 6 
#
# 1 0.012907 -0.003970 0.000165 -0.006489 0.007831 -0.000427
# 2 -0.003970 0.008139 -0.001246 0.000294 -0.004162 -0.000206
# 3 0.000165 -0.001246 0.013162 -0.001279 0.007395 -0.004451
# 4 -0.006489 0.000294 -0.001279 0.044665 -0.004119 0.003673
# 5 0.007831 -0.004162 0.007395 -0.004119 0.055957 -0.003021
# 6 -0.000427 -0.000206 -0.004451 0.003673 -0.003021 0.028778
#
#
# Mechanical properties :
#
#
# Convention : Reuss Voigt Hill
#
# Bulk Modulus (GPa) = 41.48740 54.10254 47.79497
# Shear Modulus (GPa) = 27.51098 34.72503 31.11800
#
# Velocity S-wave (km/s) = 3.40099 3.82097 3.61708
# Velocity P-wave (km/s) = 5.73282 6.49717 6.12693
#
# Compressibility (1/GPa) = 0.02410370
#
# Stress axis : x y z
#
# Youngs Moduli (GPa) = 77.47932 122.87086 75.97712
#
# Poissons Ratio (x) = 0.48779 -0.01251
# Poissons Ratio (y) = 0.30759 0.09470
# Poissons Ratio (z) = -0.01276 0.15315
#
# Static dielectric constant tensor:
#      x y z
#    x 4.141210 -0.060050 -0.121460 
#    y -0.060050 4.643510 0.654400 
#    z -0.121460 0.654400 4.332110 
# 
# 
# High freq. dielectric constant tensor:
#      x y z
#    x 1.924600 -0.005900 -0.005420 
#    y -0.005900 1.974400 0.011090 
#    z -0.005420 0.011090 1.952270 
# 
# From -- ./inp_files/533995.got.cif
#   From: 2010.06.25/outbox.cif.g09.slc.cpg/sg2_267_cif.got.tgz:533995.got - 2010.06.27 13:26:56.
