data_PCOD8009993
_publ_section_title
;
Structure prediction by ZEFSAII (Michael W. Deem and Ramdas Pophale) SiO2 
 PCOD8009993
Probable space group: P -1
;
_chemical_formula_sum "Si O2"
_cell_formula_units_Z 16
_cell_length_a 8.718601
_cell_length_b 14.657707
_cell_length_c 8.830770
_cell_angle_alpha 48.032822
_cell_angle_beta 62.772284
_cell_angle_gamma 83.273292
_cell_volume 715.040109
_symmetry_space_group_name_H-M "P -1"
_symmetry_group_IT_number 2
_symmetry_cell_setting 'triclinic'
loop_
_space_group_symop_operation_xyz
x,y,z
-x,-y,-z
loop_
_atom_site_type_symbol
_atom_site_label
_atom_site_fract_x
_atom_site_fract_y
_atom_site_fract_z
Si Si1 0.436980 0.055354 0.317638
Si Si2 0.310151 0.428634 0.593897
Si Si3 0.688284 0.546555 0.780529
Si Si4 0.209680 0.960228 0.926501
Si Si5 0.971314 0.430219 0.931912
Si Si6 0.918718 0.146910 0.362001
Si Si7 0.794193 0.821788 0.554802
Si Si8 0.883320 0.860733 0.010795
O O1 0.366488 0.179065 0.250257
O O2 0.500000 0.000000 0.500000
O O3 0.614671 0.091351 0.091221
O O4 0.280070 0.948250 0.422710
O O5 0.500000 0.500000 0.500000
O O6 0.324913 0.480935 0.359979
O O7 0.155967 0.469177 0.710333
O O8 0.269731 0.274124 0.787445
O O9 0.759201 0.697104 0.608689
O O10 0.818911 0.469678 0.867744
O O11 0.500000 0.500000 0.000000
O O12 0.199796 0.059977 0.687412
O O13 0.200732 0.027369 0.017336
O O14 0.031871 0.844842 0.088740
O O15 0.000000 0.500000 0.000000
O O16 0.900229 0.279106 0.156982
O O17 0.020576 0.166506 0.453649
O O18 0.028555 0.091107 0.247140
#
# Coordination Sequence:
#
# PCOD8009993 Si02
#       8
#     2   2   2   2   2   2   2   2
#     4  10  21  37  63  97 121 169 214 265 318 390
#     4  11  25  44  68  97 135 178 224 279 335 399
#     4  12  26  43  68  98 132 178 228 281 332 403
#     4  10  21  40  67  94 128 172 216 263 337 392
#     4  11  24  44  67  97 132 176 229 269 335 391
#     4  11  22  39  67  91 131 169 215 272 323 395
#     4  11  22  40  65  94 131 167 217 264 330 389
#     4  10  21  39  66  91 131 169 209 269 335 386
#
# _framework density 22.376366999999998
#
# number of rings (size 3 to 8) (size 9 to 14) (size 15 to 20)
#    0.000    1.250    5.000    1.500    5.250    1.000 
#    0.000    0.625    0.000    0.000    0.000    0.000 
#    0.000    0.000    0.000    0.000    0.000    0.000 
#
# Total GULP energy -198340.488120 kJ/mol
# GULP energy per Si atom -12396.280507 kJ/mol
# Density = 2.232544 g / cm^3
# Si number density = 22.376367 Si / 1000 Ang^3
#
#
#
# Elastic Constant Matrix: (Units=GPa)
#
#
# Indices 1 2 3 4 5 6 
#
# 1 150.4400 57.5874 32.3767 2.8682 -15.5033 2.4026
# 2 57.5874 130.3171 28.6135 16.7764 -11.9915 6.3153
# 3 32.3767 28.6135 58.1850 10.2773 -11.0397 3.5962
# 4 2.8682 16.7764 10.2773 40.1463 -1.6124 -3.0128
# 5 -15.5033 -11.9915 -11.0397 -1.6124 39.4326 3.7936
# 6 2.4026 6.3153 3.5962 -3.0128 3.7936 46.6627
#
#
#
# Elastic Compliance Matrix: (Units=1/GPa)
#
#
# Indices 1 2 3 4 5 6 
#
# 1 0.008706 -0.003204 -0.003271 0.001634 0.001579 0.000215
# 2 -0.003204 0.010225 -0.002316 -0.003506 0.001189 -0.001363
# 3 -0.003271 -0.002316 0.021806 -0.004352 0.004111 -0.001814
# 4 0.001634 -0.003506 -0.004352 0.027533 -0.000763 0.002565
# 5 0.001579 0.001189 0.004111 -0.000763 0.027737 -0.002863
# 6 0.000215 -0.001363 -0.001814 0.002565 -0.002863 0.022142
#
#
# Mechanical properties :
#
#
# Convention : Reuss Voigt Hill
#
# Bulk Modulus (GPa) = 43.18834 64.01081 53.59957
# Shear Modulus (GPa) = 34.85521 39.93928 37.39724
#
# Velocity S-wave (km/s) = 3.95103 4.22938 4.09257
# Velocity P-wave (km/s) = 6.33695 7.24698 6.80719
#
# Compressibility (1/GPa) = 0.02315440
#
# Stress axis : x y z
#
# Youngs Moduli (GPa) = 114.86533 97.79996 45.85799
#
# Poissons Ratio (x) = 0.31339 0.14999
# Poissons Ratio (y) = 0.36808 0.10622
# Poissons Ratio (z) = 0.37570 0.22652
#
# Static dielectric constant tensor:
#      x y z
#    x 4.417470 -0.260820 -0.438260 
#    y -0.260820 4.739820 0.319820 
#    z -0.438260 0.319820 4.009290 
# 
# 
# High freq. dielectric constant tensor:
#      x y z
#    x 1.882820 0.006880 -0.010500 
#    y 0.006880 1.899900 0.011310 
#    z -0.010500 0.011310 1.865190 
# 
# From -- ./inp_files/199452.got.cif
#   From: 2010.06.25/outbox.cif.g09.slc.cpg/sg2_100_cif.got.tgz:199452.got - 2010.06.27 13:26:56.
