data_PCOD8009222
_publ_section_title
;
Structure prediction by ZEFSAII (Michael W. Deem and Ramdas Pophale) SiO2 
 PCOD8009222
Probable space group: P -1
;
_chemical_formula_sum "Si O2"
_cell_formula_units_Z 12
_cell_length_a 14.655854
_cell_length_b 8.073715
_cell_length_c 9.423807
_cell_angle_alpha 78.999787
_cell_angle_beta 52.423096
_cell_angle_gamma 119.170278
_cell_volume 547.084513
_symmetry_space_group_name_H-M "P -1"
_symmetry_group_IT_number 2
_symmetry_cell_setting 'triclinic'
loop_
_space_group_symop_operation_xyz
x,y,z
-x,-y,-z
loop_
_atom_site_type_symbol
_atom_site_label
_atom_site_fract_x
_atom_site_fract_y
_atom_site_fract_z
Si Si1 0.951963 0.556065 0.246799
Si Si2 0.292981 0.577083 0.719146
Si Si3 0.867719 0.924117 0.916929
Si Si4 0.533255 0.751790 0.208507
Si Si5 0.732741 0.307931 0.994042
Si Si6 0.207412 0.425421 0.375090
O O1 0.814379 0.397676 0.269607
O O2 0.834658 0.447234 0.521069
O O3 0.069386 0.520450 0.158090
O O4 0.082970 0.869883 0.052163
O O5 0.441475 0.652752 0.468043
O O6 0.148073 0.271474 0.957812
O O7 0.382146 0.762445 0.746316
O O8 0.673681 0.756624 0.059074
O O9 0.032342 0.101592 0.614691
O O10 0.388274 0.552365 0.254043
O O11 0.635322 0.047582 0.043263
O O12 0.759919 0.498455 0.833584
#
# Coordination Sequence:
#
# PCOD8009222 Si02
#       6
#     2   2   2   2   2   2
#     4   8  19  34  57  78 102 146 184 206 267 322
#     4  11  20  35  56  85 113 136 179 232 273 310
#     4   9  20  37  61  77 106 147 187 215 263 329
#     4  10  21  36  59  78 108 148 184 214 267 328
#     4  11  20  35  56  85 113 136 179 232 273 310
#     4   9  20  37  61  77 106 147 187 215 263 329
#
# _framework density 21.934456000000001
#
# number of rings (size 3 to 8) (size 9 to 14) (size 15 to 20)
#    1.000    1.333    0.000    3.000    0.000    0.667 
#    0.000    0.833    0.000    0.000    0.000    0.000 
#    0.000    0.000    0.000    0.000    0.000    0.000 
#
# Total GULP energy -148684.874317 kJ/mol
# GULP energy per Si atom -12390.406193 kJ/mol
# Density = 2.188453 g / cm^3
# Si number density = 21.934456 Si / 1000 Ang^3
#
#
#
# Elastic Constant Matrix: (Units=GPa)
#
#
# Indices 1 2 3 4 5 6 
#
# 1 104.0692 18.9086 47.0272 0.1317 -10.6988 23.3901
# 2 18.9086 18.8946 -1.2850 4.6340 -2.1570 7.4879
# 3 47.0272 -1.2850 89.2516 -6.6765 4.6968 21.4298
# 4 0.1317 4.6340 -6.6765 24.0790 8.3011 6.8260
# 5 -10.6988 -2.1570 4.6968 8.3011 35.4050 -6.5695
# 6 23.3901 7.4879 21.4298 6.8260 -6.5695 23.3575
#
#
#
# Elastic Compliance Matrix: (Units=1/GPa)
#
#
# Indices 1 2 3 4 5 6 
#
# 1 0.018111 -0.017171 -0.009676 -0.000836 0.005544 -0.001950
# 2 -0.017171 0.080887 0.016628 -0.001222 -0.006927 -0.025581
# 3 -0.009676 0.016628 0.025142 0.016541 -0.014236 -0.027546
# 4 -0.000836 -0.001222 0.016541 0.066760 -0.025724 -0.040692
# 5 0.005544 -0.006927 -0.014236 -0.025724 0.042855 0.029300
# 6 -0.001950 -0.025581 -0.027546 -0.040692 0.029300 0.098372
#
#
# Mechanical properties :
#
#
# Convention : Reuss Voigt Hill
#
# Bulk Modulus (GPa) = 9.64315 37.94634 23.79474
# Shear Modulus (GPa) = 12.91547 26.40592 19.66070
#
# Velocity S-wave (km/s) = 2.42920 3.47343 2.99714
# Velocity P-wave (km/s) = 3.50341 5.78132 4.78004
#
# Compressibility (1/GPa) = 0.10370056
#
# Stress axis : x y z
#
# Youngs Moduli (GPa) = 55.21622 12.36297 39.77342
#
# Poissons Ratio (x) = 0.21229 0.38484
# Poissons Ratio (y) = 0.94813 -0.66133
# Poissons Ratio (z) = 0.53426 -0.20557
#
# Static dielectric constant tensor:
#      x y z
#    x 3.688610 0.158240 -0.107990 
#    y 0.158240 3.460990 -0.057090 
#    z -0.107990 -0.057090 3.870970 
# 
# 
# High freq. dielectric constant tensor:
#      x y z
#    x 1.852200 0.013190 -0.002280 
#    y 0.013190 1.828820 -0.003000 
#    z -0.002280 -0.003000 1.857200 
# 
# From -- ./inp_files/176307.got.cif
#   From: 2010.06.25/outbox.cif.g09.slc.cpg/sg2_89_cif.got.tgz:176307.got - 2010.06.27 13:26:56.
