data_PCOD8009300
_publ_section_title
;
Structure prediction by ZEFSAII (Michael W. Deem and Ramdas Pophale) SiO2 
 PCOD8009300
Probable space group: P -1
;
_chemical_formula_sum "Si O2"
_cell_formula_units_Z 16
_cell_length_a 22.972816
_cell_length_b 11.177240
_cell_length_c 9.852683
_cell_angle_alpha 54.187547
_cell_angle_beta 30.676897
_cell_angle_gamma 40.990200
_cell_volume 830.983847
_symmetry_space_group_name_H-M "P -1"
_symmetry_group_IT_number 2
_symmetry_cell_setting 'triclinic'
loop_
_space_group_symop_operation_xyz
x,y,z
-x,-y,-z
loop_
_atom_site_type_symbol
_atom_site_label
_atom_site_fract_x
_atom_site_fract_y
_atom_site_fract_z
Si Si1 0.094609 0.691636 0.368219
Si Si2 0.648429 0.066006 0.650803
Si Si3 0.806814 0.991983 0.664377
Si Si4 0.054640 0.814036 0.671139
Si Si5 0.764794 0.139887 0.122603
Si Si6 0.670956 0.535078 0.635279
Si Si7 0.395837 0.719578 0.915527
Si Si8 0.333802 0.277002 0.232990
O O1 0.069292 0.803060 0.485167
O O2 0.191958 0.470543 0.333310
O O3 0.173400 0.742850 0.074073
O O4 0.934921 0.771424 0.580433
O O5 0.693070 0.874827 0.624791
O O6 0.725872 0.024201 0.666316
O O7 0.701334 0.153150 0.387695
O O8 0.476365 0.214133 0.907987
O O9 0.889912 0.081218 0.438666
O O10 0.687566 0.090255 0.956517
O O11 0.161085 0.601609 0.656718
O O12 0.889694 0.923239 0.974669
O O13 0.636346 0.232224 0.209556
O O14 0.566388 0.611345 0.665429
O O15 0.642685 0.703381 0.668629
O O16 0.645722 0.412644 0.865712
#
# Coordination Sequence:
#
# PCOD8009300 Si02
#       8
#     2   2   2   2   2   2   2   2
#     4  10  18  34  62  81 103 140 185 225 261 311
#     4  11  25  35  53  77 117 148 174 211 275 325
#     4  10  17  33  56  83 104 144 177 218 263 332
#     4   9  17  31  58  85 107 129 177 233 272 297
#     4  11  19  35  55  89 106 134 177 232 269 308
#     4   9  17  31  60  81  99 142 183 221 252 324
#     4  10  16  31  60  86  99 131 190 222 263 303
#     4  10  21  41  51  74 113 155 173 209 271 334
#
# _framework density 19.254283999999998
#
# number of rings (size 3 to 8) (size 9 to 14) (size 15 to 20)
#    0.000    2.000    6.250    0.750    0.000    3.000 
#    0.000    4.375    0.000    0.000    0.000    0.000 
#    0.000    0.000    0.000    0.000    0.000    0.000 
#
# Total GULP energy -198274.706356 kJ/mol
# GULP energy per Si atom -12392.169147 kJ/mol
# Density = 1.921046 g / cm^3
# Si number density = 19.254284 Si / 1000 Ang^3
#
#
#
# Elastic Constant Matrix: (Units=GPa)
#
#
# Indices 1 2 3 4 5 6 
#
# 1 77.6604 20.7342 -4.2891 1.1476 -4.0400 -14.5755
# 2 20.7342 78.2644 1.2889 20.3602 -5.1703 -10.5493
# 3 -4.2891 1.2889 22.1702 3.8562 -4.7883 -10.4689
# 4 1.1476 20.3602 3.8562 15.8621 -0.0024 -5.3790
# 5 -4.0400 -5.1703 -4.7883 -0.0024 10.6421 5.5134
# 6 -14.5755 -10.5493 -10.4689 -5.3790 5.5134 35.0801
#
#
#
# Elastic Compliance Matrix: (Units=1/GPa)
#
#
# Indices 1 2 3 4 5 6 
#
# 1 0.015971 -0.004626 0.006574 0.005779 0.002811 0.007651
# 2 -0.004626 0.022433 0.005520 -0.029770 0.011574 0.000088
# 3 0.006574 0.005520 0.062103 -0.017080 0.024599 0.016439
# 4 0.005779 -0.029770 -0.017080 0.107952 -0.024463 0.008749
# 5 0.002811 0.011574 0.024599 -0.024463 0.116976 -0.010146
# 6 0.007651 0.000088 0.016439 0.008749 -0.010146 0.039553
#
#
# Mechanical properties :
#
#
# Convention : Reuss Voigt Hill
#
# Bulk Modulus (GPa) = 8.66233 23.72925 16.19579
# Shear Modulus (GPa) = 12.86888 23.00760 17.93824
#
# Velocity S-wave (km/s) = 2.58808 3.46053 3.05560
# Velocity P-wave (km/s) = 3.66600 5.32146 4.56933
#
# Compressibility (1/GPa) = 0.11544237
#
# Stress axis : x y z
#
# Youngs Moduli (GPa) = 62.61173 44.57765 16.10232
#
# Poissons Ratio (x) = 0.20621 -0.10585
# Poissons Ratio (y) = 0.28964 -0.08889
# Poissons Ratio (z) = -0.41158 -0.24607
#
# Static dielectric constant tensor:
#      x y z
#    x 3.543220 -0.297690 -0.220550 
#    y -0.297690 3.771010 0.539650 
#    z -0.220550 0.539650 3.192960 
# 
# 
# High freq. dielectric constant tensor:
#      x y z
#    x 1.748820 -0.018280 -0.011960 
#    y -0.018280 1.748080 0.041230 
#    z -0.011960 0.041230 1.702960 
# 
# From -- ./inp_files/273325.got.cif
#   From: 2010.06.25/outbox.cif.g09.slc.cpg/sg2_137_cif.got.tgz:273325.got - 2010.06.27 13:26:56.
