data_PCOD8009154
_publ_section_title
;
Structure prediction by ZEFSAII (Michael W. Deem and Ramdas Pophale) SiO2 
 PCOD8009154
Probable space group: P -1
;
_chemical_formula_sum "Si O2"
_cell_formula_units_Z 16
_cell_length_a 9.166856
_cell_length_b 12.402116
_cell_length_c 14.290861
_cell_angle_alpha 105.994965
_cell_angle_beta 120.991516
_cell_angle_gamma 35.132690
_cell_volume 765.818430
_symmetry_space_group_name_H-M "P -1"
_symmetry_group_IT_number 2
_symmetry_cell_setting 'triclinic'
loop_
_space_group_symop_operation_xyz
x,y,z
-x,-y,-z
loop_
_atom_site_type_symbol
_atom_site_label
_atom_site_fract_x
_atom_site_fract_y
_atom_site_fract_z
Si Si1 0.097352 0.977774 0.331696
Si Si2 0.844783 0.321601 0.060943
Si Si3 0.808375 0.247761 0.841176
Si Si4 0.014618 0.479046 0.109843
Si Si5 0.434867 0.145052 0.453069
Si Si6 0.269174 0.145329 0.875692
Si Si7 0.119463 0.676946 0.723257
Si Si8 0.382762 0.909560 0.706561
O O1 0.106261 0.917427 0.216778
O O2 0.439752 0.813124 0.440416
O O3 0.937445 0.185823 0.329584
O O4 0.922346 0.992694 0.350208
O O5 0.986614 0.219657 0.184556
O O6 0.901090 0.418700 0.079014
O O7 0.500000 0.500000 0.000000
O O8 0.946932 0.182869 0.977013
O O9 0.456606 0.455748 0.775894
O O10 0.949179 0.268712 0.828891
O O11 0.343632 0.317258 0.223852
O O12 0.787251 0.693874 0.129038
O O13 0.000000 0.500000 0.000000
O O14 0.602131 0.060175 0.388259
O O15 0.077363 0.328965 0.365536
O O16 0.500000 0.000000 0.500000
O O17 0.399295 0.016003 0.796026
O O18 0.500000 0.000000 0.000000
#
# Coordination Sequence:
#
# PCOD8009154 Si02
#       8
#     2   2   2   2   2   2   2   2
#     4  10  23  39  66  88 119 167 213 257 312 353
#     4  10  21  36  57  88 128 158 200 246 306 377
#     4  10  21  38  59  93 122 164 206 254 304 380
#     4  12  21  38  63  92 127 170 195 245 322 372
#     4  10  22  44  65  89 125 168 212 263 309 357
#     4  11  22  36  62  96 130 158 205 253 305 379
#     4  10  21  41  60  88 129 166 203 260 307 372
#     4  11  22  41  65  94 125 162 212 260 306 373
#
# _framework density 20.892681
#
# number of rings (size 3 to 8) (size 9 to 14) (size 15 to 20)
#    0.000    1.500    3.750    1.125    1.750    1.000 
#    9.000    2.500    0.000    9.000    0.000    0.000 
#    0.000    0.000    0.000    0.000    0.000    0.000 
#
# Total GULP energy -198238.892381 kJ/mol
# GULP energy per Si atom -12389.930774 kJ/mol
# Density = 2.084513 g / cm^3
# Si number density = 20.892681 Si / 1000 Ang^3
#
#
#
# Elastic Constant Matrix: (Units=GPa)
#
#
# Indices 1 2 3 4 5 6 
#
# 1 111.6483 25.1420 44.3555 2.0168 6.9518 -1.5767
# 2 25.1420 80.6753 20.3061 1.4493 5.7971 3.2967
# 3 44.3555 20.3061 100.8522 2.0860 8.3203 4.5126
# 4 2.0168 1.4493 2.0860 26.4358 -2.5631 5.3071
# 5 6.9518 5.7971 8.3203 -2.5631 45.6751 2.2699
# 6 -1.5767 3.2967 4.5126 5.3071 2.2699 18.3433
#
#
#
# Elastic Compliance Matrix: (Units=1/GPa)
#
#
# Indices 1 2 3 4 5 6 
#
# 1 0.011440 -0.002457 -0.004581 -0.001047 -0.000800 0.002954
# 2 -0.002457 0.013699 -0.001498 -0.000110 -0.000991 -0.002150
# 3 -0.004581 -0.001498 0.012471 -0.000066 -0.001238 -0.003020
# 4 -0.001047 -0.000110 -0.000066 0.040666 0.003074 -0.012200
# 5 -0.000800 -0.000991 -0.001238 0.003074 0.022703 -0.003285
# 6 0.002954 -0.002150 -0.003020 -0.012200 -0.003285 0.059835
#
#
# Mechanical properties :
#
#
# Convention : Reuss Voigt Hill
#
# Bulk Modulus (GPa) = 48.68806 52.53144 50.60975
# Shear Modulus (GPa) = 27.06633 31.64899 29.35766
#
# Velocity S-wave (km/s) = 3.60320 3.89631 3.75262
# Velocity P-wave (km/s) = 6.37693 6.74090 6.56144
#
# Compressibility (1/GPa) = 0.02053892
#
# Stress axis : x y z
#
# Youngs Moduli (GPa) = 87.40892 72.99833 80.18854
#
# Poissons Ratio (x) = 0.17933 0.36738
# Poissons Ratio (y) = 0.21473 0.12008
# Poissons Ratio (z) = 0.40046 0.10932
#
# Static dielectric constant tensor:
#      x y z
#    x 3.956270 -0.151270 0.154840 
#    y -0.151270 3.519780 0.211010 
#    z 0.154840 0.211010 4.559020 
# 
# 
# High freq. dielectric constant tensor:
#      x y z
#    x 1.833150 -0.008950 0.015550 
#    y -0.008950 1.785030 0.006900 
#    z 0.015550 0.006900 1.827690 
# 
# From -- ./inp_files/269896.got.cif
#   From: 2010.06.25/outbox.cif.g09.slc.cpg/sg2_135_cif.got.tgz:269896.got - 2010.06.27 13:26:56.
