data_PCOD8009032
_publ_section_title
;
Structure prediction by ZEFSAII (Michael W. Deem and Ramdas Pophale) SiO2 
 PCOD8009032
Probable space group: P -1
;
_chemical_formula_sum "Si O2"
_cell_formula_units_Z 16
_cell_length_a 8.687186
_cell_length_b 11.722095
_cell_length_c 14.155031
_cell_angle_alpha 142.633007
_cell_angle_beta 127.766062
_cell_angle_gamma 66.730034
_cell_volume 678.827545
_symmetry_space_group_name_H-M "P -1"
_symmetry_group_IT_number 2
_symmetry_cell_setting 'triclinic'
loop_
_space_group_symop_operation_xyz
x,y,z
-x,-y,-z
loop_
_atom_site_type_symbol
_atom_site_label
_atom_site_fract_x
_atom_site_fract_y
_atom_site_fract_z
Si Si1 0.921572 0.938207 0.075364
Si Si2 0.208356 0.653725 0.938534
Si Si3 0.984892 0.394037 0.824619
Si Si4 0.846950 0.039379 0.643663
Si Si5 0.506672 0.089631 0.680112
Si Si6 0.520492 0.294514 0.269476
Si Si7 0.860261 0.329877 0.281962
Si Si8 0.585055 0.311304 0.518132
O O1 0.992757 0.012193 0.257385
O O2 0.954153 0.142380 0.167255
O O3 0.697602 0.822335 0.912301
O O4 0.061390 0.803048 0.998314
O O5 0.195180 0.579572 0.777660
O O6 0.167983 0.476355 0.879513
O O7 0.434273 0.764995 0.115049
O O8 0.972701 0.172584 0.698763
O O9 0.796100 0.419734 0.707908
O O10 0.000000 0.500000 0.000000
O O11 0.685389 0.142010 0.705125
O O12 0.701286 0.873759 0.419809
O O13 0.498888 0.870793 0.567882
O O14 0.669287 0.236375 0.210219
O O15 0.591844 0.244078 0.367437
O O16 0.548901 0.525788 0.421789
O O17 0.000000 0.500000 0.500000
#
# Coordination Sequence:
#
# PCOD8009032 Si02
#       8
#     2   2   2   2   2   2   2   2
#     4  11  22  42  67  92 125 169 216 248 310 386
#     4  11  22  40  67  96 126 166 210 259 310 378
#     4  11  17  36  62  95 122 156 214 261 304 369
#     4   9  19  34  61 100 120 161 204 265 308 362
#     4   9  18  33  61  98 124 151 209 268 305 358
#     4  11  23  41  62  91 126 173 205 259 314 373
#     4  12  28  41  61  94 136 164 206 266 320 360
#     4  10  21  35  65  93 122 161 217 253 308 379
#
# _framework density 23.570053000000001
#
# number of rings (size 3 to 8) (size 9 to 14) (size 15 to 20)
#    0.000    1.500    3.750    2.250    5.250    0.000 
#    0.000    0.000    0.000   18.750    0.000    0.000 
#    0.000    0.000    0.000    0.000    0.000    0.000 
#
# Total GULP energy -198226.065830 kJ/mol
# GULP energy per Si atom -12389.129114 kJ/mol
# Density = 2.351641 g / cm^3
# Si number density = 23.570053 Si / 1000 Ang^3
#
#
#
# Elastic Constant Matrix: (Units=GPa)
#
#
# Indices 1 2 3 4 5 6 
#
# 1 50.0517 22.6416 37.8540 -12.6487 -0.6151 23.1636
# 2 22.6416 88.8468 42.9604 -23.5761 3.1275 36.6055
# 3 37.8540 42.9604 179.7794 -46.1972 16.9258 23.5974
# 4 -12.6487 -23.5761 -46.1972 56.5939 5.0918 -2.9801
# 5 -0.6151 3.1275 16.9258 5.0918 25.9798 -4.1144
# 6 23.1636 36.6055 23.5974 -2.9801 -4.1144 32.5471
#
#
#
# Elastic Compliance Matrix: (Units=1/GPa)
#
#
# Indices 1 2 3 4 5 6 
#
# 1 0.034874 0.007347 -0.002656 0.007475 -0.004713 -0.031068
# 2 0.007347 0.029168 0.001599 0.014222 -0.013436 -0.039589
# 3 -0.002656 0.001599 0.009803 0.008537 -0.009492 -0.007434
# 4 0.007475 0.014222 0.008537 0.032416 -0.017690 -0.026773
# 5 -0.004713 -0.013436 -0.009492 -0.017690 0.054497 0.030618
# 6 -0.031068 -0.039589 -0.007434 -0.026773 0.030618 0.104170
#
#
# Mechanical properties :
#
#
# Convention : Reuss Voigt Hill
#
# Bulk Modulus (GPa) = 11.57087 58.39887 34.98487
# Shear Modulus (GPa) = 17.78373 37.37228 27.57800
#
# Velocity S-wave (km/s) = 2.74981 3.98626 3.42430
# Velocity P-wave (km/s) = 3.87320 6.78362 5.52355
#
# Compressibility (1/GPa) = 0.08642393
#
# Stress axis : x y z
#
# Youngs Moduli (GPa) = 28.67471 34.28427 102.01399
#
# Poissons Ratio (x) = -0.25188 0.27097
# Poissons Ratio (y) = -0.21067 -0.16313
# Poissons Ratio (z) = 0.07616 -0.05483
#
# Static dielectric constant tensor:
#      x y z
#    x 3.802010 0.324320 0.200170 
#    y 0.324320 4.364450 -0.337130 
#    z 0.200170 -0.337130 4.774020 
# 
# 
# High freq. dielectric constant tensor:
#      x y z
#    x 1.890250 0.031160 0.013560 
#    y 0.031160 1.931830 -0.018540 
#    z 0.013560 -0.018540 1.959840 
# 
# From -- ./inp_files/274915.got.cif
#   From: 2010.06.25/outbox.cif.g09.slc.cpg/sg2_138_cif.got.tgz:274915.got - 2010.06.27 13:26:56.
