data_PCOD8009187
_publ_section_title
;
Structure prediction by ZEFSAII (Michael W. Deem and Ramdas Pophale) SiO2 
 PCOD8009187
Probable space group: P -1
;
_chemical_formula_sum "Si O2"
_cell_formula_units_Z 16
_cell_length_a 13.733997
_cell_length_b 7.968081
_cell_length_c 15.506398
_cell_angle_alpha 133.377591
_cell_angle_beta 60.316973
_cell_angle_gamma 83.693992
_cell_volume 751.831585
_symmetry_space_group_name_H-M "P -1"
_symmetry_group_IT_number 2
_symmetry_cell_setting 'triclinic'
loop_
_space_group_symop_operation_xyz
x,y,z
-x,-y,-z
loop_
_atom_site_type_symbol
_atom_site_label
_atom_site_fract_x
_atom_site_fract_y
_atom_site_fract_z
Si Si1 0.163414 0.826416 0.957873
Si Si2 0.846014 0.470193 0.894876
Si Si3 0.763828 0.817328 0.877587
Si Si4 0.585760 0.757753 0.252661
Si Si5 0.899487 0.196913 0.528433
Si Si6 0.410702 0.733904 0.540776
Si Si7 0.896274 0.875352 0.088079
Si Si8 0.434328 0.542158 0.272093
O O1 0.049865 0.784503 0.024434
O O2 0.127086 0.117485 0.127773
O O3 0.338280 0.484852 0.784201
O O4 0.171259 0.858167 0.863424
O O5 0.761746 0.655341 0.906046
O O6 0.703005 0.598293 0.063681
O O7 0.938717 0.561229 0.921318
O O8 0.979963 0.070262 0.693108
O O9 0.852791 0.538358 0.664808
O O10 0.584494 0.153937 0.045595
O O11 0.443110 0.783434 0.306406
O O12 0.530817 0.086754 0.426253
O O13 0.730789 0.312655 0.640152
O O14 0.000000 0.000000 0.500000
O O15 0.500000 0.500000 0.500000
O O16 0.439622 0.550072 0.376654
O O17 0.222749 0.987335 0.732212
#
# Coordination Sequence:
#
# PCOD8009187 Si02
#       8
#     2   2   2   2   2   2   2   2
#     4   9  18  34  57  84 117 153 194 235 300 341
#     4   9  19  36  62  84 118 152 197 247 297 347
#     4   9  19  41  59  79 118 161 195 245 293 352
#     4  10  21  36  58  88 123 149 191 245 294 364
#     4  10  22  40  62  87 114 155 210 250 288 345
#     4  11  22  37  56  90 126 156 193 233 299 370
#     4   9  19  34  57  84 121 156 185 239 304 356
#     4  11  22  37  63  87 117 162 198 238 304 350
#
# _framework density 21.281362000000001
#
# number of rings (size 3 to 8) (size 9 to 14) (size 15 to 20)
#    0.000    2.250    0.000    3.750    3.500    1.000 
#    6.750    5.000    2.750    0.000    0.000    0.000 
#    0.000    0.000    0.000    0.000    0.000    0.000 
#
# Total GULP energy -198230.632779 kJ/mol
# GULP energy per Si atom -12389.414549 kJ/mol
# Density = 2.123293 g / cm^3
# Si number density = 21.281362 Si / 1000 Ang^3
#
#
#
# Elastic Constant Matrix: (Units=GPa)
#
#
# Indices 1 2 3 4 5 6 
#
# 1 111.3473 26.0067 26.3499 2.9525 1.2005 13.4840
# 2 26.0067 63.1037 17.6113 8.8060 7.7279 11.3503
# 3 26.3499 17.6113 99.9911 13.1569 18.4564 2.7305
# 4 2.9525 8.8060 13.1569 28.5919 5.0722 -1.9811
# 5 1.2005 7.7279 18.4564 5.0722 24.6251 5.5559
# 6 13.4840 11.3503 2.7305 -1.9811 5.5559 25.0632
#
#
#
# Elastic Compliance Matrix: (Units=1/GPa)
#
#
# Indices 1 2 3 4 5 6 
#
# 1 0.010991 -0.003329 -0.002895 0.000219 0.003740 -0.004902
# 2 -0.003329 0.019855 -0.001289 -0.005221 -0.002464 -0.006927
# 3 -0.002895 -0.001289 0.013063 -0.003537 -0.009069 0.002449
# 4 0.000219 -0.005221 -0.003537 0.039640 -0.005460 0.006975
# 5 0.003740 -0.002464 -0.009069 -0.005460 0.051789 -0.011820
# 6 -0.004902 -0.006927 0.002449 0.006975 -0.011820 0.048578
#
#
# Mechanical properties :
#
#
# Convention : Reuss Voigt Hill
#
# Bulk Modulus (GPa) = 34.62172 46.04199 40.33185
# Shear Modulus (GPa) = 23.97287 29.28766 26.63027
#
# Velocity S-wave (km/s) = 3.35994 3.71376 3.54127
# Velocity P-wave (km/s) = 5.59965 6.33018 5.97609
#
# Compressibility (1/GPa) = 0.02888361
#
# Stress axis : x y z
#
# Youngs Moduli (GPa) = 90.98349 50.36602 76.54966
#
# Poissons Ratio (x) = 0.16764 0.22164
# Poissons Ratio (y) = 0.30284 0.09866
# Poissons Ratio (z) = 0.26343 0.06491
#
# Static dielectric constant tensor:
#      x y z
#    x 4.156490 0.397290 0.060260 
#    y 0.397290 3.991240 0.071000 
#    z 0.060260 0.071000 4.226630 
# 
# 
# High freq. dielectric constant tensor:
#      x y z
#    x 1.830900 0.011040 0.002900 
#    y 0.011040 1.825540 0.009760 
#    z 0.002900 0.009760 1.834220 
# 
# From -- ./inp_files/237562.got.cif
#   From: 2010.06.25/outbox.cif.g09.slc.cpg/sg2_119_cif.got.tgz:237562.got - 2010.06.27 13:26:56.
