data_PCOD8009621
_publ_section_title
;
Structure prediction by ZEFSAII (Michael W. Deem and Ramdas Pophale) SiO2 
 PCOD8009621
Probable space group: P -1
;
_chemical_formula_sum "Si O2"
_cell_formula_units_Z 14
_cell_length_a 19.399846
_cell_length_b 21.297389
_cell_length_c 9.195099
_cell_angle_alpha 34.007677
_cell_angle_beta 145.593247
_cell_angle_gamma 161.289227
_cell_volume 664.569758
_symmetry_space_group_name_H-M "P -1"
_symmetry_group_IT_number 2
_symmetry_cell_setting 'triclinic'
loop_
_space_group_symop_operation_xyz
x,y,z
-x,-y,-z
loop_
_atom_site_type_symbol
_atom_site_label
_atom_site_fract_x
_atom_site_fract_y
_atom_site_fract_z
Si Si1 0.289461 0.838430 0.342597
Si Si2 0.626482 0.880604 0.212787
Si Si3 0.182718 0.508496 0.690612
Si Si4 0.009699 0.997180 0.350275
Si Si5 0.793874 0.777034 0.006660
Si Si6 0.633010 0.423548 0.408989
Si Si7 0.466774 0.348812 0.784406
O O1 0.250005 0.685991 0.504090
O O2 0.072313 0.713115 0.291899
O O3 0.500000 0.000000 0.500000
O O4 0.346775 0.967676 0.063990
O O5 0.432993 0.713296 0.315689
O O6 0.561370 0.760029 0.187754
O O7 0.862490 0.022447 0.417915
O O8 0.216735 0.524564 0.546402
O O9 0.331775 0.535317 0.987923
O O10 0.761324 0.817116 0.201087
O O11 0.158217 0.201632 0.126835
O O12 0.000000 0.000000 0.500000
O O13 0.577081 0.685055 0.831557
O O14 0.767600 0.633329 0.306662
O O15 0.000000 0.000000 0.000000
O O16 0.500000 0.500000 0.500000
#
# Coordination Sequence:
#
# PCOD8009621 Si02
#       7
#     2   2   2   2   2   2   2
#     4  11  24  47  68  88 123 168 226 262 312 368
#     4  10  22  42  61  92 134 166 206 266 309 379
#     4  11  25  42  69  95 120 171 216 265 310 376
#     4   9  20  34  58  94 122 168 198 248 312 368
#     4  10  21  37  58  88 138 170 193 245 324 385
#     4  10  24  39  59  95 130 162 208 259 319 377
#     4  11  22  34  65  98 129 163 212 254 317 378
#
# _framework density 21.06626
#
# number of rings (size 3 to 8) (size 9 to 14) (size 15 to 20)
#    0.000    1.714    1.429    1.714   14.000    1.714 
#    0.000    0.714    0.000    0.000    0.000    0.000 
#    0.000    0.000    0.000    0.000    0.000    0.000 
#
# Total GULP energy -173489.181979 kJ/mol
# GULP energy per Si atom -12392.084427 kJ/mol
# Density = 2.101831 g / cm^3
# Si number density = 21.066260 Si / 1000 Ang^3
#
#
#
# Elastic Constant Matrix: (Units=GPa)
#
#
# Indices 1 2 3 4 5 6 
#
# 1 73.3989 41.8515 29.9899 -9.2630 -5.1935 18.3304
# 2 41.8515 143.2841 59.5428 -3.5421 1.9062 14.7054
# 3 29.9899 59.5428 129.4586 -22.2206 1.0833 18.5175
# 4 -9.2630 -3.5421 -22.2206 45.4511 3.8607 -2.5637
# 5 -5.1935 1.9062 1.0833 3.8607 23.0480 -5.7075
# 6 18.3304 14.7054 18.5175 -2.5637 -5.7075 34.4070
#
#
#
# Elastic Compliance Matrix: (Units=1/GPa)
#
#
# Indices 1 2 3 4 5 6 
#
# 1 0.018709 -0.004323 -0.000950 0.002405 0.002477 -0.007018
# 2 -0.004323 0.009810 -0.003789 -0.001867 -0.001347 -0.000213
# 3 -0.000950 -0.003789 0.011098 0.004906 -0.002197 -0.003846
# 4 0.002405 -0.001867 0.004906 0.024992 -0.004206 -0.001960
# 5 0.002477 -0.001347 -0.002197 -0.004206 0.046819 0.007891
# 6 -0.007018 -0.000213 -0.003846 -0.001960 0.007891 0.036127
#
#
# Mechanical properties :
#
#
# Convention : Reuss Voigt Hill
#
# Bulk Modulus (GPa) = 46.52696 67.65664 57.09180
# Shear Modulus (GPa) = 28.92796 34.89839 31.91317
#
# Velocity S-wave (km/s) = 3.70968 4.07455 3.89639
# Velocity P-wave (km/s) = 6.36262 7.37033 6.88494
#
# Compressibility (1/GPa) = 0.02149291
#
# Stress axis : x y z
#
# Youngs Moduli (GPa) = 53.45081 101.93511 90.10675
#
# Poissons Ratio (x) = 0.44069 0.08556
# Poissons Ratio (y) = 0.23108 0.34143
# Poissons Ratio (z) = 0.05076 0.38626
#
# Static dielectric constant tensor:
#      x y z
#    x 4.539030 -2.104430 3.578470 
#    y -2.104430 14.022830 -14.434880 
#    z 3.578470 -14.434880 25.562090 
# 
# 
# High freq. dielectric constant tensor:
#      x y z
#    x 1.815270 0.017940 -0.008530 
#    y 0.017940 1.838860 -0.011300 
#    z -0.008530 -0.011300 1.820830 
# 
# From -- ./inp_files/338083.got.cif
#   From: 2010.06.25/outbox.cif.g09.slc.cpg/sg2_170_cif.got.tgz:338083.got - 2010.06.27 13:26:56.
