data_PCOD8009162
_publ_section_title
;
Structure prediction by ZEFSAII (Michael W. Deem and Ramdas Pophale) SiO2 
 PCOD8009162
Probable space group: P -1
;
_chemical_formula_sum "Si O2"
_cell_formula_units_Z 16
_cell_length_a 6.065694
_cell_length_b 12.004442
_cell_length_c 12.499796
_cell_angle_alpha 105.362688
_cell_angle_beta 62.686800
_cell_angle_gamma 90.121425
_cell_volume 772.190135
_symmetry_space_group_name_H-M "P -1"
_symmetry_group_IT_number 2
_symmetry_cell_setting 'triclinic'
loop_
_space_group_symop_operation_xyz
x,y,z
-x,-y,-z
loop_
_atom_site_type_symbol
_atom_site_label
_atom_site_fract_x
_atom_site_fract_y
_atom_site_fract_z
Si Si1 0.243025 0.461302 0.077493
Si Si2 0.458534 0.671689 0.851112
Si Si3 0.762689 0.639734 0.463458
Si Si4 0.144875 0.940036 0.550682
Si Si5 0.131501 0.237242 0.321456
Si Si6 0.255866 0.602727 0.664572
Si Si7 0.023055 0.322711 0.912428
Si Si8 0.324869 0.167832 0.641492
O O1 0.297659 0.408095 0.170545
O O2 0.032106 0.574548 0.138594
O O3 0.500000 0.500000 0.000000
O O4 0.175762 0.360992 0.988537
O O5 0.580196 0.776607 0.791319
O O6 0.337513 0.595775 0.768990
O O7 0.240511 0.716820 0.996853
O O8 0.895352 0.667671 0.551503
O O9 0.474560 0.622360 0.539603
O O10 0.875894 0.513880 0.357429
O O11 0.788738 0.748294 0.407786
O O12 0.371903 0.843028 0.433991
O O13 0.942464 0.884766 0.653296
O O14 0.253009 0.038279 0.620140
O O15 0.000000 0.000000 0.500000
O O16 0.947961 0.284306 0.278462
O O17 0.208160 0.217775 0.791902
#
# Coordination Sequence:
#
# PCOD8009162 Si02
#       8
#     2   2   2   2   2   2   2   2
#     4   9  20  38  59  92 129 170 203 237 308 368
#     4  10  22  37  61  90 130 168 199 244 309 371
#     4  10  21  36  57  96 123 162 198 248 315 372
#     4  11  24  45  63  89 117 165 212 264 307 352
#     4  11  21  40  64  87 123 167 206 254 306 368
#     4  10  21  37  58  91 134 160 199 248 308 383
#     4  10  22  40  58  93 129 165 204 251 302 370
#     4  11  24  40  66  87 125 159 209 257 310 362
#
# _framework density 20.720282999999998
#
# number of rings (size 3 to 8) (size 9 to 14) (size 15 to 20)
#    0.000    1.750    2.500    1.125    7.000    2.000 
#    0.000    0.625    0.000    3.750    0.000    0.000 
#    0.000    0.000    0.000    0.000    0.000    0.000 
#
# Total GULP energy -198249.757559 kJ/mol
# GULP energy per Si atom -12390.609847 kJ/mol
# Density = 2.067312 g / cm^3
# Si number density = 20.720283 Si / 1000 Ang^3
#
#
#
# Elastic Constant Matrix: (Units=GPa)
#
#
# Indices 1 2 3 4 5 6 
#
# 1 91.0013 39.2924 38.3073 -7.2224 10.4998 -2.7849
# 2 39.2924 108.4574 50.0997 -15.5136 -5.8060 13.3454
# 3 38.3073 50.0997 99.6152 -5.0442 -11.1911 1.9096
# 4 -7.2224 -15.5136 -5.0442 33.6698 2.2229 -4.7134
# 5 10.4998 -5.8060 -11.1911 2.2229 37.8341 -12.9018
# 6 -2.7849 13.3454 1.9096 -4.7134 -12.9018 38.8320
#
#
#
# Elastic Compliance Matrix: (Units=1/GPa)
#
#
# Indices 1 2 3 4 5 6 
#
# 1 0.015361 -0.003593 -0.004721 0.001434 -0.006045 0.000734
# 2 -0.003593 0.014209 -0.005482 0.004351 -0.000204 -0.004411
# 3 -0.004721 -0.005482 0.015161 -0.001293 0.005919 0.002610
# 4 0.001434 0.004351 -0.001293 0.032205 -0.001269 0.002159
# 5 -0.006045 -0.000204 0.005919 -0.001269 0.033413 0.010293
# 6 0.000734 -0.004411 0.002610 0.002159 0.010293 0.030874
#
#
# Mechanical properties :
#
#
# Convention : Reuss Voigt Hill
#
# Bulk Modulus (GPa) = 58.34899 61.60809 59.97854
# Shear Modulus (GPa) = 28.64896 33.49215 31.07056
#
# Velocity S-wave (km/s) = 3.72244 4.02480 3.87657
# Velocity P-wave (km/s) = 6.83351 7.16913 7.00333
#
# Compressibility (1/GPa) = 0.01713826
#
# Stress axis : x y z
#
# Youngs Moduli (GPa) = 65.09876 70.38029 65.96077
#
# Poissons Ratio (x) = 0.25291 0.31137
# Poissons Ratio (y) = 0.23393 0.36160
# Poissons Ratio (z) = 0.30730 0.38583
#
# Static dielectric constant tensor:
#      x y z
#    x 3.667760 0.421230 -0.194310 
#    y 0.421230 3.731560 -0.191480 
#    z -0.194310 -0.191480 3.621440 
# 
# 
# High freq. dielectric constant tensor:
#      x y z
#    x 1.826090 0.010950 -0.004280 
#    y 0.010950 1.794160 -0.032570 
#    z -0.004280 -0.032570 1.796370 
# 
# From -- ./inp_files/364951.got.cif
#   From: 2010.06.25/outbox.cif.g09.slc.cpg/sg2_183_cif.got.tgz:364951.got - 2010.06.27 13:26:56.
