data_PCOD8009165
_publ_section_title
;
Structure prediction by ZEFSAII (Michael W. Deem and Ramdas Pophale) SiO2 
 PCOD8009165
Probable space group: P -1
;
_chemical_formula_sum "Si O2"
_cell_formula_units_Z 16
_cell_length_a 12.126285
_cell_length_b 12.523378
_cell_length_c 9.302018
_cell_angle_alpha 82.191617
_cell_angle_beta 140.267881
_cell_angle_gamma 112.888758
_cell_volume 799.245259
_symmetry_space_group_name_H-M "P -1"
_symmetry_group_IT_number 2
_symmetry_cell_setting 'triclinic'
loop_
_space_group_symop_operation_xyz
x,y,z
-x,-y,-z
loop_
_atom_site_type_symbol
_atom_site_label
_atom_site_fract_x
_atom_site_fract_y
_atom_site_fract_z
Si Si1 0.820348 0.641504 0.784625
Si Si2 0.393956 0.709022 0.750930
Si Si3 0.465489 0.557472 0.622498
Si Si4 0.855010 0.055345 0.677507
Si Si5 0.521984 0.981835 0.857203
Si Si6 0.628844 0.471396 0.026076
Si Si7 0.910416 0.091806 0.060117
Si Si8 0.003968 0.326510 0.747284
O O1 0.612063 0.631808 0.628287
O O2 0.756747 0.524202 0.637068
O O3 0.942407 0.766971 0.803114
O O4 0.941331 0.630213 0.041621
O O5 0.500312 0.656862 0.760224
O O6 0.512331 0.851256 0.851070
O O7 0.368405 0.652391 0.896302
O O8 0.191542 0.668641 0.480422
O O9 0.538695 0.462284 0.778859
O O10 0.644006 0.001354 0.401114
O O11 0.984110 0.192295 0.729565
O O12 0.827895 0.052735 0.823380
O O13 0.970486 0.980868 0.759067
O O14 0.500000 0.000000 0.000000
O O15 0.733630 0.071532 0.992964
O O16 0.841963 0.582788 0.225955
O O17 0.500000 0.500000 0.000000
#
# Coordination Sequence:
#
# PCOD8009165 Si02
#       8
#     2   2   2   2   2   2   2   2
#     4   9  19  37  57  89 115 141 195 247 287 348
#     4  10  21  36  58  80 113 159 188 234 300 348
#     4   9  19  36  59  85 115 145 191 244 292 346
#     4   9  21  39  65  91 112 160 206 245 300 359
#     4  11  25  42  57  91 127 156 201 253 295 355
#     4   9  18  32  54  81 106 150 192 228 279 349
#     4  10  21  39  67  87 118 163 199 246 304 354
#     4   9  18  35  55  83 117 143 191 242 286 353
#
# _framework density 20.018885000000001
#
# number of rings (size 3 to 8) (size 9 to 14) (size 15 to 20)
#    0.000    2.500    0.000    0.750    8.750    2.000 
#   11.250    0.000    0.000    0.000    0.000    0.000 
#    0.000    0.000    0.000    0.000    0.000    0.000 
#
# Total GULP energy -198263.745054 kJ/mol
# GULP energy per Si atom -12391.484066 kJ/mol
# Density = 1.997332 g / cm^3
# Si number density = 20.018885 Si / 1000 Ang^3
#
#
#
# Elastic Constant Matrix: (Units=GPa)
#
#
# Indices 1 2 3 4 5 6 
#
# 1 82.7985 38.1974 32.2771 9.9339 -2.2303 13.8228
# 2 38.1974 98.8362 49.1827 0.5313 9.4321 16.8346
# 3 32.2771 49.1827 107.2365 6.4157 3.6198 2.9162
# 4 9.9339 0.5313 6.4157 33.1443 0.6411 6.2281
# 5 -2.2303 9.4321 3.6198 0.6411 25.0083 9.0608
# 6 13.8228 16.8346 2.9162 6.2281 9.0608 29.8567
#
#
#
# Elastic Compliance Matrix: (Units=1/GPa)
#
#
# Indices 1 2 3 4 5 6 
#
# 1 0.016887 -0.004674 -0.002771 -0.003438 0.005930 -0.005994
# 2 -0.004674 0.016250 -0.005970 0.003504 -0.003575 -0.006061
# 3 -0.002771 -0.005970 0.012968 -0.002364 -0.001366 0.004290
# 4 -0.003438 0.003504 -0.002364 0.032941 0.000466 -0.007166
# 5 0.005930 -0.003575 -0.001366 0.000466 0.047527 -0.015116
# 6 -0.005994 -0.006061 0.004290 -0.007166 -0.015116 0.045349
#
#
# Mechanical properties :
#
#
# Convention : Reuss Voigt Hill
#
# Bulk Modulus (GPa) = 51.87955 58.68728 55.28342
# Shear Modulus (GPa) = 24.36941 28.88279 26.62610
#
# Velocity S-wave (km/s) = 3.49280 3.80251 3.65094
# Velocity P-wave (km/s) = 6.49906 6.97556 6.74152
#
# Compressibility (1/GPa) = 0.01927542
#
# Stress axis : x y z
#
# Youngs Moduli (GPa) = 59.21795 61.53974 77.11269
#
# Poissons Ratio (x) = 0.28764 0.21364
# Poissons Ratio (y) = 0.27678 0.46036
# Poissons Ratio (z) = 0.16406 0.36739
#
# Static dielectric constant tensor:
#      x y z
#    x 3.428200 0.265490 -0.126540 
#    y 0.265490 4.075810 -0.290390 
#    z -0.126540 -0.290390 4.262430 
# 
# 
# High freq. dielectric constant tensor:
#      x y z
#    x 1.759560 0.015090 0.005890 
#    y 0.015090 1.782260 -0.002970 
#    z 0.005890 -0.002970 1.789310 
# 
# From -- ./inp_files/270268.got.cif
#   From: 2010.06.25/outbox.cif.g09.slc.cpg/sg2_136_cif.got.tgz:270268.got - 2010.06.27 13:26:56.
