data_PCOD8009503
_publ_section_title
;
Structure prediction by ZEFSAII (Michael W. Deem and Ramdas Pophale) SiO2 
 PCOD8009503
Probable space group: P -1
;
_chemical_formula_sum "Si O2"
_cell_formula_units_Z 14
_cell_length_a 9.175407
_cell_length_b 20.705432
_cell_length_c 11.635150
_cell_angle_alpha 140.081629
_cell_angle_beta 152.744463
_cell_angle_gamma 46.998335
_cell_volume 649.587912
_symmetry_space_group_name_H-M "P -1"
_symmetry_group_IT_number 2
_symmetry_cell_setting 'triclinic'
loop_
_space_group_symop_operation_xyz
x,y,z
-x,-y,-z
loop_
_atom_site_type_symbol
_atom_site_label
_atom_site_fract_x
_atom_site_fract_y
_atom_site_fract_z
Si Si1 0.405715 0.846315 0.150884
Si Si2 0.476125 0.948877 0.572588
Si Si3 0.685515 0.363983 0.746480
Si Si4 0.214688 0.222165 0.881882
Si Si5 0.762049 0.789581 0.708332
Si Si6 0.216444 0.079008 0.890483
Si Si7 0.654460 0.584257 0.645484
O O1 0.546253 0.876446 0.414021
O O2 0.658234 0.785974 0.169961
O O3 0.321051 0.949309 0.163312
O O4 0.094281 0.778050 0.858457
O O5 0.582708 0.889475 0.677651
O O6 0.104523 0.977554 0.370074
O O7 0.425304 0.315556 0.585332
O O8 0.495153 0.427772 0.603479
O O9 0.857389 0.265534 0.676849
O O10 0.954219 0.429054 0.092706
O O11 0.215371 0.115702 0.806482
O O12 0.430653 0.305478 0.213353
O O13 0.788014 0.814872 0.896840
O O14 0.500000 0.000000 0.000000
O O15 0.500000 0.500000 0.500000
#
# Coordination Sequence:
#
# PCOD8009503 Si02
#       7
#     2   2   2   2   2   2   2
#     4  10  23  35  53  82 121 162 208 252 297 354
#     4  10  21  37  51  79 116 172 209 248 299 351
#     4  10  21  38  67  90 120 156 201 248 313 368
#     4  10  22  37  59  92 117 160 203 259 301 360
#     4  11  20  38  54  80 118 163 202 247 303 364
#     4  11  22  33  57  83 121 160 211 256 298 356
#     4  10  21  39  68  98 119 148 200 262 314 368
#
# _framework density 21.552125
#
# number of rings (size 3 to 8) (size 9 to 14) (size 15 to 20)
#    0.857    0.857    2.857    1.714    4.000    4.571 
#    0.000    0.000    0.000    1.714    0.000    0.000 
#    0.000    0.000    0.000    0.000    0.000    0.000 
#
# Total GULP energy -173451.005408 kJ/mol
# GULP energy per Si atom -12389.357529 kJ/mol
# Density = 2.150307 g / cm^3
# Si number density = 21.552125 Si / 1000 Ang^3
#
#
#
# Elastic Constant Matrix: (Units=GPa)
#
#
# Indices 1 2 3 4 5 6 
#
# 1 96.8178 11.3718 23.1114 -2.4228 19.9186 9.2860
# 2 11.3718 64.3284 20.8569 -1.6695 7.1376 26.2996
# 3 23.1114 20.8569 98.9022 2.6240 19.0973 22.8581
# 4 -2.4228 -1.6695 2.6240 34.5659 11.7356 4.5495
# 5 19.9186 7.1376 19.0973 11.7356 30.3494 7.1054
# 6 9.2860 26.2996 22.8581 4.5495 7.1054 23.9413
#
#
#
# Elastic Compliance Matrix: (Units=1/GPa)
#
#
# Indices 1 2 3 4 5 6 
#
# 1 0.012691 0.000126 -0.000814 0.004316 -0.008942 -0.002451
# 2 0.000126 0.029725 0.002231 0.006899 -0.002884 -0.035288
# 3 -0.000814 0.002231 0.014425 0.003210 -0.006923 -0.014463
# 4 0.004316 0.006899 0.003210 0.037135 -0.017515 -0.014175
# 5 -0.008942 -0.002884 -0.006923 -0.017515 0.050236 0.001665
# 6 -0.002451 -0.035288 -0.014463 -0.014175 0.001665 0.097491
#
#
# Mechanical properties :
#
#
# Convention : Reuss Voigt Hill
#
# Bulk Modulus (GPa) = 16.68641 41.19207 28.93924
# Shear Modulus (GPa) = 19.33556 31.41854 25.37705
#
# Velocity S-wave (km/s) = 2.99850 3.82225 3.43516
# Velocity P-wave (km/s) = 4.44378 6.21560 5.40282
#
# Compressibility (1/GPa) = 0.05992902
#
# Stress axis : x y z
#
# Youngs Moduli (GPa) = 78.79753 33.64139 69.32491
#
# Poissons Ratio (x) = -0.00425 0.05641
# Poissons Ratio (y) = -0.00996 -0.15469
# Poissons Ratio (z) = 0.06412 -0.07507
#
# Static dielectric constant tensor:
#      x y z
#    x 3.706450 0.277920 0.168200 
#    y 0.277920 3.454460 -0.054170 
#    z 0.168200 -0.054170 3.990430 
# 
# 
# High freq. dielectric constant tensor:
#      x y z
#    x 1.830820 0.032420 0.019020 
#    y 0.032420 1.812360 -0.003990 
#    z 0.019020 -0.003990 1.849390 
# 
# From -- ./inp_files/34316.got.cif
#   From: 2010.06.25/outbox.cif.g09.slc.cpg/sg2_18_cif.got.tgz:34316.got - 2010.06.27 13:26:56.
