data_PCOD8009659
_publ_section_title
;
Structure prediction by ZEFSAII (Michael W. Deem and Ramdas Pophale) SiO2 
 PCOD8009659
Probable space group: P -1
;
_chemical_formula_sum "Si O2"
_cell_formula_units_Z 16
_cell_length_a 9.410024
_cell_length_b 6.669483
_cell_length_c 22.710667
_cell_angle_alpha 57.890980
_cell_angle_beta 44.914935
_cell_angle_gamma 46.890211
_cell_volume 731.549806
_symmetry_space_group_name_H-M "P -1"
_symmetry_group_IT_number 2
_symmetry_cell_setting 'triclinic'
loop_
_space_group_symop_operation_xyz
x,y,z
-x,-y,-z
loop_
_atom_site_type_symbol
_atom_site_label
_atom_site_fract_x
_atom_site_fract_y
_atom_site_fract_z
Si Si1 0.226384 0.022412 0.418189
Si Si2 0.580569 0.439486 0.418286
Si Si3 0.936009 0.733655 0.097483
Si Si4 0.421541 0.931867 0.616069
Si Si5 0.697856 0.347348 0.084151
Si Si6 0.201641 0.699692 0.805297
Si Si7 0.806504 0.284094 0.860078
Si Si8 0.011624 0.524079 0.675573
O O1 0.334762 0.086505 0.434355
O O2 0.170345 0.259351 0.351201
O O3 0.427299 0.723137 0.381924
O O4 0.000000 0.000000 0.500000
O O5 0.500000 0.500000 0.500000
O O6 0.545969 0.199717 0.438155
O O7 0.854143 0.345229 0.349770
O O8 0.121673 0.704683 0.096377
O O9 0.829304 0.543453 0.174144
O O10 0.075297 0.648023 0.007941
O O11 0.724512 0.051434 0.107697
O O12 0.365900 0.752955 0.705822
O O13 0.206636 0.245707 0.629197
O O14 0.672613 0.398576 0.153285
O O15 0.470021 0.595559 0.080926
O O16 0.945942 0.972238 0.844115
O O17 0.859371 0.477630 0.774152
#
# Coordination Sequence:
#
# PCOD8009659 Si02
#       8
#     2   2   2   2   2   2   2   2
#     4  11  23  42  62  92 118 153 202 251 305 367
#     4  11  23  43  62  89 119 156 199 251 308 364
#     4  10  21  37  60  90 124 162 202 245 300 351
#     4  10  24  40  63  86 122 160 202 251 309 360
#     4  10  21  37  60  90 125 160 201 251 294 351
#     4  10  21  39  58  88 120 160 202 248 299 356
#     4  10  21  37  59  85 123 159 202 249 296 355
#     4  10  22  41  60  87 121 158 203 253 302 362
#
# _framework density 21.871372000000001
#
# number of rings (size 3 to 8) (size 9 to 14) (size 15 to 20)
#    0.000    1.750    1.250    2.250    0.000    8.000 
#    0.000    0.000    0.000    0.000    0.000    0.000 
#    0.000    0.000    0.000    0.000    0.000    0.000 
#
# Total GULP energy -198406.751019 kJ/mol
# GULP energy per Si atom -12400.421939 kJ/mol
# Density = 2.182159 g / cm^3
# Si number density = 21.871372 Si / 1000 Ang^3
#
#
#
# Elastic Constant Matrix: (Units=GPa)
#
#
# Indices 1 2 3 4 5 6 
#
# 1 95.8876 50.3361 8.6977 5.2559 -6.2164 1.0038
# 2 50.3361 86.9475 14.3498 -12.0141 -4.1228 0.4279
# 3 8.6977 14.3498 55.2617 -5.4099 2.0048 5.9351
# 4 5.2559 -12.0141 -5.4099 33.9547 0.7964 -0.7203
# 5 -6.2164 -4.1228 2.0048 0.7964 33.3490 -7.4749
# 6 1.0038 0.4279 5.9351 -0.7203 -7.4749 42.2049
#
#
#
# Elastic Compliance Matrix: (Units=1/GPa)
#
#
# Indices 1 2 3 4 5 6 
#
# 1 0.016236 -0.010062 -0.000629 -0.006219 0.001980 0.000049
# 2 -0.010062 0.018866 -0.002642 0.007812 0.000576 0.000655
# 3 -0.000629 -0.002642 0.019519 0.002262 -0.002362 -0.003083
# 4 -0.006219 0.007812 0.002262 0.033567 -0.001102 0.000128
# 5 0.001980 0.000576 -0.002362 -0.001102 0.031920 0.005914
# 6 0.000049 0.000655 -0.003083 0.000128 0.005914 0.025169
#
#
# Mechanical properties :
#
#
# Convention : Reuss Voigt Hill
#
# Bulk Modulus (GPa) = 35.76901 42.76265 39.26583
# Shear Modulus (GPa) = 27.58470 32.88260 30.23365
#
# Velocity S-wave (km/s) = 3.55522 3.88165 3.72202
# Velocity P-wave (km/s) = 5.76564 6.29952 6.03848
#
# Compressibility (1/GPa) = 0.02795716
#
# Stress axis : x y z
#
# Youngs Moduli (GPa) = 61.58981 53.00649 51.23233
#
# Poissons Ratio (x) = 0.53333 0.03221
# Poissons Ratio (y) = 0.61969 0.13534
# Poissons Ratio (z) = 0.03872 0.14003
#
# Static dielectric constant tensor:
#      x y z
#    x 4.046300 -0.140900 0.019280 
#    y -0.140900 4.173460 -0.252290 
#    z 0.019280 -0.252290 3.901630 
# 
# 
# High freq. dielectric constant tensor:
#      x y z
#    x 1.854490 -0.005440 0.002240 
#    y -0.005440 1.859180 -0.017590 
#    z 0.002240 -0.017590 1.862720 
# 
# From -- ./inp_files/47725.got.cif
#   From: 2010.06.25/outbox.cif.g09.slc.cpg/sg2_24_cif.got.tgz:47725.got - 2010.06.27 13:26:56.
