data_PCOD8009742
_publ_section_title
;
Structure prediction by ZEFSAII (Michael W. Deem and Ramdas Pophale) SiO2 
 PCOD8009742
Probable space group: P -1
;
_chemical_formula_sum "Si O2"
_cell_formula_units_Z 16
_cell_length_a 21.011619
_cell_length_b 15.859486
_cell_length_c 9.404043
_cell_angle_alpha 151.806537
_cell_angle_beta 146.395263
_cell_angle_gamma 32.549430
_cell_volume 745.021317
_symmetry_space_group_name_H-M "P -1"
_symmetry_group_IT_number 2
_symmetry_cell_setting 'triclinic'
loop_
_space_group_symop_operation_xyz
x,y,z
-x,-y,-z
loop_
_atom_site_type_symbol
_atom_site_label
_atom_site_fract_x
_atom_site_fract_y
_atom_site_fract_z
Si Si1 0.585749 0.398068 0.279903
Si Si2 0.564984 0.140146 0.610160
Si Si3 0.131160 0.279532 0.637219
Si Si4 0.728522 0.694012 0.316269
Si Si5 0.140270 0.506146 0.457640
Si Si6 0.653399 0.348835 0.631094
Si Si7 0.784903 0.148723 0.839998
Si Si8 0.306875 0.335543 0.260795
O O1 0.651847 0.264126 0.343335
O O2 0.473802 0.592147 0.424887
O O3 0.679645 0.469331 0.477051
O O4 0.535131 0.279582 0.901615
O O5 0.658120 0.188710 0.752626
O O6 0.435287 0.184397 0.349851
O O7 0.624045 0.916879 0.441303
O O8 0.148193 0.342794 0.603941
O O9 0.006934 0.447166 0.724219
O O10 0.115162 0.076073 0.293314
O O11 0.262826 0.237070 0.902928
O O12 0.773895 0.642730 0.485190
O O13 0.669120 0.549988 0.935833
O O14 0.187998 0.397317 0.236937
O O15 0.155387 0.709066 0.780505
O O16 0.761670 0.185240 0.681359
#
# Coordination Sequence:
#
# PCOD8009742 Si02
#       8
#     2   2   2   2   2   2   2   2
#     4  11  21  37  60  88 127 158 195 246 305 374
#     4  11  22  39  63  95 123 154 197 254 318 350
#     4  11  24  41  62  90 124 163 207 246 289 359
#     4  10  23  40  63  93 120 156 200 260 299 355
#     4  11  23  42  65  87 121 169 205 239 300 359
#     4  10  21  37  60  89 121 158 196 244 315 355
#     4  10  21  39  65  90 118 158 204 254 297 360
#     4  12  23  39  63  90 129 157 198 254 303 363
#
# _framework density 21.475895000000001
#
# number of rings (size 3 to 8) (size 9 to 14) (size 15 to 20)
#    0.000    1.250    3.750    3.000    0.000    7.000 
#    0.000    0.000    0.000    1.500    0.000    0.000 
#    0.000    0.000    0.000    0.000    0.000    0.000 
#
# Total GULP energy -198365.243620 kJ/mol
# GULP energy per Si atom -12397.827726 kJ/mol
# Density = 2.142702 g / cm^3
# Si number density = 21.475895 Si / 1000 Ang^3
#
#
#
# Elastic Constant Matrix: (Units=GPa)
#
#
# Indices 1 2 3 4 5 6 
#
# 1 92.1101 26.4129 5.3319 14.1952 0.9652 1.7030
# 2 26.4129 59.5023 16.3055 -0.8454 1.0390 -2.2480
# 3 5.3319 16.3055 52.6055 0.2044 4.6198 16.0684
# 4 14.1952 -0.8454 0.2044 21.0326 2.7569 1.2056
# 5 0.9652 1.0390 4.6198 2.7569 26.2178 -3.0505
# 6 1.7030 -2.2480 16.0684 1.2056 -3.0505 34.1966
#
#
#
# Elastic Compliance Matrix: (Units=1/GPa)
#
#
# Indices 1 2 3 4 5 6 
#
# 1 0.014304 -0.006835 0.001054 -0.009926 0.000455 -0.001267
# 2 -0.006835 0.022290 -0.007977 0.005161 0.000865 0.005449
# 3 0.001054 -0.007977 0.025953 0.000248 -0.005870 -0.013304
# 4 -0.009926 0.005161 0.000248 0.055324 -0.005905 -0.001760
# 5 0.000455 0.000865 -0.005870 -0.005905 0.040516 0.006615
# 6 -0.001267 0.005449 -0.013304 -0.001760 0.006615 0.036567
#
#
# Mechanical properties :
#
#
# Convention : Reuss Voigt Hill
#
# Bulk Modulus (GPa) = 28.54510 33.36872 30.95691
# Shear Modulus (GPa) = 21.35408 26.70058 24.02733
#
# Velocity S-wave (km/s) = 3.15672 3.52984 3.34848
# Velocity P-wave (km/s) = 5.15820 5.67314 5.42179
#
# Compressibility (1/GPa) = 0.03503228
#
# Stress axis : x y z
#
# Youngs Moduli (GPa) = 69.91100 44.86291 38.53080
#
# Poissons Ratio (x) = 0.30665 -0.04062
# Poissons Ratio (y) = 0.47786 0.30734
# Poissons Ratio (z) = -0.07371 0.35785
#
# Static dielectric constant tensor:
#      x y z
#    x 4.136180 0.187870 0.007040 
#    y 0.187870 3.651690 -0.070960 
#    z 0.007040 -0.070960 3.686460 
# 
# 
# High freq. dielectric constant tensor:
#      x y z
#    x 1.863010 0.015810 0.002310 
#    y 0.015810 1.825360 -0.006180 
#    z 0.002310 -0.006180 1.830140 
# 
# From -- ./inp_files/216639.got.cif
#   From: 2010.06.25/outbox.cif.g09.slc.cpg/sg2_109_cif.got.tgz:216639.got - 2010.06.27 13:26:56.
