data_PCOD8009107
_publ_section_title
;
Structure prediction by ZEFSAII (Michael W. Deem and Ramdas Pophale) SiO2 
 PCOD8009107
Probable space group: P -1
;
_chemical_formula_sum "Si O2"
_cell_formula_units_Z 16
_cell_length_a 8.571591
_cell_length_b 12.901945
_cell_length_c 10.932860
_cell_angle_alpha 87.825095
_cell_angle_beta 72.717255
_cell_angle_gamma 48.645838
_cell_volume 845.186827
_symmetry_space_group_name_H-M "P -1"
_symmetry_group_IT_number 2
_symmetry_cell_setting 'triclinic'
loop_
_space_group_symop_operation_xyz
x,y,z
-x,-y,-z
loop_
_atom_site_type_symbol
_atom_site_label
_atom_site_fract_x
_atom_site_fract_y
_atom_site_fract_z
Si Si1 0.273842 0.035894 0.078117
Si Si2 0.824183 0.319262 0.102217
Si Si3 0.397003 0.795233 0.932380
Si Si4 0.013145 0.409746 0.895350
Si Si5 0.507377 0.219079 0.823595
Si Si6 0.475940 0.592697 0.340192
Si Si7 0.817507 0.606811 0.700041
Si Si8 0.214187 0.532940 0.504537
O O1 0.315236 0.953080 0.198871
O O2 0.237335 0.964652 0.981794
O O3 0.056085 0.202154 0.128625
O O4 0.500000 0.000000 0.000000
O O5 0.731279 0.249794 0.082885
O O6 0.649606 0.451915 0.224162
O O7 0.878504 0.365210 0.968738
O O8 0.582576 0.751708 0.793954
O O9 0.522933 0.716901 0.035914
O O10 0.275884 0.272857 0.823986
O O11 0.922640 0.486087 0.783100
O O12 0.000000 0.500000 0.000000
O O13 0.601347 0.268380 0.712391
O O14 0.251844 0.623841 0.417999
O O15 0.584407 0.574269 0.444631
O O16 0.776040 0.564859 0.587031
O O17 0.981962 0.632047 0.629949
#
# Coordination Sequence:
#
# PCOD8009107 Si02
#       8
#     2   2   2   2   2   2   2   2
#     4  10  22  37  56  88 115 153 182 220 307 351
#     4  12  21  35  61  88 117 150 181 239 287 343
#     4  10  22  35  56  87 118 145 184 235 290 346
#     4  12  19  32  57  88 117 145 182 233 294 339
#     4  10  21  36  56  85 119 141 185 237 287 345
#     4  11  21  37  58  85 114 145 197 235 283 325
#     4  11  20  36  54  85 119 148 186 237 284 326
#     4  10  23  34  53  84 113 155 190 235 274 331
#
# _framework density 18.930726
#
# number of rings (size 3 to 8) (size 9 to 14) (size 15 to 20)
#    0.750    0.500    6.250    0.375    3.500    1.000 
#    0.000    0.000    0.000    3.000    6.500    4.375 
#    0.000    0.000    0.000    0.000    0.000    0.000 
#
# Total GULP energy -198258.266922 kJ/mol
# GULP energy per Si atom -12391.141683 kJ/mol
# Density = 1.888764 g / cm^3
# Si number density = 18.930726 Si / 1000 Ang^3
#
#
#
# Elastic Constant Matrix: (Units=GPa)
#
#
# Indices 1 2 3 4 5 6 
#
# 1 85.0187 15.8970 32.2239 -8.1735 -23.8607 2.6670
# 2 15.8970 71.4923 28.0099 -14.7412 -14.3725 3.8519
# 3 32.2239 28.0099 92.7547 -15.7450 -28.5933 5.5710
# 4 -8.1735 -14.7412 -15.7450 16.1044 6.1278 -7.7499
# 5 -23.8607 -14.3725 -28.5933 6.1278 47.9175 -3.3947
# 6 2.6670 3.8519 5.5710 -7.7499 -3.3947 20.3421
#
#
#
# Elastic Compliance Matrix: (Units=1/GPa)
#
#
# Indices 1 2 3 4 5 6 
#
# 1 0.014635 -0.000616 -0.002973 0.002397 0.005077 0.000773
# 2 -0.000616 0.018385 -0.002330 0.015023 0.002131 0.003317
# 3 -0.002973 -0.002330 0.016117 0.010444 0.006204 0.001431
# 4 0.002397 0.015023 0.010444 0.102902 0.001137 0.033374
# 5 0.005077 0.002131 0.006204 0.001137 0.027756 0.002297
# 6 0.000773 0.003317 0.001431 0.033374 0.002297 0.061136
#
#
# Mechanical properties :
#
#
# Convention : Reuss Voigt Hill
#
# Bulk Modulus (GPa) = 26.81022 44.61415 35.71219
# Shear Modulus (GPa) = 18.85364 28.41512 23.63438
#
# Velocity S-wave (km/s) = 3.15926 3.87848 3.53720
# Velocity P-wave (km/s) = 5.24413 6.60871 5.96557
#
# Compressibility (1/GPa) = 0.03729921
#
# Stress axis : x y z
#
# Youngs Moduli (GPa) = 68.32841 54.39298 62.04710
#
# Poissons Ratio (x) = 0.03352 0.18445
# Poissons Ratio (y) = 0.04211 0.14456
# Poissons Ratio (z) = 0.20312 0.12673
#
# Static dielectric constant tensor:
#      x y z
#    x 3.705110 0.001930 -0.256430 
#    y 0.001930 3.282570 -0.141850 
#    z -0.256430 -0.141850 3.582890 
# 
# 
# High freq. dielectric constant tensor:
#      x y z
#    x 1.752960 -0.000350 -0.012210 
#    y -0.000350 1.703440 -0.013160 
#    z -0.012210 -0.013160 1.726180 
# 
# From -- ./inp_files/394144.got.cif
#   From: 2010.06.25/outbox.cif.g09.slc.cpg/sg2_198_cif.got.tgz:394144.got - 2010.06.27 13:26:56.
