data_PCOD8009801
_publ_section_title
;
Structure prediction by ZEFSAII (Michael W. Deem and Ramdas Pophale) SiO2 
 PCOD8009801
Probable space group: P -1
;
_chemical_formula_sum "Si O2"
_cell_formula_units_Z 16
_cell_length_a 11.080328
_cell_length_b 13.789262
_cell_length_c 11.039362
_cell_angle_alpha 99.749813
_cell_angle_beta 25.966674
_cell_angle_gamma 95.291171
_cell_volume 720.773694
_symmetry_space_group_name_H-M "P -1"
_symmetry_group_IT_number 2
_symmetry_cell_setting 'triclinic'
loop_
_space_group_symop_operation_xyz
x,y,z
-x,-y,-z
loop_
_atom_site_type_symbol
_atom_site_label
_atom_site_fract_x
_atom_site_fract_y
_atom_site_fract_z
Si Si1 0.785543 0.003947 0.938411
Si Si2 0.802705 0.184624 0.799786
Si Si3 0.331573 0.490428 0.333310
Si Si4 0.674391 0.947733 0.441373
Si Si5 0.772022 0.801437 0.787583
Si Si6 0.499378 0.398010 0.408445
Si Si7 0.748929 0.601489 0.868414
Si Si8 0.965629 0.731567 0.157582
O O1 0.532251 0.058441 0.259760
O O2 0.838874 0.071417 0.789521
O O3 0.078387 0.986265 0.742483
O O4 0.694674 0.901864 0.953998
O O5 0.951770 0.194107 0.538845
O O6 0.929136 0.252984 0.797850
O O7 0.475857 0.218032 0.082550
O O8 0.479085 0.420778 0.289200
O O9 0.335005 0.424254 0.196892
O O10 0.017133 0.531125 0.662124
O O11 0.497167 0.584695 0.180925
O O12 0.820212 0.835935 0.254467
O O13 0.500000 0.000000 0.500000
O O14 0.814193 0.714280 0.831392
O O15 0.500000 0.500000 0.500000
O O16 0.240044 0.349249 0.677970
O O17 0.772182 0.317327 0.169671
#
# Coordination Sequence:
#
# PCOD8009801 Si02
#       8
#     2   2   2   2   2   2   2   2
#     4  11  23  40  62  97 134 163 218 267 322 382
#     4  11  21  37  65  92 132 172 208 264 315 393
#     4  10  21  40  60  86 124 164 210 262 315 387
#     4  11  24  46  68  92 129 179 219 267 314 389
#     4  12  22  37  61 100 132 167 207 260 336 383
#     4  12  25  44  67  97 129 166 222 290 330 367
#     4  10  21  37  61  88 124 168 207 252 321 397
#     4  11  23  43  68  96 122 171 227 254 325 398
#
# _framework density 22.198367999999999
#
# number of rings (size 3 to 8) (size 9 to 14) (size 15 to 20)
#    0.000    1.000    0.000    9.000    0.000    2.000 
#    6.750    0.000    0.000    0.000    0.000    0.000 
#    0.000    0.000    0.000    0.000    0.000    0.000 
#
# Total GULP energy -198443.659128 kJ/mol
# GULP energy per Si atom -12402.728696 kJ/mol
# Density = 2.214784 g / cm^3
# Si number density = 22.198368 Si / 1000 Ang^3
#
#
#
# Elastic Constant Matrix: (Units=GPa)
#
#
# Indices 1 2 3 4 5 6 
#
# 1 58.8991 29.2391 24.9342 6.4858 -20.5979 -9.7663
# 2 29.2391 120.6537 25.0742 -5.0025 -8.1863 6.6932
# 3 24.9342 25.0742 104.6394 -8.3471 -13.8328 7.2212
# 4 6.4858 -5.0025 -8.3471 35.6875 2.0279 -2.0338
# 5 -20.5979 -8.1863 -13.8328 2.0279 27.8057 -1.5700
# 6 -9.7663 6.6932 7.2212 -2.0338 -1.5700 30.0054
#
#
#
# Elastic Compliance Matrix: (Units=1/GPa)
#
#
# Indices 1 2 3 4 5 6 
#
# 1 0.033303 -0.006678 -0.005145 -0.008613 0.021569 0.014112
# 2 -0.006678 0.010209 -0.000730 0.002386 -0.002719 -0.004256
# 3 -0.005145 -0.000730 0.011669 0.003258 0.001314 -0.004030
# 4 -0.008613 0.002386 0.003258 0.030914 -0.006445 -0.002361
# 5 0.021569 -0.002719 0.001314 -0.006445 0.052809 0.009637
# 6 0.014112 -0.004256 -0.004030 -0.002361 0.009637 0.040184
#
#
# Mechanical properties :
#
#
# Convention : Reuss Voigt Hill
#
# Bulk Modulus (GPa) = 33.25098 49.18748 41.21923
# Shear Modulus (GPa) = 23.34045 32.36271 27.85158
#
# Velocity S-wave (km/s) = 3.24612 3.82237 3.54597
# Velocity P-wave (km/s) = 5.39085 6.45654 5.94761
#
# Compressibility (1/GPa) = 0.03007430
#
# Stress axis : x y z
#
# Youngs Moduli (GPa) = 30.02737 97.95455 85.69456
#
# Poissons Ratio (x) = 0.65413 0.44090
# Poissons Ratio (y) = 0.20052 0.06260
# Poissons Ratio (z) = 0.15449 0.07155
#
# Static dielectric constant tensor:
#      x y z
#    x 3.811150 -0.014950 -0.242500 
#    y -0.014950 4.008420 -0.118520 
#    z -0.242500 -0.118520 4.130770 
# 
# 
# High freq. dielectric constant tensor:
#      x y z
#    x 1.849320 -0.005500 -0.020010 
#    y -0.005500 1.880430 -0.008270 
#    z -0.020010 -0.008270 1.888830 
# 
# From -- ./inp_files/434113.got.cif
#   From: 2010.06.25/outbox.cif.g09.slc.cpg/sg2_218_cif.got.tgz:434113.got - 2010.06.27 13:26:56.
