data_PCOD8009608
_publ_section_title
;
Structure prediction by ZEFSAII (Michael W. Deem and Ramdas Pophale) SiO2 
 PCOD8009608
Probable space group: P -1
;
_chemical_formula_sum "Si O2"
_cell_formula_units_Z 16
_cell_length_a 6.704113
_cell_length_b 19.296415
_cell_length_c 19.625476
_cell_angle_alpha 23.258585
_cell_angle_beta 67.724416
_cell_angle_gamma 80.036335
_cell_volume 814.096410
_symmetry_space_group_name_H-M "P -1"
_symmetry_group_IT_number 2
_symmetry_cell_setting 'triclinic'
loop_
_space_group_symop_operation_xyz
x,y,z
-x,-y,-z
loop_
_atom_site_type_symbol
_atom_site_label
_atom_site_fract_x
_atom_site_fract_y
_atom_site_fract_z
Si Si1 0.811232 0.317979 0.775458
Si Si2 0.907493 0.421641 0.235149
Si Si3 0.646062 0.816785 0.455382
Si Si4 0.815677 0.085540 0.448195
Si Si5 0.998276 0.637305 0.572500
Si Si6 0.270425 0.861381 0.743023
Si Si7 0.442721 0.107341 0.746098
Si Si8 0.294845 0.413742 0.547663
O O1 0.903064 0.425964 0.738542
O O2 0.662650 0.411463 0.669675
O O3 0.028631 0.328592 0.691663
O O4 0.637487 0.087532 0.022265
O O5 0.622379 0.369495 0.323819
O O6 0.936306 0.284043 0.298837
O O7 0.007345 0.385728 0.325295
O O8 0.079376 0.651258 0.988253
O O9 0.827532 0.732456 0.487952
O O10 0.616745 0.938377 0.285350
O O11 0.760782 0.965894 0.369835
O O12 0.784292 0.146310 0.322127
O O13 0.556150 0.916765 0.665388
O O14 0.000000 0.000000 0.500000
O O15 0.268445 0.773381 0.385610
O O16 0.307983 0.232526 0.672694
O O17 0.500000 0.500000 0.500000
#
# Coordination Sequence:
#
# PCOD8009608 Si02
#       8
#     2   2   2   2   2   2   2   2
#     4  11  24  40  64  89 118 161 199 245 309 356
#     4  10  22  37  59  86 119 155 197 245 293 353
#     4  10  22  39  59  85 122 154 197 252 287 353
#     4  10  21  37  58  86 120 151 197 245 289 354
#     4  11  22  40  60  89 119 155 205 244 296 363
#     4  10  21  38  58  86 117 158 195 239 302 344
#     4  11  23  41  62  89 121 158 200 250 302 354
#     4  11  23  43  62  89 124 151 202 253 294 368
#
# _framework density 19.653690999999998
#
# number of rings (size 3 to 8) (size 9 to 14) (size 15 to 20)
#    0.000    1.500    2.500    2.250    0.000    4.000 
#    0.000    0.000    0.000    0.000    0.000    0.000 
#    0.000    0.000    0.000    0.000    0.000    0.000 
#
# Total GULP energy -198426.918609 kJ/mol
# GULP energy per Si atom -12401.682413 kJ/mol
# Density = 1.960896 g / cm^3
# Si number density = 19.653691 Si / 1000 Ang^3
#
#
#
# Elastic Constant Matrix: (Units=GPa)
#
#
# Indices 1 2 3 4 5 6 
#
# 1 95.3297 36.4070 49.7280 -9.8973 1.4198 -9.8775
# 2 36.4070 105.2899 40.7432 -7.7999 1.0316 -1.1196
# 3 49.7280 40.7432 153.5088 -2.7162 1.3701 -1.8237
# 4 -9.8973 -7.7999 -2.7162 20.1604 2.0158 3.8404
# 5 1.4198 1.0316 1.3701 2.0158 21.0101 -1.7275
# 6 -9.8775 -1.1196 -1.8237 3.8404 -1.7275 43.3291
#
#
#
# Elastic Compliance Matrix: (Units=1/GPa)
#
#
# Indices 1 2 3 4 5 6 
#
# 1 0.014422 -0.003148 -0.003710 0.004955 -0.000842 0.002577
# 2 -0.003148 0.011572 -0.002005 0.002866 -0.000564 -0.000780
# 3 -0.003710 -0.002005 0.008219 -0.001399 -0.000088 -0.000431
# 4 0.004955 0.002866 -0.001399 0.054290 -0.005914 -0.003903
# 5 -0.000842 -0.000564 -0.000088 -0.005914 0.048438 0.002245
# 6 0.002577 -0.000780 -0.000431 -0.003903 0.002245 0.024064
#
#
# Mechanical properties :
#
#
# Convention : Reuss Voigt Hill
#
# Bulk Modulus (GPa) = 60.65932 67.54273 64.10103
# Shear Modulus (GPa) = 27.14037 32.04993 29.59515
#
# Velocity S-wave (km/s) = 3.72012 4.04262 3.88471
# Velocity P-wave (km/s) = 7.02734 7.49876 7.26687
#
# Compressibility (1/GPa) = 0.01648551
#
# Stress axis : x y z
#
# Youngs Moduli (GPa) = 69.33944 86.41878 121.66492
#
# Poissons Ratio (x) = 0.27206 0.45143
# Poissons Ratio (y) = 0.21830 0.24393
# Poissons Ratio (z) = 0.25728 0.17326
#
# Static dielectric constant tensor:
#      x y z
#    x 3.595700 -0.063570 -0.089650 
#    y -0.063570 3.879870 0.109030 
#    z -0.089650 0.109030 3.439520 
# 
# 
# High freq. dielectric constant tensor:
#      x y z
#    x 1.770440 0.004850 -0.005770 
#    y 0.004850 1.790280 0.002670 
#    z -0.005770 0.002670 1.755520 
# 
# From -- ./inp_files/12746.got.cif
#   From: 2010.06.25/outbox.cif.g09.slc.cpg/sg2_7_cif.got.tgz:12746.got - 2010.06.27 13:26:56.
