data_PCOD8009838
_publ_section_title
;
Structure prediction by ZEFSAII (Michael W. Deem and Ramdas Pophale) SiO2 
 PCOD8009838
Probable space group: P -1
;
_chemical_formula_sum "Si O2"
_cell_formula_units_Z 14
_cell_length_a 13.877465
_cell_length_b 23.851526
_cell_length_c 24.300062
_cell_angle_alpha 11.961221
_cell_angle_beta 21.987344
_cell_angle_gamma 23.808094
_cell_volume 620.980040
_symmetry_space_group_name_H-M "P -1"
_symmetry_group_IT_number 2
_symmetry_cell_setting 'triclinic'
loop_
_space_group_symop_operation_xyz
x,y,z
-x,-y,-z
loop_
_atom_site_type_symbol
_atom_site_label
_atom_site_fract_x
_atom_site_fract_y
_atom_site_fract_z
Si Si1 0.508620 0.331444 0.938866
Si Si2 0.013328 0.810071 0.623300
Si Si3 0.775008 0.063550 0.815474
Si Si4 0.798403 0.986622 0.453839
Si Si5 0.904030 0.610396 0.268531
Si Si6 0.454796 0.537857 0.088751
Si Si7 0.429570 0.258232 0.578399
O O1 0.645340 0.316034 0.941074
O O2 0.610812 0.572603 0.618629
O O3 0.200501 0.400511 0.049982
O O4 0.567192 0.055828 0.138147
O O5 0.306750 0.669696 0.599404
O O6 0.940973 0.982982 0.440714
O O7 0.000000 0.000000 0.500000
O O8 0.762986 0.380816 0.532204
O O9 0.988513 0.983583 0.733447
O O10 0.500000 0.000000 0.000000
O O11 0.848087 0.892938 0.995207
O O12 0.579313 0.236124 0.325965
O O13 0.661987 0.709729 0.783659
O O14 0.803018 0.654338 0.341720
O O15 0.210614 0.521883 0.193589
#
# Coordination Sequence:
#
# PCOD8009838 Si02
#       7
#     2   2   2   2   2   2   2
#     4  10  21  37  61  94 132 166 209 263 317 385
#     4   9  19  37  62  93 124 160 210 260 317 381
#     4  12  27  47  68  97 127 165 217 271 327 378
#     4  11  24  42  68  93 130 171 210 272 321 370
#     4  12  27  44  67  94 131 173 219 265 310 389
#     4  11  24  43  65  98 129 170 220 257 319 387
#     4  11  22  38  62  94 130 172 209 262 324 370
#
# _framework density 22.545007999999999
#
# number of rings (size 3 to 8) (size 9 to 14) (size 15 to 20)
#    0.000    1.143    0.000    6.857    0.000   11.429 
#    0.000    0.000    0.000    0.000    0.000    0.000 
#    0.000    0.000    0.000    0.000    0.000    0.000 
#
# Total GULP energy -173634.262149 kJ/mol
# GULP energy per Si atom -12402.447296 kJ/mol
# Density = 2.249369 g / cm^3
# Si number density = 22.545008 Si / 1000 Ang^3
#
#
#
# Elastic Constant Matrix: (Units=GPa)
#
#
# Indices 1 2 3 4 5 6 
#
# 1 79.4561 32.7398 23.2521 16.7568 2.7188 -7.1725
# 2 32.7398 80.7126 19.9107 11.8513 1.2987 3.0549
# 3 23.2521 19.9107 91.8441 4.4378 9.0981 -4.7517
# 4 16.7568 11.8513 4.4378 34.6510 5.0894 -0.6708
# 5 2.7188 1.2987 9.0981 5.0894 40.5248 3.9745
# 6 -7.1725 3.0549 -4.7517 -0.6708 3.9745 33.6202
#
#
#
# Elastic Compliance Matrix: (Units=1/GPa)
#
#
# Indices 1 2 3 4 5 6 
#
# 1 0.017284 -0.005605 -0.002680 -0.006029 0.000016 0.003696
# 2 -0.005605 0.015663 -0.002108 -0.002579 0.000974 -0.003083
# 3 -0.002680 -0.002108 0.012347 0.000880 -0.002803 0.001714
# 4 -0.006029 -0.002579 0.000880 0.033119 -0.003889 0.000193
# 5 0.000016 0.000974 -0.002803 -0.003889 0.026119 -0.003647
# 6 0.003696 -0.003083 0.001714 0.000193 -0.003647 0.031490
#
#
# Mechanical properties :
#
#
# Convention : Reuss Voigt Hill
#
# Bulk Modulus (GPa) = 40.80130 44.86868 42.83499
# Shear Modulus (GPa) = 30.30735 33.49989 31.90362
#
# Velocity S-wave (km/s) = 3.67045 3.85893 3.76587
# Velocity P-wave (km/s) = 6.00832 6.30874 6.16036
#
# Compressibility (1/GPa) = 0.02450902
#
# Stress axis : x y z
#
# Youngs Moduli (GPa) = 57.85801 63.84528 80.98954
#
# Poissons Ratio (x) = 0.35783 0.21703
# Poissons Ratio (y) = 0.32428 0.17072
# Poissons Ratio (z) = 0.15505 0.13458
#
# Static dielectric constant tensor:
#      x y z
#    x 4.366300 -0.351980 -0.116680 
#    y -0.351980 4.425560 0.233440 
#    z -0.116680 0.233440 4.216010 
# 
# 
# High freq. dielectric constant tensor:
#      x y z
#    x 1.898130 0.000580 0.005300 
#    y 0.000580 1.881140 0.008020 
#    z 0.005300 0.008020 1.895070 
# 
# From -- ./inp_files/362751.got.cif
#   From: 2010.06.25/outbox.cif.g09.slc.cpg/sg2_182_cif.got.tgz:362751.got - 2010.06.27 13:26:56.
