data_PCOD8009298
_publ_section_title
;
Structure prediction by ZEFSAII (Michael W. Deem and Ramdas Pophale) SiO2 
 PCOD8009298
Probable space group: P -1
;
_chemical_formula_sum "Si O2"
_cell_formula_units_Z 12
_cell_length_a 10.839651
_cell_length_b 19.982700
_cell_length_c 5.199230
_cell_angle_alpha 86.336344
_cell_angle_beta 78.869063
_cell_angle_gamma 148.160927
_cell_volume 523.380029
_symmetry_space_group_name_H-M "P -1"
_symmetry_group_IT_number 2
_symmetry_cell_setting 'triclinic'
loop_
_space_group_symop_operation_xyz
x,y,z
-x,-y,-z
loop_
_atom_site_type_symbol
_atom_site_label
_atom_site_fract_x
_atom_site_fract_y
_atom_site_fract_z
Si Si1 0.341768 0.257564 0.301256
Si Si2 0.748765 0.335114 0.164274
Si Si3 0.621048 0.523577 0.196332
Si Si4 0.019168 0.088625 0.970925
Si Si5 0.216714 0.785976 0.998128
Si Si6 0.556548 0.132015 0.611832
O O1 0.478829 0.249486 0.256366
O O2 0.563055 0.417376 0.228205
O O3 0.117794 0.158139 0.634419
O O4 0.217201 0.208157 0.081804
O O5 0.717480 0.278130 0.459224
O O6 0.781450 0.294415 0.939712
O O7 0.000000 0.500000 0.000000
O O8 0.500000 0.500000 0.500000
O O9 0.934485 0.682514 0.051041
O O10 0.500000 0.500000 0.000000
O O11 0.000000 0.000000 0.000000
O O12 0.742080 0.994446 0.155329
O O13 0.310003 0.853020 0.226534
O O14 0.423437 0.901010 0.656321
#
# Coordination Sequence:
#
# PCOD8009298 Si02
#       6
#     2   2   2   2   2   2
#     4  12  24  40  65  98 133 171 211 258 322 387
#     4  10  21  36  61  96 128 158 201 258 330 386
#     4  12  26  46  67  91 126 172 223 274 313 362
#     4  12  22  38  63  98 141 168 200 253 325 407
#     4  10  21  40  63  91 121 162 207 262 326 375
#     4  10  21  36  60  94 128 164 191 252 323 390
#
# _framework density 22.927890999999999
#
# number of rings (size 3 to 8) (size 9 to 14) (size 15 to 20)
#    1.000    0.000    3.333    4.500    0.000    2.000 
#    0.000    0.000    0.000   20.000    0.000    0.000 
#    0.000    0.000    0.000    0.000    0.000    0.000 
#
# Total GULP energy -148695.451831 kJ/mol
# GULP energy per Si atom -12391.287653 kJ/mol
# Density = 2.287571 g / cm^3
# Si number density = 22.927891 Si / 1000 Ang^3
#
#
#
# Elastic Constant Matrix: (Units=GPa)
#
#
# Indices 1 2 3 4 5 6 
#
# 1 81.4935 9.9028 35.6602 13.3968 -7.4556 34.8643
# 2 9.9028 58.4536 22.7801 18.7860 3.4345 21.1952
# 3 35.6602 22.7801 124.1482 19.3525 -8.1513 25.1580
# 4 13.3968 18.7860 19.3525 47.1699 6.8378 2.3445
# 5 -7.4556 3.4345 -8.1513 6.8378 40.4953 -3.7660
# 6 34.8643 21.1952 25.1580 2.3445 -3.7660 44.3080
#
#
#
# Elastic Compliance Matrix: (Units=1/GPa)
#
#
# Indices 1 2 3 4 5 6 
#
# 1 0.021635 0.005842 -0.002417 -0.006956 0.002514 -0.017864
# 2 0.005842 0.025788 -0.001745 -0.010274 -0.001169 -0.015498
# 3 -0.002417 -0.001745 0.010218 -0.002966 0.002006 -0.002738
# 4 -0.006956 -0.010274 -0.002966 0.028692 -0.004908 0.010137
# 5 0.002514 -0.001169 0.002006 -0.004908 0.026484 -0.000047
# 6 -0.017864 -0.015498 -0.002738 0.010137 -0.000047 0.045054
#
#
# Mechanical properties :
#
#
# Convention : Reuss Voigt Hill
#
# Bulk Modulus (GPa) = 16.39294 44.53128 30.46211
# Shear Modulus (GPa) = 28.59707 39.44478 34.02093
#
# Velocity S-wave (km/s) = 3.53549 4.15225 3.85622
# Velocity P-wave (km/s) = 4.88176 6.51558 5.75692
#
# Compressibility (1/GPa) = 0.06100187
#
# Stress axis : x y z
#
# Youngs Moduli (GPa) = 46.22217 38.77794 97.86586
#
# Poissons Ratio (x) = -0.22654 0.23652
# Poissons Ratio (y) = -0.27003 0.17073
# Poissons Ratio (z) = 0.11171 0.06765
#
# Static dielectric constant tensor:
#      x y z
#    x 4.180090 -0.020550 -0.102750 
#    y -0.020550 4.025860 0.152210 
#    z -0.102750 0.152210 4.355450 
# 
# 
# High freq. dielectric constant tensor:
#      x y z
#    x 1.908330 0.004620 -0.006410 
#    y 0.004620 1.891740 0.004620 
#    z -0.006410 0.004620 1.920020 
# 
# From -- ./inp_files/47102.got.cif
#   From: 2010.06.25/outbox.cif.g09.slc.cpg/sg2_24_cif.got.tgz:47102.got - 2010.06.27 13:26:56.
