data_PCOD8009213
_publ_section_title
;
Structure prediction by ZEFSAII (Michael W. Deem and Ramdas Pophale) SiO2 
 PCOD8009213
Probable space group: P -1
;
_chemical_formula_sum "Si O2"
_cell_formula_units_Z 16
_cell_length_a 28.552760
_cell_length_b 30.337999
_cell_length_c 6.359193
_cell_angle_alpha 57.949243
_cell_angle_beta 121.582242
_cell_angle_gamma 170.921501
_cell_volume 736.696174
_symmetry_space_group_name_H-M "P -1"
_symmetry_group_IT_number 2
_symmetry_cell_setting 'triclinic'
loop_
_space_group_symop_operation_xyz
x,y,z
-x,-y,-z
loop_
_atom_site_type_symbol
_atom_site_label
_atom_site_fract_x
_atom_site_fract_y
_atom_site_fract_z
Si Si1 0.655420 0.589865 0.665609
Si Si2 0.087902 0.238958 0.512407
Si Si3 0.337980 0.672151 0.861322
Si Si4 0.776194 0.897389 0.037917
Si Si5 0.519704 0.726227 0.216654
Si Si6 0.688271 0.214088 0.767072
Si Si7 0.111205 0.524544 0.066600
Si Si8 0.215434 0.836439 0.454010
O O1 0.500000 0.500000 0.500000
O O2 0.714751 0.620846 0.496747
O O3 0.969301 0.890121 0.754903
O O4 0.443737 0.354631 0.900758
O O5 0.309217 0.492008 0.452243
O O6 0.833718 0.026960 0.304643
O O7 0.931369 0.067498 0.774912
O O8 0.038497 0.406915 0.700763
O O9 0.640291 0.971519 0.696755
O O10 0.348927 0.621262 0.054406
O O11 0.339642 0.705259 0.001809
O O12 0.578514 0.756865 0.047042
O O13 0.758201 0.329010 0.785558
O O14 0.495921 0.056872 0.513811
O O15 0.973408 0.443202 0.801554
O O16 0.500000 0.000000 0.000000
O O17 0.889076 0.273750 0.274279
#
# Coordination Sequence:
#
# PCOD8009213 Si02
#       8
#     2   2   2   2   2   2   2   2
#     4  10  21  36  58  94 128 154 201 253 286 349
#     4  10  21  40  62  84 119 166 202 240 304 347
#     4  12  26  39  66  90 118 157 204 250 311 355
#     4  10  21  38  62  84 122 165 200 241 299 352
#     4  10  23  41  57  88 117 152 207 253 288 354
#     4   9  20  43  63  85 126 153 191 245 303 370
#     4  10  23  43  62  89 123 155 192 252 299 368
#     4  11  24  42  60  93 118 152 198 246 300 376
#
# _framework density 21.718588
#
# number of rings (size 3 to 8) (size 9 to 14) (size 15 to 20)
#    0.000    1.750    1.250    1.875    3.500    4.000 
#    0.000    0.000    0.000    0.000    0.000    0.000 
#    0.000    0.000    0.000    0.000    0.000    0.000 
#
# Total GULP energy -198279.387074 kJ/mol
# GULP energy per Si atom -12392.461692 kJ/mol
# Density = 2.166916 g / cm^3
# Si number density = 21.718588 Si / 1000 Ang^3
#
#
#
# Elastic Constant Matrix: (Units=GPa)
#
#
# Indices 1 2 3 4 5 6 
#
# 1 107.1464 43.1081 47.0512 1.9543 24.1811 13.5023
# 2 43.1081 99.5022 25.0220 -6.4404 9.4818 -4.4119
# 3 47.0512 25.0220 82.9297 -15.8059 18.0631 15.6596
# 4 1.9543 -6.4404 -15.8059 44.7733 -4.0022 8.2591
# 5 24.1811 9.4818 18.0631 -4.0022 22.2244 0.3143
# 6 13.5023 -4.4119 15.6596 8.2591 0.3143 33.1903
#
#
#
# Elastic Compliance Matrix: (Units=1/GPa)
#
#
# Indices 1 2 3 4 5 6 
#
# 1 0.017341 -0.005373 -0.005354 -0.003798 -0.012849 -0.004176
# 2 -0.005373 0.012953 -0.002061 0.000689 0.002053 0.004689
# 3 -0.005354 -0.002061 0.021168 0.008486 -0.008828 -0.010111
# 4 -0.003798 0.000689 0.008486 0.027477 0.002021 -0.009224
# 5 -0.012849 0.002053 -0.008828 0.002021 0.065518 0.008542
# 6 -0.004176 0.004689 -0.010111 -0.009224 0.008542 0.039436
#
#
# Mechanical properties :
#
#
# Convention : Reuss Voigt Hill
#
# Bulk Modulus (GPa) = 38.63280 57.77122 48.20201
# Shear Modulus (GPa) = 22.92540 31.66406 27.29473
#
# Velocity S-wave (km/s) = 3.25247 3.82242 3.54891
# Velocity P-wave (km/s) = 5.65078 6.79256 6.24780
#
# Compressibility (1/GPa) = 0.02588474
#
# Stress axis : x y z
#
# Youngs Moduli (GPa) = 57.66573 77.20187 47.24203
#
# Poissons Ratio (x) = 0.41481 0.25295
# Poissons Ratio (y) = 0.30984 0.09737
# Poissons Ratio (z) = 0.30876 0.15913
#
# Static dielectric constant tensor:
#      x y z
#    x 3.770350 -0.010940 0.280210 
#    y -0.010940 4.241830 0.072700 
#    z 0.280210 0.072700 3.834780 
# 
# 
# High freq. dielectric constant tensor:
#      x y z
#    x 1.828920 -0.012620 0.019510 
#    y -0.012620 1.874290 -0.006640 
#    z 0.019510 -0.006640 1.846520 
# 
# From -- ./inp_files/127845.got.cif
#   From: 2010.06.25/outbox.cif.g09.slc.cpg/sg2_64_cif.got.tgz:127845.got - 2010.06.27 13:26:56.
