data_PCOD8009808
_publ_section_title
;
Structure prediction by ZEFSAII (Michael W. Deem and Ramdas Pophale) SiO2 
 PCOD8009808
Probable space group: P -1
;
_chemical_formula_sum "Si O2"
_cell_formula_units_Z 16
_cell_length_a 13.641025
_cell_length_b 8.837852
_cell_length_c 8.403944
_cell_angle_alpha 91.178450
_cell_angle_beta 52.838616
_cell_angle_gamma 75.819420
_cell_volume 763.966580
_symmetry_space_group_name_H-M "P -1"
_symmetry_group_IT_number 2
_symmetry_cell_setting 'triclinic'
loop_
_space_group_symop_operation_xyz
x,y,z
-x,-y,-z
loop_
_atom_site_type_symbol
_atom_site_label
_atom_site_fract_x
_atom_site_fract_y
_atom_site_fract_z
Si Si1 0.393538 0.498208 0.734175
Si Si2 0.536233 0.940701 0.641687
Si Si3 0.666499 0.187165 0.003343
Si Si4 0.064376 0.014616 0.183721
Si Si5 0.843841 0.300673 0.371061
Si Si6 0.407364 0.761555 0.276648
Si Si7 0.963797 0.805272 0.082307
Si Si8 0.233578 0.371849 0.651395
O O1 0.500000 0.500000 0.500000
O O2 0.331777 0.672460 0.875409
O O3 0.460446 0.372172 0.803119
O O4 0.281432 0.442364 0.762720
O O5 0.584649 0.064059 0.696067
O O6 0.500000 0.000000 0.500000
O O7 0.411788 0.920971 0.849124
O O8 0.650274 0.773224 0.535001
O O9 0.813539 0.067574 0.825283
O O10 0.609224 0.263500 0.893974
O O11 0.983904 0.891532 0.227049
O O12 0.960402 0.179659 0.362774
O O13 0.117222 0.058901 0.962340
O O14 0.713726 0.254790 0.505804
O O15 0.809094 0.490981 0.442909
O O16 0.895122 0.282996 0.137059
O O17 0.890092 0.679510 0.185027
#
# Coordination Sequence:
#
# PCOD8009808 Si02
#       8
#     2   2   2   2   2   2   2   2
#     4  12  23  41  68  96 126 168 216 264 321 380
#     4  12  24  40  67  95 128 165 221 266 318 376
#     4  12  25  43  63  95 135 171 206 263 334 383
#     4   9  21  38  64  88 129 165 218 261 316 370
#     4  10  21  37  61  89 124 167 213 256 313 369
#     4  12  25  42  63  95 134 171 209 263 326 391
#     4   9  20  36  61  95 122 158 220 270 308 359
#     4  12  21  37  68  96 126 156 217 280 311 360
#
# _framework density 20.943322999999999
#
# number of rings (size 3 to 8) (size 9 to 14) (size 15 to 20)
#    0.750    0.250    3.750    3.375    1.750    0.500 
#    0.000    0.000    0.000    2.250    0.000    0.000 
#    0.000    0.000    0.000    0.000    0.000    0.000 
#
# Total GULP energy -198304.291484 kJ/mol
# GULP energy per Si atom -12394.018218 kJ/mol
# Density = 2.089565 g / cm^3
# Si number density = 20.943323 Si / 1000 Ang^3
#
#
#
# Elastic Constant Matrix: (Units=GPa)
#
#
# Indices 1 2 3 4 5 6 
#
# 1 86.4398 58.3246 39.4107 -13.4013 -9.9066 10.5981
# 2 58.3246 145.7074 36.5137 10.6142 -18.0994 11.3053
# 3 39.4107 36.5137 54.2631 -1.2789 -13.7712 4.1847
# 4 -13.4013 10.6142 -1.2789 34.5023 1.3395 -11.9579
# 5 -9.9066 -18.0994 -13.7712 1.3395 30.1932 -3.0722
# 6 10.5981 11.3053 4.1847 -11.9579 -3.0722 46.5623
#
#
#
# Elastic Compliance Matrix: (Units=1/GPa)
#
#
# Indices 1 2 3 4 5 6 
#
# 1 0.023886 -0.007584 -0.012761 0.011347 -0.003006 0.000267
# 2 -0.007584 0.011432 -0.001170 -0.007569 0.003899 -0.002631
# 3 -0.012761 -0.001170 0.030753 -0.003796 0.009313 0.000064
# 4 0.011347 -0.007569 -0.003796 0.038960 -0.003319 0.009383
# 5 -0.003006 0.003899 0.009313 -0.003319 0.038929 0.000617
# 6 0.000267 -0.002631 0.000064 0.009383 0.000617 0.024499
#
#
# Mechanical properties :
#
#
# Convention : Reuss Voigt Hill
#
# Bulk Modulus (GPa) = 43.40101 61.65647 52.52874
# Shear Modulus (GPa) = 22.81333 32.39565 27.60449
#
# Velocity S-wave (km/s) = 3.30402 3.93724 3.63444
# Velocity P-wave (km/s) = 5.94335 7.08327 6.53820
#
# Compressibility (1/GPa) = 0.02304094
#
# Stress axis : x y z
#
# Youngs Moduli (GPa) = 41.86523 87.47364 32.51667
#
# Poissons Ratio (x) = 0.66342 0.41494
# Poissons Ratio (y) = 0.31751 0.03806
# Poissons Ratio (z) = 0.53423 0.10238
#
# Static dielectric constant tensor:
#      x y z
#    x 3.664360 -0.019300 -0.209200 
#    y -0.019300 4.180520 0.107110 
#    z -0.209200 0.107110 3.486430 
# 
# 
# High freq. dielectric constant tensor:
#      x y z
#    x 1.805960 -0.001780 -0.025290 
#    y -0.001780 1.843500 0.008820 
#    z -0.025290 0.008820 1.794830 
# 
# From -- ./inp_files/295400.got.cif
#   From: 2010.06.25/outbox.cif.g09.slc.cpg/sg2_148_cif.got.tgz:295400.got - 2010.06.27 13:26:56.
