data_PCOD8009579
_publ_section_title
;
Structure prediction by ZEFSAII (Michael W. Deem and Ramdas Pophale) SiO2 
 PCOD8009579
Probable space group: P -1
;
_chemical_formula_sum "Si O2"
_cell_formula_units_Z 14
_cell_length_a 33.511625
_cell_length_b 10.676495
_cell_length_c 6.962177
_cell_angle_alpha 59.131457
_cell_angle_beta 132.806718
_cell_angle_gamma 155.564492
_cell_volume 708.750031
_symmetry_space_group_name_H-M "P -1"
_symmetry_group_IT_number 2
_symmetry_cell_setting 'triclinic'
loop_
_space_group_symop_operation_xyz
x,y,z
-x,-y,-z
loop_
_atom_site_type_symbol
_atom_site_label
_atom_site_fract_x
_atom_site_fract_y
_atom_site_fract_z
Si Si1 0.062012 0.680294 0.861327
Si Si2 0.684995 0.251252 0.209634
Si Si3 0.291846 0.375267 0.960560
Si Si4 0.156885 0.248838 0.363870
Si Si5 0.483749 0.288955 0.617182
Si Si6 0.922956 0.531346 0.218653
Si Si7 0.274649 0.732185 0.095806
O O1 0.093657 0.606082 0.915664
O O2 0.969086 0.551419 0.534816
O O3 0.000000 0.500000 0.000000
O O4 0.187035 0.065799 0.002984
O O5 0.802463 0.533384 0.512767
O O6 0.716070 0.244166 0.121130
O O7 0.577081 0.905628 0.229293
O O8 0.647284 0.331244 0.984271
O O9 0.387112 0.477504 0.155756
O O10 0.225243 0.259301 0.631395
O O11 0.201263 0.411945 0.173708
O O12 0.013672 0.881798 0.188344
O O13 0.500000 0.500000 0.500000
O O14 0.406770 0.050203 0.371159
O O15 0.794188 0.287760 0.045541
#
# Coordination Sequence:
#
# PCOD8009579 Si02
#       7
#     2   2   2   2   2   2   2
#     4  10  22  39  62  88 119 161 195 237 301 347
#     4   9  22  39  59  90 114 156 205 233 297 355
#     4   9  20  43  58  85 121 156 197 245 286 356
#     4   8  20  37  57  84 119 157 189 245 297 337
#     4  11  23  41  61  84 121 156 197 251 297 338
#     4  10  21  37  57  89 123 152 199 244 288 356
#     4  11  22  36  61  90 115 155 199 245 296 347
#
# _framework density 19.753084999999999
#
# number of rings (size 3 to 8) (size 9 to 14) (size 15 to 20)
#    0.857    1.429    0.000    1.714    2.000    5.143 
#    0.000    0.000    0.000    0.000    0.000    0.000 
#    0.000    0.000    0.000    0.000    0.000    0.000 
#
# Total GULP energy -173549.311893 kJ/mol
# GULP energy per Si atom -12396.379421 kJ/mol
# Density = 1.970813 g / cm^3
# Si number density = 19.753085 Si / 1000 Ang^3
#
#
#
# Elastic Constant Matrix: (Units=GPa)
#
#
# Indices 1 2 3 4 5 6 
#
# 1 109.5835 50.9349 44.2610 -17.4587 0.7591 10.7441
# 2 50.9349 133.1267 37.2160 -27.7596 -7.7354 7.4397
# 3 44.2610 37.2160 54.9035 -9.4422 -9.6068 15.1694
# 4 -17.4587 -27.7596 -9.4422 28.8967 4.0254 1.4085
# 5 0.7591 -7.7354 -9.6068 4.0254 32.0688 -3.7057
# 6 10.7441 7.4397 15.1694 1.4085 -3.7057 28.4911
#
#
#
# Elastic Compliance Matrix: (Units=1/GPa)
#
#
# Indices 1 2 3 4 5 6 
#
# 1 0.015249 -0.002178 -0.010846 0.004242 -0.004694 -0.000227
# 2 -0.002178 0.011281 -0.004401 0.008029 0.000432 -0.000122
# 3 -0.010846 -0.004401 0.034749 0.000027 0.008192 -0.012198
# 4 0.004242 0.008029 0.000027 0.045863 -0.004674 -0.006586
# 5 -0.004694 0.000432 0.008192 -0.004674 0.034674 0.002037
# 6 -0.000227 -0.000122 -0.012198 -0.006586 0.002037 0.042301
#
#
# Mechanical properties :
#
#
# Convention : Reuss Voigt Hill
#
# Bulk Modulus (GPa) = 37.83662 62.49304 50.16483
# Shear Modulus (GPa) = 21.95122 28.90476 25.42799
#
# Velocity S-wave (km/s) = 3.33720 3.82947 3.59178
# Velocity P-wave (km/s) = 5.83486 7.15953 6.53087
#
# Compressibility (1/GPa) = 0.02642942
#
# Stress axis : x y z
#
# Youngs Moduli (GPa) = 65.57778 88.64081 28.77805
#
# Poissons Ratio (x) = 0.19305 0.31212
# Poissons Ratio (y) = 0.14282 0.12666
# Poissons Ratio (z) = 0.71125 0.39012
#
# Static dielectric constant tensor:
#      x y z
#    x 3.242210 -0.062920 0.102450 
#    y -0.062920 3.729550 -0.088930 
#    z 0.102450 -0.088930 3.468480 
# 
# 
# High freq. dielectric constant tensor:
#      x y z
#    x 1.746740 -0.001640 0.012360 
#    y -0.001640 1.783920 -0.008900 
#    z 0.012360 -0.008900 1.761630 
# 
# From -- ./inp_files/126406.got.cif
#   From: 2010.06.25/outbox.cif.g09.slc.cpg/sg2_64_cif.got.tgz:126406.got - 2010.06.27 13:26:56.
