data_PCOD8009496
_publ_section_title
;
Structure prediction by ZEFSAII (Michael W. Deem and Ramdas Pophale) SiO2 
 PCOD8009496
Probable space group: P -1
;
_chemical_formula_sum "Si O2"
_cell_formula_units_Z 14
_cell_length_a 13.919847
_cell_length_b 7.209567
_cell_length_c 14.420870
_cell_angle_alpha 59.852078
_cell_angle_beta 41.731022
_cell_angle_gamma 88.474785
_cell_volume 663.317248
_symmetry_space_group_name_H-M "P -1"
_symmetry_group_IT_number 2
_symmetry_cell_setting 'triclinic'
loop_
_space_group_symop_operation_xyz
x,y,z
-x,-y,-z
loop_
_atom_site_type_symbol
_atom_site_label
_atom_site_fract_x
_atom_site_fract_y
_atom_site_fract_z
Si Si1 0.555867 0.941906 0.069030
Si Si2 0.000481 0.289363 0.862768
Si Si3 0.506479 0.792669 0.607325
Si Si4 0.820776 0.711687 0.099253
Si Si5 0.290587 0.638757 0.988858
Si Si6 0.875760 0.908757 0.815039
Si Si7 0.764692 0.661632 0.486966
O O1 0.398955 0.636327 0.287749
O O2 0.590528 0.164466 0.061483
O O3 0.745226 0.989729 0.910247
O O4 0.500000 0.000000 0.000000
O O5 0.093371 0.397078 0.869989
O O6 0.152111 0.366149 0.658641
O O7 0.899032 0.411704 0.876518
O O8 0.848573 0.967011 0.063290
O O9 0.392263 0.515717 0.701096
O O10 0.420047 0.769014 0.774523
O O11 0.698490 0.847115 0.469151
O O12 0.500000 0.000000 0.500000
O O13 0.907063 0.790038 0.914547
O O14 0.218629 0.327611 0.135716
O O15 0.079758 0.184172 0.581817
#
# Coordination Sequence:
#
# PCOD8009496 Si02
#       7
#     2   2   2   2   2   2   2
#     4  12  26  49  72  96 132 177 231 300 347 381
#     4  10  21  36  69  92 130 191 218 260 339 405
#     4  11  25  35  62 102 146 177 218 266 331 408
#     4   9  19  38  55  93 142 176 210 261 328 394
#     4  11  23  45  67  97 142 178 221 279 343 396
#     4  10  23  45  64 101 139 169 224 284 327 409
#     4  11  23  45  66  97 140 177 229 281 324 412
#
# _framework density 21.10604
#
# number of rings (size 3 to 8) (size 9 to 14) (size 15 to 20)
#    0.000    1.429    5.714    0.000   10.000    2.857 
#    0.000    0.714    0.000    0.000    0.000    0.000 
#    0.000    0.000    0.000    0.000    0.000    0.000 
#
# Total GULP energy -173464.701193 kJ/mol
# GULP energy per Si atom -12390.335799 kJ/mol
# Density = 2.105800 g / cm^3
# Si number density = 21.106040 Si / 1000 Ang^3
#
#
#
# Elastic Constant Matrix: (Units=GPa)
#
#
# Indices 1 2 3 4 5 6 
#
# 1 110.2788 45.2211 54.3057 4.3985 -5.1779 12.0264
# 2 45.2211 108.4114 40.2315 -1.3374 -11.5694 14.8351
# 3 54.3057 40.2315 83.8615 1.6857 -29.2082 -5.6831
# 4 4.3985 -1.3374 1.6857 39.3563 2.6188 -12.5959
# 5 -5.1779 -11.5694 -29.2082 2.6188 30.0676 -2.8104
# 6 12.0264 14.8351 -5.6831 -12.5959 -2.8104 29.4963
#
#
#
# Elastic Compliance Matrix: (Units=1/GPa)
#
#
# Indices 1 2 3 4 5 6 
#
# 1 0.019964 -0.000991 -0.019106 -0.005186 -0.016464 -0.015106
# 2 -0.000991 0.013160 -0.007168 -0.001700 -0.002724 -0.008581
# 3 -0.019106 -0.007168 0.042158 0.005799 0.036783 0.025499
# 4 -0.005186 -0.001700 0.005799 0.031137 0.003026 0.017671
# 5 -0.016464 -0.002724 0.036783 0.003026 0.066979 0.022844
# 6 -0.015106 -0.008581 0.025499 0.017671 0.022844 0.059013
#
#
# Mechanical properties :
#
#
# Convention : Reuss Voigt Hill
#
# Bulk Modulus (GPa) = 48.18658 64.67424 56.43041
# Shear Modulus (GPa) = 17.01502 30.63695 23.82598
#
# Velocity S-wave (km/s) = 2.84239 3.81408 3.36351
# Velocity P-wave (km/s) = 5.80108 7.07851 6.47139
#
# Compressibility (1/GPa) = 0.02075266
#
# Stress axis : x y z
#
# Youngs Moduli (GPa) = 50.08980 75.98755 23.72017
#
# Poissons Ratio (x) = 0.07531 0.45320
# Poissons Ratio (y) = 0.04964 0.17002
# Poissons Ratio (z) = 0.95703 0.54465
#
# Static dielectric constant tensor:
#      x y z
#    x 3.892080 0.188160 -0.273530 
#    y 0.188160 4.126250 -0.315160 
#    z -0.273530 -0.315160 3.852860 
# 
# 
# High freq. dielectric constant tensor:
#      x y z
#    x 1.818210 0.006600 -0.026800 
#    y 0.006600 1.832900 -0.012100 
#    z -0.026800 -0.012100 1.813520 
# 
# From -- ./inp_files/527328.got.cif
#   From: 2010.06.25/outbox.cif.g09.slc.cpg/sg2_264_cif.got.tgz:527328.got - 2010.06.27 13:26:56.
