data_PCOD8009225
_publ_section_title
;
Structure prediction by ZEFSAII (Michael W. Deem and Ramdas Pophale) SiO2 
 PCOD8009225
Probable space group: P -1
;
_chemical_formula_sum "Si O2"
_cell_formula_units_Z 16
_cell_length_a 10.184450
_cell_length_b 16.251084
_cell_length_c 10.466306
_cell_angle_alpha 144.805328
_cell_angle_beta 121.735723
_cell_angle_gamma 57.777295
_cell_volume 830.029356
_symmetry_space_group_name_H-M "P -1"
_symmetry_group_IT_number 2
_symmetry_cell_setting 'triclinic'
loop_
_space_group_symop_operation_xyz
x,y,z
-x,-y,-z
loop_
_atom_site_type_symbol
_atom_site_label
_atom_site_fract_x
_atom_site_fract_y
_atom_site_fract_z
Si Si1 0.367704 0.981390 0.665729
Si Si2 0.415949 0.318036 0.628458
Si Si3 0.531149 0.369406 0.995609
Si Si4 0.838635 0.595382 0.584630
Si Si5 0.853596 0.900681 0.065386
Si Si6 0.383851 0.600766 0.660749
Si Si7 0.317809 0.919299 0.027682
Si Si8 0.785674 0.096968 0.762066
O O1 0.459091 0.816995 0.536398
O O2 0.287674 0.992853 0.498439
O O3 0.236608 0.026161 0.763761
O O4 0.496112 0.081961 0.868956
O O5 0.485940 0.460239 0.821815
O O6 0.247736 0.330908 0.493766
O O7 0.404764 0.306473 0.763846
O O8 0.504316 0.355193 0.114131
O O9 0.706153 0.269955 0.928225
O O10 0.742617 0.488911 0.469285
O O11 0.000000 0.500000 0.500000
O O12 0.860674 0.726586 0.854490
O O13 0.028545 0.928986 0.197628
O O14 0.769696 0.964772 0.972530
O O15 0.500000 0.500000 0.500000
O O16 0.297848 0.759001 0.762703
O O17 0.244067 0.959604 0.182190
#
# Coordination Sequence:
#
# PCOD8009225 Si02
#       8
#     2   2   2   2   2   2   2   2
#     4  11  22  37  61  88 119 155 197 245 294 348
#     4   9  17  33  55  82 107 148 194 236 271 340
#     4   8  17  33  56  77 110 150 196 225 277 345
#     4  11  22  38  61  84 114 156 197 237 289 348
#     4  12  23  37  62  93 118 149 204 250 289 347
#     4  10  21  36  59  84 119 151 188 241 297 342
#     4  11  22  38  60  89 119 155 199 240 295 355
#     4  10  22  40  57  86 122 160 190 242 301 350
#
# _framework density 19.276427999999999
#
# number of rings (size 3 to 8) (size 9 to 14) (size 15 to 20)
#    0.000    1.750    1.250    4.500    3.500    0.000 
#    0.000    0.000    0.000    0.750    0.000    0.000 
#    0.000    0.000    0.000    0.000    0.000    0.000 
#
# Total GULP energy -198236.128198 kJ/mol
# GULP energy per Si atom -12389.758012 kJ/mol
# Density = 1.923255 g / cm^3
# Si number density = 19.276428 Si / 1000 Ang^3
#
#
#
# Elastic Constant Matrix: (Units=GPa)
#
#
# Indices 1 2 3 4 5 6 
#
# 1 132.9280 42.2757 52.9066 -10.1152 -13.9421 -6.9043
# 2 42.2757 72.0344 46.7515 5.0702 -8.4836 -2.5498
# 3 52.9066 46.7515 104.7902 0.6715 -17.4999 -7.4884
# 4 -10.1152 5.0702 0.6715 31.6818 -1.6583 5.1431
# 5 -13.9421 -8.4836 -17.4999 -1.6583 38.1958 0.7278
# 6 -6.9043 -2.5498 -7.4884 5.1431 0.7278 26.6157
#
#
#
# Elastic Compliance Matrix: (Units=1/GPa)
#
#
# Indices 1 2 3 4 5 6 
#
# 1 0.010670 -0.004267 -0.003190 0.004144 0.001654 0.000616
# 2 -0.004267 0.021527 -0.007507 -0.004629 -0.000412 -0.000251
# 3 -0.003190 -0.007507 0.015394 -0.000371 0.004153 0.002743
# 4 0.004144 -0.004629 -0.000371 0.034750 0.001942 -0.006241
# 5 0.001654 -0.000412 0.004153 0.001942 0.028673 0.000399
# 6 0.000616 -0.000251 0.002743 -0.006241 0.000399 0.039674
#
#
# Mechanical properties :
#
#
# Convention : Reuss Voigt Hill
#
# Bulk Modulus (GPa) = 56.61147 65.95780 61.28464
# Shear Modulus (GPa) = 26.80900 30.48659 28.64780
#
# Velocity S-wave (km/s) = 3.73334 3.98118 3.85925
# Velocity P-wave (km/s) = 6.92934 7.44474 7.19166
#
# Compressibility (1/GPa) = 0.01766427
#
# Stress axis : x y z
#
# Youngs Moduli (GPa) = 93.71800 46.45335 64.95839
#
# Poissons Ratio (x) = 0.19822 0.20721
# Poissons Ratio (y) = 0.39990 0.48763
# Poissons Ratio (z) = 0.29895 0.34872
#
# Static dielectric constant tensor:
#      x y z
#    x 3.154460 -0.031000 -0.042830 
#    y -0.031000 3.965180 -0.114620 
#    z -0.042830 -0.114620 3.893760 
# 
# 
# High freq. dielectric constant tensor:
#      x y z
#    x 1.720220 -0.004530 -0.005180 
#    y -0.004530 1.757290 0.003540 
#    z -0.005180 0.003540 1.771680 
# 
# From -- ./inp_files/209522.got.cif
#   From: 2010.06.25/outbox.cif.g09.slc.cpg/sg2_105_cif.got.tgz:209522.got - 2010.06.27 13:26:56.
