data_PCOD8009314
_publ_section_title
;
Structure prediction by ZEFSAII (Michael W. Deem and Ramdas Pophale) SiO2 
 PCOD8009314
Probable space group: P -1
;
_chemical_formula_sum "Si O2"
_cell_formula_units_Z 16
_cell_length_a 14.794953
_cell_length_b 9.170141
_cell_length_c 20.137022
_cell_angle_alpha 59.828980
_cell_angle_beta 160.708717
_cell_angle_gamma 121.966657
_cell_volume 765.670334
_symmetry_space_group_name_H-M "P -1"
_symmetry_group_IT_number 2
_symmetry_cell_setting 'triclinic'
loop_
_space_group_symop_operation_xyz
x,y,z
-x,-y,-z
loop_
_atom_site_type_symbol
_atom_site_label
_atom_site_fract_x
_atom_site_fract_y
_atom_site_fract_z
Si Si1 0.648080 0.972126 0.988844
Si Si2 0.634698 0.711312 0.934291
Si Si3 0.587812 0.363009 0.030189
Si Si4 0.853880 0.524366 0.543273
Si Si5 0.744748 0.962253 0.592662
Si Si6 0.258406 0.746504 0.369459
Si Si7 0.645858 0.736257 0.243464
Si Si8 0.167089 0.753237 0.510710
O O1 0.605811 0.895616 0.902740
O O2 0.643093 0.804391 0.071516
O O3 0.411593 0.077333 0.818620
O O4 0.952777 0.092647 0.181850
O O5 0.431829 0.678970 0.738351
O O6 0.537726 0.562024 0.958976
O O7 0.950276 0.703723 0.132723
O O8 0.882090 0.345526 0.271509
O O9 0.588423 0.353437 0.951211
O O10 0.683312 0.416101 0.510202
O O11 0.650707 0.627623 0.339611
O O12 0.968811 0.387529 0.606227
O O13 0.496865 0.795393 0.467027
O O14 0.731647 0.091559 0.613723
O O15 0.717447 0.057843 0.482331
O O16 0.953970 0.761101 0.420503
#
# Coordination Sequence:
#
# PCOD8009314 Si02
#       8
#     2   2   2   2   2   2   2   2
#     4  11  23  38  55  88 122 158 188 239 298 348
#     4  10  21  36  61  86 117 155 199 238 289 346
#     4  11  22  37  60  83 123 155 191 234 292 353
#     4  10  22  38  60  87 116 156 199 241 284 347
#     4   9  18  36  58  81 118 151 195 243 290 337
#     4   8  18  37  60  83 108 157 198 243 286 334
#     4  12  24  37  56  92 124 154 190 238 297 351
#     4  11  21  34  58  93 119 153 195 239 291 353
#
# _framework density 20.896720999999999
#
# number of rings (size 3 to 8) (size 9 to 14) (size 15 to 20)
#    0.000    1.750    2.500    2.625    1.750    2.500 
#    0.000    0.625    0.000    3.000    0.000    0.000 
#    0.000    0.000    0.000    0.000    0.000    0.000 
#
# Total GULP energy -198310.756946 kJ/mol
# GULP energy per Si atom -12394.422309 kJ/mol
# Density = 2.084916 g / cm^3
# Si number density = 20.896721 Si / 1000 Ang^3
#
#
#
# Elastic Constant Matrix: (Units=GPa)
#
#
# Indices 1 2 3 4 5 6 
#
# 1 58.7787 41.6463 52.1225 4.7725 -4.0647 24.2345
# 2 41.6463 84.1328 54.5546 -6.5392 15.3647 16.8515
# 3 52.1225 54.5546 121.3979 12.1125 -11.5990 15.3694
# 4 4.7725 -6.5392 12.1125 32.9487 5.8850 6.9299
# 5 -4.0647 15.3647 -11.5990 5.8850 31.7586 3.8850
# 6 24.2345 16.8515 15.3694 6.9299 3.8850 34.7620
#
#
#
# Elastic Compliance Matrix: (Units=1/GPa)
#
#
# Indices 1 2 3 4 5 6 
#
# 1 0.045446 -0.016501 -0.007524 -0.005296 0.014594 -0.020932
# 2 -0.016501 0.035287 -0.013265 0.019296 -0.027542 -0.000505
# 3 -0.007524 -0.013265 0.019519 -0.012092 0.014353 0.003852
# 4 -0.005296 0.019296 -0.012092 0.044729 -0.021888 -0.006786
# 5 0.014594 -0.027542 0.014353 -0.021888 0.056606 -0.005131
# 6 -0.020932 -0.000505 0.003852 -0.006786 -0.005131 0.043828
#
#
# Mechanical properties :
#
#
# Convention : Reuss Voigt Hill
#
# Bulk Modulus (GPa) = 38.95478 62.32846 50.64162
# Shear Modulus (GPa) = 15.21823 27.62625 21.42224
#
# Velocity S-wave (km/s) = 2.70156 3.63993 3.20527
# Velocity P-wave (km/s) = 5.33041 6.89617 6.16321
#
# Compressibility (1/GPa) = 0.02567079
#
# Stress axis : x y z
#
# Youngs Moduli (GPa) = 22.00394 28.33936 51.23170
#
# Poissons Ratio (x) = 0.46764 0.38547
# Poissons Ratio (y) = 0.36310 0.67959
# Poissons Ratio (z) = 0.16556 0.37592
#
# Static dielectric constant tensor:
#      x y z
#    x 3.755930 0.294700 -0.117590 
#    y 0.294700 3.771460 0.194970 
#    z -0.117590 0.194970 3.743480 
# 
# 
# High freq. dielectric constant tensor:
#      x y z
#    x 1.788720 0.013920 -0.023250 
#    y 0.013920 1.805480 0.005970 
#    z -0.023250 0.005970 1.816050 
# 
# From -- ./inp_files/540490.got.cif
#   From: 2010.06.25/outbox.cif.g09.slc.cpg/sg2_271_cif.got.tgz:540490.got - 2010.06.27 13:26:56.
