data_PCOD8009590
_publ_section_title
;
Structure prediction by ZEFSAII (Michael W. Deem and Ramdas Pophale) SiO2 
 PCOD8009590
Probable space group: P -1
;
_chemical_formula_sum "Si O2"
_cell_formula_units_Z 16
_cell_length_a 9.104209
_cell_length_b 8.260722
_cell_length_c 20.451215
_cell_angle_alpha 143.885633
_cell_angle_beta 64.754804
_cell_angle_gamma 121.861759
_cell_volume 769.949403
_symmetry_space_group_name_H-M "P -1"
_symmetry_group_IT_number 2
_symmetry_cell_setting 'triclinic'
loop_
_space_group_symop_operation_xyz
x,y,z
-x,-y,-z
loop_
_atom_site_type_symbol
_atom_site_label
_atom_site_fract_x
_atom_site_fract_y
_atom_site_fract_z
Si Si1 0.826507 0.789399 0.500010
Si Si2 0.836670 0.698293 0.700379
Si Si3 0.314703 0.969668 0.499956
Si Si4 0.163151 0.102951 0.700284
Si Si5 0.689456 0.115580 0.289164
Si Si6 0.027883 0.948180 0.871836
Si Si7 0.027985 0.460904 0.128202
Si Si8 0.689358 0.958991 0.710867
O O1 0.809113 0.450516 0.391457
O O2 0.666994 0.825019 0.500007
O O3 0.809098 0.884774 0.608580
O O4 0.000000 0.000000 0.500000
O O5 0.794778 0.357531 0.607034
O O6 0.877477 0.848494 0.812908
O O7 0.677898 0.757931 0.712165
O O8 0.999912 0.829072 0.664570
O O9 0.500000 0.000000 0.500000
O O10 0.204986 0.069991 0.606844
O O11 0.122393 0.402935 0.812781
O O12 0.321950 0.090590 0.712109
O O13 0.783146 0.996228 0.175997
O O14 0.500034 0.090700 0.295370
O O15 0.999918 0.703376 0.851690
O O16 0.023401 0.249622 0.000026
O O17 0.216990 0.707716 0.175965
#
# Coordination Sequence:
#
# PCOD8009590 Si02
#       8
#     2   2   2   2   2   2   2   2
#     4  12  22  36  58  84 119 155 190 225 276 341
#     4  10  21  37  58  82 114 150 188 226 275 338
#     4  12  22  34  56  86 118 147 184 231 280 331
#     4  10  21  37  58  82 114 150 188 226 275 338
#     4  11  22  37  58  86 119 149 185 234 285 333
#     4  10  22  41  62  82 108 147 194 237 280 336
#     4  10  22  41  62  82 108 147 194 237 280 336
#     4  11  22  37  58  86 119 149 185 234 285 333
#
# _framework density 20.780587000000001
#
# number of rings (size 3 to 8) (size 9 to 14) (size 15 to 20)
#    0.000    1.250    0.000    8.250    0.000    5.000 
#    0.000    0.000    0.000    3.750    0.000    0.000 
#    0.000    0.000    0.000    0.000    0.000    0.000 
#
# Total GULP energy -198393.130558 kJ/mol
# GULP energy per Si atom -12399.570660 kJ/mol
# Density = 2.073329 g / cm^3
# Si number density = 20.780587 Si / 1000 Ang^3
#
#
#
# Elastic Constant Matrix: (Units=GPa)
#
#
# Indices 1 2 3 4 5 6 
#
# 1 126.1722 25.9919 53.5957 -5.3421 -13.4160 -16.6937
# 2 25.9919 67.7597 58.8253 1.9072 0.1788 -24.4742
# 3 53.5957 58.8253 149.7451 10.7268 19.9911 -10.6059
# 4 -5.3421 1.9072 10.7268 6.5662 -53.7363 -3.1852
# 5 -13.4160 0.1788 19.9911 -53.7363 -66.2140 -6.3341
# 6 -16.6937 -24.4742 -10.6059 -3.1852 -6.3341 35.5721
#
#
#
# Elastic Compliance Matrix: (Units=1/GPa)
#
#
# Indices 1 2 3 4 5 6 
#
# 1 0.009242 -0.000021 -0.002737 -0.001440 -0.001823 0.003053
# 2 -0.000021 0.029443 -0.009881 -0.002763 -0.002250 0.016653
# 3 -0.002737 -0.009881 0.010754 0.001993 0.002563 -0.004242
# 4 -0.001440 -0.002763 0.001993 0.020517 -0.015487 -0.002903
# 5 -0.001823 -0.002250 0.002563 -0.015487 -0.001089 -0.003220
# 6 0.003053 0.016653 -0.004242 -0.002903 -0.003220 0.038905
#
#
# Mechanical properties :
#
#
# Convention : Reuss Voigt Hill
#
# Bulk Modulus (GPa) = 41.38887 68.94476 55.16681
# Shear Modulus (GPa) = 35.43510 8.86912 22.15211
#
# Velocity S-wave (km/s) = 4.13389 2.06815 3.26851
# Velocity P-wave (km/s) = 6.53802 6.24119 6.39133
#
# Compressibility (1/GPa) = 0.02416109
#
# Stress axis : x y z
#
# Youngs Moduli (GPa) = 108.20455 33.96401 92.99016
#
# Poissons Ratio (x) = 0.00071 0.25450
# Poissons Ratio (y) = 0.00227 0.91883
# Poissons Ratio (z) = 0.29614 0.33560
#
# Static dielectric constant tensor:
#      x y z
#    x 4.108180 -0.481530 -0.015130 
#    y -0.481530 3.961360 0.024750 
#    z -0.015130 0.024750 3.684020 
# 
# 
# High freq. dielectric constant tensor:
#      x y z
#    x 1.830120 -0.027570 -0.000860 
#    y -0.027570 1.813190 0.001650 
#    z -0.000860 0.001650 1.805690 
# 
# From -- ./inp_files/179399.got.cif
#   From: 2010.06.25/outbox.cif.g09.slc.cpg/sg2_90_cif.got.tgz:179399.got - 2010.06.27 13:26:56.
