data_PCOD8009940
_publ_section_title
;
Structure prediction by ZEFSAII (Michael W. Deem and Ramdas Pophale) SiO2 
 PCOD8009940
Probable space group: P -1
;
_chemical_formula_sum "Si O2"
_cell_formula_units_Z 16
_cell_length_a 5.243239
_cell_length_b 24.959517
_cell_length_c 14.552167
_cell_angle_alpha 152.568832
_cell_angle_beta 51.653718
_cell_angle_gamma 120.329535
_cell_volume 682.549689
_symmetry_space_group_name_H-M "P -1"
_symmetry_group_IT_number 2
_symmetry_cell_setting 'triclinic'
loop_
_space_group_symop_operation_xyz
x,y,z
-x,-y,-z
loop_
_atom_site_type_symbol
_atom_site_label
_atom_site_fract_x
_atom_site_fract_y
_atom_site_fract_z
Si Si1 0.338605 0.738145 0.332204
Si Si2 0.309334 0.833842 0.763647
Si Si3 0.083264 0.314059 0.504369
Si Si4 0.542681 0.088132 0.703433
Si Si5 0.277067 0.532996 0.688885
Si Si6 0.622947 0.672012 0.973813
Si Si7 0.781964 0.914599 0.516896
Si Si8 0.852256 0.961883 0.768479
O O1 0.197273 0.644732 0.290481
O O2 0.369458 0.699813 0.159665
O O3 0.674278 0.785051 0.361840
O O4 0.080913 0.850878 0.586964
O O5 0.051023 0.780110 0.675749
O O6 0.481790 0.928900 0.811463
O O7 0.567639 0.733872 0.601220
O O8 0.103553 0.912253 0.006618
O O9 0.125036 0.423462 0.597593
O O10 0.327436 0.212546 0.921851
O O11 0.922724 0.113005 0.663698
O O12 0.500000 0.000000 0.500000
O O13 0.485102 0.011950 0.692398
O O14 0.500000 0.500000 0.500000
O O15 0.486809 0.581147 0.797033
O O16 0.975857 0.625574 0.864639
O O17 0.926187 0.973232 0.661833
#
# Coordination Sequence:
#
# PCOD8009940 Si02
#       8
#     2   2   2   2   2   2   2   2
#     4  11  23  41  73 109 147 172 227 302 361 425
#     4  10  23  39  69 101 142 193 227 271 351 423
#     4  11  25  48  72 102 140 189 246 292 348 406
#     4  11  23  39  65 106 143 183 223 274 354 444
#     4  12  30  55  72  98 139 188 253 302 339 420
#     4  12  26  48  78 103 138 186 237 300 369 400
#     4  11  20  38  61 100 157 175 220 277 343 427
#     4  10  21  37  63 103 152 181 219 278 348 434
#
# _framework density 23.441514000000002
#
# number of rings (size 3 to 8) (size 9 to 14) (size 15 to 20)
#    0.000    1.000    3.750    1.875    3.500    3.500 
#    4.500    0.000    0.000    0.000    0.000    0.000 
#    0.000    0.000    0.000    0.000    0.000    0.000 
#
# Total GULP energy -198224.304383 kJ/mol
# GULP energy per Si atom -12389.019024 kJ/mol
# Density = 2.338816 g / cm^3
# Si number density = 23.441514 Si / 1000 Ang^3
#
#
#
# Elastic Constant Matrix: (Units=GPa)
#
#
# Indices 1 2 3 4 5 6 
#
# 1 89.0779 3.0640 20.2464 -6.6554 10.2787 -12.2819
# 2 3.0640 123.3330 25.7187 3.5968 -0.9871 -2.0631
# 3 20.2464 25.7187 88.8293 -9.0650 7.9603 -1.0616
# 4 -6.6554 3.5968 -9.0650 31.3265 -7.0651 -1.9468
# 5 10.2787 -0.9871 7.9603 -7.0651 49.3035 2.9538
# 6 -12.2819 -2.0631 -1.0616 -1.9468 2.9538 33.3436
#
#
#
# Elastic Compliance Matrix: (Units=1/GPa)
#
#
# Indices 1 2 3 4 5 6 
#
# 1 0.012885 0.000226 -0.002556 0.001760 -0.002316 0.004987
# 2 0.000226 0.008739 -0.002775 -0.001662 0.000313 0.000411
# 3 -0.002556 -0.002775 0.013075 0.003277 -0.001140 -0.000404
# 4 0.001760 -0.001662 0.003277 0.034451 0.003869 0.002318
# 5 -0.002316 0.000313 -0.001140 0.003869 0.021664 -0.002563
# 6 0.004987 0.000411 -0.000404 0.002318 -0.002563 0.032203
#
#
# Mechanical properties :
#
#
# Convention : Reuss Voigt Hill
#
# Bulk Modulus (GPa) = 40.83009 44.36647 42.59828
# Shear Modulus (GPa) = 35.36350 39.60880 37.48615
#
# Velocity S-wave (km/s) = 3.88826 4.11504 4.00326
# Velocity P-wave (km/s) = 6.13301 6.44559 6.29124
#
# Compressibility (1/GPa) = 0.02449174
#
# Stress axis : x y z
#
# Youngs Moduli (GPa) = 77.60664 114.43049 76.48124
#
# Poissons Ratio (x) = -0.02591 0.19547
# Poissons Ratio (y) = -0.01757 0.21220
# Poissons Ratio (z) = 0.19835 0.31749
#
# Static dielectric constant tensor:
#      x y z
#    x 4.146540 0.203860 0.058650 
#    y 0.203860 4.841570 -0.387520 
#    z 0.058650 -0.387520 3.993730 
# 
# 
# High freq. dielectric constant tensor:
#      x y z
#    x 1.943860 0.002650 0.000930 
#    y 0.002650 1.937110 -0.008070 
#    z 0.000930 -0.008070 1.905970 
# 
# From -- ./inp_files/485828.got.cif
#   From: 2010.06.25/outbox.cif.g09.slc.cpg/sg2_243_cif.got.tgz:485828.got - 2010.06.27 13:26:56.
