data_PCOD8009800
_publ_section_title
;
Structure prediction by ZEFSAII (Michael W. Deem and Ramdas Pophale) SiO2 
 PCOD8009800
Probable space group: P -1
;
_chemical_formula_sum "Si O2"
_cell_formula_units_Z 16
_cell_length_a 10.973171
_cell_length_b 10.663105
_cell_length_c 9.431827
_cell_angle_alpha 71.638849
_cell_angle_beta 88.044486
_cell_angle_gamma 48.238220
_cell_volume 756.849876
_symmetry_space_group_name_H-M "P -1"
_symmetry_group_IT_number 2
_symmetry_cell_setting 'triclinic'
loop_
_space_group_symop_operation_xyz
x,y,z
-x,-y,-z
loop_
_atom_site_type_symbol
_atom_site_label
_atom_site_fract_x
_atom_site_fract_y
_atom_site_fract_z
Si Si1 0.043017 0.622411 0.980785
Si Si2 0.239926 0.779940 0.445657
Si Si3 0.393731 0.396281 0.520500
Si Si4 0.562773 0.750681 0.139549
Si Si5 0.308750 0.148371 0.106053
Si Si6 0.587635 0.294755 0.077516
Si Si7 0.103913 0.829959 0.743622
Si Si8 0.329438 0.335950 0.256956
O O1 0.114395 0.664995 0.838454
O O2 0.852241 0.820095 0.943032
O O3 0.166639 0.542750 0.137973
O O4 0.000000 0.500000 0.000000
O O5 0.298594 0.605592 0.418854
O O6 0.403306 0.751644 0.449683
O O7 0.184970 0.782145 0.603948
O O8 0.085801 0.970954 0.308324
O O9 0.344793 0.391739 0.684168
O O10 0.330262 0.338521 0.426709
O O11 0.476050 0.942811 0.144649
O O12 0.696858 0.707255 0.035220
O O13 0.429602 0.758410 0.058643
O O14 0.311302 0.197385 0.252561
O O15 0.784275 0.167219 0.152394
O O16 0.500831 0.271354 0.211356
O O17 0.500000 0.500000 0.000000
#
# Coordination Sequence:
#
# PCOD8009800 Si02
#       8
#     2   2   2   2   2   2   2   2
#     4  10  21  37  64  84 119 163 210 247 299 368
#     4  10  24  36  59  94 133 161 196 259 326 362
#     4  11  22  39  59  93 127 161 204 258 313 374
#     4  10  22  38  65  87 124 159 207 259 308 361
#     4   9  21  42  60  89 117 166 213 252 301 368
#     4  11  20  36  64  93 114 163 203 254 306 370
#     4  11  21  40  62  93 126 164 206 256 309 372
#     4  10  21  37  61  88 120 161 210 246 310 371
#
# _framework density 21.140256999999998
#
# number of rings (size 3 to 8) (size 9 to 14) (size 15 to 20)
#    0.000    1.750    2.500    1.500    5.250    1.500 
#    0.000    2.500    2.750    0.000    0.000    0.000 
#    0.000    0.000    0.000    0.000    0.000    0.000 
#
# Total GULP energy -198263.632616 kJ/mol
# GULP energy per Si atom -12391.477039 kJ/mol
# Density = 2.109214 g / cm^3
# Si number density = 21.140257 Si / 1000 Ang^3
#
#
#
# Elastic Constant Matrix: (Units=GPa)
#
#
# Indices 1 2 3 4 5 6 
#
# 1 99.3513 22.6297 44.2728 -0.8382 15.3449 -3.9990
# 2 22.6297 57.6665 24.3391 0.1895 23.4413 4.2269
# 3 44.2728 24.3391 117.8450 6.4434 25.0947 9.3382
# 4 -0.8382 0.1895 6.4434 29.7321 3.9352 4.0091
# 5 15.3449 23.4413 25.0947 3.9352 34.8468 -1.7462
# 6 -3.9990 4.2269 9.3382 4.0091 -1.7462 31.3193
#
#
#
# Elastic Compliance Matrix: (Units=1/GPa)
#
#
# Indices 1 2 3 4 5 6 
#
# 1 0.012992 -0.003396 -0.004458 0.000928 -0.000165 0.003319
# 2 -0.003396 0.025732 -0.000353 0.002628 -0.016109 -0.005036
# 3 -0.004458 -0.000353 0.012038 -0.001285 -0.006539 -0.004311
# 4 0.000928 0.002628 -0.001285 0.035276 -0.005469 -0.004673
# 5 -0.000165 -0.016109 -0.006539 -0.005469 0.045300 0.007329
# 6 0.003319 -0.005036 -0.004311 -0.004673 0.007329 0.035325
#
#
# Mechanical properties :
#
#
# Convention : Reuss Voigt Hill
#
# Bulk Modulus (GPa) = 29.11450 50.81623 39.96536
# Shear Modulus (GPa) = 25.70346 31.42104 28.56225
#
# Velocity S-wave (km/s) = 3.49069 3.85946 3.67970
# Velocity P-wave (km/s) = 5.48165 6.62951 6.08272
#
# Compressibility (1/GPa) = 0.03434715
#
# Stress axis : x y z
#
# Youngs Moduli (GPa) = 76.96811 38.86276 83.07055
#
# Poissons Ratio (x) = 0.13199 0.37036
# Poissons Ratio (y) = 0.26140 0.02931
# Poissons Ratio (z) = 0.34315 0.01371
#
# Static dielectric constant tensor:
#      x y z
#    x 4.294020 -0.281840 0.069280 
#    y -0.281840 3.914650 -0.134500 
#    z 0.069280 -0.134500 3.793810 
# 
# 
# High freq. dielectric constant tensor:
#      x y z
#    x 1.829520 -0.005530 0.000320 
#    y -0.005530 1.828790 -0.008460 
#    z 0.000320 -0.008460 1.815080 
# 
# From -- ./inp_files/252997.got.cif
#   From: 2010.06.25/outbox.cif.g09.slc.cpg/sg2_127_cif.got.tgz:252997.got - 2010.06.27 13:26:56.
