data_PCOD8009342
_publ_section_title
;
Structure prediction by ZEFSAII (Michael W. Deem and Ramdas Pophale) SiO2 
 PCOD8009342
Probable space group: P -1
;
_chemical_formula_sum "Si O2"
_cell_formula_units_Z 14
_cell_length_a 16.203010
_cell_length_b 14.418883
_cell_length_c 17.143409
_cell_angle_alpha 146.955994
_cell_angle_beta 17.275466
_cell_angle_gamma 140.019454
_cell_volume 633.956933
_symmetry_space_group_name_H-M "P -1"
_symmetry_group_IT_number 2
_symmetry_cell_setting 'triclinic'
loop_
_space_group_symop_operation_xyz
x,y,z
-x,-y,-z
loop_
_atom_site_type_symbol
_atom_site_label
_atom_site_fract_x
_atom_site_fract_y
_atom_site_fract_z
Si Si1 0.016050 0.213903 0.871499
Si Si2 0.410030 0.315516 0.453733
Si Si3 0.319220 0.398780 0.145488
Si Si4 0.397966 0.465734 0.295323
Si Si5 0.035943 0.446721 0.748786
Si Si6 0.398443 0.932242 0.419464
Si Si7 0.262541 0.846939 0.642147
O O1 0.229791 0.284534 0.670304
O O2 0.152450 0.022109 0.645597
O O3 0.719245 0.183789 0.079740
O O4 0.941270 0.357555 0.109076
O O5 0.500000 0.500000 0.500000
O O6 0.204475 0.305008 0.558449
O O7 0.426294 0.377951 0.123220
O O8 0.000000 0.500000 0.500000
O O9 0.500000 0.500000 0.000000
O O10 0.352895 0.199770 0.944072
O O11 0.188784 0.391220 0.488990
O O12 0.236814 0.666606 0.575612
O O13 0.708505 0.434387 0.031348
O O14 0.299899 0.814342 0.492724
O O15 0.479168 0.094578 0.505888
O O16 0.000000 0.000000 0.000000
#
# Coordination Sequence:
#
# PCOD8009342 Si02
#       7
#     2   2   2   2   2   2   2
#     4  11  21  37  62  95 125 159 202 260 325 361
#     4  10  21  36  61  93 129 155 200 262 322 369
#     4  12  26  45  61  88 128 177 213 252 302 375
#     4  12  23  39  65  87 128 164 212 247 310 372
#     4  11  21  39  62  94 123 162 207 259 310 376
#     4  11  25  39  62  91 130 162 209 258 311 373
#     4  11  23  38  61  94 124 164 199 265 314 362
#
# _framework density 22.083518999999999
#
# number of rings (size 3 to 8) (size 9 to 14) (size 15 to 20)
#    0.000    0.857    2.857    6.857    4.000    0.000 
#    0.000    0.000    0.000    5.143    0.000    0.000 
#    0.000    0.000    0.000    0.000    0.000    0.000 
#
# Total GULP energy -173521.089644 kJ/mol
# GULP energy per Si atom -12394.363546 kJ/mol
# Density = 2.203326 g / cm^3
# Si number density = 22.083519 Si / 1000 Ang^3
#
#
#
# Elastic Constant Matrix: (Units=GPa)
#
#
# Indices 1 2 3 4 5 6 
#
# 1 130.2811 28.8987 64.5799 6.2940 -7.9917 -21.2623
# 2 28.8987 35.2775 28.3893 -4.8494 4.5090 -9.4472
# 3 64.5799 28.3893 150.5003 -3.4035 -13.8376 -9.2385
# 4 6.2940 -4.8494 -3.4035 38.9738 -4.7384 2.3893
# 5 -7.9917 4.5090 -13.8376 -4.7384 53.6967 -1.4824
# 6 -21.2623 -9.4472 -9.2385 2.3893 -1.4824 24.4112
#
#
#
# Elastic Compliance Matrix: (Units=1/GPa)
#
#
# Indices 1 2 3 4 5 6 
#
# 1 0.012203 -0.005664 -0.003670 -0.003299 0.001261 0.007448
# 2 -0.005664 0.040458 -0.005059 0.004412 -0.004932 0.008078
# 3 -0.003670 -0.005059 0.009316 0.001159 0.002338 -0.001600
# 4 -0.003299 0.004412 0.001159 0.027256 0.001751 -0.003289
# 5 0.001261 -0.004932 0.002338 0.001751 0.020013 0.001118
# 6 0.007448 0.008078 -0.001600 -0.003289 0.001118 0.050363
#
#
# Mechanical properties :
#
#
# Convention : Reuss Voigt Hill
#
# Bulk Modulus (GPa) = 30.12727 62.19940 46.16334
# Shear Modulus (GPa) = 25.06797 36.36241 30.71519
#
# Velocity S-wave (km/s) = 3.37284 4.06222 3.73348
# Velocity P-wave (km/s) = 5.37030 7.08723 6.28765
#
# Compressibility (1/GPa) = 0.03319252
#
# Stress axis : x y z
#
# Youngs Moduli (GPa) = 81.94521 24.71711 107.33781
#
# Poissons Ratio (x) = 0.13999 0.39388
# Poissons Ratio (y) = 0.46412 0.54304
# Poissons Ratio (z) = 0.30070 0.12505
#
# Static dielectric constant tensor:
#      x y z
#    x 5.079620 0.425580 -0.315410 
#    y 0.425580 4.112200 -0.057480 
#    z -0.315410 -0.057480 4.229680 
# 
# 
# High freq. dielectric constant tensor:
#      x y z
#    x 1.883020 -0.019730 -0.013110 
#    y -0.019730 1.828670 -0.015750 
#    z -0.013110 -0.015750 1.880410 
# 
# From -- ./inp_files/45481.got.cif
#   From: 2010.06.25/outbox.cif.g09.slc.cpg/sg2_23_cif.got.tgz:45481.got - 2010.06.27 13:26:56.
