data_PCOD8009868
_publ_section_title
;
Structure prediction by ZEFSAII (Michael W. Deem and Ramdas Pophale) SiO2 
 PCOD8009868
Probable space group: P -1
;
_chemical_formula_sum "Si O2"
_cell_formula_units_Z 16
_cell_length_a 10.517177
_cell_length_b 13.945254
_cell_length_c 11.462512
_cell_angle_alpha 114.481679
_cell_angle_beta 118.742246
_cell_angle_gamma 116.350664
_cell_volume 794.097229
_symmetry_space_group_name_H-M "P -1"
_symmetry_group_IT_number 2
_symmetry_cell_setting 'triclinic'
loop_
_space_group_symop_operation_xyz
x,y,z
-x,-y,-z
loop_
_atom_site_type_symbol
_atom_site_label
_atom_site_fract_x
_atom_site_fract_y
_atom_site_fract_z
Si Si1 0.966160 0.828297 0.168150
Si Si2 0.345920 0.770324 0.269987
Si Si3 0.061636 0.354953 0.617448
Si Si4 0.150219 0.982548 0.566667
Si Si5 0.139552 0.449989 0.951473
Si Si6 0.580196 0.140651 0.188732
Si Si7 0.448094 0.252070 0.026566
Si Si8 0.625910 0.002682 0.721606
O O1 0.182895 0.967137 0.435616
O O2 0.784735 0.627139 0.028088
O O3 0.097405 0.872561 0.127313
O O4 0.801280 0.835575 0.086429
O O5 0.449253 0.919613 0.301233
O O6 0.061170 0.635670 0.084818
O O7 0.455282 0.831397 0.478409
O O8 0.368057 0.665084 0.172728
O O9 0.004256 0.196708 0.522166
O O10 0.025499 0.391401 0.743068
O O11 0.340189 0.537062 0.791093
O O12 0.869701 0.298220 0.417853
O O13 0.000000 0.000000 0.500000
O O14 0.396025 0.153802 0.835418
O O15 0.531792 0.224393 0.151841
O O16 0.420923 0.043806 0.187456
O O17 0.500000 0.000000 0.000000
#
# Coordination Sequence:
#
# PCOD8009868 Si02
#       8
#     2   2   2   2   2   2   2   2
#     4   9  21  40  59  93 121 157 206 248 311 371
#     4   9  18  34  60  93 118 153 191 258 315 356
#     4  11  22  39  61  93 123 161 209 249 302 365
#     4   9  20  39  63  95 124 160 202 249 313 364
#     4   9  18  33  59  91 124 145 197 256 312 360
#     4  12  25  42  62  88 121 167 213 252 301 361
#     4  11  24  41  62  86 130 170 203 252 300 361
#     4  10  21  37  62  88 122 156 204 250 305 368
#
# _framework density 20.148665000000001
#
# number of rings (size 3 to 8) (size 9 to 14) (size 15 to 20)
#    0.000    2.000    2.500    0.375    5.250    5.000 
#    2.250    0.000    0.000    1.500    0.000    0.000 
#    0.000    0.000    0.000    0.000    0.000    0.000 
#
# Total GULP energy -198261.602028 kJ/mol
# GULP energy per Si atom -12391.350127 kJ/mol
# Density = 2.010281 g / cm^3
# Si number density = 20.148665 Si / 1000 Ang^3
#
#
#
# Elastic Constant Matrix: (Units=GPa)
#
#
# Indices 1 2 3 4 5 6 
#
# 1 82.6346 46.6590 38.6088 -2.2452 -4.1524 -4.4634
# 2 46.6590 107.0438 52.6632 -9.5043 -4.2578 -6.1149
# 3 38.6088 52.6632 114.3283 2.5214 -11.4196 -11.1926
# 4 -2.2452 -9.5043 2.5214 28.1318 -5.5873 -1.3080
# 5 -4.1524 -4.2578 -11.4196 -5.5873 33.8361 2.8515
# 6 -4.4634 -6.1149 -11.1926 -1.3080 2.8515 40.1784
#
#
#
# Elastic Compliance Matrix: (Units=1/GPa)
#
#
# Indices 1 2 3 4 5 6 
#
# 1 0.016807 -0.005907 -0.002908 -0.000334 0.000272 0.000128
# 2 -0.005907 0.014789 -0.004862 0.005037 0.000295 0.000383
# 3 -0.002908 -0.004862 0.012498 -0.002363 0.002678 0.002152
# 4 -0.000334 0.005037 -0.002363 0.038689 0.006109 0.000897
# 5 0.000272 0.000295 0.002678 0.006109 0.031641 -0.001226
# 6 0.000128 0.000383 0.002152 0.000897 -0.001226 0.025677
#
#
# Mechanical properties :
#
#
# Convention : Reuss Voigt Hill
#
# Bulk Modulus (GPa) = 59.73049 64.42983 62.08016
# Shear Modulus (GPa) = 28.89591 31.50097 30.19844
#
# Velocity S-wave (km/s) = 3.79111 3.95831 3.87561
# Velocity P-wave (km/s) = 6.99089 7.27582 7.13478
#
# Compressibility (1/GPa) = 0.01674187
#
# Stress axis : x y z
#
# Youngs Moduli (GPa) = 59.49975 67.61560 80.00967
#
# Poissons Ratio (x) = 0.39939 0.23265
# Poissons Ratio (y) = 0.35145 0.38900
# Poissons Ratio (z) = 0.17301 0.32874
#
# Static dielectric constant tensor:
#      x y z
#    x 3.672350 -0.125200 -0.327100 
#    y -0.125200 3.723560 0.179770 
#    z -0.327100 0.179770 3.835770 
# 
# 
# High freq. dielectric constant tensor:
#      x y z
#    x 1.789210 -0.006020 -0.009520 
#    y -0.006020 1.776800 0.016450 
#    z -0.009520 0.016450 1.780990 
# 
# From -- ./inp_files/431352.got.cif
#   From: 2010.06.25/outbox.cif.g09.slc.cpg/sg2_216_cif.got.tgz:431352.got - 2010.06.27 13:26:56.
