data_PCOD8009819
_publ_section_title
;
Structure prediction by ZEFSAII (Michael W. Deem and Ramdas Pophale) SiO2 
 PCOD8009819
Probable space group: P -1
;
_chemical_formula_sum "Si O2"
_cell_formula_units_Z 16
_cell_length_a 8.228543
_cell_length_b 16.270267
_cell_length_c 8.926588
_cell_angle_alpha 141.384030
_cell_angle_beta 88.194656
_cell_angle_gamma 78.014102
_cell_volume 691.871294
_symmetry_space_group_name_H-M "P -1"
_symmetry_group_IT_number 2
_symmetry_cell_setting 'triclinic'
loop_
_space_group_symop_operation_xyz
x,y,z
-x,-y,-z
loop_
_atom_site_type_symbol
_atom_site_label
_atom_site_fract_x
_atom_site_fract_y
_atom_site_fract_z
Si Si1 0.839029 0.078887 0.453491
Si Si2 0.214084 0.995607 0.203439
Si Si3 0.936360 0.381401 0.391742
Si Si4 0.259632 0.733817 0.004280
Si Si5 0.401923 0.911355 0.767985
Si Si6 0.691391 0.888419 0.363219
Si Si7 0.356907 0.374888 0.152986
Si Si8 0.684479 0.782148 0.790744
O O1 0.844752 0.193129 0.738632
O O2 0.008124 0.028215 0.272009
O O3 0.826273 0.939774 0.337409
O O4 0.675920 0.156122 0.456067
O O5 0.266117 0.981320 0.008323
O O6 0.264038 0.113430 0.462636
O O7 0.314833 0.844904 0.065189
O O8 0.780268 0.461248 0.628660
O O9 0.000000 0.500000 0.500000
O O10 0.103663 0.258573 0.290096
O O11 0.861469 0.325705 0.172229
O O12 0.452324 0.621235 0.885137
O O13 0.414498 0.057623 0.908468
O O14 0.586310 0.792472 0.647346
O O15 0.500000 0.000000 0.500000
O O16 0.704435 0.730705 0.096008
O O17 0.351435 0.331986 0.266455
#
# Coordination Sequence:
#
# PCOD8009819 Si02
#       8
#     2   2   2   2   2   2   2   2
#     4  11  23  34  60  92 129 156 196 259 309 362
#     4  11  23  35  60  94 128 157 201 256 305 366
#     4  10  24  38  63  89 118 163 209 259 291 360
#     4  11  21  39  60  95 121 154 209 257 302 353
#     4  11  21  38  63  89 130 164 191 250 316 373
#     4  11  19  36  60  95 124 154 200 254 307 351
#     4  11  20  38  63  92 123 160 203 252 301 359
#     4  10  21  37  61  91 122 159 208 243 303 365
#
# _framework density 23.125689999999999
#
# number of rings (size 3 to 8) (size 9 to 14) (size 15 to 20)
#    0.000    1.250    5.000    3.000    7.000    0.000 
#    0.000    0.000    0.000    6.000    6.500    0.000 
#    0.000    0.000    0.000    0.000    0.000    0.000 
#
# Total GULP energy -198229.830865 kJ/mol
# GULP energy per Si atom -12389.364429 kJ/mol
# Density = 2.307306 g / cm^3
# Si number density = 23.125690 Si / 1000 Ang^3
#
#
#
# Elastic Constant Matrix: (Units=GPa)
#
#
# Indices 1 2 3 4 5 6 
#
# 1 116.3073 24.5703 48.5236 -5.8882 5.3169 -29.7593
# 2 24.5703 57.5134 34.0872 -10.3597 4.1452 -21.4106
# 3 48.5236 34.0872 130.3828 -20.0992 21.5997 -22.5879
# 4 -5.8882 -10.3597 -20.0992 28.4225 -10.6220 -2.0933
# 5 5.3169 4.1452 21.5997 -10.6220 43.0776 -4.6016
# 6 -29.7593 -21.4106 -22.5879 -2.0933 -4.6016 39.2569
#
#
#
# Elastic Compliance Matrix: (Units=1/GPa)
#
#
# Indices 1 2 3 4 5 6 
#
# 1 0.011796 -0.000467 -0.003061 0.001061 0.001146 0.007117
# 2 -0.000467 0.025660 -0.003502 0.008752 0.002830 0.012424
# 3 -0.003061 -0.003502 0.011476 0.005038 -0.003560 0.002224
# 4 0.001061 0.008752 0.005038 0.046501 0.009253 0.012041
# 5 0.001146 0.002830 -0.003560 0.009253 0.027300 0.004057
# 6 0.007117 0.012424 0.002224 0.012041 0.004057 0.040042
#
#
# Mechanical properties :
#
#
# Convention : Reuss Voigt Hill
#
# Bulk Modulus (GPa) = 28.67623 57.61841 43.14732
# Shear Modulus (GPa) = 26.53086 35.28623 30.90854
#
# Velocity S-wave (km/s) = 3.39078 3.91044 3.65985
# Velocity P-wave (km/s) = 5.26848 6.73485 6.04628
#
# Compressibility (1/GPa) = 0.03487208
#
# Stress axis : x y z
#
# Youngs Moduli (GPa) = 84.77397 38.97103 87.13651
#
# Poissons Ratio (x) = 0.01820 0.26674
# Poissons Ratio (y) = 0.03960 0.30514
# Poissons Ratio (z) = 0.25951 0.13647
#
# Static dielectric constant tensor:
#      x y z
#    x 4.898910 -0.515190 -0.259220 
#    y -0.515190 4.183760 0.091240 
#    z -0.259220 0.091240 4.557220 
# 
# 
# High freq. dielectric constant tensor:
#      x y z
#    x 1.943460 -0.026080 -0.004410 
#    y -0.026080 1.865670 -0.015700 
#    z -0.004410 -0.015700 1.899930 
# 
# From -- ./inp_files/218933.got.cif
#   From: 2010.06.25/outbox.cif.g09.slc.cpg/sg2_110_cif.got.tgz:218933.got - 2010.06.27 13:26:56.
