data_PCOD8009462
_publ_section_title
;
Structure prediction by ZEFSAII (Michael W. Deem and Ramdas Pophale) SiO2 
 PCOD8009462
Probable space group: P -1
;
_chemical_formula_sum "Si O2"
_cell_formula_units_Z 14
_cell_length_a 22.669517
_cell_length_b 28.196596
_cell_length_c 13.697021
_cell_angle_alpha 159.566904
_cell_angle_beta 159.384439
_cell_angle_gamma 11.771192
_cell_volume 601.931302
_symmetry_space_group_name_H-M "P -1"
_symmetry_group_IT_number 2
_symmetry_cell_setting 'triclinic'
loop_
_space_group_symop_operation_xyz
x,y,z
-x,-y,-z
loop_
_atom_site_type_symbol
_atom_site_label
_atom_site_fract_x
_atom_site_fract_y
_atom_site_fract_z
Si Si1 0.632035 0.477475 0.259679
Si Si2 0.714810 0.891618 0.708896
Si Si3 0.482272 0.188963 0.164416
Si Si4 0.640869 0.573804 0.150234
Si Si5 0.494475 0.689735 0.765394
Si Si6 0.845090 0.361868 0.851431
Si Si7 0.709445 0.935666 0.454511
O O1 0.540282 0.698335 0.557830
O O2 0.993151 0.233100 0.348159
O O3 0.500000 0.500000 0.000000
O O4 0.506227 0.473381 0.146736
O O5 0.049650 0.611806 0.669036
O O6 0.500000 0.000000 0.500000
O O7 0.565893 0.932476 0.653494
O O8 0.739660 0.038054 0.037290
O O9 0.396580 0.343958 0.239133
O O10 0.250114 0.214574 0.852651
O O11 0.807077 0.902306 0.110332
O O12 0.405489 0.845357 0.346479
O O13 0.721190 0.532998 0.081066
O O14 0.774840 0.490962 0.891795
O O15 0.320842 0.668069 0.458132
#
# Coordination Sequence:
#
# PCOD8009462 Si02
#       7
#     2   2   2   2   2   2   2
#     4  12  27  48  69  95 140 194 230 277 346 422
#     4  11  22  38  67  99 140 175 225 283 346 400
#     4  11  23  46  71  99 142 176 234 287 347 398
#     4  12  23  43  72 100 141 176 231 285 339 416
#     4  10  21  36  65 105 136 171 224 284 346 400
#     4  11  21  39  71 109 130 177 227 290 344 404
#     4  11  25  43  68 101 140 181 225 286 349 404
#
# _framework density 23.258468000000001
#
# number of rings (size 3 to 8) (size 9 to 14) (size 15 to 20)
#    0.000    0.857    4.286    4.286    2.000    2.286 
#    2.571    0.714    0.000    0.000    0.000    0.000 
#    0.000    0.000    0.000    0.000    0.000    0.000 
#
# Total GULP energy -173509.490411 kJ/mol
# GULP energy per Si atom -12393.535029 kJ/mol
# Density = 2.320553 g / cm^3
# Si number density = 23.258468 Si / 1000 Ang^3
#
#
#
# Elastic Constant Matrix: (Units=GPa)
#
#
# Indices 1 2 3 4 5 6 
#
# 1 52.4560 34.5176 18.1012 -2.7251 -14.6380 17.1767
# 2 34.5176 138.1389 63.7494 -14.1752 -3.3214 14.4064
# 3 18.1012 63.7494 146.1167 -4.6054 -28.2714 5.1725
# 4 -2.7251 -14.1752 -4.6054 33.1458 -0.6234 -8.9952
# 5 -14.6380 -3.3214 -28.2714 -0.6234 36.4432 -4.9227
# 6 17.1767 14.4064 5.1725 -8.9952 -4.9227 28.7830
#
#
#
# Elastic Compliance Matrix: (Units=1/GPa)
#
#
# Indices 1 2 3 4 5 6 
#
# 1 0.030781 -0.007186 0.001861 -0.003996 0.011132 -0.014452
# 2 -0.007186 0.011721 -0.005237 0.003427 -0.005900 -0.000575
# 3 0.001861 -0.005237 0.010512 -0.000186 0.008561 0.001027
# 4 -0.003996 0.003427 -0.000186 0.034440 0.000717 0.011589
# 5 0.011132 -0.005900 0.008561 0.000717 0.038235 0.001534
# 6 -0.014452 -0.000575 0.001027 0.011589 0.001534 0.047355
#
#
# Mechanical properties :
#
#
# Convention : Reuss Voigt Hill
#
# Bulk Modulus (GPa) = 31.35567 63.27200 47.31384
# Shear Modulus (GPa) = 24.41458 34.36394 29.38926
#
# Velocity S-wave (km/s) = 3.24343 3.84797 3.55856
# Velocity P-wave (km/s) = 5.24759 6.85605 6.10502
#
# Compressibility (1/GPa) = 0.03189216
#
# Stress axis : x y z
#
# Youngs Moduli (GPa) = 32.48777 85.31585 95.12768
#
# Poissons Ratio (x) = 0.61305 -0.17707
# Poissons Ratio (y) = 0.23345 0.49816
# Poissons Ratio (z) = -0.06047 0.44678
#
# Static dielectric constant tensor:
#      x y z
#    x 4.228370 0.148250 -0.144960 
#    y 0.148250 4.259080 0.134060 
#    z -0.144960 0.134060 4.717830 
# 
# 
# High freq. dielectric constant tensor:
#      x y z
#    x 1.886600 0.015760 -0.003740 
#    y 0.015760 1.921630 -0.001980 
#    z -0.003740 -0.001980 1.948910 
# 
# From -- ./inp_files/532142.got.cif
#   From: 2010.06.25/outbox.cif.g09.slc.cpg/sg2_267_cif.got.tgz:532142.got - 2010.06.27 13:26:56.
