data_PCOD8009151
_publ_section_title
;
Structure prediction by ZEFSAII (Michael W. Deem and Ramdas Pophale) SiO2 
 PCOD8009151
Probable space group: P -1
;
_chemical_formula_sum "Si O2"
_cell_formula_units_Z 16
_cell_length_a 8.799689
_cell_length_b 8.552120
_cell_length_c 16.722002
_cell_angle_alpha 122.721271
_cell_angle_beta 127.892401
_cell_angle_gamma 90.445814
_cell_volume 717.811110
_symmetry_space_group_name_H-M "P -1"
_symmetry_group_IT_number 2
_symmetry_cell_setting 'triclinic'
loop_
_space_group_symop_operation_xyz
x,y,z
-x,-y,-z
loop_
_atom_site_type_symbol
_atom_site_label
_atom_site_fract_x
_atom_site_fract_y
_atom_site_fract_z
Si Si1 0.120806 0.248071 0.129095
Si Si2 0.626034 0.835251 0.687670
Si Si3 0.845971 0.759189 0.410044
Si Si4 0.727523 0.244858 0.935252
Si Si5 0.623285 0.535299 0.882266
Si Si6 0.635829 0.753315 0.090535
Si Si7 0.904022 0.472180 0.549222
Si Si8 0.109994 0.133405 0.366024
O O1 0.253722 0.285533 0.265639
O O2 0.305659 0.390855 0.163505
O O3 0.934544 0.319983 0.085232
O O4 0.000000 0.000000 0.000000
O O5 0.361167 0.691160 0.572263
O O6 0.701335 0.875452 0.629800
O O7 0.712863 0.066000 0.820406
O O8 0.628312 0.666604 0.258724
O O9 0.787078 0.756747 0.484562
O O10 0.965583 0.623694 0.386925
O O11 0.000000 0.000000 0.500000
O O12 0.768624 0.450909 0.952745
O O13 0.503535 0.143637 0.889691
O O14 0.642537 0.742497 0.992997
O O15 0.500000 0.500000 0.000000
O O16 0.892322 0.895467 0.242906
O O17 0.961822 0.711417 0.661002
O O18 0.000000 0.500000 0.500000
#
# Coordination Sequence:
#
# PCOD8009151 Si02
#       8
#     2   2   2   2   2   2   2   2
#     4  10  21  36  57  87 123 162 204 252 313 377
#     4  11  22  41  62  92 131 168 212 266 321 382
#     4  11  23  43  68  96 127 167 215 264 320 387
#     4  10  21  39  63  90 126 167 208 264 321 378
#     4  11  22  40  63  92 127 165 209 264 320 378
#     4  10  21  39  63  91 123 167 215 263 316 377
#     4  10  21  39  63  90 125 169 208 256 315 375
#     4  11  23  41  65  94 130 171 213 267 322 380
#
# _framework density 22.289988000000001
#
# number of rings (size 3 to 8) (size 9 to 14) (size 15 to 20)
#    0.000    1.500    0.000    7.500    0.000    3.000 
#    0.000    7.500    0.000    0.000    0.000    0.000 
#    0.000    0.000    0.000    0.000    0.000    0.000 
#
# Total GULP energy -198250.198968 kJ/mol
# GULP energy per Si atom -12390.637435 kJ/mol
# Density = 2.223925 g / cm^3
# Si number density = 22.289988 Si / 1000 Ang^3
#
#
#
# Elastic Constant Matrix: (Units=GPa)
#
#
# Indices 1 2 3 4 5 6 
#
# 1 131.2271 14.8120 20.0906 -4.9909 1.4797 -2.2766
# 2 14.8120 86.2775 4.3550 -2.2055 5.5726 -11.7919
# 3 20.0906 4.3550 63.2180 -4.2592 7.6907 -10.2168
# 4 -4.9909 -2.2055 -4.2592 37.6180 0.0835 4.0897
# 5 1.4797 5.5726 7.6907 0.0835 38.0968 5.7890
# 6 -2.2766 -11.7919 -10.2168 4.0897 5.7890 28.5120
#
#
#
# Elastic Compliance Matrix: (Units=1/GPa)
#
#
# Indices 1 2 3 4 5 6 
#
# 1 0.008204 -0.001449 -0.002714 0.000821 0.000616 -0.001159
# 2 -0.001449 0.012817 0.000922 0.000006 -0.002933 0.006110
# 3 -0.002714 0.000922 0.018522 0.000969 -0.004935 0.007665
# 4 0.000821 0.000006 0.000969 0.027186 0.000249 -0.003535
# 5 0.000616 -0.002933 -0.004935 0.000249 0.028995 -0.008855
# 6 -0.001159 0.006110 0.007665 -0.003535 -0.008855 0.042559
#
#
# Mechanical properties :
#
#
# Convention : Reuss Voigt Hill
#
# Bulk Modulus (GPa) = 30.24688 39.91532 35.08110
# Shear Modulus (GPa) = 32.09556 36.94303 34.51929
#
# Velocity S-wave (km/s) = 3.79873 4.07551 3.93955
# Velocity P-wave (km/s) = 5.73059 6.33187 6.03872
#
# Compressibility (1/GPa) = 0.03306127
#
# Stress axis : x y z
#
# Youngs Moduli (GPa) = 121.89772 78.01894 53.99068
#
# Poissons Ratio (x) = 0.11302 0.14655
# Poissons Ratio (y) = 0.17658 -0.04979
# Poissons Ratio (z) = 0.33086 -0.07195
#
# Static dielectric constant tensor:
#      x y z
#    x 4.582610 -0.217350 -0.062530 
#    y -0.217350 4.305890 -0.129400 
#    z -0.062530 -0.129400 3.930320 
# 
# 
# High freq. dielectric constant tensor:
#      x y z
#    x 1.891220 0.006010 0.006100 
#    y 0.006010 1.869850 0.008760 
#    z 0.006100 0.008760 1.868500 
# 
# From -- ./inp_files/217088.got.cif
#   From: 2010.06.25/outbox.cif.g09.slc.cpg/sg2_109_cif.got.tgz:217088.got - 2010.06.27 13:26:56.
