data_PCOD8009292
_publ_section_title
;
Structure prediction by ZEFSAII (Michael W. Deem and Ramdas Pophale) SiO2 
 PCOD8009292
Probable space group: P -1
;
_chemical_formula_sum "Si O2"
_cell_formula_units_Z 16
_cell_length_a 18.259806
_cell_length_b 8.761317
_cell_length_c 21.460226
_cell_angle_alpha 119.992899
_cell_angle_beta 18.144279
_cell_angle_gamma 128.561721
_cell_volume 773.376099
_symmetry_space_group_name_H-M "P -1"
_symmetry_group_IT_number 2
_symmetry_cell_setting 'triclinic'
loop_
_space_group_symop_operation_xyz
x,y,z
-x,-y,-z
loop_
_atom_site_type_symbol
_atom_site_label
_atom_site_fract_x
_atom_site_fract_y
_atom_site_fract_z
Si Si1 0.203854 0.304985 0.009588
Si Si2 0.217807 0.334117 0.418614
Si Si3 0.816489 0.334713 0.417289
Si Si4 0.698385 0.028048 0.287733
Si Si5 0.244137 0.736546 0.834076
Si Si6 0.301912 0.027416 0.953044
Si Si7 0.129692 0.996357 0.614618
Si Si8 0.876476 0.080793 0.530946
O O1 0.011947 0.381891 0.209103
O O2 0.004895 0.103845 0.083320
O O3 0.352343 0.244497 0.929415
O O4 0.447474 0.506283 0.817664
O O5 0.081445 0.444194 0.587537
O O6 0.151470 0.127062 0.463791
O O7 0.091987 0.280469 0.439643
O O8 0.479098 0.206420 0.647733
O O9 0.842336 0.175365 0.407351
O O10 0.759749 0.206767 0.223681
O O11 0.500000 0.000000 0.500000
O O12 0.559412 0.789481 0.602884
O O13 0.188189 0.871276 0.954817
O O14 0.000000 0.500000 0.000000
O O15 0.063532 0.940546 0.181420
O O16 0.581729 0.063769 0.764734
O O17 0.993325 0.887855 0.636556
#
# Coordination Sequence:
#
# PCOD8009292 Si02
#       8
#     2   2   2   2   2   2   2   2
#     4  10  21  37  63  89 116 157 203 245 300 363
#     4  11  23  39  60  87 116 156 205 255 303 360
#     4   9  20  39  61  88 117 154 204 246 296 360
#     4   9  19  38  60  90 127 157 200 254 294 357
#     4  10  21  36  60  92 127 163 206 247 300 368
#     4  10  22  41  61  84 123 161 196 254 307 360
#     4   9  20  41  61  85 120 158 199 250 303 360
#     4  10  24  41  57  85 124 156 198 256 312 359
#
# _framework density 20.688510000000001
#
# number of rings (size 3 to 8) (size 9 to 14) (size 15 to 20)
#    0.000    2.250    0.000    3.000    3.500    6.500 
#    2.250    5.000    0.000    0.000    0.000    0.000 
#    0.000    0.000    0.000    0.000    0.000    0.000 
#
# Total GULP energy -198264.567724 kJ/mol
# GULP energy per Si atom -12391.535483 kJ/mol
# Density = 2.064142 g / cm^3
# Si number density = 20.688510 Si / 1000 Ang^3
#
#
#
# Elastic Constant Matrix: (Units=GPa)
#
#
# Indices 1 2 3 4 5 6 
#
# 1 100.4290 27.6596 37.2082 8.8381 -1.5936 22.0795
# 2 27.6596 82.2937 40.0255 -1.7851 -1.3131 15.2424
# 3 37.2082 40.0255 91.7814 14.1041 5.3055 7.8236
# 4 8.8381 -1.7851 14.1041 23.9050 4.9014 1.1930
# 5 -1.5936 -1.3131 5.3055 4.9014 32.4837 -0.2551
# 6 22.0795 15.2424 7.8236 1.1930 -0.2551 24.6261
#
#
#
# Elastic Compliance Matrix: (Units=1/GPa)
#
#
# Indices 1 2 3 4 5 6 
#
# 1 0.014418 -0.000778 -0.004259 -0.002676 0.001689 -0.010945
# 2 -0.000778 0.017899 -0.007839 0.006469 0.000925 -0.008194
# 3 -0.004259 -0.007839 0.017221 -0.008950 -0.001960 0.003613
# 4 -0.002676 0.006469 -0.008950 0.049865 -0.005942 -0.001239
# 5 0.001689 0.000925 -0.001960 -0.005942 0.032115 -0.000844
# 6 -0.010945 -0.008194 0.003613 -0.001239 -0.000844 0.054396
#
#
# Mechanical properties :
#
#
# Convention : Reuss Voigt Hill
#
# Bulk Modulus (GPa) = 42.04308 53.81009 47.92658
# Shear Modulus (GPa) = 22.76905 27.51034 25.13970
#
# Velocity S-wave (km/s) = 3.32108 3.65052 3.48969
# Velocity P-wave (km/s) = 5.92217 6.62076 6.28119
#
# Compressibility (1/GPa) = 0.02378513
#
# Stress axis : x y z
#
# Youngs Moduli (GPa) = 69.35628 55.86992 58.06732
#
# Poissons Ratio (x) = 0.04349 0.24732
# Poissons Ratio (y) = 0.05398 0.45520
# Poissons Ratio (z) = 0.29540 0.43797
#
# Static dielectric constant tensor:
#      x y z
#    x 4.065620 0.296030 0.029710 
#    y 0.296030 3.548590 0.023050 
#    z 0.029710 0.023050 3.895410 
# 
# 
# High freq. dielectric constant tensor:
#      x y z
#    x 1.819480 0.014150 0.007450 
#    y 0.014150 1.787860 0.004350 
#    z 0.007450 0.004350 1.814440 
# 
# From -- ./inp_files/577452.got.cif
#   From: 2010.06.25/outbox.cif.g09.slc.cpg/sg2_289_cif.got.tgz:577452.got - 2010.06.27 13:26:56.
