data_PCOD8009054
_publ_section_title
;
Structure prediction by ZEFSAII (Michael W. Deem and Ramdas Pophale) SiO2 
 PCOD8009054
Probable space group: P -1
;
_chemical_formula_sum "Si O2"
_cell_formula_units_Z 14
_cell_length_a 8.076148
_cell_length_b 9.240840
_cell_length_c 18.885425
_cell_angle_alpha 72.808165
_cell_angle_beta 116.051412
_cell_angle_gamma 146.444093
_cell_volume 692.836718
_symmetry_space_group_name_H-M "P -1"
_symmetry_group_IT_number 2
_symmetry_cell_setting 'triclinic'
loop_
_space_group_symop_operation_xyz
x,y,z
-x,-y,-z
loop_
_atom_site_type_symbol
_atom_site_label
_atom_site_fract_x
_atom_site_fract_y
_atom_site_fract_z
Si Si1 0.314118 0.162264 0.457702
Si Si2 0.061105 0.297903 0.457753
Si Si3 0.868527 0.848872 0.130171
Si Si4 0.129261 0.926991 0.312147
Si Si5 0.431514 0.670469 0.869774
Si Si6 0.180435 0.601000 0.687741
Si Si7 0.357389 0.741658 0.000090
O O1 0.200027 0.234025 0.466156
O O2 0.697698 0.447918 0.480452
O O3 0.108366 0.007078 0.369370
O O4 0.255362 0.966315 0.519519
O O5 0.005979 0.369705 0.369415
O O6 0.737883 0.603686 0.111321
O O7 0.933380 0.884665 0.221142
O O8 0.590264 0.783555 0.078368
O O9 0.191958 0.104293 0.109775
O O10 0.007333 0.673885 0.333043
O O11 0.500353 0.172867 0.329611
O O12 0.256703 0.648296 0.778674
O O13 0.367466 0.718262 0.921960
O O14 0.000000 0.500000 0.000000
O O15 0.500000 0.000000 0.000000
#
# Coordination Sequence:
#
# PCOD8009054 Si02
#       7
#     2   2   2   2   2   2   2
#     4  10  21  36  53  77 111 148 181 221 280 335
#     4  10  21  36  53  77 111 148 181 221 280 335
#     4  10  21  40  61  82 115 155 188 226 285 343
#     4  10  21  36  57  83 107 141 190 233 271 324
#     4  10  21  40  61  82 115 155 188 226 285 343
#     4  10  21  36  57  83 107 141 190 233 271 324
#     4  12  24  38  60  92 118 144 190 236 278 332
#
# _framework density 20.206780999999999
#
# number of rings (size 3 to 8) (size 9 to 14) (size 15 to 20)
#    0.000    1.714    0.000    4.286    0.000    4.571 
#    0.000    4.286    0.000    0.000    0.000    0.000 
#    0.000    0.000    0.000    0.000    0.000    0.000 
#
# Total GULP energy -173528.362185 kJ/mol
# GULP energy per Si atom -12394.883013 kJ/mol
# Density = 2.016079 g / cm^3
# Si number density = 20.206781 Si / 1000 Ang^3
#
#
#
# Elastic Constant Matrix: (Units=GPa)
#
#
# Indices 1 2 3 4 5 6 
#
# 1 58.0972 42.2807 56.2934 5.5156 -3.6107 -0.1266
# 2 42.2807 156.7754 57.0268 13.3348 -4.9969 4.6459
# 3 56.2934 57.0268 132.0244 5.7970 -2.9839 -14.1428
# 4 5.5156 13.3348 5.7970 30.9346 -2.3782 -1.2649
# 5 -3.6107 -4.9969 -2.9839 -2.3782 33.0109 4.9644
# 6 -0.1266 4.6459 -14.1428 -1.2649 4.9644 23.5348
#
#
#
# Elastic Compliance Matrix: (Units=1/GPa)
#
#
# Indices 1 2 3 4 5 6 
#
# 1 0.032943 -0.003609 -0.013166 -0.001945 0.002890 -0.007736
# 2 -0.003609 0.008593 -0.002410 -0.002674 0.001025 -0.003524
# 3 -0.013166 -0.002410 0.015222 0.000798 -0.001874 0.009990
# 4 -0.001945 -0.002674 0.000798 0.033895 0.001521 0.002498
# 5 0.002890 0.001025 -0.001874 0.001521 0.031902 -0.007960
# 6 -0.007736 -0.003524 0.009990 0.002498 -0.007960 0.050961
#
#
# Mechanical properties :
#
#
# Convention : Reuss Voigt Hill
#
# Bulk Modulus (GPa) = 54.37933 73.12211 63.75072
# Shear Modulus (GPa) = 22.93421 30.24912 26.59166
#
# Velocity S-wave (km/s) = 3.37259 3.87328 3.63158
# Velocity P-wave (km/s) = 6.49120 7.50123 7.01442
#
# Compressibility (1/GPa) = 0.01838934
#
# Stress axis : x y z
#
# Youngs Moduli (GPa) = 30.35522 116.37489 65.69505
#
# Poissons Ratio (x) = 0.41995 0.86493
# Poissons Ratio (y) = 0.10954 0.15832
# Poissons Ratio (z) = 0.39965 0.28045
#
# Static dielectric constant tensor:
#      x y z
#    x 3.324140 0.087720 -0.151340 
#    y 0.087720 4.235680 0.180360 
#    z -0.151340 0.180360 3.027880 
# 
# 
# High freq. dielectric constant tensor:
#      x y z
#    x 1.765830 -0.002350 -0.001310 
#    y -0.002350 1.822310 0.002990 
#    z -0.001310 0.002990 1.797700 
# 
# From -- ./inp_files/222243.got.cif
#   From: 2010.06.25/outbox.cif.g09.slc.cpg/sg2_112_cif.got.tgz:222243.got - 2010.06.27 13:26:56.
