data_PCOD8009893
_publ_section_title
;
Structure prediction by ZEFSAII (Michael W. Deem and Ramdas Pophale) SiO2 
 PCOD8009893
Probable space group: P -1
;
_chemical_formula_sum "Si O2"
_cell_formula_units_Z 16
_cell_length_a 9.278985
_cell_length_b 19.351475
_cell_length_c 12.523508
_cell_angle_alpha 145.192210
_cell_angle_beta 69.535148
_cell_angle_gamma 134.760433
_cell_volume 752.782002
_symmetry_space_group_name_H-M "P -1"
_symmetry_group_IT_number 2
_symmetry_cell_setting 'triclinic'
loop_
_space_group_symop_operation_xyz
x,y,z
-x,-y,-z
loop_
_atom_site_type_symbol
_atom_site_label
_atom_site_fract_x
_atom_site_fract_y
_atom_site_fract_z
Si Si1 0.374015 0.757141 0.698078
Si Si2 0.866352 0.039925 0.047940
Si Si3 0.968689 0.355214 0.764450
Si Si4 0.685944 0.135639 0.361854
Si Si5 0.015578 0.320412 0.212291
Si Si6 0.559780 0.373846 0.905444
Si Si7 0.674892 0.022797 0.576351
Si Si8 0.156803 0.310267 0.936619
O O1 0.377812 0.804539 0.635314
O O2 0.203562 0.536778 0.475193
O O3 0.265054 0.800547 0.854174
O O4 0.637773 0.873925 0.817897
O O5 0.770936 0.057328 0.196646
O O6 0.057720 0.235509 0.176064
O O7 0.000000 0.000000 0.000000
O O8 0.912912 0.328769 0.619491
O O9 0.737149 0.140058 0.603724
O O10 0.238057 0.462399 0.849956
O O11 0.000000 0.500000 0.000000
O O12 0.448097 0.972336 0.291720
O O13 0.048854 0.301990 0.059945
O O14 0.660280 0.480390 0.899772
O O15 0.510419 0.200065 0.688608
O O16 0.307163 0.281703 0.888419
O O17 0.935363 0.134355 0.693950
#
# Coordination Sequence:
#
# PCOD8009893 Si02
#       8
#     2   2   2   2   2   2   2   2
#     4  10  22  42  68  92 123 158 221 259 304 379
#     4  11  25  44  62  96 132 156 209 265 318 379
#     4  11  24  40  58  93 128 158 214 257 304 371
#     4  11  22  42  68  91 124 173 206 264 312 364
#     4  10  21  40  65  93 120 168 210 255 313 371
#     4  10  22  38  57  92 129 162 206 259 306 375
#     4  11  21  38  64  88 123 167 212 249 311 372
#     4  10  21  37  62  91 127 163 205 255 316 370
#
# _framework density 21.254496
#
# number of rings (size 3 to 8) (size 9 to 14) (size 15 to 20)
#    0.000    1.500    1.250    4.500    1.750    2.500 
#    2.250    1.250    0.000    0.000    0.000    0.000 
#    0.000    0.000    0.000    0.000    0.000    0.000 
#
# Total GULP energy -198390.668113 kJ/mol
# GULP energy per Si atom -12399.416757 kJ/mol
# Density = 2.120612 g / cm^3
# Si number density = 21.254496 Si / 1000 Ang^3
#
#
#
# Elastic Constant Matrix: (Units=GPa)
#
#
# Indices 1 2 3 4 5 6 
#
# 1 144.4024 55.0993 52.2608 -3.9591 10.0083 -13.9680
# 2 55.0993 100.7593 51.4381 -3.6246 12.0339 -3.1396
# 3 52.2608 51.4381 103.5623 -2.4839 6.8931 -9.1252
# 4 -3.9591 -3.6246 -2.4839 35.3418 -7.4112 -1.6406
# 5 10.0083 12.0339 6.8931 -7.4112 31.1782 2.7266
# 6 -13.9680 -3.1396 -9.1252 -1.6406 2.7266 29.1119
#
#
#
# Elastic Compliance Matrix: (Units=1/GPa)
#
#
# Indices 1 2 3 4 5 6 
#
# 1 0.009749 -0.003678 -0.002678 0.000414 -0.001333 0.003590
# 2 -0.003678 0.015126 -0.005577 -0.000016 -0.003291 -0.001574
# 3 -0.002678 -0.005577 0.014024 0.000175 -0.000269 0.002545
# 4 0.000414 -0.000016 0.000175 0.029841 0.006815 0.001295
# 5 -0.001333 -0.003291 -0.000269 0.006815 0.035805 -0.004048
# 6 0.003590 -0.001574 0.002545 0.001295 -0.004048 0.037153
#
#
# Mechanical properties :
#
#
# Convention : Reuss Voigt Hill
#
# Bulk Modulus (GPa) = 66.51976 74.03561 70.27769
# Shear Modulus (GPa) = 29.31269 31.78808 30.55039
#
# Velocity S-wave (km/s) = 3.71769 3.87149 3.79537
# Velocity P-wave (km/s) = 7.05642 7.40899 7.23485
#
# Compressibility (1/GPa) = 0.01503313
#
# Stress axis : x y z
#
# Youngs Moduli (GPa) = 102.57953 66.10922 71.30786
#
# Poissons Ratio (x) = 0.24315 0.19094
# Poissons Ratio (y) = 0.37728 0.39770
# Poissons Ratio (z) = 0.27467 0.36870
#
# Static dielectric constant tensor:
#      x y z
#    x 4.198540 0.052880 0.385240 
#    y 0.052880 3.862930 0.131380 
#    z 0.385240 0.131380 4.019470 
# 
# 
# High freq. dielectric constant tensor:
#      x y z
#    x 1.835560 -0.001320 0.015150 
#    y -0.001320 1.831850 0.008940 
#    z 0.015150 0.008940 1.839260 
# 
# From -- ./inp_files/403370.got.cif
#   From: 2010.06.25/outbox.cif.g09.slc.cpg/sg2_202_cif.got.tgz:403370.got - 2010.06.27 13:26:56.
