data_PCOD8009681
_publ_section_title
;
Structure prediction by ZEFSAII (Michael W. Deem and Ramdas Pophale) SiO2 
 PCOD8009681
Probable space group: P -1
;
_chemical_formula_sum "Si O2"
_cell_formula_units_Z 16
_cell_length_a 23.258855
_cell_length_b 11.714155
_cell_length_c 10.659705
_cell_angle_alpha 52.014713
_cell_angle_beta 150.351396
_cell_angle_gamma 147.970700
_cell_volume 675.593832
_symmetry_space_group_name_H-M "P -1"
_symmetry_group_IT_number 2
_symmetry_cell_setting 'triclinic'
loop_
_space_group_symop_operation_xyz
x,y,z
-x,-y,-z
loop_
_atom_site_type_symbol
_atom_site_label
_atom_site_fract_x
_atom_site_fract_y
_atom_site_fract_z
Si Si1 0.355325 0.006542 0.596610
Si Si2 0.610116 0.317917 0.478622
Si Si3 0.812637 0.434795 0.536342
Si Si4 0.242647 0.803958 0.028058
Si Si5 0.225487 0.240816 0.405045
Si Si6 0.264567 0.500879 0.905651
Si Si7 0.786344 0.836663 0.851291
Si Si8 0.158124 0.856761 0.574581
O O1 0.316543 0.110841 0.369226
O O2 0.330349 0.845232 0.567429
O O3 0.200509 0.831677 0.535219
O O4 0.568540 0.224723 0.914494
O O5 0.761367 0.448773 0.563381
O O6 0.674000 0.274425 0.742146
O O7 0.618361 0.491208 0.424137
O O8 0.388851 0.066780 0.188443
O O9 0.770486 0.513382 0.298413
O O10 0.037856 0.614182 0.839543
O O11 0.224862 0.815340 0.838232
O O12 0.236151 0.253369 0.267763
O O13 0.270950 0.123811 0.620935
O O14 0.011600 0.078841 0.153050
O O15 0.072101 0.346464 0.723857
O O16 0.319586 0.386139 0.107585
#
# Coordination Sequence:
#
# PCOD8009681 Si02
#       8
#     2   2   2   2   2   2   2   2
#     4  11  21  36  61  86 115 150 185 234 284 332
#     4  11  23  40  59  82 115 152 191 229 279 341
#     4  11  24  39  56  85 120 150 186 232 283 335
#     4  10  23  40  58  83 113 153 194 231 277 333
#     4   9  19  38  62  83 113 151 184 234 284 329
#     4  10  21  37  59  88 115 147 189 233 283 335
#     4   9  19  37  60  87 113 143 189 235 282 330
#     4   9  21  40  58  84 115 145 190 238 282 326
#
# _framework density 23.682867999999999
#
# number of rings (size 3 to 8) (size 9 to 14) (size 15 to 20)
#    0.000    2.000    0.000    3.375    0.000    6.500 
#    0.000   11.875    0.000    0.000    0.000    0.000 
#    0.000    0.000    0.000    0.000    0.000    0.000 
#
# Total GULP energy -198491.081115 kJ/mol
# GULP energy per Si atom -12405.692570 kJ/mol
# Density = 2.362897 g / cm^3
# Si number density = 23.682868 Si / 1000 Ang^3
#
#
#
# Elastic Constant Matrix: (Units=GPa)
#
#
# Indices 1 2 3 4 5 6 
#
# 1 38.2409 32.3819 0.0449 -11.7546 -10.9131 -4.9762
# 2 32.3819 101.1051 8.5886 0.4034 -8.8981 5.0609
# 3 0.0449 8.5886 61.2758 -5.6196 -2.6984 11.2243
# 4 -11.7546 0.4034 -5.6196 38.9200 4.3775 -7.2924
# 5 -10.9131 -8.8981 -2.6984 4.3775 16.3282 1.2194
# 6 -4.9762 5.0609 11.2243 -7.2924 1.2194 31.4439
#
#
#
# Elastic Compliance Matrix: (Units=1/GPa)
#
#
# Indices 1 2 3 4 5 6 
#
# 1 0.052314 -0.015776 0.002235 0.016310 0.021395 0.012974
# 2 -0.015776 0.015370 -0.001665 -0.006213 -0.000344 -0.005804
# 3 0.002235 -0.001665 0.017874 0.001862 0.003449 -0.005461
# 4 0.016310 -0.006213 0.001862 0.033164 -0.001866 0.010680
# 5 0.021395 -0.000344 0.003449 -0.001866 0.076515 -0.001190
# 6 0.012974 -0.005804 -0.005461 0.010680 -0.001190 0.039262
#
#
# Mechanical properties :
#
#
# Convention : Reuss Voigt Hill
#
# Bulk Modulus (GPa) = 18.13393 31.40583 24.76988
# Shear Modulus (GPa) = 17.64950 27.97885 22.81417
#
# Velocity S-wave (km/s) = 2.73288 3.44087 3.10711
# Velocity P-wave (km/s) = 4.19902 5.39221 4.83258
#
# Compressibility (1/GPa) = 0.05514525
#
# Stress axis : x y z
#
# Youngs Moduli (GPa) = 19.11531 65.06190 55.94633
#
# Poissons Ratio (x) = 1.02645 -0.12501
# Poissons Ratio (y) = 0.30157 0.09313
# Poissons Ratio (z) = -0.04271 0.10830
#
# Static dielectric constant tensor:
#      x y z
#    x 3.871550 0.303110 0.070800 
#    y 0.303110 4.476140 -0.100300 
#    z 0.070800 -0.100300 4.316800 
# 
# 
# High freq. dielectric constant tensor:
#      x y z
#    x 1.914740 0.019420 0.007660 
#    y 0.019420 1.950120 -0.002860 
#    z 0.007660 -0.002860 1.942110 
# 
# From -- ./inp_files/476645.got.cif
#   From: 2010.06.25/outbox.cif.g09.slc.cpg/sg2_239_cif.got.tgz:476645.got - 2010.06.27 13:26:56.
