data_PCOD8009869
_publ_section_title
;
Structure prediction by ZEFSAII (Michael W. Deem and Ramdas Pophale) SiO2 
 PCOD8009869
Probable space group: P -1
;
_chemical_formula_sum "Si O2"
_cell_formula_units_Z 16
_cell_length_a 14.298830
_cell_length_b 10.151170
_cell_length_c 15.216914
_cell_angle_alpha 38.004417
_cell_angle_beta 139.297120
_cell_angle_gamma 114.650259
_cell_volume 792.470918
_symmetry_space_group_name_H-M "P -1"
_symmetry_group_IT_number 2
_symmetry_cell_setting 'triclinic'
loop_
_space_group_symop_operation_xyz
x,y,z
-x,-y,-z
loop_
_atom_site_type_symbol
_atom_site_label
_atom_site_fract_x
_atom_site_fract_y
_atom_site_fract_z
Si Si1 0.949234 0.272858 0.732677
Si Si2 0.556827 0.189349 0.783889
Si Si3 0.603845 0.421028 0.203658
Si Si4 0.374357 0.346179 0.740269
Si Si5 0.025955 0.232425 0.999849
Si Si6 0.700502 0.541240 0.683729
Si Si7 0.203948 0.316224 0.785919
Si Si8 0.650195 0.935903 0.578726
O O1 0.023382 0.366659 0.655782
O O2 0.754775 0.401304 0.528367
O O3 0.020470 0.319303 0.849669
O O4 0.012501 0.992834 0.909402
O O5 0.489440 0.161615 0.847087
O O6 0.661692 0.329861 0.800641
O O7 0.400345 0.339685 0.536986
O O8 0.664888 0.936858 0.945057
O O9 0.524435 0.592833 0.143096
O O10 0.763883 0.458633 0.278416
O O11 0.645405 0.151250 0.401501
O O12 0.500000 0.500000 0.000000
O O13 0.252245 0.258305 0.746837
O O14 0.196009 0.171834 0.193262
O O15 0.888192 0.440752 0.848410
O O16 0.653811 0.731620 0.626460
O O17 0.500000 0.000000 0.500000
#
# Coordination Sequence:
#
# PCOD8009869 Si02
#       8
#     2   2   2   2   2   2   2   2
#     4  11  21  40  64  97 122 162 212 269 313 376
#     4  11  21  40  60  99 116 167 211 264 319 367
#     4  10  23  40  61  93 126 163 207 254 320 374
#     4  10  21  37  62  88 125 158 208 264 305 378
#     4  11  23  40  65  90 131 164 211 259 323 374
#     4  11  24  38  65  86 135 161 208 263 319 373
#     4  10  22  37  67  84 132 158 211 265 312 373
#     4  12  26  42  66  93 127 172 215 257 315 389
#
# _framework density 20.190014999999999
#
# number of rings (size 3 to 8) (size 9 to 14) (size 15 to 20)
#    0.750    0.500    3.750    2.625    3.500    0.000 
#    0.000    0.000    0.000    0.750    0.000    0.000 
#    0.000    0.000    0.000    0.000    0.000    0.000 
#
# Total GULP energy -198236.316591 kJ/mol
# GULP energy per Si atom -12389.769787 kJ/mol
# Density = 2.014406 g / cm^3
# Si number density = 20.190015 Si / 1000 Ang^3
#
#
#
# Elastic Constant Matrix: (Units=GPa)
#
#
# Indices 1 2 3 4 5 6 
#
# 1 107.3943 47.8621 31.6263 5.7660 8.3498 -5.6812
# 2 47.8621 96.3395 29.4650 6.4241 6.0326 -4.2149
# 3 31.6263 29.4650 65.9419 7.3768 14.4627 -3.8432
# 4 5.7660 6.4241 7.3768 35.3404 -3.7520 -4.9231
# 5 8.3498 6.0326 14.4627 -3.7520 37.8982 -3.9962
# 6 -5.6812 -4.2149 -3.8432 -4.9231 -3.9962 32.9063
#
#
#
# Elastic Compliance Matrix: (Units=1/GPa)
#
#
# Indices 1 2 3 4 5 6 
#
# 1 0.012782 -0.005144 -0.003620 -0.000311 -0.000540 0.001013
# 2 -0.005144 0.014155 -0.003802 -0.000855 0.000287 0.000388
# 3 -0.003620 -0.003802 0.020504 -0.003734 -0.006802 -0.000102
# 4 -0.000311 -0.000855 -0.003734 0.030465 0.005129 0.004581
# 5 -0.000540 0.000287 -0.006802 0.005129 0.029938 0.003552
# 6 0.001013 0.000388 -0.000102 0.004581 0.003552 0.031719
#
#
# Mechanical properties :
#
#
# Convention : Reuss Voigt Hill
#
# Bulk Modulus (GPa) = 44.82665 54.17582 49.50124
# Shear Modulus (GPa) = 29.04775 31.94381 30.49578
#
# Velocity S-wave (km/s) = 3.79716 3.98195 3.89065
# Velocity P-wave (km/s) = 6.44012 6.93055 6.68983
#
# Compressibility (1/GPa) = 0.02230816
#
# Stress axis : x y z
#
# Youngs Moduli (GPa) = 78.23266 70.64810 48.77210
#
# Poissons Ratio (x) = 0.36345 0.17653
# Poissons Ratio (y) = 0.40247 0.18544
# Poissons Ratio (z) = 0.28317 0.26862
#
# Static dielectric constant tensor:
#      x y z
#    x 3.660780 -0.022730 -0.179820 
#    y -0.022730 3.543200 -0.082230 
#    z -0.179820 -0.082230 3.791510 
# 
# 
# High freq. dielectric constant tensor:
#      x y z
#    x 1.790760 -0.002230 -0.011340 
#    y -0.002230 1.769650 -0.005350 
#    z -0.011340 -0.005350 1.798200 
# 
# From -- ./inp_files/527276.got.cif
#   From: 2010.06.25/outbox.cif.g09.slc.cpg/sg2_264_cif.got.tgz:527276.got - 2010.06.27 13:26:56.
