data_PCOD8009604
_publ_section_title
;
Structure prediction by ZEFSAII (Michael W. Deem and Ramdas Pophale) SiO2 
 PCOD8009604
Probable space group: P -1
;
_chemical_formula_sum "Si O2"
_cell_formula_units_Z 14
_cell_length_a 10.680703
_cell_length_b 14.060477
_cell_length_c 7.100516
_cell_angle_alpha 78.303593
_cell_angle_beta 79.014855
_cell_angle_gamma 30.334237
_cell_volume 527.096358
_symmetry_space_group_name_H-M "P -1"
_symmetry_group_IT_number 2
_symmetry_cell_setting 'triclinic'
loop_
_space_group_symop_operation_xyz
x,y,z
-x,-y,-z
loop_
_atom_site_type_symbol
_atom_site_label
_atom_site_fract_x
_atom_site_fract_y
_atom_site_fract_z
Si Si1 0.744268 0.641703 0.244324
Si Si2 0.509595 0.316889 0.407572
Si Si3 0.426418 0.589870 0.239842
Si Si4 0.656990 0.908753 0.177604
Si Si5 0.968279 0.007301 0.783688
Si Si6 0.695157 0.701974 0.798177
Si Si7 0.098834 0.726816 0.950940
O O1 0.568691 0.677374 0.374152
O O2 0.689355 0.781120 0.310255
O O3 0.036373 0.427143 0.271674
O O4 0.669448 0.693410 0.027699
O O5 0.443435 0.474707 0.386692
O O6 0.345658 0.371879 0.270980
O O7 0.795221 0.111320 0.355684
O O8 0.703434 0.453097 0.175801
O O9 0.261838 0.778739 0.322837
O O10 0.277305 0.673857 0.054739
O O11 0.517110 0.078595 0.282377
O O12 0.935069 0.758490 0.099703
O O13 0.500000 0.000000 0.000000
O O14 0.929022 0.916065 0.808026
O O15 0.000000 0.000000 0.000000
#
# Coordination Sequence:
#
# PCOD8009604 Si02
#       7
#     2   2   2   2   2   2   2
#     4  10  23  38  55  89 124 155 201 245 292 358
#     4  11  21  35  61  91 118 154 200 245 297 359
#     4   9  18  32  56  88 118 149 194 252 297 347
#     4  10  21  37  58  85 119 160 198 241 295 354
#     4   9  18  33  57  90 116 148 197 246 297 351
#     4  10  21  38  57  82 122 162 195 243 298 349
#     4   9  17  31  54  87 117 149 202 245 289 355
#
# _framework density 26.56061
#
# number of rings (size 3 to 8) (size 9 to 14) (size 15 to 20)
#    0.000    2.286    0.000    3.857    0.000    2.857 
#    0.000    0.000    0.000   21.429    0.000  122.000 
#    0.000    0.000    0.000    0.000    0.000    0.000 
#
# Total GULP energy -173530.649580 kJ/mol
# GULP energy per Si atom -12395.046399 kJ/mol
# Density = 2.650016 g / cm^3
# Si number density = 26.560610 Si / 1000 Ang^3
#
#
#
# Elastic Constant Matrix: (Units=GPa)
#
#
# Indices 1 2 3 4 5 6 
#
# 1 79.9046 46.9036 22.7060 15.6510 -6.7237 -0.8930
# 2 46.9036 211.3829 65.6635 4.6513 -31.2461 6.7338
# 3 22.7060 65.6635 86.5304 21.5243 -31.6190 5.5845
# 4 15.6510 4.6513 21.5243 41.7693 1.8949 -6.6197
# 5 -6.7237 -31.2461 -31.6190 1.8949 38.0862 2.5660
# 6 -0.8930 6.7338 5.5845 -6.6197 2.5660 33.1139
#
#
#
# Elastic Compliance Matrix: (Units=1/GPa)
#
#
# Indices 1 2 3 4 5 6 
#
# 1 0.015541 -0.003234 -0.000243 -0.005339 0.000152 0.000039
# 2 -0.003234 0.007040 -0.004758 0.002789 0.001133 -0.000247
# 3 -0.000243 -0.004758 0.026698 -0.015309 0.019527 -0.008115
# 4 -0.005339 0.002789 -0.015309 0.035745 -0.013822 0.010087
# 5 0.000152 0.001133 0.019527 -0.013822 0.044768 -0.009752
# 6 0.000039 -0.000247 -0.008115 0.010087 -0.009752 0.034391
#
#
# Mechanical properties :
#
#
# Convention : Reuss Voigt Hill
#
# Bulk Modulus (GPa) = 30.47888 72.04047 51.25968
# Shear Modulus (GPa) = 26.09740 38.76353 32.43046
#
# Velocity S-wave (km/s) = 3.13798 3.82440 3.49807
# Velocity P-wave (km/s) = 4.96280 6.83252 5.97129
#
# Compressibility (1/GPa) = 0.03280960
#
# Stress axis : x y z
#
# Youngs Moduli (GPa) = 64.34423 142.03928 37.45645
#
# Poissons Ratio (x) = 0.45941 0.00909
# Poissons Ratio (y) = 0.20812 0.17821
# Poissons Ratio (z) = 0.01562 0.67578
#
# Static dielectric constant tensor:
#      x y z
#    x 4.822000 0.569020 0.030280 
#    y 0.569020 6.196150 -0.131540 
#    z 0.030280 -0.131540 4.472650 
# 
# 
# High freq. dielectric constant tensor:
#      x y z
#    x 2.065710 0.006520 -0.003160 
#    y 0.006520 2.094350 0.003000 
#    z -0.003160 0.003000 2.048070 
# 
# From -- ./inp_files/272418.got.cif
#   From: 2010.06.25/outbox.cif.g09.slc.cpg/sg2_137_cif.got.tgz:272418.got - 2010.06.27 13:26:56.
