data_PCOD8009096
_publ_section_title
;
Structure prediction by ZEFSAII (Michael W. Deem and Ramdas Pophale) SiO2 
 PCOD8009096
Probable space group: P -1
;
_chemical_formula_sum "Si O2"
_cell_formula_units_Z 16
_cell_length_a 5.261902
_cell_length_b 5.108568
_cell_length_c 27.015675
_cell_angle_alpha 92.927635
_cell_angle_beta 85.404812
_cell_angle_gamma 61.345699
_cell_volume 631.882019
_symmetry_space_group_name_H-M "P -1"
_symmetry_group_IT_number 2
_symmetry_cell_setting 'triclinic'
loop_
_space_group_symop_operation_xyz
x,y,z
-x,-y,-z
loop_
_atom_site_type_symbol
_atom_site_label
_atom_site_fract_x
_atom_site_fract_y
_atom_site_fract_z
Si Si1 0.359491 0.183103 0.246025
Si Si2 0.470754 0.088570 0.057990
Si Si3 0.915875 0.932155 0.662730
Si Si4 0.528320 0.530602 0.639831
Si Si5 0.157010 0.265899 0.432934
Si Si6 0.277018 0.510368 0.789704
Si Si7 0.570550 0.699132 0.462301
Si Si8 0.784389 0.441554 0.094341
O O1 0.515212 0.382078 0.238891
O O2 0.054936 0.318081 0.222789
O O3 0.286509 0.180650 0.306210
O O4 0.581234 0.845798 0.222529
O O5 0.637344 0.279787 0.064612
O O6 0.129850 0.288672 0.077935
O O7 0.626997 0.791225 0.085954
O O8 0.500000 0.000000 0.000000
O O9 0.762074 0.292663 0.673144
O O10 0.000004 0.867934 0.601287
O O11 0.240113 0.745887 0.678937
O O12 0.630472 0.734701 0.612212
O O13 0.486678 0.334122 0.594879
O O14 0.916449 0.587845 0.460908
O O15 0.348018 0.062873 0.475082
O O16 0.269746 0.588540 0.847852
O O17 0.500000 0.500000 0.500000
#
# Coordination Sequence:
#
# PCOD8009096 Si02
#       8
#     2   2   2   2   2   2   2   2
#     4  12  27  45  71 101 138 178 243 286 341 427
#     4  12  25  44  72 106 138 187 238 287 345 411
#     4  10  23  38  60  85 117 157 202 272 314 381
#     4  10  21  39  58  84 116 153 201 247 327 378
#     4  10  21  37  58  81 114 154 194 246 319 372
#     4  12  26  47  68 105 138 190 230 284 356 411
#     4  10  21  36  55  86 115 148 194 243 300 391
#     4  12  24  44  71  98 148 183 229 295 346 411
#
# _framework density 25.321179999999998
#
# number of rings (size 3 to 8) (size 9 to 14) (size 15 to 20)
#    0.000    1.000    0.000    6.750    3.500    1.000 
#    0.000    0.000    0.000    0.000    0.000    0.000 
#    0.000    0.000    0.000    0.000    0.000    0.000 
#
# Total GULP energy -198254.025437 kJ/mol
# GULP energy per Si atom -12390.876590 kJ/mol
# Density = 2.526355 g / cm^3
# Si number density = 25.321180 Si / 1000 Ang^3
#
#
#
# Elastic Constant Matrix: (Units=GPa)
#
#
# Indices 1 2 3 4 5 6 
#
# 1 97.3810 46.7560 8.6413 1.4976 -19.3824 -17.7276
# 2 46.7560 182.6275 26.6574 -4.3017 -17.1897 -34.7714
# 3 8.6413 26.6574 108.1575 0.6264 1.8036 -17.2594
# 4 1.4976 -4.3017 0.6264 36.4193 0.6476 -9.4612
# 5 -19.3824 -17.1897 1.8036 0.6476 44.0936 4.9881
# 6 -17.7276 -34.7714 -17.2594 -9.4612 4.9881 47.3338
#
#
#
# Elastic Compliance Matrix: (Units=1/GPa)
#
#
# Indices 1 2 3 4 5 6 
#
# 1 0.012748 -0.002365 -0.000111 -0.000234 0.004408 0.002485
# 2 -0.002365 0.007216 -0.000928 0.002074 0.001288 0.004356
# 3 -0.000111 -0.000928 0.010005 0.000566 -0.001186 0.003163
# 4 -0.000234 0.002074 0.000566 0.029700 -0.000618 0.007644
# 5 0.004408 0.001288 -0.001186 -0.000618 0.025247 -0.000619
# 6 0.002485 0.004356 0.003163 0.007644 -0.000619 0.028003
#
#
# Mechanical properties :
#
#
# Convention : Reuss Voigt Hill
#
# Bulk Modulus (GPa) = 43.17773 61.36394 52.27084
# Shear Modulus (GPa) = 39.23234 45.97676 42.60455
#
# Velocity S-wave (km/s) = 3.94050 4.26578 4.10636
# Velocity P-wave (km/s) = 6.14755 6.96773 6.57045
#
# Compressibility (1/GPa) = 0.02316009
#
# Stress axis : x y z
#
# Youngs Moduli (GPa) = 78.44552 138.58250 99.95430
#
# Poissons Ratio (x) = 0.32772 0.01112
# Poissons Ratio (y) = 0.18551 0.09276
# Poissons Ratio (z) = 0.00872 0.12861
#
# Static dielectric constant tensor:
#      x y z
#    x 4.722520 -0.394270 0.171480 
#    y -0.394270 5.157480 0.180950 
#    z 0.171480 0.180950 5.076190 
# 
# 
# High freq. dielectric constant tensor:
#      x y z
#    x 2.018220 -0.019840 0.009440 
#    y -0.019840 2.040810 0.004060 
#    z 0.009440 0.004060 2.031320 
# 
# From -- ./inp_files/128025.got.cif
#   From: 2010.06.25/outbox.cif.g09.slc.cpg/sg2_65_cif.got.tgz:128025.got - 2010.06.27 13:26:56.
