data_PCOD8009212
_publ_section_title
;
Structure prediction by ZEFSAII (Michael W. Deem and Ramdas Pophale) SiO2 
 PCOD8009212
Probable space group: P -1
;
_chemical_formula_sum "Si O2"
_cell_formula_units_Z 16
_cell_length_a 15.454244
_cell_length_b 16.782413
_cell_length_c 15.608318
_cell_angle_alpha 43.104220
_cell_angle_beta 161.194933
_cell_angle_gamma 129.472058
_cell_volume 862.987672
_symmetry_space_group_name_H-M "P -1"
_symmetry_group_IT_number 2
_symmetry_cell_setting 'triclinic'
loop_
_space_group_symop_operation_xyz
x,y,z
-x,-y,-z
loop_
_atom_site_type_symbol
_atom_site_label
_atom_site_fract_x
_atom_site_fract_y
_atom_site_fract_z
Si Si1 0.850130 0.173647 0.353629
Si Si2 0.462200 0.252068 0.631014
Si Si3 0.861312 0.329323 0.076832
Si Si4 0.816378 0.426637 0.432312
Si Si5 0.546691 0.576696 0.659603
Si Si6 0.008528 0.448989 0.763753
Si Si7 0.549375 0.983117 0.958959
Si Si8 0.265562 0.627645 0.779628
O O1 0.895986 0.260134 0.253099
O O2 0.652931 0.091288 0.208081
O O3 0.711868 0.253381 0.242743
O O4 0.141753 0.086830 0.720830
O O5 0.530913 0.302732 0.564345
O O6 0.157670 0.322032 0.319677
O O7 0.482096 0.111438 0.748321
O O8 0.681712 0.269493 0.893085
O O9 0.730197 0.469747 0.858960
O O10 0.769326 0.336691 0.382955
O O11 0.000000 0.500000 0.500000
O O12 0.979799 0.364141 0.720234
O O13 0.531957 0.515593 0.128868
O O14 0.267244 0.536350 0.450257
O O15 0.716950 0.604055 0.880821
O O16 0.015696 0.579396 0.627302
O O17 0.500000 0.000000 0.000000
#
# Coordination Sequence:
#
# PCOD8009212 Si02
#       8
#     2   2   2   2   2   2   2   2
#     4  12  23  36  64  85 115 155 198 242 290 344
#     4  12  25  40  55  78 116 158 206 243 286 335
#     4  12  21  37  59  80 116 149 196 249 300 339
#     4   9  19  35  60  87 132 147 172 228 308 374
#     4  12  24  36  57  86 115 155 197 239 288 354
#     4  11  20  36  56  85 122 150 180 221 297 358
#     4  12  24  41  57  80 113 164 206 245 287 319
#     4  10  21  36  58  94 124 149 184 234 297 367
#
# _framework density 18.540241999999999
#
# number of rings (size 3 to 8) (size 9 to 14) (size 15 to 20)
#    0.000    0.750    5.000    3.375    5.250    0.000 
#    0.000    0.000    0.000    0.000    0.000    5.250 
#    0.000    0.000    0.000    0.000    0.000    0.000 
#
# Total GULP energy -198337.969540 kJ/mol
# GULP energy per Si atom -12396.123096 kJ/mol
# Density = 1.849804 g / cm^3
# Si number density = 18.540242 Si / 1000 Ang^3
#
#
#
# Elastic Constant Matrix: (Units=GPa)
#
#
# Indices 1 2 3 4 5 6 
#
# 1 95.7593 52.4437 35.0055 -0.6507 4.2230 -17.0388
# 2 52.4437 101.7561 33.0681 5.7897 3.7382 -7.5493
# 3 35.0055 33.0681 67.8190 9.1881 9.5141 0.8132
# 4 -0.6507 5.7897 9.1881 38.0434 7.6680 -4.3344
# 5 4.2230 3.7382 9.5141 7.6680 28.5375 12.8037
# 6 -17.0388 -7.5493 0.8132 -4.3344 12.8037 30.2222
#
#
#
# Elastic Compliance Matrix: (Units=1/GPa)
#
#
# Indices 1 2 3 4 5 6 
#
# 1 0.019379 -0.006936 -0.006557 0.005976 -0.007368 0.013348
# 2 -0.006936 0.014494 -0.003391 -0.001856 0.001192 -0.000970
# 3 -0.006557 -0.003391 0.020771 -0.004768 -0.002016 -0.004932
# 4 0.005976 -0.001856 -0.004768 0.032119 -0.013717 0.013452
# 5 -0.007368 0.001192 -0.002016 -0.013717 0.052995 -0.028221
# 6 0.013348 -0.000970 -0.004932 0.013452 -0.028221 0.054389
#
#
# Mechanical properties :
#
#
# Convention : Reuss Voigt Hill
#
# Bulk Modulus (GPa) = 47.90223 56.26324 52.08273
# Shear Modulus (GPa) = 21.28798 29.01509 25.15154
#
# Velocity S-wave (km/s) = 3.39219 3.96027 3.68719
# Velocity P-wave (km/s) = 6.42150 7.16409 6.80293
#
# Compressibility (1/GPa) = 0.02087585
#
# Stress axis : x y z
#
# Youngs Moduli (GPa) = 51.60279 68.99393 48.14389
#
# Poissons Ratio (x) = 0.47853 0.31567
# Poissons Ratio (y) = 0.35791 0.16327
# Poissons Ratio (z) = 0.33835 0.23398
#
# Static dielectric constant tensor:
#      x y z
#    x 3.692570 -0.536280 -0.477980 
#    y -0.536280 3.008630 -0.080840 
#    z -0.477980 -0.080840 3.189190 
# 
# 
# High freq. dielectric constant tensor:
#      x y z
#    x 1.723540 -0.000430 -0.001050 
#    y -0.000430 1.702660 0.039230 
#    z -0.001050 0.039230 1.717630 
# 
# From -- ./inp_files/81114.got.cif
#   From: 2010.06.25/outbox.cif.g09.slc.cpg/sg2_41_cif.got.tgz:81114.got - 2010.06.27 13:26:56.
