data_PCOD8009777
_publ_section_title
;
Structure prediction by ZEFSAII (Michael W. Deem and Ramdas Pophale) SiO2 
 PCOD8009777
Probable space group: P -1
;
_chemical_formula_sum "Si O2"
_cell_formula_units_Z 14
_cell_length_a 11.879180
_cell_length_b 16.178815
_cell_length_c 21.763907
_cell_angle_alpha 17.579186
_cell_angle_beta 147.661369
_cell_angle_gamma 139.367725
_cell_volume 647.127630
_symmetry_space_group_name_H-M "P -1"
_symmetry_group_IT_number 2
_symmetry_cell_setting 'triclinic'
loop_
_space_group_symop_operation_xyz
x,y,z
-x,-y,-z
loop_
_atom_site_type_symbol
_atom_site_label
_atom_site_fract_x
_atom_site_fract_y
_atom_site_fract_z
Si Si1 0.584931 0.405813 0.739689
Si Si2 0.788569 0.227737 0.617010
Si Si3 0.828317 0.752384 0.530516
Si Si4 0.760041 0.877698 0.270551
Si Si5 0.468498 0.723020 0.920030
Si Si6 0.139757 0.407516 0.715859
Si Si7 0.283868 0.328989 0.053091
O O1 0.428662 0.687634 0.500953
O O2 0.723489 0.506683 0.679712
O O3 0.446802 0.222573 0.773566
O O4 0.740335 0.196083 0.010231
O O5 0.769727 0.491669 0.375972
O O6 0.004522 0.184970 0.790764
O O7 0.806429 0.945116 0.784700
O O8 0.752288 0.876151 0.341013
O O9 0.753120 0.023143 0.349361
O O10 0.089025 0.614309 0.746236
O O11 0.985420 0.670355 0.495730
O O12 0.549868 0.760838 0.862883
O O13 0.652897 0.743548 0.039473
O O14 0.407657 0.417609 0.106827
#
# Coordination Sequence:
#
# PCOD8009777 Si02
#       7
#     2   2   2   2   2   2   2
#     4  10  21  37  60  95 131 164 208 261 317 378
#     4  10  21  40  65  93 127 165 209 263 317 375
#     4  12  22  40  66  90 123 172 209 262 315 378
#     4  10  21  37  60  95 131 164 208 261 317 378
#     4  11  24  42  63  90 127 167 210 261 313 374
#     4  10  21  40  65  93 127 165 209 263 317 375
#     4  11  24  42  63  90 127 167 210 261 313 374
#
# _framework density 21.634060999999999
#
# number of rings (size 3 to 8) (size 9 to 14) (size 15 to 20)
#    0.000    1.429    2.857    2.571    0.000    5.714 
#    0.000    0.000    0.000    4.286    0.000    0.000 
#    0.000    0.000    0.000    0.000    0.000    0.000 
#
# Total GULP energy -173543.998388 kJ/mol
# GULP energy per Si atom -12395.999885 kJ/mol
# Density = 2.158482 g / cm^3
# Si number density = 21.634061 Si / 1000 Ang^3
#
#
#
# Elastic Constant Matrix: (Units=GPa)
#
#
# Indices 1 2 3 4 5 6 
#
# 1 80.6223 8.8145 9.5046 5.4033 5.0589 -10.2331
# 2 8.8145 87.1403 26.6281 -16.9806 4.0423 3.5677
# 3 9.5046 26.6281 66.0421 -6.6467 5.8003 -0.9296
# 4 5.4033 -16.9806 -6.6467 23.8376 -4.6757 -0.9616
# 5 5.0589 4.0423 5.8003 -4.6757 37.6412 -1.0981
# 6 -10.2331 3.5677 -0.9296 -0.9616 -1.0981 18.0516
#
#
#
# Elastic Compliance Matrix: (Units=1/GPa)
#
#
# Indices 1 2 3 4 5 6 
#
# 1 0.014323 -0.002306 -0.001387 -0.005319 -0.001888 0.008105
# 2 -0.002306 0.015304 -0.004938 0.009994 0.000551 -0.004020
# 3 -0.001387 -0.004938 0.017647 0.001408 -0.001797 0.001064
# 4 -0.005319 0.009994 0.001408 0.051732 0.005798 -0.001810
# 5 -0.001888 0.000551 -0.001797 0.005798 0.027779 0.000727
# 6 0.008105 -0.004020 0.001064 -0.001810 0.000727 0.060789
#
#
# Mechanical properties :
#
#
# Convention : Reuss Voigt Hill
#
# Bulk Modulus (GPa) = 33.31952 35.96658 34.64305
# Shear Modulus (GPa) = 23.27310 28.49659 25.88484
#
# Velocity S-wave (km/s) = 3.28344 3.63328 3.46278
# Velocity P-wave (km/s) = 5.45981 5.85337 5.66001
#
# Compressibility (1/GPa) = 0.03001243
#
# Stress axis : x y z
#
# Youngs Moduli (GPa) = 69.81831 65.34072 56.66694
#
# Poissons Ratio (x) = 0.15066 0.07860
# Poissons Ratio (y) = 0.16098 0.27983
# Poissons Ratio (z) = 0.09684 0.32266
#
# Static dielectric constant tensor:
#      x y z
#    x 3.898950 -0.007160 0.163820 
#    y -0.007160 4.164720 -0.095720 
#    z 0.163820 -0.095720 3.824850 
# 
# 
# High freq. dielectric constant tensor:
#      x y z
#    x 1.853860 0.000380 0.020300 
#    y 0.000380 1.843030 -0.007190 
#    z 0.020300 -0.007190 1.843020 
# 
# From -- ./inp_files/187566.got.cif
#   From: 2010.06.25/outbox.cif.g09.slc.cpg/sg2_94_cif.got.tgz:187566.got - 2010.06.27 13:26:56.
