data_PCOD8009386
_publ_section_title
;
Structure prediction by ZEFSAII (Michael W. Deem and Ramdas Pophale) SiO2 
 PCOD8009386
Probable space group: P -1
;
_chemical_formula_sum "Si O2"
_cell_formula_units_Z 14
_cell_length_a 5.131673
_cell_length_b 5.568497
_cell_length_c 22.563824
_cell_angle_alpha 108.849623
_cell_angle_beta 64.397728
_cell_angle_gamma 101.521138
_cell_volume 548.918735
_symmetry_space_group_name_H-M "P -1"
_symmetry_group_IT_number 2
_symmetry_cell_setting 'triclinic'
loop_
_space_group_symop_operation_xyz
x,y,z
-x,-y,-z
loop_
_atom_site_type_symbol
_atom_site_label
_atom_site_fract_x
_atom_site_fract_y
_atom_site_fract_z
Si Si1 0.948507 0.997296 0.415797
Si Si2 0.291773 0.592631 0.078098
Si Si3 0.219415 0.616172 0.278230
Si Si4 0.831807 0.966105 0.952705
Si Si5 0.208858 0.601501 0.793920
Si Si6 0.655283 0.822011 0.167814
Si Si7 0.418339 0.226478 0.459833
O O1 0.062691 0.738082 0.358689
O O2 0.759989 0.946738 0.489037
O O3 0.722280 0.112473 0.401624
O O4 0.212876 0.210678 0.420537
O O5 0.137335 0.323739 0.098795
O O6 0.509556 0.722861 0.113823
O O7 0.077354 0.799105 0.084265
O O8 0.500000 0.500000 0.000000
O O9 0.991532 0.453112 0.247246
O O10 0.458230 0.427005 0.261461
O O11 0.388369 0.843515 0.241839
O O12 0.500000 0.000000 0.000000
O O13 0.000000 0.000000 0.000000
O O14 0.135878 0.384765 0.836702
O O15 0.192364 0.897435 0.839029
O O16 0.500000 0.500000 0.500000
#
# Coordination Sequence:
#
# PCOD8009386 Si02
#       7
#     2   2   2   2   2   2   2
#     4  10  21  39  60  91 128 164 215 256 316 379
#     4  10  21  43  64  94 126 165 210 264 327 393
#     4  10  24  42  65  94 129 175 222 268 323 387
#     4  10  21  40  60  90 120 159 201 250 311 382
#     4  10  24  42  66  91 131 167 220 272 323 383
#     4  10  24  44  65  97 128 172 215 275 328 390
#     4  10  21  36  62  94 130 166 206 260 315 376
#
# _framework density 25.504686
#
# number of rings (size 3 to 8) (size 9 to 14) (size 15 to 20)
#    0.857    1.143    0.000    2.571    2.000    2.286 
#   15.429    0.000    0.000    0.000    0.000    0.000 
#    0.000    0.000    0.000    0.000    0.000    0.000 
#
# Total GULP energy -173562.178312 kJ/mol
# GULP energy per Si atom -12397.298451 kJ/mol
# Density = 2.544664 g / cm^3
# Si number density = 25.504686 Si / 1000 Ang^3
#
#
#
# Elastic Constant Matrix: (Units=GPa)
#
#
# Indices 1 2 3 4 5 6 
#
# 1 216.9336 77.3561 59.8648 29.9431 1.4296 3.7206
# 2 77.3561 124.7078 46.0909 45.4672 -8.3037 6.1039
# 3 59.8648 46.0909 101.4501 36.0056 -6.7993 0.3927
# 4 29.9431 45.4672 36.0056 40.7047 -0.7026 2.8024
# 5 1.4296 -8.3037 -6.7993 -0.7026 47.0617 22.4764
# 6 3.7206 6.1039 0.3927 2.8024 22.4764 39.9094
#
#
#
# Elastic Compliance Matrix: (Units=1/GPa)
#
#
# Indices 1 2 3 4 5 6 
#
# 1 0.006503 -0.003830 -0.002918 0.001992 -0.001645 0.000795
# 2 -0.003830 0.016359 0.000757 -0.015795 0.004616 -0.003643
# 3 -0.002918 0.000757 0.015917 -0.012694 0.002608 -0.000578
# 4 0.001992 -0.015795 -0.012694 0.051809 -0.004508 0.001256
# 5 -0.001645 0.004616 0.002608 -0.004508 0.030844 -0.017633
# 6 0.000795 -0.003643 -0.000578 0.001256 -0.017633 0.035388
#
#
# Mechanical properties :
#
#
# Convention : Reuss Voigt Hill
#
# Bulk Modulus (GPa) = 37.31652 89.96835 63.64244
# Shear Modulus (GPa) = 28.13195 42.85380 35.49287
#
# Velocity S-wave (km/s) = 3.32476 4.10351 3.73449
# Velocity P-wave (km/s) = 5.42234 7.60286 6.60323
#
# Compressibility (1/GPa) = 0.02679778
#
# Stress axis : x y z
#
# Youngs Moduli (GPa) = 153.77889 61.12789 62.82553
#
# Poissons Ratio (x) = 0.23413 0.18330
# Poissons Ratio (y) = 0.58901 -0.04757
# Poissons Ratio (z) = 0.44866 -0.04628
#
# Static dielectric constant tensor:
#      x y z
#    x 5.478450 0.257830 -0.392120 
#    y 0.257830 5.484260 0.039700 
#    z -0.392120 0.039700 4.443930 
# 
# 
# High freq. dielectric constant tensor:
#      x y z
#    x 2.059470 0.007650 -0.039190 
#    y 0.007650 2.031760 0.003930 
#    z -0.039190 0.003930 2.027240 
# 
# From -- ./inp_files/603005.got.cif
#   From: 2010.06.25/outbox.cif.g09.slc.cpg/sg2_302_cif.got.tgz:603005.got - 2010.06.27 13:26:56.
