data_PCOD8009422
_publ_section_title
;
Structure prediction by ZEFSAII (Michael W. Deem and Ramdas Pophale) SiO2 
 PCOD8009422
Probable space group: P -1
;
_chemical_formula_sum "Si O2"
_cell_formula_units_Z 16
_cell_length_a 16.263069
_cell_length_b 10.362136
_cell_length_c 12.202615
_cell_angle_alpha 72.439290
_cell_angle_beta 49.704230
_cell_angle_gamma 34.349912
_cell_volume 745.074634
_symmetry_space_group_name_H-M "P -1"
_symmetry_group_IT_number 2
_symmetry_cell_setting 'triclinic'
loop_
_space_group_symop_operation_xyz
x,y,z
-x,-y,-z
loop_
_atom_site_type_symbol
_atom_site_label
_atom_site_fract_x
_atom_site_fract_y
_atom_site_fract_z
Si Si1 0.094816 0.749987 0.990689
Si Si2 0.292021 0.900190 0.046681
Si Si3 0.603611 0.051287 0.543560
Si Si4 0.449768 0.478057 0.879985
Si Si5 0.331268 0.135705 0.866808
Si Si6 0.906537 0.684781 0.191019
Si Si7 0.183284 0.629112 0.700645
Si Si8 0.349661 0.711857 0.476805
O O1 0.269127 0.560517 0.988093
O O2 0.217652 0.585755 0.813637
O O3 0.899771 0.856717 0.148548
O O4 0.000000 0.000000 0.000000
O O5 0.334874 0.729138 0.973245
O O6 0.417449 0.895508 0.893817
O O7 0.367111 0.786661 0.133735
O O8 0.033101 0.215556 0.188811
O O9 0.527730 0.027383 0.709003
O O10 0.408899 0.306593 0.559580
O O11 0.712251 0.063989 0.507097
O O12 0.788408 0.774505 0.383365
O O13 0.551241 0.418954 0.694637
O O14 0.215186 0.253384 0.819407
O O15 0.162297 0.370790 0.045332
O O16 0.155747 0.811689 0.627940
O O17 0.500000 0.500000 0.500000
#
# Coordination Sequence:
#
# PCOD8009422 Si02
#       8
#     2   2   2   2   2   2   2   2
#     4  12  19  36  66  92 122 162 216 265 309 367
#     4  11  25  40  63  90 131 173 203 257 331 383
#     4  11  22  37  63 101 124 162 218 264 309 370
#     4  11  23  42  62  97 123 165 215 260 325 383
#     4  11  21  41  58  91 135 170 205 255 320 382
#     4  11  22  36  64  95 126 166 215 265 308 368
#     4  11  20  35  63  96 124 161 206 264 318 362
#     4  10  21  36  63  96 121 156 211 269 310 360
#
# _framework density 21.474357000000001
#
# number of rings (size 3 to 8) (size 9 to 14) (size 15 to 20)
#    0.000    1.000    6.250    1.875    5.250    0.500 
#    0.000    2.500    0.000    1.500    0.000    0.000 
#    0.000    0.000    0.000    0.000    0.000    0.000 
#
# Total GULP energy -198295.680846 kJ/mol
# GULP energy per Si atom -12393.480053 kJ/mol
# Density = 2.142548 g / cm^3
# Si number density = 21.474357 Si / 1000 Ang^3
#
#
#
# Elastic Constant Matrix: (Units=GPa)
#
#
# Indices 1 2 3 4 5 6 
#
# 1 78.2536 17.0117 33.3608 -9.2854 -6.1100 1.0425
# 2 17.0117 47.7196 24.4420 -10.3747 -2.1038 -5.9455
# 3 33.3608 24.4420 131.0182 -9.1558 3.8388 4.1005
# 4 -9.2854 -10.3747 -9.1558 30.2093 10.0303 -2.3791
# 5 -6.1100 -2.1038 3.8388 10.0303 35.1676 -15.4347
# 6 1.0425 -5.9455 4.1005 -2.3791 -15.4347 32.1899
#
#
#
# Elastic Compliance Matrix: (Units=1/GPa)
#
#
# Indices 1 2 3 4 5 6 
#
# 1 0.015272 -0.003171 -0.003271 0.001799 0.002628 0.000729
# 2 -0.003171 0.026618 -0.004012 0.006590 0.002838 0.007378
# 3 -0.003271 -0.004012 0.009544 0.001507 -0.003855 -0.003588
# 4 0.001799 0.006590 0.001507 0.040102 -0.011614 -0.001638
# 5 0.002628 0.002838 -0.003855 -0.011614 0.041576 0.020007
# 6 0.000729 0.007378 -0.003588 -0.001638 0.020007 0.042334
#
#
# Mechanical properties :
#
#
# Convention : Reuss Voigt Hill
#
# Bulk Modulus (GPa) = 32.75887 45.18005 38.96946
# Shear Modulus (GPa) = 24.20963 31.65847 27.93405
#
# Velocity S-wave (km/s) = 3.36128 3.84376 3.61059
# Velocity P-wave (km/s) = 5.50929 6.38624 5.96390
#
# Compressibility (1/GPa) = 0.03052608
#
# Stress axis : x y z
#
# Youngs Moduli (GPa) = 65.48035 37.56849 104.77353
#
# Poissons Ratio (x) = 0.11913 0.34273
# Poissons Ratio (y) = 0.20764 0.42034
# Poissons Ratio (z) = 0.21420 0.15072
#
# Static dielectric constant tensor:
#      x y z
#    x 4.584800 0.292920 -0.149100 
#    y 0.292920 3.601050 -0.100770 
#    z -0.149100 -0.100770 4.477950 
# 
# 
# High freq. dielectric constant tensor:
#      x y z
#    x 1.845870 0.034140 -0.008360 
#    y 0.034140 1.796850 -0.007030 
#    z -0.008360 -0.007030 1.848620 
# 
# From -- ./inp_files/464527.got.cif
#   From: 2010.06.25/outbox.cif.g09.slc.cpg/sg2_233_cif.got.tgz:464527.got - 2010.06.27 13:26:56.
