data_PCOD8009284
_publ_section_title
;
Structure prediction by ZEFSAII (Michael W. Deem and Ramdas Pophale) SiO2 
 PCOD8009284
Probable space group: P -1
;
_chemical_formula_sum "Si O2"
_cell_formula_units_Z 16
_cell_length_a 5.307999
_cell_length_b 21.013592
_cell_length_c 8.705441
_cell_angle_alpha 129.388946
_cell_angle_beta 66.365773
_cell_angle_gamma 101.236783
_cell_volume 685.067872
_symmetry_space_group_name_H-M "P -1"
_symmetry_group_IT_number 2
_symmetry_cell_setting 'triclinic'
loop_
_space_group_symop_operation_xyz
x,y,z
-x,-y,-z
loop_
_atom_site_type_symbol
_atom_site_label
_atom_site_fract_x
_atom_site_fract_y
_atom_site_fract_z
Si Si1 0.167552 0.335219 0.806035
Si Si2 0.691549 0.239716 0.822353
Si Si3 0.363046 0.469193 0.135903
Si Si4 0.047147 0.094132 0.656394
Si Si5 0.205950 0.442850 0.668277
Si Si6 0.507137 0.826705 0.522126
Si Si7 0.146794 0.823962 0.873438
Si Si8 0.653300 0.727538 0.776727
O O1 0.113471 0.406005 0.798625
O O2 0.294091 0.248627 0.565986
O O3 0.881978 0.314404 0.920946
O O4 0.347340 0.370301 0.957475
O O5 0.806232 0.151265 0.726109
O O6 0.673006 0.225687 0.624885
O O7 0.400663 0.264667 0.014790
O O8 0.549924 0.494806 0.272964
O O9 0.049246 0.510150 0.286430
O O10 0.500000 0.500000 0.000000
O O11 0.335378 0.110058 0.524680
O O12 0.033887 0.113001 0.872958
O O13 0.000000 0.000000 0.500000
O O14 0.317788 0.368129 0.419078
O O15 0.315309 0.871034 0.771008
O O16 0.379031 0.767928 0.822123
O O17 0.938100 0.770162 0.746984
#
# Coordination Sequence:
#
# PCOD8009284 Si02
#       8
#     2   2   2   2   2   2   2   2
#     4  10  21  36  60  89 124 166 220 274 313 391
#     4  10  23  40  66  92 127 173 216 271 328 384
#     4  10  22  35  55  92 126 166 216 273 333 373
#     4  10  24  46  65  99 138 168 210 270 329 394
#     4  11  21  37  60  90 123 170 219 271 326 380
#     4  11  22  40  68  97 124 176 222 264 324 387
#     4  11  23  42  69  97 132 174 218 265 323 388
#     4  11  22  42  63  95 130 172 221 273 322 385
#
# _framework density 23.355349
#
# number of rings (size 3 to 8) (size 9 to 14) (size 15 to 20)
#    0.000    1.500    2.500    3.000    8.750    1.000 
#    0.000    1.875    0.000    0.000    0.000    0.000 
#    0.000    0.000    0.000    0.000    0.000    0.000 
#
# Total GULP energy -198228.461314 kJ/mol
# GULP energy per Si atom -12389.278832 kJ/mol
# Density = 2.330219 g / cm^3
# Si number density = 23.355349 Si / 1000 Ang^3
#
#
#
# Elastic Constant Matrix: (Units=GPa)
#
#
# Indices 1 2 3 4 5 6 
#
# 1 113.8473 20.1262 22.1372 5.4975 0.0463 24.8908
# 2 20.1262 97.3831 49.1022 2.1362 -2.6378 29.6839
# 3 22.1372 49.1022 127.8064 -9.5009 0.9276 22.6714
# 4 5.4975 2.1362 -9.5009 42.0993 10.9375 2.8218
# 5 0.0463 -2.6378 0.9276 10.9375 24.0602 -2.1638
# 6 24.8908 29.6839 22.6714 2.8218 -2.1638 29.9814
#
#
#
# Elastic Compliance Matrix: (Units=1/GPa)
#
#
# Indices 1 2 3 4 5 6 
#
# 1 0.010838 0.000961 -0.000642 -0.000893 -0.000331 -0.009403
# 2 0.000961 0.016394 -0.004147 -0.001321 0.001326 -0.013673
# 3 -0.000642 -0.004147 0.010507 0.003671 -0.002874 -0.003859
# 4 -0.000893 -0.001321 0.003671 0.028618 -0.013690 -0.004408
# 5 -0.000331 0.001326 -0.002874 -0.013690 0.048576 0.005929
# 6 -0.009403 -0.013673 -0.003859 -0.004408 0.005929 0.058458
#
#
# Mechanical properties :
#
#
# Convention : Reuss Voigt Hill
#
# Bulk Modulus (GPa) = 33.24320 57.97421 45.60871
# Shear Modulus (GPa) = 26.16765 35.73959 30.95362
#
# Velocity S-wave (km/s) = 3.35089 3.91609 3.64446
# Velocity P-wave (km/s) = 5.40702 6.73233 6.10574
#
# Compressibility (1/GPa) = 0.03008134
#
# Stress axis : x y z
#
# Youngs Moduli (GPa) = 92.26959 60.99849 95.17251
#
# Poissons Ratio (x) = -0.05861 0.06113
# Poissons Ratio (y) = -0.08866 0.39471
# Poissons Ratio (z) = 0.05927 0.25298
#
# Static dielectric constant tensor:
#      x y z
#    x 4.709500 0.507490 0.274690 
#    y 0.507490 4.401770 0.149420 
#    z 0.274690 0.149420 4.559770 
# 
# 
# High freq. dielectric constant tensor:
#      x y z
#    x 1.929000 0.014940 0.002070 
#    y 0.014940 1.902620 -0.010410 
#    z 0.002070 -0.010410 1.922290 
# 
# From -- ./inp_files/46851.got.cif
#   From: 2010.06.25/outbox.cif.g09.slc.cpg/sg2_24_cif.got.tgz:46851.got - 2010.06.27 13:26:56.
