data_PCOD8009001
_publ_section_title
;
Structure prediction by ZEFSAII (Michael W. Deem and Ramdas Pophale) SiO2 
 PCOD8009001
Probable space group: P -1
;
_chemical_formula_sum "Si O2"
_cell_formula_units_Z 14
_cell_length_a 13.039729
_cell_length_b 16.011053
_cell_length_c 9.597233
_cell_angle_alpha 122.556453
_cell_angle_beta 131.592118
_cell_angle_gamma 28.332677
_cell_volume 705.155441
_symmetry_space_group_name_H-M "P -1"
_symmetry_group_IT_number 2
_symmetry_cell_setting 'triclinic'
loop_
_space_group_symop_operation_xyz
x,y,z
-x,-y,-z
loop_
_atom_site_type_symbol
_atom_site_label
_atom_site_fract_x
_atom_site_fract_y
_atom_site_fract_z
Si Si1 0.638815 0.020212 0.942874
Si Si2 0.003315 0.113704 0.074091
Si Si3 0.678287 0.398053 0.811917
Si Si4 0.936484 0.629152 0.238528
Si Si5 0.892888 0.281638 0.407758
Si Si6 0.966220 0.648445 0.959964
Si Si7 0.020200 0.102854 0.634824
O O1 0.350201 0.199695 0.833602
O O2 0.751319 0.006107 0.896535
O O3 0.724525 0.853872 0.878851
O O4 0.734777 0.019382 0.166537
O O5 0.008448 0.174539 0.273293
O O6 0.761268 0.285898 0.921249
O O7 0.000000 0.000000 0.000000
O O8 0.388728 0.581389 0.711934
O O9 0.777799 0.284850 0.661080
O O10 0.792605 0.440026 0.960330
O O11 0.075434 0.618570 0.461783
O O12 0.046899 0.453718 0.206082
O O13 0.986553 0.635090 0.132910
O O14 0.045364 0.140902 0.543648
O O15 0.000000 0.000000 0.500000
#
# Coordination Sequence:
#
# PCOD8009001 Si02
#       7
#     2   2   2   2   2   2   2
#     4  10  22  43  59  87 132 162 199 252 315 362
#     4  10  23  43  62  87 119 166 205 250 318 358
#     4  10  22  41  61  89 124 159 197 265 304 359
#     4  11  22  37  65  93 122 168 196 253 310 368
#     4  12  22  38  62  95 120 153 219 248 297 373
#     4   9  21  39  60  91 123 161 198 244 321 357
#     4  10  21  35  62  94 118 158 208 257 300 354
#
# _framework density 19.853778999999999
#
# number of rings (size 3 to 8) (size 9 to 14) (size 15 to 20)
#    0.000    2.000    2.857    3.000    4.000    1.714 
#    2.571    2.857    0.000    0.000    0.000    0.000 
#    0.000    0.000    0.000    0.000    0.000    0.000 
#
# Total GULP energy -173624.459005 kJ/mol
# GULP energy per Si atom -12401.747072 kJ/mol
# Density = 1.980859 g / cm^3
# Si number density = 19.853779 Si / 1000 Ang^3
#
#
#
# Elastic Constant Matrix: (Units=GPa)
#
#
# Indices 1 2 3 4 5 6 
#
# 1 104.2437 37.3154 42.5617 13.0639 -5.6152 20.7557
# 2 37.3154 60.7200 27.5229 19.6370 5.3909 13.9703
# 3 42.5617 27.5229 87.7338 30.2002 -9.0029 2.8096
# 4 13.0639 19.6370 30.2002 31.3465 4.2222 16.0382
# 5 -5.6152 5.3909 -9.0029 4.2222 32.9305 3.8215
# 6 20.7557 13.9703 2.8096 16.0382 3.8215 36.3677
#
#
#
# Elastic Compliance Matrix: (Units=1/GPa)
#
#
# Indices 1 2 3 4 5 6 
#
# 1 0.017245 -0.007672 -0.010049 0.013352 0.001145 -0.012127
# 2 -0.007672 0.025627 -0.000743 -0.011663 -0.004232 0.000180
# 3 -0.010049 -0.000743 0.027803 -0.031990 0.008123 0.017127
# 4 0.013352 -0.011663 -0.031990 0.084854 -0.011155 -0.036917
# 5 0.001145 -0.004232 0.008123 -0.011155 0.034718 0.001616
# 6 -0.012127 0.000180 0.017127 -0.036917 0.001616 0.049137
#
#
# Mechanical properties :
#
#
# Convention : Reuss Voigt Hill
#
# Bulk Modulus (GPa) = 29.63278 51.94418 40.78848
# Shear Modulus (GPa) = 17.38750 29.81544 23.60147
#
# Velocity S-wave (km/s) = 2.96257 3.87945 3.45159
# Velocity P-wave (km/s) = 5.16336 6.80345 6.03934
#
# Compressibility (1/GPa) = 0.03374641
#
# Stress axis : x y z
#
# Youngs Moduli (GPa) = 57.98629 39.02137 35.96723
#
# Poissons Ratio (x) = 0.29939 0.36145
# Poissons Ratio (y) = 0.44490 0.02671
# Poissons Ratio (z) = 0.58273 0.02898
#
# Static dielectric constant tensor:
#      x y z
#    x 3.787740 0.157470 0.048010 
#    y 0.157470 3.571630 0.201260 
#    z 0.048010 0.201260 3.628870 
# 
# 
# High freq. dielectric constant tensor:
#      x y z
#    x 1.784910 0.007180 0.003470 
#    y 0.007180 1.770600 0.012480 
#    z 0.003470 0.012480 1.763280 
# 
# From -- ./inp_files/154009.got.cif
#   From: 2010.06.25/outbox.cif.g09.slc.cpg/sg2_78_cif.got.tgz:154009.got - 2010.06.27 13:26:56.
