data_PCOD8009883
_publ_section_title
;
Structure prediction by ZEFSAII (Michael W. Deem and Ramdas Pophale) SiO2 
 PCOD8009883
Probable space group: P -1
;
_chemical_formula_sum "Si O2"
_cell_formula_units_Z 12
_cell_length_a 9.200362
_cell_length_b 14.290401
_cell_length_c 17.524277
_cell_angle_alpha 157.834938
_cell_angle_beta 44.183592
_cell_angle_gamma 123.752725
_cell_volume 551.849661
_symmetry_space_group_name_H-M "P -1"
_symmetry_group_IT_number 2
_symmetry_cell_setting 'triclinic'
loop_
_space_group_symop_operation_xyz
x,y,z
-x,-y,-z
loop_
_atom_site_type_symbol
_atom_site_label
_atom_site_fract_x
_atom_site_fract_y
_atom_site_fract_z
Si Si1 0.479735 0.872045 0.992588
Si Si2 0.203122 0.265720 0.787102
Si Si3 0.886749 0.438058 0.601727
Si Si4 0.069442 0.823730 0.049996
Si Si5 0.723499 0.557112 0.452106
Si Si6 0.603402 0.333095 0.758611
O O1 0.721136 0.656545 0.769854
O O2 0.301843 0.732501 0.944322
O O3 0.500000 0.000000 0.000000
O O4 0.372334 0.117056 0.279917
O O5 0.410084 0.356521 0.787007
O O6 0.129207 0.221467 0.865800
O O7 0.270746 0.983561 0.502102
O O8 0.000000 0.500000 0.000000
O O9 0.771239 0.434805 0.725510
O O10 0.106769 0.509350 0.588233
O O11 0.977556 0.142799 0.303769
O O12 0.118091 0.627302 0.812165
O O13 0.500000 0.500000 0.500000
O O14 0.500000 0.500000 0.000000
#
# Coordination Sequence:
#
# PCOD8009883 Si02
#       6
#     2   2   2   2   2   2
#     4  11  23  42  59  87 121 158 204 248 296 354
#     4  10  21  37  62  90 121 158 194 244 300 353
#     4  10  24  40  63  87 123 162 195 251 303 346
#     4  10  22  41  60  88 124 155 203 248 293 362
#     4  11  23  41  59  89 117 157 207 246 293 361
#     4  10  21  39  61  92 122 153 200 242 297 365
#
# _framework density 21.745052000000001
#
# number of rings (size 3 to 8) (size 9 to 14) (size 15 to 20)
#    0.000    1.667    1.667    2.000    0.000    6.667 
#    0.000    0.000    0.000    0.000    0.000    0.000 
#    0.000    0.000    0.000    0.000    0.000    0.000 
#
# Total GULP energy -148721.874035 kJ/mol
# GULP energy per Si atom -12393.489503 kJ/mol
# Density = 2.169556 g / cm^3
# Si number density = 21.745052 Si / 1000 Ang^3
#
#
#
# Elastic Constant Matrix: (Units=GPa)
#
#
# Indices 1 2 3 4 5 6 
#
# 1 117.0808 29.9092 73.0096 19.3943 -28.4034 5.7266
# 2 29.9092 54.3479 24.8744 -4.7181 3.3401 5.4875
# 3 73.0096 24.8744 184.3192 -5.4799 -1.1042 -25.7495
# 4 19.3943 -4.7181 -5.4799 29.1316 -8.2214 -0.7136
# 5 -28.4034 3.3401 -1.1042 -8.2214 53.1800 -3.9941
# 6 5.7266 5.4875 -25.7495 -0.7136 -3.9941 32.7744
#
#
#
# Elastic Compliance Matrix: (Units=1/GPa)
#
#
# Indices 1 2 3 4 5 6 
#
# 1 0.021288 -0.008652 -0.008840 -0.014966 0.008780 -0.008472
# 2 -0.008652 0.024556 -0.000112 0.008190 -0.005135 -0.003135
# 3 -0.008840 -0.000112 0.010492 0.007332 -0.002639 0.009644
# 4 -0.014966 0.008190 0.007332 0.047056 -0.000482 0.007970
# 5 0.008780 -0.005135 -0.002639 -0.000482 0.023696 0.000130
# 6 -0.008472 -0.003135 0.009644 0.007970 0.000130 0.040283
#
#
# Mechanical properties :
#
#
# Convention : Reuss Voigt Hill
#
# Bulk Modulus (GPa) = 47.33515 67.92604 57.63060
# Shear Modulus (GPa) = 23.85250 38.21418 31.03334
#
# Velocity S-wave (km/s) = 3.31557 4.19665 3.78186
# Velocity P-wave (km/s) = 6.03927 7.40188 6.75502
#
# Compressibility (1/GPa) = 0.02112595
#
# Stress axis : x y z
#
# Youngs Moduli (GPa) = 46.97580 40.72319 95.31367
#
# Poissons Ratio (x) = 0.35235 0.84261
# Poissons Ratio (y) = 0.40646 0.01066
# Poissons Ratio (z) = 0.41528 0.00456
#
# Static dielectric constant tensor:
#      x y z
#    x 3.962040 0.215100 0.068600 
#    y 0.215100 3.243440 -0.434100 
#    z 0.068600 -0.434100 4.354140 
# 
# 
# High freq. dielectric constant tensor:
#      x y z
#    x 1.850020 0.031200 -0.003530 
#    y 0.031200 1.840520 -0.016460 
#    z -0.003530 -0.016460 1.875570 
# 
# From -- ./inp_files/10647.got.cif
#   From: 2010.06.25/outbox.cif.g09.slc.cpg/sg2_6_cif.got.tgz:10647.got - 2010.06.27 13:26:56.
