data_PCOD8009719
_publ_section_title
;
Structure prediction by ZEFSAII (Michael W. Deem and Ramdas Pophale) SiO2 
 PCOD8009719
Probable space group: P -1
;
_chemical_formula_sum "Si O2"
_cell_formula_units_Z 12
_cell_length_a 24.974692
_cell_length_b 16.015797
_cell_length_c 5.151849
_cell_angle_alpha 69.150632
_cell_angle_beta 61.198013
_cell_angle_gamma 18.999088
_cell_volume 550.857751
_symmetry_space_group_name_H-M "P -1"
_symmetry_group_IT_number 2
_symmetry_cell_setting 'triclinic'
loop_
_space_group_symop_operation_xyz
x,y,z
-x,-y,-z
loop_
_atom_site_type_symbol
_atom_site_label
_atom_site_fract_x
_atom_site_fract_y
_atom_site_fract_z
Si Si1 0.016704 0.416436 0.803452
Si Si2 0.375569 0.807817 0.762016
Si Si3 0.241145 0.492477 0.275973
Si Si4 0.603071 0.530975 0.043205
Si Si5 0.873910 0.009773 0.835224
Si Si6 0.190218 0.473193 0.911487
O O1 0.000000 0.500000 0.500000
O O2 0.215199 0.093751 0.711204
O O3 0.000000 0.500000 0.000000
O O4 0.848120 0.577821 0.999476
O O5 0.520883 0.596668 0.418573
O O6 0.466122 0.723273 0.903229
O O7 0.299931 0.815196 0.016693
O O8 0.316544 0.339630 0.530866
O O9 0.016806 0.821131 0.465918
O O10 0.350596 0.431753 0.030205
O O11 0.286280 0.359584 0.088267
O O12 0.794444 0.216163 0.868037
O O13 0.992324 0.801251 0.023288
#
# Coordination Sequence:
#
# PCOD8009719 Si02
#       6
#     2   2   2   2   2   2
#     4  11  22  41  69  87 109 150 208 255 297 358
#     4  11  25  38  59  93 122 149 201 258 303 333
#     4  10  21  37  60  85 130 164 201 224 283 362
#     4  12  23  37  59  91 132 160 189 241 297 351
#     4   9  23  36  62  85 126 168 205 225 281 357
#     4   9  21  36  61  89 114 151 214 235 282 340
#
# _framework density 21.784210000000002
#
# number of rings (size 3 to 8) (size 9 to 14) (size 15 to 20)
#    1.000    0.667    0.000    4.500    7.000    0.667 
#    0.000    0.000    0.000   20.000    0.000    0.000 
#    0.000    0.000    0.000    0.000    0.000    0.000 
#
# Total GULP energy -148730.475830 kJ/mol
# GULP energy per Si atom -12394.206319 kJ/mol
# Density = 2.173463 g / cm^3
# Si number density = 21.784210 Si / 1000 Ang^3
#
#
#
# Elastic Constant Matrix: (Units=GPa)
#
#
# Indices 1 2 3 4 5 6 
#
# 1 137.8868 5.6411 43.3714 -19.8683 13.5219 -3.4970
# 2 5.6411 23.5630 -6.7739 -11.8986 0.8689 0.7631
# 3 43.3714 -6.7739 87.4334 -16.6183 8.1296 -18.7564
# 4 -19.8683 -11.8986 -16.6183 22.4471 -0.7124 0.7351
# 5 13.5219 0.8689 8.1296 -0.7124 44.6803 -6.4691
# 6 -3.4970 0.7631 -18.7564 0.7351 -6.4691 27.0868
#
#
#
# Elastic Compliance Matrix: (Units=1/GPa)
#
#
# Indices 1 2 3 4 5 6 
#
# 1 0.009452 -0.000790 -0.004085 0.004923 -0.002354 -0.002282
# 2 -0.000790 0.073247 0.017712 0.050896 -0.002418 0.008140
# 3 -0.004085 0.017712 0.021856 0.021491 -0.000812 0.013331
# 4 0.004923 0.050896 0.021491 0.091335 -0.003370 0.010800
# 5 -0.002354 -0.002418 -0.000812 -0.003370 0.023961 0.005016
# 6 -0.002282 0.008140 0.013331 0.010800 0.005016 0.046530
#
#
# Mechanical properties :
#
#
# Convention : Reuss Voigt Hill
#
# Bulk Modulus (GPa) = 7.67892 37.04007 22.35949
# Shear Modulus (GPa) = 17.59843 32.61914 25.10879
#
# Velocity S-wave (km/s) = 2.84536 3.87379 3.39870
# Velocity P-wave (km/s) = 3.78515 6.08674 5.06832
#
# Compressibility (1/GPa) = 0.13022667
#
# Stress axis : x y z
#
# Youngs Moduli (GPa) = 105.79997 13.65251 45.75463
#
# Poissons Ratio (x) = 0.01079 0.18690
# Poissons Ratio (y) = 0.08363 -0.81039
# Poissons Ratio (z) = 0.43217 -0.24181
#
# Static dielectric constant tensor:
#      x y z
#    x 3.884870 0.025720 -0.044010 
#    y 0.025720 3.657220 -0.058470 
#    z -0.044010 -0.058470 3.790780 
# 
# 
# High freq. dielectric constant tensor:
#      x y z
#    x 1.863170 0.001860 -0.001240 
#    y 0.001860 1.833560 -0.011800 
#    z -0.001240 -0.011800 1.856850 
# 
# From -- ./inp_files/75102.got.cif
#   From: 2010.06.25/outbox.cif.g09.slc.cpg/sg2_38_cif.got.tgz:75102.got - 2010.06.27 13:26:56.
