data_PCOD8009914
_publ_section_title
;
Structure prediction by ZEFSAII (Michael W. Deem and Ramdas Pophale) SiO2 
 PCOD8009914
Probable space group: P -1
;
_chemical_formula_sum "Si O2"
_cell_formula_units_Z 16
_cell_length_a 9.093173
_cell_length_b 19.252590
_cell_length_c 12.758853
_cell_angle_alpha 36.592643
_cell_angle_beta 74.952037
_cell_angle_gamma 47.121672
_cell_volume 736.201115
_symmetry_space_group_name_H-M "P -1"
_symmetry_group_IT_number 2
_symmetry_cell_setting 'triclinic'
loop_
_space_group_symop_operation_xyz
x,y,z
-x,-y,-z
loop_
_atom_site_type_symbol
_atom_site_label
_atom_site_fract_x
_atom_site_fract_y
_atom_site_fract_z
Si Si1 0.943969 0.285906 0.552038
Si Si2 0.199201 0.037698 0.254167
Si Si3 0.439580 0.126756 0.076806
Si Si4 0.229539 0.436820 0.577717
Si Si5 0.783785 0.570243 0.081274
Si Si6 0.647496 0.449618 0.930094
Si Si7 0.644051 0.270536 0.541570
Si Si8 0.336229 0.326590 0.246765
O O1 0.890698 0.376062 0.566109
O O2 0.765626 0.468773 0.280151
O O3 0.846740 0.212398 0.651718
O O4 0.254149 0.100910 0.693461
O O5 0.266259 0.120443 0.088643
O O6 0.215613 0.929265 0.293392
O O7 0.395712 0.898246 0.485552
O O8 0.902003 0.212392 0.142460
O O9 0.413793 0.240406 0.854258
O O10 0.335200 0.242220 0.066370
O O11 0.391532 0.385116 0.513472
O O12 0.000000 0.500000 0.500000
O O13 0.095538 0.386571 0.217292
O O14 0.613240 0.658910 0.899006
O O15 0.445165 0.582396 0.709608
O O16 0.753114 0.513676 0.853916
O O17 0.500000 0.500000 0.000000
#
# Coordination Sequence:
#
# PCOD8009914 Si02
#       8
#     2   2   2   2   2   2   2   2
#     4  11  24  43  66  96 133 164 216 264 326 381
#     4  11  23  41  66  95 130 170 222 259 314 390
#     4  11  23  41  68  96 126 169 219 266 317 383
#     4  11  25  44  70  95 127 168 215 269 320 381
#     4  10  21  38  63  94 130 166 213 269 318 372
#     4  11  24  42  65  92 135 174 213 262 322 379
#     4  11  26  43  66  96 133 171 210 266 324 381
#     4  10  21  37  62  94 127 170 217 263 317 373
#
# _framework density 21.733191000000001
#
# number of rings (size 3 to 8) (size 9 to 14) (size 15 to 20)
#    0.000    1.250    2.500    2.625    3.500   11.000 
#    0.000    0.000    0.000    0.000    0.000    0.000 
#    0.000    0.000    0.000    0.000    0.000    0.000 
#
# Total GULP energy -198429.083992 kJ/mol
# GULP energy per Si atom -12401.817749 kJ/mol
# Density = 2.168373 g / cm^3
# Si number density = 21.733191 Si / 1000 Ang^3
#
#
#
# Elastic Constant Matrix: (Units=GPa)
#
#
# Indices 1 2 3 4 5 6 
#
# 1 118.0313 50.2609 15.6239 -14.6867 2.9662 13.0026
# 2 50.2609 144.4099 44.3105 -16.8969 0.2725 0.4534
# 3 15.6239 44.3105 66.8607 -13.4685 -7.7526 9.2169
# 4 -14.6867 -16.8969 -13.4685 41.7254 0.5642 -0.2943
# 5 2.9662 0.2725 -7.7526 0.5642 19.3738 1.1091
# 6 13.0026 0.4534 9.2169 -0.2943 1.1091 41.3498
#
#
#
# Elastic Compliance Matrix: (Units=1/GPa)
#
#
# Indices 1 2 3 4 5 6 
#
# 1 0.010636 -0.003630 0.000765 0.002512 -0.001148 -0.003427
# 2 -0.003630 0.010243 -0.006383 0.000859 -0.002312 0.002520
# 3 0.000765 -0.006383 0.021656 0.004519 0.008805 -0.005202
# 4 0.002512 0.000859 0.004519 0.026636 0.000730 -0.001637
# 5 -0.001148 -0.002312 0.008805 0.000730 0.055502 -0.003060
# 6 -0.003427 0.002520 -0.005202 -0.001637 -0.003060 0.026464
#
#
# Mechanical properties :
#
#
# Convention : Reuss Voigt Hill
#
# Bulk Modulus (GPa) = 41.59546 61.07694 51.33620
# Shear Modulus (GPa) = 28.14622 35.09690 31.62156
#
# Velocity S-wave (km/s) = 3.60263 4.02294 3.81857
# Velocity P-wave (km/s) = 6.04036 7.05286 6.56615
#
# Compressibility (1/GPa) = 0.02404109
#
# Stress axis : x y z
#
# Youngs Moduli (GPa) = 94.02461 97.62300 46.17647
#
# Poissons Ratio (x) = 0.35434 -0.03535
# Poissons Ratio (y) = 0.34128 0.29474
# Poissons Ratio (z) = -0.07197 0.62311
#
# Static dielectric constant tensor:
#      x y z
#    x 3.924700 0.196620 -0.124030 
#    y 0.196620 3.911110 0.058770 
#    z -0.124030 0.058770 3.897080 
# 
# 
# High freq. dielectric constant tensor:
#      x y z
#    x 1.860390 0.007830 -0.003600 
#    y 0.007830 1.857420 -0.000630 
#    z -0.003600 -0.000630 1.850180 
# 
# From -- ./inp_files/37922.got.cif
#   From: 2010.06.25/outbox.cif.g09.slc.cpg/sg2_19_cif.got.tgz:37922.got - 2010.06.27 13:26:56.
