data_PCOD8009355
_publ_section_title
;
Structure prediction by ZEFSAII (Michael W. Deem and Ramdas Pophale) SiO2 
 PCOD8009355
Probable space group: P -1
;
_chemical_formula_sum "Si O2"
_cell_formula_units_Z 14
_cell_length_a 17.216008
_cell_length_b 11.681929
_cell_length_c 8.091808
_cell_angle_alpha 99.080141
_cell_angle_beta 81.028439
_cell_angle_gamma 29.995192
_cell_volume 647.028157
_symmetry_space_group_name_H-M "P -1"
_symmetry_group_IT_number 2
_symmetry_cell_setting 'triclinic'
loop_
_space_group_symop_operation_xyz
x,y,z
-x,-y,-z
loop_
_atom_site_type_symbol
_atom_site_label
_atom_site_fract_x
_atom_site_fract_y
_atom_site_fract_z
Si Si1 0.290554 0.328779 0.614668
Si Si2 0.180444 0.720692 0.769657
Si Si3 0.795530 0.423365 0.601747
Si Si4 0.936524 0.750021 0.428254
Si Si5 0.483561 0.687207 0.918164
Si Si6 0.527588 0.376252 0.718061
Si Si7 0.070563 0.329812 0.215975
O O1 0.257826 0.493064 0.761882
O O2 0.290603 0.352648 0.422716
O O3 0.500000 0.000000 0.500000
O O4 0.118266 0.474358 0.759942
O O5 0.122996 0.780998 0.607204
O O6 0.350622 0.584487 0.703403
O O7 0.000000 0.000000 0.000000
O O8 0.636684 0.581850 0.807834
O O9 0.961742 0.260342 0.619187
O O10 0.919280 0.724351 0.611845
O O11 0.047520 0.499629 0.233124
O O12 0.721411 0.062310 0.501491
O O13 0.539116 0.499297 0.752459
O O14 0.502135 0.637215 0.093981
O O15 0.272613 0.014226 0.000339
#
# Coordination Sequence:
#
# PCOD8009355 Si02
#       7
#     2   2   2   2   2   2   2
#     4   9  18  35  60  82 111 151 188 226 278 341
#     4  10  21  37  59  84 114 151 189 228 288 336
#     4   9  22  37  59  84 118 144 187 242 282 321
#     4   9  18  35  57  83 109 150 190 226 277 334
#     4  10  21  37  59  84 115 146 192 237 278 331
#     4  10  21  36  62  82 110 154 192 225 282 344
#     4   9  17  33  59  80 111 151 185 226 283 336
#
# _framework density 21.637388999999999
#
# number of rings (size 3 to 8) (size 9 to 14) (size 15 to 20)
#    0.857    1.714    0.000    1.714    4.000    2.857 
#    0.000    0.714    0.000    0.000    0.000    0.000 
#    0.000    0.000    0.000    0.000    0.000    0.000 
#
# Total GULP energy -173460.447265 kJ/mol
# GULP energy per Si atom -12390.031948 kJ/mol
# Density = 2.158814 g / cm^3
# Si number density = 21.637389 Si / 1000 Ang^3
#
#
#
# Elastic Constant Matrix: (Units=GPa)
#
#
# Indices 1 2 3 4 5 6 
#
# 1 131.5441 23.8796 35.4656 15.6841 -20.2310 1.5826
# 2 23.8796 50.6284 32.7504 34.7572 -5.6669 5.3955
# 3 35.4656 32.7504 73.9781 30.9633 -14.3991 14.4323
# 4 15.6841 34.7572 30.9633 35.8807 -0.8698 4.6232
# 5 -20.2310 -5.6669 -14.3991 -0.8698 36.7754 12.7340
# 6 1.5826 5.3955 14.4323 4.6232 12.7340 28.7932
#
#
#
# Elastic Compliance Matrix: (Units=1/GPa)
#
#
# Indices 1 2 3 4 5 6 
#
# 1 0.009354 -0.003265 -0.003068 0.001838 0.003567 -0.000238
# 2 -0.003265 0.063542 0.002428 -0.060990 0.010149 -0.007640
# 3 -0.003068 0.002428 0.031873 -0.025532 0.017446 -0.019878
# 4 0.001838 -0.060990 -0.025532 0.105491 -0.021701 0.016785
# 5 0.003567 0.010149 0.017446 -0.021701 0.046742 -0.028030
# 6 -0.000238 -0.007640 -0.019878 0.016785 -0.028030 0.055840
#
#
# Mechanical properties :
#
#
# Convention : Reuss Voigt Hill
#
# Bulk Modulus (GPa) = 10.31349 48.92686 29.62018
# Shear Modulus (GPa) = 14.16545 31.22684 22.69615
#
# Velocity S-wave (km/s) = 2.56144 3.80305 3.24224
# Velocity P-wave (km/s) = 3.67761 6.47654 5.26642
#
# Compressibility (1/GPa) = 0.09696034
#
# Stress axis : x y z
#
# Youngs Moduli (GPa) = 106.90461 15.73767 31.37420
#
# Poissons Ratio (x) = 0.05138 0.09625
# Poissons Ratio (y) = 0.34903 -0.07618
# Poissons Ratio (z) = 0.32795 -0.03821
#
# Static dielectric constant tensor:
#      x y z
#    x 3.870790 0.099680 0.039360 
#    y 0.099680 3.683860 0.287180 
#    z 0.039360 0.287180 3.575130 
# 
# 
# High freq. dielectric constant tensor:
#      x y z
#    x 1.861200 0.002090 -0.007310 
#    y 0.002090 1.831100 0.026710 
#    z -0.007310 0.026710 1.821580 
# 
# From -- ./inp_files/332036.got.cif
#   From: 2010.06.25/outbox.cif.g09.slc.cpg/sg2_167_cif.got.tgz:332036.got - 2010.06.27 13:26:56.
