data_PCOD8009137
_publ_section_title
;
Structure prediction by ZEFSAII (Michael W. Deem and Ramdas Pophale) SiO2 
 PCOD8009137
Probable space group: P -1
;
_chemical_formula_sum "Si O2"
_cell_formula_units_Z 16
_cell_length_a 30.494461
_cell_length_b 5.171197
_cell_length_c 7.928913
_cell_angle_alpha 90.000000
_cell_angle_beta 49.456231
_cell_angle_gamma 117.481545
_cell_volume 754.889154
_symmetry_space_group_name_H-M "P -1"
_symmetry_group_IT_number 2
_symmetry_cell_setting 'triclinic'
loop_
_space_group_symop_operation_xyz
x,y,z
-x,-y,-z
loop_
_atom_site_type_symbol
_atom_site_label
_atom_site_fract_x
_atom_site_fract_y
_atom_site_fract_z
Si Si1 0.443187 0.794918 0.997521
Si Si2 0.556813 0.705082 0.213456
Si Si3 0.081026 0.235108 0.723670
Si Si4 0.840890 0.458092 0.786496
Si Si5 0.918974 0.264892 0.128802
Si Si6 0.279340 0.397113 0.410019
Si Si7 0.720660 0.102887 0.806717
Si Si8 0.159110 0.041909 0.990945
O O1 0.455988 0.539338 0.900980
O O2 0.455988 0.039338 0.819081
O O3 0.361554 0.600383 0.273411
O O4 0.500000 0.000000 0.000000
O O5 0.500000 0.500000 0.500000
O O6 0.638446 0.899617 0.081179
O O7 0.086214 0.299092 0.510094
O O8 0.121998 0.581874 0.717494
O O9 0.121998 0.081874 0.672514
O O10 0.000000 0.000000 0.000000
O O11 0.771958 0.299393 0.837557
O O12 0.841055 0.673518 0.930708
O O13 0.841055 0.173518 0.864016
O O14 0.913785 0.200908 0.941168
O O15 0.000000 0.500000 0.000000
O O16 0.265175 0.643898 0.372071
O O17 0.228042 0.200609 0.697348
O O18 0.265175 0.143898 0.302054
#
# Coordination Sequence:
#
# PCOD8009137 Si02
#       8
#     2   2   2   2   2   2   2   2
#     4  10  21  36  57  84 116 154 196 238 284 338
#     4  10  21  36  57  84 116 154 196 238 284 338
#     4  10  21  41  63  82 111 156 189 217 281 356
#     4  12  24  38  60  92 118 142 189 250 289 324
#     4  10  21  41  63  82 111 156 189 217 281 356
#     4  10  21  39  60  82 114 160 197 225 282 358
#     4  10  21  39  60  82 114 160 197 225 282 358
#     4  12  24  38  60  92 118 142 189 250 289 324
#
# _framework density 21.195163999999998
#
# number of rings (size 3 to 8) (size 9 to 14) (size 15 to 20)
#    0.000    1.500    0.000    5.250    0.000    2.000 
#    0.000   15.000    0.000    0.000    0.000    0.000 
#    0.000    0.000    0.000    0.000    0.000    0.000 
#
# Total GULP energy -198336.328789 kJ/mol
# GULP energy per Si atom -12396.020549 kJ/mol
# Density = 2.114692 g / cm^3
# Si number density = 21.195164 Si / 1000 Ang^3
#
#
#
# Elastic Constant Matrix: (Units=GPa)
#
#
# Indices 1 2 3 4 5 6 
#
# 1 71.6923 43.1500 23.9769 -6.8105 8.6913 13.2986
# 2 43.1500 125.7913 23.0587 7.8701 -0.9784 -4.9691
# 3 23.9769 23.0587 119.3237 -21.9673 1.6331 10.0451
# 4 -6.8105 7.8701 -21.9673 40.3473 1.0286 5.0320
# 5 8.6913 -0.9784 1.6331 1.0286 25.6706 -5.1731
# 6 13.2986 -4.9691 10.0451 5.0320 -5.1731 60.0889
#
#
#
# Elastic Compliance Matrix: (Units=1/GPa)
#
#
# Indices 1 2 3 4 5 6 
#
# 1 0.022084 -0.008062 -0.001135 0.005747 -0.009281 -0.006645
# 2 -0.008062 0.011597 -0.001982 -0.005296 0.004293 0.003888
# 3 -0.001135 -0.001982 0.010321 0.006121 -0.001045 -0.002241
# 4 0.005747 -0.005296 0.006121 0.030964 -0.004937 -0.005751
# 5 -0.009281 0.004293 -0.001045 -0.004937 0.043891 0.006776
# 6 -0.006645 0.003888 -0.002241 -0.005751 0.006776 0.019874
#
#
# Mechanical properties :
#
#
# Convention : Reuss Voigt Hill
#
# Bulk Modulus (GPa) = 46.20179 55.24207 50.72193
# Shear Modulus (GPa) = 29.70834 40.32947 35.01890
#
# Velocity S-wave (km/s) = 3.74793 4.36680 4.06915
# Velocity P-wave (km/s) = 6.36984 7.17951 6.78676
#
# Compressibility (1/GPa) = 0.02164418
#
# Stress axis : x y z
#
# Youngs Moduli (GPa) = 45.28160 86.23120 96.88563
#
# Poissons Ratio (x) = 0.69516 0.10998
# Poissons Ratio (y) = 0.36504 0.19205
# Poissons Ratio (z) = 0.05140 0.17093
#
# Static dielectric constant tensor:
#      x y z
#    x -20.009210 31.253530 3.485060 
#    y 31.253530 -36.666850 -4.857760 
#    z 3.485060 -4.857760 3.309400 
# 
# 
# High freq. dielectric constant tensor:
#      x y z
#    x 1.831970 -0.013560 -0.007340 
#    y -0.013560 1.863870 -0.009980 
#    z -0.007340 -0.009980 1.820180 
# 
# From -- ./inp_files/127983.got.cif
#   From: 2010.06.25/outbox.cif.g09.slc.cpg/sg2_64_cif.got.tgz:127983.got - 2010.06.27 13:26:56.
