data_PCOD8009734
_publ_section_title
;
Structure prediction by ZEFSAII (Michael W. Deem and Ramdas Pophale) SiO2 
 PCOD8009734
Probable space group: P -1
;
_chemical_formula_sum "Si O2"
_cell_formula_units_Z 16
_cell_length_a 12.667294
_cell_length_b 13.668668
_cell_length_c 9.386879
_cell_angle_alpha 77.320440
_cell_angle_beta 30.219068
_cell_angle_gamma 88.646144
_cell_volume 751.059648
_symmetry_space_group_name_H-M "P -1"
_symmetry_group_IT_number 2
_symmetry_cell_setting 'triclinic'
loop_
_space_group_symop_operation_xyz
x,y,z
-x,-y,-z
loop_
_atom_site_type_symbol
_atom_site_label
_atom_site_fract_x
_atom_site_fract_y
_atom_site_fract_z
Si Si1 0.079384 0.421631 0.332427
Si Si2 0.301529 0.105389 0.727752
Si Si3 0.231344 0.252155 0.368523
Si Si4 0.826835 0.961609 0.404586
Si Si5 0.862310 0.720362 0.211319
Si Si6 0.345889 0.680689 0.313457
Si Si7 0.533740 0.494960 0.626379
Si Si8 0.315376 0.845243 0.510120
O O1 0.093190 0.314874 0.425999
O O2 0.000000 0.500000 0.500000
O O3 0.907832 0.375448 0.419543
O O4 0.315877 0.493588 0.969192
O O5 0.337076 0.090896 0.522124
O O6 0.264783 0.218975 0.758827
O O7 0.502248 0.105288 0.595750
O O8 0.086366 0.004668 0.048235
O O9 0.191868 0.126630 0.420191
O O10 0.145651 0.242068 0.631551
O O11 0.494751 0.310761 0.012805
O O12 0.755144 0.060481 0.508384
O O13 0.745472 0.594557 0.391422
O O14 0.114348 0.753125 0.851351
O O15 0.407107 0.609658 0.382783
O O16 0.394451 0.793763 0.298557
O O17 0.500000 0.500000 0.500000
#
# Coordination Sequence:
#
# PCOD8009734 Si02
#       8
#     2   2   2   2   2   2   2   2
#     4  11  24  42  64  87 117 160 202 242 292 354
#     4   9  19  37  60  90 120 150 197 252 295 340
#     4  10  23  41  59  85 121 156 194 247 296 345
#     4   9  20  38  61  88 119 155 199 244 290 351
#     4  10  21  37  60  88 116 154 202 245 292 352
#     4  11  25  40  57  90 125 154 198 245 294 356
#     4  11  23  40  61  88 122 154 191 247 302 348
#     4  11  22  37  61  90 120 156 199 246 294 349
#
# _framework density 21.303235000000001
#
# number of rings (size 3 to 8) (size 9 to 14) (size 15 to 20)
#    0.000    1.750    0.000    4.125    0.000   13.500 
#    0.000    1.250    0.000    0.000    0.000    0.000 
#    0.000    0.000    0.000    0.000    0.000    0.000 
#
# Total GULP energy -198271.223405 kJ/mol
# GULP energy per Si atom -12391.951463 kJ/mol
# Density = 2.125475 g / cm^3
# Si number density = 21.303235 Si / 1000 Ang^3
#
#
#
# Elastic Constant Matrix: (Units=GPa)
#
#
# Indices 1 2 3 4 5 6 
#
# 1 83.3255 42.4148 40.7879 3.6338 -6.2710 -7.8280
# 2 42.4148 140.6594 43.1201 -0.1152 1.9195 -13.0956
# 3 40.7879 43.1201 84.2238 0.0334 -5.8114 -11.4389
# 4 3.6338 -0.1152 0.0334 31.8574 -1.1165 2.4387
# 5 -6.2710 1.9195 -5.8114 -1.1165 29.3087 -4.3975
# 6 -7.8280 -13.0956 -11.4389 2.4387 -4.3975 34.7092
#
#
#
# Elastic Compliance Matrix: (Units=1/GPa)
#
#
# Indices 1 2 3 4 5 6 
#
# 1 0.017093 -0.003153 -0.006334 -0.001941 0.002692 0.001056
# 2 -0.003153 0.009166 -0.003075 0.000223 -0.001650 0.001509
# 3 -0.006334 -0.003075 0.017166 0.000532 0.002778 0.003383
# 4 -0.001941 0.000223 0.000532 0.031810 0.000535 -0.002346
# 5 0.002692 -0.001650 0.002778 0.000535 0.036192 0.005448
# 6 0.001056 0.001509 0.003383 -0.002346 0.005448 0.031588
#
#
# Mechanical properties :
#
#
# Convention : Reuss Voigt Hill
#
# Bulk Modulus (GPa) = 54.63936 62.31714 58.47825
# Shear Modulus (GPa) = 28.69650 31.30079 29.99864
#
# Velocity S-wave (km/s) = 3.67420 3.83730 3.75663
# Velocity P-wave (km/s) = 6.61088 6.99636 6.80635
#
# Compressibility (1/GPa) = 0.01830183
#
# Stress axis : x y z
#
# Youngs Moduli (GPa) = 58.50462 109.10096 58.25610
#
# Poissons Ratio (x) = 0.34395 0.36898
# Poissons Ratio (y) = 0.18444 0.17913
# Poissons Ratio (z) = 0.37055 0.33547
#
# Static dielectric constant tensor:
#      x y z
#    x 3.631350 -0.215320 0.041920 
#    y -0.215320 3.909040 0.076190 
#    z 0.041920 0.076190 3.862180 
# 
# 
# High freq. dielectric constant tensor:
#      x y z
#    x 1.815270 -0.011220 -0.002900 
#    y -0.011220 1.855840 -0.003040 
#    z -0.002900 -0.003040 1.833950 
# 
# From -- ./inp_files/49359.got.cif
#   From: 2010.06.25/outbox.cif.g09.slc.cpg/sg2_25_cif.got.tgz:49359.got - 2010.06.27 13:26:56.
