data_PCOD8009153
_publ_section_title
;
Structure prediction by ZEFSAII (Michael W. Deem and Ramdas Pophale) SiO2 
 PCOD8009153
Probable space group: P -1
;
_chemical_formula_sum "Si O2"
_cell_formula_units_Z 16
_cell_length_a 16.662891
_cell_length_b 8.563315
_cell_length_c 7.727808
_cell_angle_alpha 71.724374
_cell_angle_beta 80.035858
_cell_angle_gamma 48.487632
_cell_volume 783.109846
_symmetry_space_group_name_H-M "P -1"
_symmetry_group_IT_number 2
_symmetry_cell_setting 'triclinic'
loop_
_space_group_symop_operation_xyz
x,y,z
-x,-y,-z
loop_
_atom_site_type_symbol
_atom_site_label
_atom_site_fract_x
_atom_site_fract_y
_atom_site_fract_z
Si Si1 0.892045 0.316311 0.943398
Si Si2 0.853625 0.957471 0.592782
Si Si3 0.265887 0.181353 0.161995
Si Si4 0.944135 0.459319 0.392867
Si Si5 0.257124 0.103056 0.818371
Si Si6 0.797883 0.373166 0.618948
Si Si7 0.125009 0.996144 0.819366
Si Si8 0.374987 0.147138 0.470108
O O1 0.835884 0.564195 0.910309
O O2 0.825333 0.296388 0.833020
O O3 0.016685 0.183539 0.900801
O O4 0.874422 0.203534 0.142014
O O5 0.815690 0.190364 0.562248
O O6 0.764349 0.952382 0.696769
O O7 0.872779 0.915648 0.395764
O O8 0.969530 0.744903 0.696862
O O9 0.352937 0.140105 0.277284
O O10 0.312673 0.087004 0.984393
O O11 0.861410 0.662139 0.230749
O O12 0.883703 0.401251 0.543237
O O13 0.000000 0.500000 0.500000
O O14 0.230896 0.940434 0.891016
O O15 0.331036 0.061294 0.643710
O O16 0.679805 0.605191 0.549348
O O17 0.500000 0.000000 0.500000
#
# Coordination Sequence:
#
# PCOD8009153 Si02
#       8
#     2   2   2   2   2   2   2   2
#     4  10  22  35  53  90 130 171 206 241 288 368
#     4  12  21  35  60  90 132 167 206 246 297 369
#     4  11  24  40  64  90 123 164 206 252 315 373
#     4  11  19  34  57  88 130 173 206 239 293 356
#     4  11  22  39  62  90 124 166 208 252 307 367
#     4  10  21  36  57  88 122 159 206 255 305 362
#     4  11  21  34  57  88 134 170 204 244 294 355
#     4  10  23  46  69  89 117 154 206 273 326 371
#
# _framework density 20.431363000000001
#
# number of rings (size 3 to 8) (size 9 to 14) (size 15 to 20)
#    0.000    1.250    3.750    3.375    3.500    3.500 
#    0.000    0.625    0.000    3.750    0.000    0.000 
#    0.000    0.000    0.000    0.000    0.000    0.000 
#
# Total GULP energy -198221.035035 kJ/mol
# GULP energy per Si atom -12388.814690 kJ/mol
# Density = 2.038486 g / cm^3
# Si number density = 20.431363 Si / 1000 Ang^3
#
#
#
# Elastic Constant Matrix: (Units=GPa)
#
#
# Indices 1 2 3 4 5 6 
#
# 1 107.2139 59.4616 35.2467 -6.6672 -2.4076 -1.3586
# 2 59.4616 83.9490 7.8847 -5.8408 -0.2413 3.2511
# 3 35.2467 7.8847 78.1281 4.1789 -4.9256 7.4945
# 4 -6.6672 -5.8408 4.1789 21.9931 7.3364 1.5519
# 5 -2.4076 -0.2413 -4.9256 7.3364 27.5150 -3.7730
# 6 -1.3586 3.2511 7.4945 1.5519 -3.7730 34.0298
#
#
#
# Elastic Compliance Matrix: (Units=1/GPa)
#
#
# Indices 1 2 3 4 5 6 
#
# 1 0.019345 -0.012820 -0.008005 0.003864 -0.000397 0.003540
# 2 -0.012820 0.020872 0.003862 0.001558 -0.001150 -0.003555
# 3 -0.008005 0.003862 0.016883 -0.005437 0.003285 -0.003795
# 4 0.003864 0.001558 -0.005437 0.053382 -0.015256 -0.002923
# 5 -0.000397 -0.001150 0.003285 -0.015256 0.041596 0.004678
# 6 0.003540 -0.003555 -0.003795 -0.002923 0.004678 0.031355
#
#
# Mechanical properties :
#
#
# Convention : Reuss Voigt Hill
#
# Bulk Modulus (GPa) = 43.14875 52.71967 47.93421
# Shear Modulus (GPa) = 22.21413 27.82078 25.01745
#
# Velocity S-wave (km/s) = 3.30093 3.69408 3.50303
# Velocity P-wave (km/s) = 5.97436 6.63734 6.31456
#
# Compressibility (1/GPa) = 0.02317564
#
# Stress axis : x y z
#
# Youngs Moduli (GPa) = 51.69374 47.91074 59.23165
#
# Poissons Ratio (x) = 0.61419 0.47413
# Poissons Ratio (y) = 0.66269 -0.22877
# Poissons Ratio (z) = 0.41379 -0.18504
#
# Static dielectric constant tensor:
#      x y z
#    x 3.543260 0.267890 -0.060710 
#    y 0.267890 3.560980 -0.110950 
#    z -0.060710 -0.110950 3.907940 
# 
# 
# High freq. dielectric constant tensor:
#      x y z
#    x 1.782270 0.032100 -0.009260 
#    y 0.032100 1.767500 -0.007730 
#    z -0.009260 -0.007730 1.810640 
# 
# From -- ./inp_files/297873.got.cif
#   From: 2010.06.25/outbox.cif.g09.slc.cpg/sg2_149_cif.got.tgz:297873.got - 2010.06.27 13:26:56.
