data_PCOD8009567
_publ_section_title
;
Structure prediction by ZEFSAII (Michael W. Deem and Ramdas Pophale) SiO2 
 PCOD8009567
Probable space group: P -1
;
_chemical_formula_sum "Si O2"
_cell_formula_units_Z 16
_cell_length_a 17.803994
_cell_length_b 12.074464
_cell_length_c 12.090283
_cell_angle_alpha 115.949792
_cell_angle_beta 133.501276
_cell_angle_gamma 29.816390
_cell_volume 840.542929
_symmetry_space_group_name_H-M "P -1"
_symmetry_group_IT_number 2
_symmetry_cell_setting 'triclinic'
loop_
_space_group_symop_operation_xyz
x,y,z
-x,-y,-z
loop_
_atom_site_type_symbol
_atom_site_label
_atom_site_fract_x
_atom_site_fract_y
_atom_site_fract_z
Si Si1 0.303714 0.351083 0.438472
Si Si2 0.367108 0.699332 0.645121
Si Si3 0.307002 0.143556 0.509401
Si Si4 0.380840 0.735148 0.929522
Si Si5 0.886655 0.882011 0.585644
Si Si6 0.909324 0.219568 0.702076
Si Si7 0.825901 0.169930 0.805390
Si Si8 0.665023 0.631040 0.283387
O O1 0.216297 0.310325 0.380891
O O2 0.130458 0.600893 0.301595
O O3 0.369118 0.366291 0.619104
O O4 0.492322 0.138399 0.451360
O O5 0.373953 0.739585 0.793408
O O6 0.193638 0.772986 0.482622
O O7 0.591183 0.409038 0.717456
O O8 0.301085 0.887108 0.587518
O O9 0.145528 0.217523 0.433922
O O10 0.358958 0.195251 0.676621
O O11 0.500000 0.500000 0.000000
O O12 0.486036 0.754037 0.082317
O O13 0.153546 0.952645 0.842384
O O14 0.107015 0.652145 0.645644
O O15 0.888786 0.979243 0.726652
O O16 0.825956 0.284094 0.769861
O O17 0.000000 0.000000 0.000000
#
# Coordination Sequence:
#
# PCOD8009567 Si02
#       8
#     2   2   2   2   2   2   2   2
#     4   9  19  38  61  83 112 147 199 232 282 338
#     4  11  22  37  59  87 115 150 194 233 286 347
#     4   9  20  37  64  82 111 152 199 233 283 338
#     4  12  23  37  57  86 123 152 185 242 298 335
#     4  11  20  38  63  83 114 155 197 232 279 350
#     4  11  21  37  61  87 113 151 193 238 283 346
#     4  11  23  38  58  90 119 148 186 239 296 340
#     4  10  21  37  57  86 114 150 195 235 286 335
#
# _framework density 19.035315000000001
#
# number of rings (size 3 to 8) (size 9 to 14) (size 15 to 20)
#    0.750    0.750    0.000    8.250    0.000    1.000 
#    0.000    1.250    2.750    0.000    0.000    0.000 
#    0.000    0.000    0.000    0.000    0.000    0.000 
#
# Total GULP energy -198277.268355 kJ/mol
# GULP energy per Si atom -12392.329272 kJ/mol
# Density = 1.899199 g / cm^3
# Si number density = 19.035315 Si / 1000 Ang^3
#
#
#
# Elastic Constant Matrix: (Units=GPa)
#
#
# Indices 1 2 3 4 5 6 
#
# 1 71.2716 -16.6092 19.1368 -2.6272 10.5129 33.2065
# 2 -16.6092 -76.7737 -29.5551 -5.3215 47.0889 46.7190
# 3 19.1368 -29.5551 87.0440 -2.3405 14.8124 26.2783
# 4 -2.6272 -5.3215 -2.3405 31.2057 -6.1171 -4.3827
# 5 10.5129 47.0889 14.8124 -6.1171 24.5233 -20.2657
# 6 33.2065 46.7190 26.2783 -4.3827 -20.2657 17.6139
#
#
#
# Elastic Compliance Matrix: (Units=1/GPa)
#
#
# Indices 1 2 3 4 5 6 
#
# 1 0.017148 -0.006737 -0.003731 -0.000988 0.000784 -0.008238
# 2 -0.006737 0.005028 -0.003189 0.004184 0.009530 0.016127
# 3 -0.003731 -0.003189 0.011177 0.000095 0.000775 -0.000267
# 4 -0.000988 0.004184 0.000095 0.034444 0.005242 0.005225
# 5 0.000784 0.009530 0.000775 0.005242 0.020215 -0.003349
# 6 -0.008238 0.016127 -0.000267 0.005225 -0.003349 0.027374
#
#
# Mechanical properties :
#
#
# Convention : Reuss Voigt Hill
#
# Bulk Modulus (GPa) = 165.56256 3.05409 84.30833
# Shear Modulus (GPa) = 34.55082 21.90652 28.22867
#
# Velocity S-wave (km/s) = 4.26501 3.39608 3.85510
# Velocity P-wave (km/s) = 10.55552 4.12137 8.01264
#
# Compressibility (1/GPa) = 0.00604001
#
# Stress axis : x y z
#
# Youngs Moduli (GPa) = 58.31428 198.86757 89.46929
#
# Poissons Ratio (x) = 1.33976 0.33379
# Poissons Ratio (y) = 0.39286 0.28534
# Poissons Ratio (z) = 0.21756 0.63424
#
# Static dielectric constant tensor:
#      x y z
#    x 4.067740 -0.417100 -0.204250 
#    y -0.417100 3.901930 0.117690 
#    z -0.204250 0.117690 3.418910 
# 
# 
# High freq. dielectric constant tensor:
#      x y z
#    x 1.745240 -0.007540 -0.009910 
#    y -0.007540 1.753520 -0.003860 
#    z -0.009910 -0.003860 1.718720 
# 
# From -- ./inp_files/464684.got.cif
#   From: 2010.06.25/outbox.cif.g09.slc.cpg/sg2_233_cif.got.tgz:464684.got - 2010.06.27 13:26:56.
