data_PCOD8009288
_publ_section_title
;
Structure prediction by ZEFSAII (Michael W. Deem and Ramdas Pophale) SiO2 
 PCOD8009288
Probable space group: P -1
;
_chemical_formula_sum "Si O2"
_cell_formula_units_Z 16
_cell_length_a 14.287762
_cell_length_b 21.108002
_cell_length_c 9.008468
_cell_angle_alpha 45.083130
_cell_angle_beta 124.661965
_cell_angle_gamma 155.836146
_cell_volume 760.366480
_symmetry_space_group_name_H-M "P -1"
_symmetry_group_IT_number 2
_symmetry_cell_setting 'triclinic'
loop_
_space_group_symop_operation_xyz
x,y,z
-x,-y,-z
loop_
_atom_site_type_symbol
_atom_site_label
_atom_site_fract_x
_atom_site_fract_y
_atom_site_fract_z
Si Si1 0.492243 0.379914 0.842339
Si Si2 0.480958 0.299879 0.469890
Si Si3 0.771070 0.017278 0.059731
Si Si4 0.717538 0.708988 0.486537
Si Si5 0.043985 0.537313 0.730250
Si Si6 0.999769 0.636268 0.263940
Si Si7 0.358350 0.701024 0.006598
Si Si8 0.146535 0.123750 0.214886
O O1 0.685965 0.587363 0.725559
O O2 0.313913 0.309838 0.688124
O O3 0.630517 0.394913 0.865745
O O4 0.337329 0.236705 0.073507
O O5 0.487779 0.364263 0.518306
O O6 0.725633 0.465816 0.330692
O O7 0.287865 0.223437 0.330263
O O8 0.387485 0.135906 0.698144
O O9 0.000957 0.114625 0.073007
O O10 0.850952 0.169947 0.932011
O O11 0.615227 0.915452 0.935448
O O12 0.979593 0.922285 0.407280
O O13 0.988203 0.404424 0.817795
O O14 0.262217 0.685165 0.799051
O O15 0.109088 0.652792 0.468961
O O16 0.812536 0.407487 0.826043
#
# Coordination Sequence:
#
# PCOD8009288 Si02
#       8
#     2   2   2   2   2   2   2   2
#     4  11  21  38  62  89 127 167 195 246 308 372
#     4  11  22  42  61  93 130 161 200 255 302 373
#     4  11  23  40  69  92 127 165 202 254 317 370
#     4  10  21  36  60  90 130 163 196 238 307 372
#     4  10  24  44  66  90 121 162 214 272 307 359
#     4  11  23  44  69  89 121 166 213 257 316 363
#     4  11  22  43  65  91 128 161 208 264 315 356
#     4  11  23  37  62  96 130 159 207 242 298 386
#
# _framework density 21.042486
#
# number of rings (size 3 to 8) (size 9 to 14) (size 15 to 20)
#    0.000    1.250    3.750    3.375    0.000    7.000 
#    0.000    0.000    0.000    0.000    0.000    0.000 
#    0.000    0.000    0.000    0.000    0.000    0.000 
#
# Total GULP energy -198360.601706 kJ/mol
# GULP energy per Si atom -12397.537607 kJ/mol
# Density = 2.099459 g / cm^3
# Si number density = 21.042486 Si / 1000 Ang^3
#
#
#
# Elastic Constant Matrix: (Units=GPa)
#
#
# Indices 1 2 3 4 5 6 
#
# 1 187.8988 -6.0760 -9.3106 -30.0350 -2.0792 34.5258
# 2 -6.0760 122.6241 99.0663 6.7685 23.2215 -32.7116
# 3 -9.3106 99.0663 140.6743 -6.3746 10.6970 -50.2020
# 4 -30.0350 6.7685 -6.3746 45.2200 -7.9690 4.5451
# 5 -2.0792 23.2215 10.6970 -7.9690 33.9823 -7.5276
# 6 34.5258 -32.7116 -50.2020 4.5451 -7.5276 58.2390
#
#
#
# Elastic Compliance Matrix: (Units=1/GPa)
#
#
# Indices 1 2 3 4 5 6 
#
# 1 0.007261 -0.001546 -0.000326 0.005884 0.001722 -0.005690
# 2 -0.001546 0.025334 -0.017733 -0.009728 -0.014380 -0.001239
# 3 -0.000326 -0.017733 0.023018 0.006132 0.008664 0.010716
# 4 0.005884 -0.009728 0.006132 0.030793 0.011277 -0.004612
# 5 0.001722 -0.014380 0.008664 0.011277 0.039862 0.002642
# 6 -0.005690 -0.001239 0.010716 -0.004612 0.002642 0.029786
#
#
# Mechanical properties :
#
#
# Convention : Reuss Voigt Hill
#
# Bulk Modulus (GPa) = 60.95929 68.72852 64.84390
# Shear Modulus (GPa) = 24.90890 51.98941 38.44915
#
# Velocity S-wave (km/s) = 3.44429 4.97599 4.27923
# Velocity P-wave (km/s) = 6.69702 8.10843 7.43629
#
# Compressibility (1/GPa) = 0.01640439
#
# Stress axis : x y z
#
# Youngs Moduli (GPa) = 137.72243 39.47260 43.44415
#
# Poissons Ratio (x) = 0.06102 0.01415
# Poissons Ratio (y) = 0.21291 0.77038
# Poissons Ratio (z) = 0.04486 0.69995
#
# Static dielectric constant tensor:
#      x y z
#    x 3.795820 -0.108420 -0.007130 
#    y -0.108420 3.944030 0.186800 
#    z -0.007130 0.186800 3.798050 
# 
# 
# High freq. dielectric constant tensor:
#      x y z
#    x 1.825860 -0.006720 -0.004690 
#    y -0.006720 1.826050 0.013750 
#    z -0.004690 0.013750 1.819250 
# 
# From -- ./inp_files/187342.got.cif
#   From: 2010.06.25/outbox.cif.g09.slc.cpg/sg2_94_cif.got.tgz:187342.got - 2010.06.27 13:26:56.
