data_PCOD8009258
_publ_section_title
;
Structure prediction by ZEFSAII (Michael W. Deem and Ramdas Pophale) SiO2 
 PCOD8009258
Probable space group: P -1
;
_chemical_formula_sum "Si O2"
_cell_formula_units_Z 16
_cell_length_a 9.101294
_cell_length_b 11.978592
_cell_length_c 15.737055
_cell_angle_alpha 27.316908
_cell_angle_beta 84.429765
_cell_angle_gamma 76.674526
_cell_volume 743.518973
_symmetry_space_group_name_H-M "P -1"
_symmetry_group_IT_number 2
_symmetry_cell_setting 'triclinic'
loop_
_space_group_symop_operation_xyz
x,y,z
-x,-y,-z
loop_
_atom_site_type_symbol
_atom_site_label
_atom_site_fract_x
_atom_site_fract_y
_atom_site_fract_z
Si Si1 0.283887 0.004637 0.429146
Si Si2 0.857972 0.180494 0.126872
Si Si3 0.893220 0.262435 0.500236
Si Si4 0.131299 0.421893 0.276091
Si Si5 0.429835 0.970366 0.815168
Si Si6 0.355377 0.423457 0.029753
Si Si7 0.425369 0.369655 0.395439
Si Si8 0.574690 0.616870 0.343046
O O1 0.206120 0.124941 0.441208
O O2 0.319269 0.237337 0.225026
O O3 0.163012 0.908037 0.448180
O O4 0.447076 0.774092 0.586584
O O5 0.721100 0.120359 0.122399
O O6 0.921241 0.369095 0.937493
O O7 0.794205 0.318538 0.129200
O O8 0.995324 0.922568 0.311888
O O9 0.753893 0.449770 0.434938
O O10 0.980001 0.436449 0.329564
O O11 0.257436 0.489428 0.282897
O O12 0.424818 0.170174 0.604842
O O13 0.434778 0.095200 0.823035
O O14 0.591760 0.727380 0.960772
O O15 0.500000 0.500000 0.000000
O O16 0.478015 0.605573 0.270409
O O17 0.500000 0.500000 0.500000
#
# Coordination Sequence:
#
# PCOD8009258 Si02
#       8
#     2   2   2   2   2   2   2   2
#     4   9  19  34  58  85 123 158 194 236 298 352
#     4  10  21  36  59  93 123 150 193 240 305 354
#     4  11  22  39  62  89 120 158 194 248 294 350
#     4  11  21  36  59  89 123 153 194 244 300 353
#     4   9  16  36  60  84 115 159 200 240 287 348
#     4   8  16  31  57  87 119 146 191 242 281 351
#     4   9  17  35  60  86 114 157 202 244 284 352
#     4   9  20  38  67  84 110 161 210 238 293 351
#
# _framework density 21.519290999999999
#
# number of rings (size 3 to 8) (size 9 to 14) (size 15 to 20)
#    0.000    2.500    1.250    1.500    0.000    2.500 
#    2.250    1.250   24.750    0.000    0.000    0.000 
#    0.000    0.000    0.000    0.000    0.000    0.000 
#
# Total GULP energy -198232.368430 kJ/mol
# GULP energy per Si atom -12389.523027 kJ/mol
# Density = 2.147031 g / cm^3
# Si number density = 21.519291 Si / 1000 Ang^3
#
#
#
# Elastic Constant Matrix: (Units=GPa)
#
#
# Indices 1 2 3 4 5 6 
#
# 1 121.6082 53.2084 34.2745 -4.1723 -10.9690 -16.4707
# 2 53.2084 139.4708 25.4123 -31.2427 -1.5006 -10.6657
# 3 34.2745 25.4123 57.1456 -3.5063 -17.6069 -6.8216
# 4 -4.1723 -31.2427 -3.5063 20.7172 2.4044 -3.5584
# 5 -10.9690 -1.5006 -17.6069 2.4044 10.8760 -2.1050
# 6 -16.4707 -10.6657 -6.8216 -3.5584 -2.1050 34.8520
#
#
#
# Elastic Compliance Matrix: (Units=1/GPa)
#
#
# Indices 1 2 3 4 5 6 
#
# 1 0.012412 -0.005660 -0.001114 -0.006967 0.012238 0.003944
# 2 -0.005660 0.016714 -0.009917 0.025541 -0.024791 0.001609
# 3 -0.001114 -0.009917 0.046867 -0.014826 0.078368 0.008832
# 4 -0.006967 0.025541 -0.014826 0.089558 -0.045753 0.008002
# 5 0.012238 -0.024791 0.078368 -0.045753 0.242399 0.023505
# 6 0.003944 0.001609 0.008832 0.008002 0.023505 0.035014
#
#
# Mechanical properties :
#
#
# Convention : Reuss Voigt Hill
#
# Bulk Modulus (GPa) = 23.46753 60.44611 41.95682
# Shear Modulus (GPa) = 10.19264 26.97767 18.58516
#
# Velocity S-wave (km/s) = 2.17871 3.54453 2.94198
# Velocity P-wave (km/s) = 4.15428 6.70089 5.57494
#
# Compressibility (1/GPa) = 0.04261206
#
# Stress axis : x y z
#
# Youngs Moduli (GPa) = 80.56443 59.83097 21.33677
#
# Poissons Ratio (x) = 0.33863 0.02377
# Poissons Ratio (y) = 0.45598 0.21160
# Poissons Ratio (z) = 0.08975 0.59334
#
# Static dielectric constant tensor:
#      x y z
#    x 3.988000 -0.018180 -0.234720 
#    y -0.018180 4.484480 -0.450850 
#    z -0.234720 -0.450850 3.571090 
# 
# 
# High freq. dielectric constant tensor:
#      x y z
#    x 1.850750 -0.004640 -0.022820 
#    y -0.004640 1.842840 -0.016380 
#    z -0.022820 -0.016380 1.815010 
# 
# From -- ./inp_files/280203.got.cif
#   From: 2010.06.25/outbox.cif.g09.slc.cpg/sg2_141_cif.got.tgz:280203.got - 2010.06.27 13:26:56.
