data_PCOD8009296
_publ_section_title
;
Structure prediction by ZEFSAII (Michael W. Deem and Ramdas Pophale) SiO2 
 PCOD8009296
Probable space group: P -1
;
_chemical_formula_sum "Si O2"
_cell_formula_units_Z 14
_cell_length_a 19.937233
_cell_length_b 6.560519
_cell_length_c 5.565861
_cell_angle_alpha 111.391249
_cell_angle_beta 115.370995
_cell_angle_gamma 98.223366
_cell_volume 572.405375
_symmetry_space_group_name_H-M "P -1"
_symmetry_group_IT_number 2
_symmetry_cell_setting 'triclinic'
loop_
_space_group_symop_operation_xyz
x,y,z
-x,-y,-z
loop_
_atom_site_type_symbol
_atom_site_label
_atom_site_fract_x
_atom_site_fract_y
_atom_site_fract_z
Si Si1 0.939552 0.863354 0.552992
Si Si2 0.451565 0.446125 0.652501
Si Si3 0.206977 0.757952 0.203673
Si Si4 0.684909 0.388529 0.376954
Si Si5 0.323159 0.029748 0.109750
Si Si6 0.766004 0.774836 0.269406
Si Si7 0.963104 0.316479 0.070321
O O1 0.846596 0.739501 0.280414
O O2 0.972264 0.661471 0.610633
O O3 0.000000 0.000000 0.500000
O O4 0.937904 0.046769 0.834023
O O5 0.500000 0.500000 0.500000
O O6 0.393482 0.592567 0.618734
O O7 0.398720 0.167677 0.451823
O O8 0.500000 0.500000 0.000000
O O9 0.245657 0.581661 0.306956
O O10 0.251372 0.847176 0.064055
O O11 0.213121 0.965388 0.484460
O O12 0.114203 0.628731 0.938674
O O13 0.720699 0.580369 0.308731
O O14 0.652500 0.121816 0.116142
O O15 0.293709 0.233791 0.045269
O O16 0.000000 0.500000 0.000000
#
# Coordination Sequence:
#
# PCOD8009296 Si02
#       7
#     2   2   2   2   2   2   2
#     4  10  21  36  60  93 137 186 233 288 351 396
#     4  12  29  51  77 109 149 184 231 305 373 442
#     4  10  22  40  66  99 136 186 241 289 344 431
#     4  11  25  44  74 101 138 189 235 288 365 427
#     4  11  25  44  73 103 139 182 246 283 352 443
#     4  10  21  42  64  98 142 187 240 295 346 422
#     4  10  21  37  58  95 140 177 232 293 342 401
#
# _framework density 24.458193999999999
#
# number of rings (size 3 to 8) (size 9 to 14) (size 15 to 20)
#    0.000    1.429    1.429    2.571    6.000    2.857 
#    0.000    0.000    0.000    0.000    0.000    0.000 
#    0.000    0.000    0.000    0.000    0.000    0.000 
#
# Total GULP energy -173568.845881 kJ/mol
# GULP energy per Si atom -12397.774706 kJ/mol
# Density = 2.440253 g / cm^3
# Si number density = 24.458194 Si / 1000 Ang^3
#
#
#
# Elastic Constant Matrix: (Units=GPa)
#
#
# Indices 1 2 3 4 5 6 
#
# 1 196.0721 60.9966 61.1778 -14.6380 15.5489 3.6846
# 2 60.9966 129.0455 41.4760 -42.4962 17.2381 7.9232
# 3 61.1778 41.4760 121.7563 -26.7011 28.3492 3.2565
# 4 -14.6380 -42.4962 -26.7011 42.2468 3.9555 -4.4571
# 5 15.5489 17.2381 28.3492 3.9555 29.8601 -4.7893
# 6 3.6846 7.9232 3.2565 -4.4571 -4.7893 43.9747
#
#
#
# Elastic Compliance Matrix: (Units=1/GPa)
#
#
# Indices 1 2 3 4 5 6 
#
# 1 0.006901 -0.003727 -0.003660 -0.003886 0.002587 0.000252
# 2 -0.003727 0.016494 0.003655 0.018644 -0.013931 -0.002558
# 3 -0.003660 0.003655 0.016020 0.013965 -0.017590 -0.002038
# 4 -0.003886 0.018644 0.013965 0.052439 -0.029256 -0.001939
# 5 0.002587 -0.013931 -0.017590 -0.029256 0.061943 0.007377
# 6 0.000252 -0.002558 -0.002038 -0.001939 0.007377 0.023938
#
#
# Mechanical properties :
#
#
# Convention : Reuss Voigt Hill
#
# Bulk Modulus (GPa) = 31.29729 86.01942 58.65836
# Shear Modulus (GPa) = 25.52989 42.09787 33.81388
#
# Velocity S-wave (km/s) = 3.23432 4.15326 3.72226
# Velocity P-wave (km/s) = 5.17415 7.63189 6.51987
#
# Compressibility (1/GPa) = 0.03195165
#
# Stress axis : x y z
#
# Youngs Moduli (GPa) = 144.89994 60.62864 62.42365
#
# Poissons Ratio (x) = 0.22594 0.22844
# Poissons Ratio (y) = 0.54000 -0.22814
# Poissons Ratio (z) = 0.53026 -0.22158
#
# Static dielectric constant tensor:
#      x y z
#    x 4.740670 -0.458530 0.196210 
#    y -0.458530 4.357120 -0.023860 
#    z 0.196210 -0.023860 4.688490 
# 
# 
# High freq. dielectric constant tensor:
#      x y z
#    x 1.983880 -0.020280 -0.000590 
#    y -0.020280 1.975250 0.006870 
#    z -0.000590 0.006870 1.984680 
# 
# From -- ./inp_files/7680.got.cif
#   From: 2010.06.25/outbox.cif.g09.slc.cpg/sg2_4_cif.got.tgz:7680.got - 2010.06.27 13:26:56.
