data_PCOD8009932
_publ_section_title
;
Structure prediction by ZEFSAII (Michael W. Deem and Ramdas Pophale) SiO2 
 PCOD8009932
Probable space group: P -1
;
_chemical_formula_sum "Si O2"
_cell_formula_units_Z 14
_cell_length_a 21.576253
_cell_length_b 15.358770
_cell_length_c 9.880780
_cell_angle_alpha 38.209183
_cell_angle_beta 151.189813
_cell_angle_gamma 154.929841
_cell_volume 668.112520
_symmetry_space_group_name_H-M "P -1"
_symmetry_group_IT_number 2
_symmetry_cell_setting 'triclinic'
loop_
_space_group_symop_operation_xyz
x,y,z
-x,-y,-z
loop_
_atom_site_type_symbol
_atom_site_label
_atom_site_fract_x
_atom_site_fract_y
_atom_site_fract_z
Si Si1 0.478495 0.318969 0.701823
Si Si2 0.055549 0.979746 0.271467
Si Si3 0.996914 0.646791 0.477898
Si Si4 0.401803 0.751751 0.743106
Si Si5 0.248548 0.600261 0.085918
Si Si6 0.503325 0.863300 0.503582
Si Si7 0.060790 0.830600 0.080587
O O1 0.500000 0.500000 0.500000
O O2 0.272337 0.110476 0.519941
O O3 0.625786 0.347728 0.862455
O O4 0.512846 0.311702 0.934117
O O5 0.958666 0.748685 0.382343
O O6 0.002664 0.054995 0.189193
O O7 0.000000 0.000000 0.000000
O O8 0.817016 0.401536 0.448093
O O9 0.018445 0.721208 0.275975
O O10 0.180987 0.705682 0.799688
O O11 0.424417 0.737293 0.645924
O O12 0.514442 0.982060 0.719205
O O13 0.373783 0.693998 0.345803
O O14 0.066413 0.351650 0.052435
O O15 0.719900 0.992918 0.746723
#
# Coordination Sequence:
#
# PCOD8009932 Si02
#       7
#     2   2   2   2   2   2   2
#     4  12  22  41  69  98 131 173 222 277 330 385
#     4  10  21  37  62  97 131 164 215 277 331 380
#     4  11  21  40  68  97 128 175 228 274 324 388
#     4  11  24  45  63  99 140 172 216 282 333 391
#     4  12  22  40  71  97 125 176 228 268 325 395
#     4  11  26  43  66  98 140 175 217 274 339 397
#     4  11  21  43  65  96 136 169 220 284 322 394
#
# _framework density 20.954553000000001
#
# number of rings (size 3 to 8) (size 9 to 14) (size 15 to 20)
#    0.000    0.857    4.286    4.714    0.000    2.286 
#    2.571    3.571    0.000    0.000    0.000    0.000 
#    0.000    0.000    0.000    0.000    0.000    0.000 
#
# Total GULP energy -173573.588063 kJ/mol
# GULP energy per Si atom -12398.113433 kJ/mol
# Density = 2.090686 g / cm^3
# Si number density = 20.954553 Si / 1000 Ang^3
#
#
#
# Elastic Constant Matrix: (Units=GPa)
#
#
# Indices 1 2 3 4 5 6 
#
# 1 97.0635 46.2859 57.0300 -1.9053 -0.4252 1.4923
# 2 46.2859 92.2093 56.7217 13.3067 -4.2798 -13.8275
# 3 57.0300 56.7217 132.6580 6.9428 6.9844 -0.5902
# 4 -1.9053 13.3067 6.9428 45.7341 -1.5298 6.0543
# 5 -0.4252 -4.2798 6.9844 -1.5298 34.6466 -1.3325
# 6 1.4923 -13.8275 -0.5902 6.0543 -1.3325 41.5200
#
#
#
# Elastic Compliance Matrix: (Units=1/GPa)
#
#
# Indices 1 2 3 4 5 6 
#
# 1 0.016036 -0.006336 -0.004407 0.003624 0.000337 -0.003267
# 2 -0.006336 0.019575 -0.005480 -0.006025 0.003474 0.007659
# 3 -0.004407 -0.005480 0.011954 -0.000306 -0.003214 -0.001555
# 4 0.003624 -0.006025 -0.000306 0.024581 0.000227 -0.005718
# 5 0.000337 0.003474 -0.003214 0.000227 0.030032 0.002030
# 6 -0.003267 0.007659 -0.001555 -0.005718 0.002030 0.027630
#
#
# Mechanical properties :
#
#
# Convention : Reuss Voigt Hill
#
# Bulk Modulus (GPa) = 66.13496 71.33399 68.73448
# Shear Modulus (GPa) = 29.88776 35.17301 32.53038
#
# Velocity S-wave (km/s) = 3.78075 4.10144 3.94436
# Velocity P-wave (km/s) = 7.11958 7.51966 7.32235
#
# Compressibility (1/GPa) = 0.01512060
#
# Stress axis : x y z
#
# Youngs Moduli (GPa) = 62.35984 51.08459 83.65482
#
# Poissons Ratio (x) = 0.32367 0.36864
# Poissons Ratio (y) = 0.39511 0.45839
# Poissons Ratio (z) = 0.27480 0.27992
#
# Static dielectric constant tensor:
#      x y z
#    x 4.036580 -0.342420 0.525640 
#    y -0.342420 4.180060 0.010310 
#    z 0.525640 0.010310 4.177740 
# 
# 
# High freq. dielectric constant tensor:
#      x y z
#    x 1.799940 -0.014060 0.020350 
#    y -0.014060 1.831910 0.011700 
#    z 0.020350 0.011700 1.825520 
# 
# From -- ./inp_files/347151.got.cif
#   From: 2010.06.25/outbox.cif.g09.slc.cpg/sg2_174_cif.got.tgz:347151.got - 2010.06.27 13:26:56.
