data_PCOD8009121
_publ_section_title
;
Structure prediction by ZEFSAII (Michael W. Deem and Ramdas Pophale) SiO2 
 PCOD8009121
Probable space group: P -1
;
_chemical_formula_sum "Si O2"
_cell_formula_units_Z 14
_cell_length_a 11.409786
_cell_length_b 14.880718
_cell_length_c 6.928587
_cell_angle_alpha 51.900148
_cell_angle_beta 117.619694
_cell_angle_gamma 136.489375
_cell_volume 637.075733
_symmetry_space_group_name_H-M "P -1"
_symmetry_group_IT_number 2
_symmetry_cell_setting 'triclinic'
loop_
_space_group_symop_operation_xyz
x,y,z
-x,-y,-z
loop_
_atom_site_type_symbol
_atom_site_label
_atom_site_fract_x
_atom_site_fract_y
_atom_site_fract_z
Si Si1 0.903180 0.843829 0.027042
Si Si2 0.464361 0.614314 0.331518
Si Si3 0.205601 0.943504 0.902805
Si Si4 0.750281 0.797600 0.580493
Si Si5 0.248114 0.869837 0.631173
Si Si6 0.863385 0.670233 0.560593
Si Si7 0.450396 0.126945 0.170733
O O1 0.799548 0.720025 0.275474
O O2 0.765192 0.809201 0.808218
O O3 0.000000 0.000000 0.000000
O O4 0.039339 0.828896 0.057639
O O5 0.500000 0.500000 0.500000
O O6 0.552191 0.701224 0.485383
O O7 0.256962 0.508476 0.307265
O O8 0.535422 0.729448 0.052904
O O9 0.155826 0.040999 0.649266
O O10 0.238819 0.872632 0.851369
O O11 0.372375 0.026654 0.052652
O O12 0.839314 0.729357 0.661688
O O13 0.363668 0.825784 0.714647
O O14 0.058495 0.741711 0.580570
O O15 0.327161 0.030059 0.386881
#
# Coordination Sequence:
#
# PCOD8009121 Si02
#       7
#     2   2   2   2   2   2   2
#     4  12  21  32  59  94 123 154 199 254 301 357
#     4   9  22  41  61  88 127 157 199 249 301 364
#     4  11  20  35  59  89 121 151 201 254 304 349
#     4  10  21  36  56  89 125 157 196 248 307 354
#     4  11  22  38  65  87 118 162 203 251 297 353
#     4  11  21  37  59  89 122 161 201 242 299 362
#     4  10  23  41  59  90 119 159 205 250 300 352
#
# _framework density 21.975411000000001
#
# number of rings (size 3 to 8) (size 9 to 14) (size 15 to 20)
#    0.000    1.429    4.286    1.714    0.000    1.143 
#    0.000    4.286    0.000    0.857    0.000    0.000 
#    0.000    0.000    0.000    0.000    0.000    0.000 
#
# Total GULP energy -173471.342805 kJ/mol
# GULP energy per Si atom -12390.810200 kJ/mol
# Density = 2.192539 g / cm^3
# Si number density = 21.975411 Si / 1000 Ang^3
#
#
#
# Elastic Constant Matrix: (Units=GPa)
#
#
# Indices 1 2 3 4 5 6 
#
# 1 63.0030 14.6375 8.5855 4.3593 1.1197 15.4565
# 2 14.6375 84.5935 29.2414 1.0735 -0.0701 12.8010
# 3 8.5855 29.2414 99.4864 6.2517 -4.5925 -7.1192
# 4 4.3593 1.0735 6.2517 36.3666 -1.2296 0.2575
# 5 1.1197 -0.0701 -4.5925 -1.2296 34.5502 8.2099
# 6 15.4565 12.8010 -7.1192 0.2575 8.2099 29.1177
#
#
#
# Elastic Compliance Matrix: (Units=1/GPa)
#
#
# Indices 1 2 3 4 5 6 
#
# 1 0.019058 -0.001011 -0.001918 -0.001797 0.001573 -0.010568
# 2 -0.001011 0.014769 -0.004770 0.000600 0.001226 -0.007473
# 3 -0.001918 -0.004770 0.012171 -0.001759 0.000168 0.006059
# 4 -0.001797 0.000600 -0.001759 0.028029 0.000879 -0.000236
# 5 0.001573 0.001226 0.000168 0.000879 0.031369 -0.010185
# 6 -0.010568 -0.007473 0.006059 -0.000236 -0.010185 0.047594
#
#
# Mechanical properties :
#
#
# Convention : Reuss Voigt Hill
#
# Bulk Modulus (GPa) = 32.67993 39.11239 35.89616
# Shear Modulus (GPa) = 27.99742 32.98148 30.48945
#
# Velocity S-wave (km/s) = 3.57323 3.87826 3.72887
# Velocity P-wave (km/s) = 5.65044 6.15561 5.90842
#
# Compressibility (1/GPa) = 0.03059982
#
# Stress axis : x y z
#
# Youngs Moduli (GPa) = 52.47219 67.70833 82.16296
#
# Poissons Ratio (x) = 0.06847 0.15760
# Poissons Ratio (y) = 0.05306 0.39189
# Poissons Ratio (z) = 0.10065 0.32294
#
# Static dielectric constant tensor:
#      x y z
#    x 3.631140 0.408910 -0.144530 
#    y 0.408910 4.558960 -0.013750 
#    z -0.144530 -0.013750 4.167440 
# 
# 
# High freq. dielectric constant tensor:
#      x y z
#    x 1.833610 0.028300 -0.007070 
#    y 0.028300 1.856700 0.015980 
#    z -0.007070 0.015980 1.866960 
# 
# From -- ./inp_files/81169.got.cif
#   From: 2010.06.25/outbox.cif.g09.slc.cpg/sg2_41_cif.got.tgz:81169.got - 2010.06.27 13:26:56.
