data_PCOD8009867
_publ_section_title
;
Structure prediction by ZEFSAII (Michael W. Deem and Ramdas Pophale) SiO2 
 PCOD8009867
Probable space group: P -1
;
_chemical_formula_sum "Si O2"
_cell_formula_units_Z 14
_cell_length_a 23.939409
_cell_length_b 9.487795
_cell_length_c 9.476611
_cell_angle_alpha 133.028738
_cell_angle_beta 39.725696
_cell_angle_gamma 147.445244
_cell_volume 736.599733
_symmetry_space_group_name_H-M "P -1"
_symmetry_group_IT_number 2
_symmetry_cell_setting 'triclinic'
loop_
_space_group_symop_operation_xyz
x,y,z
-x,-y,-z
loop_
_atom_site_type_symbol
_atom_site_label
_atom_site_fract_x
_atom_site_fract_y
_atom_site_fract_z
Si Si1 0.213990 0.249203 0.079793
Si Si2 0.021530 0.173867 0.241209
Si Si3 0.165906 0.013195 0.310823
Si Si4 0.767708 0.690982 0.351798
Si Si5 0.362301 0.247268 0.580049
Si Si6 0.637080 0.151833 0.828142
Si Si7 0.775012 0.310997 0.948237
O O1 0.109079 0.133340 0.092563
O O2 0.158355 0.090751 0.224262
O O3 0.288741 0.555109 0.172096
O O4 0.297433 0.208888 0.824638
O O5 0.094409 0.447221 0.204112
O O6 0.966139 0.188658 0.501244
O O7 0.910010 0.925418 0.194298
O O8 0.250774 0.273302 0.424954
O O9 0.219490 0.878927 0.106220
O O10 0.687914 0.705457 0.419693
O O11 0.732095 0.415033 0.209238
O O12 0.500000 0.500000 0.500000
O O13 0.341591 0.990131 0.419151
O O14 0.679311 0.149548 0.899074
O O15 0.500000 0.000000 0.000000
#
# Coordination Sequence:
#
# PCOD8009867 Si02
#       7
#     2   2   2   2   2   2   2
#     4  11  23  40  60  92 126 151 197 256 296 345
#     4   9  20  38  61  88 126 157 199 239 293 357
#     4  10  23  36  59  92 128 152 194 246 309 339
#     4  10  21  37  62  88 119 156 205 239 291 356
#     4  12  22  40  65  88 114 158 206 247 291 356
#     4  11  21  39  64  86 112 159 205 243 292 355
#     4  11  19  37  62  88 119 161 203 238 289 362
#
# _framework density 19.006253000000001
#
# number of rings (size 3 to 8) (size 9 to 14) (size 15 to 20)
#    0.857    0.571    5.714    1.286    0.000    1.143 
#    0.000    3.571    0.000    3.429    0.000    0.000 
#    0.000    0.000    0.000    0.000    0.000    0.000 
#
# Total GULP energy -173565.362690 kJ/mol
# GULP energy per Si atom -12397.525906 kJ/mol
# Density = 1.896299 g / cm^3
# Si number density = 19.006253 Si / 1000 Ang^3
#
#
#
# Elastic Constant Matrix: (Units=GPa)
#
#
# Indices 1 2 3 4 5 6 
#
# 1 89.1952 50.2899 24.6100 1.5492 -7.0348 5.8815
# 2 50.2899 65.5560 34.4931 18.1288 -6.2788 7.0636
# 3 24.6100 34.4931 118.9168 28.5628 -12.1078 -5.2107
# 4 1.5492 18.1288 28.5628 33.9731 -1.4168 -4.9592
# 5 -7.0348 -6.2788 -12.1078 -1.4168 33.1173 -0.5542
# 6 5.8815 7.0636 -5.2107 -4.9592 -0.5542 37.7997
#
#
#
# Elastic Compliance Matrix: (Units=1/GPa)
#
#
# Indices 1 2 3 4 5 6 
#
# 1 0.022373 -0.019456 -0.001414 0.010797 0.001032 0.001391
# 2 -0.019456 0.037317 -0.002741 -0.017644 0.001075 -0.006623
# 3 -0.001414 -0.002741 0.011821 -0.008082 0.003179 0.001348
# 4 0.010797 -0.017644 -0.008082 0.046023 -0.001929 0.006513
# 5 0.001032 0.001075 0.003179 -0.001929 0.031703 0.000289
# 6 0.001391 -0.006623 0.001348 0.006513 0.000289 0.028521
#
#
# Mechanical properties :
#
#
# Convention : Reuss Voigt Hill
#
# Bulk Modulus (GPa) = 41.16962 54.71709 47.94335
# Shear Modulus (GPa) = 21.45221 31.92969 26.69095
#
# Velocity S-wave (km/s) = 3.36325 4.10317 3.75150
# Velocity P-wave (km/s) = 6.06548 7.16237 6.63662
#
# Compressibility (1/GPa) = 0.02428976
#
# Stress axis : x y z
#
# Youngs Moduli (GPa) = 44.69618 26.79730 84.59696
#
# Poissons Ratio (x) = 0.52137 0.11962
# Poissons Ratio (y) = 0.86961 0.23186
# Poissons Ratio (z) = 0.06320 0.07344
#
# Static dielectric constant tensor:
#      x y z
#    x 3.406760 0.194010 -0.146090 
#    y 0.194010 3.426160 0.286810 
#    z -0.146090 0.286810 3.776460 
# 
# 
# High freq. dielectric constant tensor:
#      x y z
#    x 1.738570 0.017300 -0.010670 
#    y 0.017300 1.713780 0.015840 
#    z -0.010670 0.015840 1.750590 
# 
# From -- ./inp_files/272493.got.cif
#   From: 2010.06.25/outbox.cif.g09.slc.cpg/sg2_137_cif.got.tgz:272493.got - 2010.06.27 13:26:56.
