data_PCOD8009479
_publ_section_title
;
Structure prediction by ZEFSAII (Michael W. Deem and Ramdas Pophale) SiO2 
 PCOD8009479
Probable space group: P -1
;
_chemical_formula_sum "Si O2"
_cell_formula_units_Z 16
_cell_length_a 11.088862
_cell_length_b 7.611001
_cell_length_c 13.580544
_cell_angle_alpha 124.255239
_cell_angle_beta 65.207663
_cell_angle_gamma 84.668814
_cell_volume 772.987110
_symmetry_space_group_name_H-M "P -1"
_symmetry_group_IT_number 2
_symmetry_cell_setting 'triclinic'
loop_
_space_group_symop_operation_xyz
x,y,z
-x,-y,-z
loop_
_atom_site_type_symbol
_atom_site_label
_atom_site_fract_x
_atom_site_fract_y
_atom_site_fract_z
Si Si1 0.843890 0.683819 0.148994
Si Si2 0.772359 0.393816 0.557324
Si Si3 0.617274 0.651485 0.082163
Si Si4 0.931150 0.854569 0.538285
Si Si5 0.449081 0.176750 0.336938
Si Si6 0.723856 0.213904 0.324603
Si Si7 0.316392 0.663505 0.213386
Si Si8 0.789009 0.637485 0.378701
O O1 0.723808 0.603421 0.123366
O O2 0.824688 0.693094 0.275397
O O3 0.820669 0.933688 0.188427
O O4 0.000000 0.500000 0.000000
O O5 0.690195 0.664683 0.634646
O O6 0.716842 0.248714 0.456537
O O7 0.728549 0.382772 0.679608
O O8 0.952168 0.290059 0.460663
O O9 0.492163 0.571316 0.128487
O O10 0.536762 0.930291 0.174283
O O11 0.712612 0.501811 0.909168
O O12 0.910291 0.664135 0.415702
O O13 0.774185 0.057585 0.697520
O O14 0.000000 0.000000 0.500000
O O15 0.561869 0.292092 0.356755
O O16 0.373927 0.169113 0.466433
O O17 0.798696 0.372459 0.301220
#
# Coordination Sequence:
#
# PCOD8009479 Si02
#       8
#     2   2   2   2   2   2   2   2
#     4  11  26  41  67  91 127 175 212 258 335 379
#     4  10  21  36  66  87 126 163 199 269 313 364
#     4  10  23  39  60  90 123 169 209 258 310 388
#     4  10  21  37  65  94 124 163 214 259 315 379
#     4  10  22  41  62  97 126 157 222 261 318 387
#     4  10  24  41  65 101 125 158 225 268 313 393
#     4  10  21  39  61  89 127 162 214 254 312 386
#     4  11  22  42  67  92 130 164 209 278 318 367
#
# _framework density 20.698922
#
# number of rings (size 3 to 8) (size 9 to 14) (size 15 to 20)
#    0.000    1.750    1.250    3.000    8.750    4.000 
#    0.000    0.000    0.000    0.000    0.000    0.000 
#    0.000    0.000    0.000    0.000    0.000    0.000 
#
# Total GULP energy -198238.809153 kJ/mol
# GULP energy per Si atom -12389.925572 kJ/mol
# Density = 2.065181 g / cm^3
# Si number density = 20.698922 Si / 1000 Ang^3
#
#
#
# Elastic Constant Matrix: (Units=GPa)
#
#
# Indices 1 2 3 4 5 6 
#
# 1 114.3612 36.9714 33.6392 7.9128 3.1136 -16.2393
# 2 36.9714 80.1999 41.4767 5.6156 -1.9498 -8.2827
# 3 33.6392 41.4767 109.7935 11.4889 1.1875 -17.7122
# 4 7.9128 5.6156 11.4889 23.4634 0.7018 0.4090
# 5 3.1136 -1.9498 1.1875 0.7018 35.8406 5.6574
# 6 -16.2393 -8.2827 -17.7122 0.4090 5.6574 40.8291
#
#
#
# Elastic Compliance Matrix: (Units=1/GPa)
#
#
# Indices 1 2 3 4 5 6 
#
# 1 0.011051 -0.004089 -0.001046 -0.002246 -0.001634 0.003361
# 2 -0.004089 0.017078 -0.005311 -0.000143 0.001571 -0.000682
# 3 -0.001046 -0.005311 0.012602 -0.004584 -0.001186 0.004184
# 4 -0.002246 -0.000143 -0.004584 0.045715 -0.000025 -0.003365
# 5 -0.001634 0.001571 -0.001186 -0.000025 0.028935 -0.004855
# 6 0.003361 -0.000682 0.004184 -0.003365 -0.004855 0.028212
#
#
# Mechanical properties :
#
#
# Convention : Reuss Voigt Hill
#
# Bulk Modulus (GPa) = 50.40448 58.72548 54.56498
# Shear Modulus (GPa) = 29.22286 32.84442 31.03364
#
# Velocity S-wave (km/s) = 3.76148 3.98775 3.87626
# Velocity P-wave (km/s) = 6.57792 7.04526 6.81560
#
# Compressibility (1/GPa) = 0.01983951
#
# Stress axis : x y z
#
# Youngs Moduli (GPa) = 90.48993 58.55466 79.34996
#
# Poissons Ratio (x) = 0.23941 0.08304
# Poissons Ratio (y) = 0.36998 0.42142
# Poissons Ratio (z) = 0.09469 0.31098
#
# Static dielectric constant tensor:
#      x y z
#    x 4.323230 -0.237840 -0.201120 
#    y -0.237840 3.724080 0.345280 
#    z -0.201120 0.345280 4.020370 
# 
# 
# High freq. dielectric constant tensor:
#      x y z
#    x 1.831210 -0.000350 0.004680 
#    y -0.000350 1.786770 0.017680 
#    z 0.004680 0.017680 1.804880 
# 
# From -- ./inp_files/513690.got.cif
#   From: 2010.06.25/outbox.cif.g09.slc.cpg/sg2_257_cif.got.tgz:513690.got - 2010.06.27 13:26:56.
