data_PCOD8009674
_publ_section_title
;
Structure prediction by ZEFSAII (Michael W. Deem and Ramdas Pophale) SiO2 
 PCOD8009674
Probable space group: P -1
;
_chemical_formula_sum "Si O2"
_cell_formula_units_Z 14
_cell_length_a 6.558654
_cell_length_b 7.816236
_cell_length_c 18.758546
_cell_angle_alpha 62.757787
_cell_angle_beta 119.325109
_cell_angle_gamma 138.740323
_cell_volume 546.155283
_symmetry_space_group_name_H-M "P -1"
_symmetry_group_IT_number 2
_symmetry_cell_setting 'triclinic'
loop_
_space_group_symop_operation_xyz
x,y,z
-x,-y,-z
loop_
_atom_site_type_symbol
_atom_site_label
_atom_site_fract_x
_atom_site_fract_y
_atom_site_fract_z
Si Si1 0.363762 0.729585 0.999078
Si Si2 0.463515 0.818607 0.588589
Si Si3 0.967702 0.726178 0.337799
Si Si4 0.287832 0.071487 0.660758
Si Si5 0.286802 0.399807 0.412376
Si Si6 0.773794 0.646720 0.165216
Si Si7 0.495635 0.116517 0.166855
O O1 0.563663 0.674524 0.079401
O O2 0.391548 0.746614 0.916177
O O3 0.000000 0.500000 0.000000
O O4 0.500000 0.000000 0.000000
O O5 0.108309 0.544002 0.603794
O O6 0.613645 0.697501 0.613307
O O7 0.500000 0.000000 0.500000
O O8 0.648843 0.017875 0.650796
O O9 0.873253 0.811491 0.371843
O O10 0.796407 0.707788 0.241095
O O11 0.650820 0.341515 0.650504
O O12 0.296361 0.945932 0.756845
O O13 0.097340 0.861115 0.600912
O O14 0.500000 0.500000 0.500000
O O15 0.584795 0.340874 0.190979
O O16 0.125957 0.848254 0.152790
#
# Coordination Sequence:
#
# PCOD8009674 Si02
#       7
#     2   2   2   2   2   2   2
#     4  12  26  46  72  98 130 176 214 256 320 396
#     4  10  21  37  59  87 122 163 213 268 317 374
#     4  10  22  40  61  88 124 169 214 259 318 387
#     4  10  22  40  61  88 124 169 214 259 318 387
#     4  10  21  37  59  87 122 163 213 268 317 374
#     4  12  25  43  67 100 134 167 213 273 323 376
#     4  12  25  43  67 100 134 167 213 273 323 376
#
# _framework density 25.633734
#
# number of rings (size 3 to 8) (size 9 to 14) (size 15 to 20)
#    0.000    1.143    0.000    6.000    0.000    6.857 
#    0.000    0.000    0.000    0.000    0.000    0.000 
#    0.000    0.000    0.000    0.000    0.000    0.000 
#
# Total GULP energy -173492.507351 kJ/mol
# GULP energy per Si atom -12392.321954 kJ/mol
# Density = 2.557539 g / cm^3
# Si number density = 25.633734 Si / 1000 Ang^3
#
#
#
# Elastic Constant Matrix: (Units=GPa)
#
#
# Indices 1 2 3 4 5 6 
#
# 1 19.0365 48.1345 15.3133 -2.1818 3.9677 6.6300
# 2 48.1345 256.8899 89.3462 -5.3734 12.1059 3.8723
# 3 15.3133 89.3462 194.1668 -1.3479 4.3718 1.0571
# 4 -2.1818 -5.3734 -1.3479 50.5121 -2.6343 0.4882
# 5 3.9677 12.1059 4.3718 -2.6343 37.6717 -0.1499
# 6 6.6300 3.8723 1.0571 0.4882 -0.1499 47.9978
#
#
#
# Elastic Compliance Matrix: (Units=1/GPa)
#
#
# Indices 1 2 3 4 5 6 
#
# 1 0.109038 -0.020265 0.000928 0.002450 -0.004962 -0.013488
# 2 -0.020265 0.008473 -0.002306 -0.000073 -0.000317 0.002166
# 3 0.000928 -0.002306 0.006140 -0.000044 -0.000073 -0.000077
# 4 0.002450 -0.000073 -0.000044 0.019960 0.001164 -0.000531
# 5 -0.004962 -0.000317 -0.000073 0.001164 0.027263 0.000786
# 6 -0.013488 0.002166 -0.000077 -0.000531 0.000786 0.022532
#
#
# Mechanical properties :
#
#
# Convention : Reuss Voigt Hill
#
# Bulk Modulus (GPa) = 12.44337 86.18680 49.31508
# Shear Modulus (GPa) = 18.97686 48.38960 33.68323
#
# Velocity S-wave (km/s) = 2.72381 4.34952 3.62887
# Velocity P-wave (km/s) = 3.84149 7.67592 6.06947
#
# Compressibility (1/GPa) = 0.08036411
#
# Stress axis : x y z
#
# Youngs Moduli (GPa) = 9.17113 118.02872 162.87448
#
# Poissons Ratio (x) = 2.39187 -0.15110
# Poissons Ratio (y) = 0.18585 0.37552
# Poissons Ratio (z) = -0.00851 0.27212
#
# Static dielectric constant tensor:
#      x y z
#    x 4.712010 0.325710 0.130690 
#    y 0.325710 6.349550 0.302590 
#    z 0.130690 0.302590 4.654210 
# 
# 
# High freq. dielectric constant tensor:
#      x y z
#    x 2.026140 -0.005650 0.001930 
#    y -0.005650 2.080040 -0.003980 
#    z 0.001930 -0.003980 2.018620 
# 
# From -- ./inp_files/328291.got.cif
#   From: 2010.06.25/outbox.cif.g09.slc.cpg/sg2_165_cif.got.tgz:328291.got - 2010.06.27 13:26:56.
