data_PCOD8009610
_publ_section_title
;
Structure prediction by ZEFSAII (Michael W. Deem and Ramdas Pophale) SiO2 
 PCOD8009610
Probable space group: P -1
;
_chemical_formula_sum "Si O2"
_cell_formula_units_Z 16
_cell_length_a 6.356469
_cell_length_b 5.460902
_cell_length_c 23.059218
_cell_angle_alpha 87.845847
_cell_angle_beta 106.003896
_cell_angle_gamma 54.408148
_cell_volume 605.256225
_symmetry_space_group_name_H-M "P -1"
_symmetry_group_IT_number 2
_symmetry_cell_setting 'triclinic'
loop_
_space_group_symop_operation_xyz
x,y,z
-x,-y,-z
loop_
_atom_site_type_symbol
_atom_site_label
_atom_site_fract_x
_atom_site_fract_y
_atom_site_fract_z
Si Si1 0.796829 0.274312 0.925231
Si Si2 0.752558 0.391172 0.192156
Si Si3 0.627703 0.834087 0.656268
Si Si4 0.850828 0.834065 0.156275
Si Si5 0.329423 0.146190 0.044132
Si Si6 0.220709 0.725708 0.574770
Si Si7 0.387344 0.853797 0.455871
Si Si8 0.759341 0.608836 0.307837
O O1 0.488369 0.467598 0.874546
O O2 0.835392 0.479172 0.970807
O O3 0.012607 0.179642 0.892538
O O4 0.860244 0.969539 0.964113
O O5 0.944658 0.498890 0.189749
O O6 0.649970 0.500043 0.249986
O O7 0.910428 0.017481 0.204663
O O8 0.407209 0.820413 0.607443
O O9 0.682959 0.029379 0.617251
O O10 0.936002 0.498901 0.689740
O O11 0.481476 0.017479 0.704658
O O12 0.522233 0.029351 0.117252
O O13 0.500000 0.000000 0.000000
O O14 0.206975 0.532458 0.625474
O O15 0.901567 0.030459 0.535886
O O16 0.372939 0.520837 0.529191
O O17 0.500000 0.000000 0.500000
#
# Coordination Sequence:
#
# PCOD8009610 Si02
#       8
#     2   2   2   2   2   2   2   2
#     4  10  21  38  58  83 120 152 200 250 302 366
#     4  10  23  38  58  86 116 156 203 253 305 371
#     4  10  22  39  58  86 119 154 202 251 305 368
#     4  10  22  39  58  86 119 154 202 251 305 368
#     4  10  21  37  58  87 118 154 198 248 302 369
#     4  10  21  38  58  83 120 152 200 250 302 366
#     4  10  21  37  58  87 118 154 198 248 302 369
#     4  10  23  38  58  86 116 156 203 253 305 371
#
# _framework density 26.435086999999999
#
# number of rings (size 3 to 8) (size 9 to 14) (size 15 to 20)
#    0.000    2.000    0.000    2.250    3.500    3.000 
#    0.000    0.000    0.000    0.000    0.000    0.000 
#    0.000    0.000    0.000    0.000    0.000    0.000 
#
# Total GULP energy -198239.670259 kJ/mol
# GULP energy per Si atom -12389.979391 kJ/mol
# Density = 2.637492 g / cm^3
# Si number density = 26.435087 Si / 1000 Ang^3
#
#
#
# Elastic Constant Matrix: (Units=GPa)
#
#
# Indices 1 2 3 4 5 6 
#
# 1 165.2733 84.3492 46.2296 29.5181 3.9425 2.9380
# 2 84.3492 165.9552 61.3749 60.0572 2.3625 0.5356
# 3 46.2296 61.3749 96.9841 47.5511 4.2563 2.0164
# 4 29.5181 60.0572 47.5511 56.4343 2.5544 1.8462
# 5 3.9425 2.3625 4.2563 2.5544 31.0325 14.3833
# 6 2.9380 0.5356 2.0164 1.8462 14.3833 46.7692
#
#
#
# Elastic Compliance Matrix: (Units=1/GPa)
#
#
# Indices 1 2 3 4 5 6 
#
# 1 0.008496 -0.004162 -0.002381 0.002023 -0.000452 -0.000324
# 2 -0.004162 0.012044 -0.000733 -0.010052 0.000331 0.000450
# 3 -0.002381 -0.000733 0.018644 -0.013638 -0.001197 0.000261
# 4 0.002023 -0.010052 -0.013638 0.038897 -0.000441 -0.000824
# 5 -0.000452 0.000331 -0.001197 -0.000441 0.037802 -0.011532
# 6 -0.000324 0.000450 0.000261 -0.000824 -0.011532 0.024965
#
#
# Mechanical properties :
#
#
# Convention : Reuss Voigt Hill
#
# Bulk Modulus (GPa) = 40.60017 90.23557 65.41787
# Shear Modulus (GPa) = 30.56043 42.59779 36.57911
#
# Velocity S-wave (km/s) = 3.40377 4.01859 3.72389
# Velocity P-wave (km/s) = 5.55332 7.46599 6.57953
#
# Compressibility (1/GPa) = 0.02463044
#
# Stress axis : x y z
#
# Youngs Moduli (GPa) = 117.70053 83.02922 53.63786
#
# Poissons Ratio (x) = 0.34559 0.12772
# Poissons Ratio (y) = 0.48990 0.03933
# Poissons Ratio (z) = 0.28025 0.06088
#
# Static dielectric constant tensor:
#      x y z
#    x 5.222750 0.029370 0.008950 
#    y 0.029370 5.473160 0.180790 
#    z 0.008950 0.180790 4.920970 
# 
# 
# High freq. dielectric constant tensor:
#      x y z
#    x 2.063390 0.001120 0.000270 
#    y 0.001120 2.075070 -0.000400 
#    z 0.000270 -0.000400 2.074630 
# 
# From -- ./inp_files/12897.got.cif
#   From: 2010.06.25/outbox.cif.g09.slc.cpg/sg2_7_cif.got.tgz:12897.got - 2010.06.27 13:26:56.
