data_PCOD8009888
_publ_section_title
;
Structure prediction by ZEFSAII (Michael W. Deem and Ramdas Pophale) SiO2 
 PCOD8009888
Probable space group: P -1
;
_chemical_formula_sum "Si O2"
_cell_formula_units_Z 14
_cell_length_a 12.704409
_cell_length_b 17.022579
_cell_length_c 5.297090
_cell_angle_alpha 117.913979
_cell_angle_beta 123.755636
_cell_angle_gamma 42.139479
_cell_volume 635.781758
_symmetry_space_group_name_H-M "P -1"
_symmetry_group_IT_number 2
_symmetry_cell_setting 'triclinic'
loop_
_space_group_symop_operation_xyz
x,y,z
-x,-y,-z
loop_
_atom_site_type_symbol
_atom_site_label
_atom_site_fract_x
_atom_site_fract_y
_atom_site_fract_z
Si Si1 0.990023 0.244681 0.436388
Si Si2 0.109189 0.784121 0.232428
Si Si3 0.320008 0.549058 0.916583
Si Si4 0.423511 0.308068 0.784935
Si Si5 0.607632 0.003038 0.951462
Si Si6 0.286785 0.192816 0.516432
Si Si7 0.638250 0.181195 0.379954
O O1 0.003699 0.185221 0.626609
O O2 0.815046 0.379824 0.385798
O O3 0.148087 0.240220 0.620639
O O4 0.999311 0.170006 0.102033
O O5 0.189757 0.844090 0.456316
O O6 0.256374 0.641267 0.199572
O O7 0.323497 0.446111 0.854927
O O8 0.500000 0.500000 0.000000
O O9 0.280909 0.296048 0.555527
O O10 0.550570 0.244815 0.623941
O O11 0.518343 0.260789 0.107245
O O12 0.480439 0.095667 0.707748
O O13 0.745278 0.869934 0.828844
O O14 0.692186 0.052163 0.257094
O O15 0.500000 0.000000 0.000000
#
# Coordination Sequence:
#
# PCOD8009888 Si02
#       7
#     2   2   2   2   2   2   2
#     4  10  24  39  61  85 133 159 190 249 296 356
#     4  10  22  39  58  88 123 161 195 242 295 351
#     4  10  21  37  62  91 119 164 200 238 293 354
#     4  11  22  34  63  90 120 156 198 253 288 354
#     4  10  21  39  69  85 113 159 203 254 298 356
#     4  10  23  42  58  93 120 156 202 247 308 351
#     4  11  21  38  61  93 117 150 208 251 293 348
#
# _framework density 22.020135
#
# number of rings (size 3 to 8) (size 9 to 14) (size 15 to 20)
#    0.857    0.857    2.857    1.714    4.000    1.714 
#    0.000    2.143    0.000    0.000    0.000    0.000 
#    0.000    0.000    0.000    0.000    0.000    0.000 
#
# Total GULP energy -173472.840177 kJ/mol
# GULP energy per Si atom -12390.917156 kJ/mol
# Density = 2.197002 g / cm^3
# Si number density = 22.020135 Si / 1000 Ang^3
#
#
#
# Elastic Constant Matrix: (Units=GPa)
#
#
# Indices 1 2 3 4 5 6 
#
# 1 166.0052 18.7311 41.5122 16.3660 7.8661 9.9243
# 2 18.7311 40.2126 23.7629 21.1047 15.0926 14.9260
# 3 41.5122 23.7629 81.8059 12.9706 1.5252 13.9569
# 4 16.3660 21.1047 12.9706 32.5370 10.5166 11.5743
# 5 7.8661 15.0926 1.5252 10.5166 48.5993 3.6441
# 6 9.9243 14.9260 13.9569 11.5743 3.6441 35.3454
#
#
#
# Elastic Compliance Matrix: (Units=1/GPa)
#
#
# Indices 1 2 3 4 5 6 
#
# 1 0.007069 -0.000137 -0.003228 -0.002021 -0.000568 0.000068
# 2 -0.000137 0.048257 -0.008853 -0.021537 -0.009364 -0.008826
# 3 -0.003228 -0.008853 0.016692 0.000687 0.002784 -0.002458
# 4 -0.002021 -0.021537 0.000687 0.048652 -0.003068 -0.006225
# 5 -0.000568 -0.009364 0.002784 -0.003068 0.024037 0.001541
# 6 0.000068 -0.008826 -0.002458 -0.006225 0.001541 0.034851
#
#
# Mechanical properties :
#
#
# Convention : Reuss Voigt Hill
#
# Bulk Modulus (GPa) = 21.01617 50.67069 35.84343
# Shear Modulus (GPa) = 22.74244 36.89750 29.81997
#
# Velocity S-wave (km/s) = 3.21721 4.09788 3.68396
# Velocity P-wave (km/s) = 4.83377 6.74175 5.86586
#
# Compressibility (1/GPa) = 0.04758241
#
# Stress axis : x y z
#
# Youngs Moduli (GPa) = 141.47135 20.72258 59.90771
#
# Poissons Ratio (x) = 0.00283 0.19337
# Poissons Ratio (y) = 0.01932 0.53037
# Poissons Ratio (z) = 0.45665 0.18346
#
# Static dielectric constant tensor:
#      x y z
#    x 4.000330 0.091140 0.184790 
#    y 0.091140 3.715330 0.455550 
#    z 0.184790 0.455550 3.963970 
# 
# 
# High freq. dielectric constant tensor:
#      x y z
#    x 1.879010 0.007210 0.005890 
#    y 0.007210 1.842030 0.009250 
#    z 0.005890 0.009250 1.864450 
# 
# From -- ./inp_files/81631.got.cif
#   From: 2010.06.25/outbox.cif.g09.slc.cpg/sg2_41_cif.got.tgz:81631.got - 2010.06.27 13:26:56.
