data_PCOD8009238
_publ_section_title
;
Structure prediction by ZEFSAII (Michael W. Deem and Ramdas Pophale) SiO2 
 PCOD8009238
Probable space group: P -1
;
_chemical_formula_sum "Si O2"
_cell_formula_units_Z 16
_cell_length_a 13.865789
_cell_length_b 8.256367
_cell_length_c 11.773400
_cell_angle_alpha 123.142454
_cell_angle_beta 51.591793
_cell_angle_gamma 124.330499
_cell_volume 831.058682
_symmetry_space_group_name_H-M "P -1"
_symmetry_group_IT_number 2
_symmetry_cell_setting 'triclinic'
loop_
_space_group_symop_operation_xyz
x,y,z
-x,-y,-z
loop_
_atom_site_type_symbol
_atom_site_label
_atom_site_fract_x
_atom_site_fract_y
_atom_site_fract_z
Si Si1 0.758703 0.317169 0.153975
Si Si2 0.567995 0.030953 0.338733
Si Si3 0.404647 0.264598 0.454135
Si Si4 0.327385 0.096421 0.212883
Si Si5 0.837989 0.774042 0.241205
Si Si6 0.275378 0.259185 0.929419
Si Si7 0.387352 0.719990 0.983365
Si Si8 0.125268 0.005845 0.142178
O O1 0.700856 0.227413 0.287304
O O2 0.844811 0.555761 0.194940
O O3 0.643227 0.295737 0.136808
O O4 0.852482 0.201626 0.993961
O O5 0.468553 0.085967 0.348042
O O6 0.500000 0.000000 0.500000
O O7 0.604765 0.831169 0.203102
O O8 0.500000 0.500000 0.500000
O O9 0.341710 0.243335 0.367255
O O10 0.288266 0.193580 0.601479
O O11 0.456638 0.186739 0.074613
O O12 0.198070 0.094850 0.240564
O O13 0.316109 0.859409 0.153923
O O14 0.822259 0.790848 0.124842
O O15 0.970251 0.953275 0.252089
O O16 0.340516 0.500600 0.992666
O O17 0.182406 0.179707 0.073688
#
# Coordination Sequence:
#
# PCOD8009238 Si02
#       8
#     2   2   2   2   2   2   2   2
#     4   9  18  35  58  84 110 145 196 235 272 332
#     4  11  20  33  55  93 116 136 187 245 292 323
#     4  12  22  39  62  84 111 148 192 240 285 341
#     4  10  21  37  57  84 116 147 195 232 277 347
#     4  11  20  36  60  81 117 158 187 227 279 343
#     4  10  21  36  59  89 117 145 190 240 286 328
#     4   9  18  36  60  83 112 150 183 240 289 320
#     4  10  22  36  55  87 116 152 190 232 282 334
#
# _framework density 19.252552000000001
#
# number of rings (size 3 to 8) (size 9 to 14) (size 15 to 20)
#    0.000    1.750    3.750    1.500    1.750    1.000 
#    0.000    0.000    0.000    0.750    0.000    0.000 
#    0.000    0.000    0.000    0.000    0.000    0.000 
#
# Total GULP energy -198251.217134 kJ/mol
# GULP energy per Si atom -12390.701071 kJ/mol
# Density = 1.920873 g / cm^3
# Si number density = 19.252552 Si / 1000 Ang^3
#
#
#
# Elastic Constant Matrix: (Units=GPa)
#
#
# Indices 1 2 3 4 5 6 
#
# 1 88.1481 55.6664 24.0203 -0.4588 -1.3372 11.2054
# 2 55.6664 130.3477 43.8072 -1.1528 -0.8108 -4.8155
# 3 24.0203 43.8072 62.8435 -8.0573 9.9075 5.9293
# 4 -0.4588 -1.1528 -8.0573 23.1692 7.1596 0.6043
# 5 -1.3372 -0.8108 9.9075 7.1596 27.3301 -2.3535
# 6 11.2054 -4.8155 5.9293 0.6043 -2.3535 31.7636
#
#
#
# Elastic Compliance Matrix: (Units=1/GPa)
#
#
# Indices 1 2 3 4 5 6 
#
# 1 0.017038 -0.007213 -0.000945 -0.000310 0.000450 -0.006889
# 2 -0.007213 0.014026 -0.009011 -0.004316 0.005047 0.006809
# 3 -0.000945 -0.009011 0.027287 0.013676 -0.014430 -0.007456
# 4 -0.000310 -0.004316 0.013676 0.053932 -0.019710 -0.005584
# 5 0.000450 0.005047 -0.014430 -0.019710 0.047777 0.007215
# 6 -0.006889 0.006809 -0.007456 -0.005584 0.007215 0.036978
#
#
# Mechanical properties :
#
#
# Convention : Reuss Voigt Hill
#
# Bulk Modulus (GPa) = 41.64587 58.70299 50.17443
# Shear Modulus (GPa) = 20.88721 26.97560 23.93140
#
# Velocity S-wave (km/s) = 3.29736 3.74725 3.52948
# Velocity P-wave (km/s) = 6.01458 7.01995 6.53662
#
# Compressibility (1/GPa) = 0.02401198
#
# Stress axis : x y z
#
# Youngs Moduli (GPa) = 58.69199 71.29827 36.64714
#
# Poissons Ratio (x) = 0.51429 0.03463
# Poissons Ratio (y) = 0.42336 0.33024
# Poissons Ratio (z) = 0.05546 0.64250
#
# Static dielectric constant tensor:
#      x y z
#    x 3.473720 -0.164000 -0.029170 
#    y -0.164000 3.560040 -0.038790 
#    z -0.029170 -0.038790 3.358310 
# 
# 
# High freq. dielectric constant tensor:
#      x y z
#    x 1.737670 -0.011520 -0.005130 
#    y -0.011520 1.748020 -0.008420 
#    z -0.005130 -0.008420 1.730800 
# 
# From -- ./inp_files/269586.got.cif
#   From: 2010.06.25/outbox.cif.g09.slc.cpg/sg2_135_cif.got.tgz:269586.got - 2010.06.27 13:26:56.
