data_PCOD8009526
_publ_section_title
;
Structure prediction by ZEFSAII (Michael W. Deem and Ramdas Pophale) SiO2 
 PCOD8009526
Probable space group: P -1
;
_chemical_formula_sum "Si O2"
_cell_formula_units_Z 16
_cell_length_a 22.398461
_cell_length_b 6.970445
_cell_length_c 5.218221
_cell_angle_alpha 79.330026
_cell_angle_beta 65.591854
_cell_angle_gamma 102.924075
_cell_volume 686.826107
_symmetry_space_group_name_H-M "P -1"
_symmetry_group_IT_number 2
_symmetry_cell_setting 'triclinic'
loop_
_space_group_symop_operation_xyz
x,y,z
-x,-y,-z
loop_
_atom_site_type_symbol
_atom_site_label
_atom_site_fract_x
_atom_site_fract_y
_atom_site_fract_z
Si Si1 0.676908 0.307209 0.153756
Si Si2 0.171912 0.791528 0.662711
Si Si3 0.323303 0.940050 0.282347
Si Si4 0.030347 0.246735 0.418175
Si Si5 0.172177 0.539112 0.222368
Si Si6 0.466470 0.686819 0.726802
Si Si7 0.971615 0.190580 0.035872
Si Si8 0.468623 0.243918 0.905412
O O1 0.669572 0.224554 0.478696
O O2 0.614960 0.394494 0.179990
O O3 0.672716 0.129293 0.999252
O O4 0.751978 0.487744 0.936589
O O5 0.247953 0.968853 0.448987
O O6 0.162702 0.615519 0.506065
O O7 0.110325 0.889427 0.728397
O O8 0.167109 0.703235 0.979286
O O9 0.387279 0.152406 0.147539
O O10 0.112057 0.321247 0.324505
O O11 0.015098 0.340133 0.151507
O O12 0.000000 0.000000 0.500000
O O13 0.988272 0.314753 0.705527
O O14 0.491645 0.490583 0.768504
O O15 0.511581 0.836564 0.382806
O O16 0.484764 0.809195 0.936570
O O17 0.000000 0.000000 0.000000
#
# Coordination Sequence:
#
# PCOD8009526 Si02
#       8
#     2   2   2   2   2   2   2   2
#     4  10  21  37  58  85 116 148 192 236 282 338
#     4  10  21  37  58  83 114 150 187 234 287 339
#     4  10  21  37  58  85 116 148 192 236 282 338
#     4  10  21  37  56  81 114 143 185 239 275 340
#     4  10  21  37  58  83 114 150 187 234 287 339
#     4  10  21  37  57  83 118 152 191 233 280 334
#     4  10  21  37  56  81 114 143 185 239 275 340
#     4  10  21  37  57  83 118 152 191 233 280 334
#
# _framework density 23.295563000000001
#
# number of rings (size 3 to 8) (size 9 to 14) (size 15 to 20)
#    0.000    2.000    0.000    3.000    0.000    6.000 
#    4.500    0.000   11.000    0.000    0.000    0.000 
#    0.000    0.000    0.000    0.000    0.000    0.000 
#
# Total GULP energy -198263.415191 kJ/mol
# GULP energy per Si atom -12391.463449 kJ/mol
# Density = 2.324254 g / cm^3
# Si number density = 23.295563 Si / 1000 Ang^3
#
#
#
# Elastic Constant Matrix: (Units=GPa)
#
#
# Indices 1 2 3 4 5 6 
#
# 1 157.0738 26.2706 77.8891 5.4116 -24.9464 36.7818
# 2 26.2706 33.3369 36.1725 -1.1617 -2.7818 28.1800
# 3 77.8891 36.1725 160.1001 11.6588 -4.4836 28.4055
# 4 5.4116 -1.1617 11.6588 35.7437 19.9171 -4.3665
# 5 -24.9464 -2.7818 -4.4836 19.9171 58.7872 1.3654
# 6 36.7818 28.1800 28.4055 -4.3665 1.3654 38.5436
#
#
#
# Elastic Compliance Matrix: (Units=1/GPa)
#
#
# Indices 1 2 3 4 5 6 
#
# 1 0.012360 0.009504 -0.004555 -0.006500 0.007931 -0.016404
# 2 0.009504 0.100149 -0.012940 -0.010293 0.013000 -0.074380
# 3 -0.004555 -0.012940 0.010404 -0.001649 -0.001332 0.006001
# 4 -0.006500 -0.010293 -0.001649 0.041648 -0.017953 0.020298
# 5 0.007931 0.013000 -0.001332 -0.017953 0.027415 -0.019096
# 6 -0.016404 -0.074380 0.006001 0.020298 -0.019096 0.094534
#
#
# Mechanical properties :
#
#
# Convention : Reuss Voigt Hill
#
# Bulk Modulus (GPa) = 9.35191 70.13059 39.74125
# Shear Modulus (GPa) = 14.78696 40.62681 27.70689
#
# Velocity S-wave (km/s) = 2.52217 4.18062 3.45246
# Velocity P-wave (km/s) = 3.53623 7.31256 5.74362
#
# Compressibility (1/GPa) = 0.10693005
#
# Stress axis : x y z
#
# Youngs Moduli (GPa) = 80.90399 9.98515 96.11888
#
# Poissons Ratio (x) = -0.09490 0.43778
# Poissons Ratio (y) = -0.76888 1.24382
# Poissons Ratio (z) = 0.36848 0.12921
#
# Static dielectric constant tensor:
#      x y z
#    x 3.225690 0.307940 -1.544610 
#    y 0.307940 3.649320 -0.032780 
#    z -1.544610 -0.032780 2.772570 
# 
# 
# High freq. dielectric constant tensor:
#      x y z
#    x 1.933300 0.033110 0.008620 
#    y 0.033110 1.878870 0.014660 
#    z 0.008620 0.014660 1.951700 
# 
# From -- ./inp_files/116010.got.cif
#   From: 2010.06.25/outbox.cif.g09.slc.cpg/sg2_59_cif.got.tgz:116010.got - 2010.06.27 13:26:56.
