data_PCOD8009854
_publ_section_title
;
Structure prediction by ZEFSAII (Michael W. Deem and Ramdas Pophale) SiO2 
 PCOD8009854
Probable space group: P -1
;
_chemical_formula_sum "Si O2"
_cell_formula_units_Z 14
_cell_length_a 15.139120
_cell_length_b 21.206467
_cell_length_c 13.787184
_cell_angle_alpha 156.441649
_cell_angle_beta 28.535954
_cell_angle_gamma 154.355657
_cell_volume 730.016533
_symmetry_space_group_name_H-M "P -1"
_symmetry_group_IT_number 2
_symmetry_cell_setting 'triclinic'
loop_
_space_group_symop_operation_xyz
x,y,z
-x,-y,-z
loop_
_atom_site_type_symbol
_atom_site_label
_atom_site_fract_x
_atom_site_fract_y
_atom_site_fract_z
Si Si1 0.259037 0.473203 0.523136
Si Si2 0.528477 0.060142 0.707327
Si Si3 0.454302 0.454625 0.827525
Si Si4 0.199899 0.583482 0.141629
Si Si5 0.895542 0.945223 0.918786
Si Si6 0.747266 0.395186 0.085488
Si Si7 0.684915 0.793639 0.213125
O O1 0.437311 0.577174 0.415806
O O2 0.353794 0.567312 0.669211
O O3 0.052181 0.487536 0.712482
O O4 0.209296 0.269022 0.296230
O O5 0.668300 0.192187 0.667809
O O6 0.533687 0.874050 0.443058
O O7 0.633756 0.174882 0.868071
O O8 0.282011 0.998252 0.844415
O O9 0.353140 0.271718 0.730990
O O10 0.264305 0.495797 0.042871
O O11 0.636566 0.625550 0.952506
O O12 0.279204 0.529504 0.888260
O O13 0.070080 0.048900 0.813181
O O14 0.000000 0.000000 0.000000
O O15 0.000000 0.500000 0.000000
#
# Coordination Sequence:
#
# PCOD8009854 Si02
#       7
#     2   2   2   2   2   2   2
#     4  11  19  37  64  88 116 148 202 244 285 351
#     4  10  21  37  62  86 115 158 191 247 296 330
#     4  11  24  37  56  87 119 163 189 237 302 346
#     4   9  19  35  60  89 109 148 197 241 286 338
#     4  12  22  35  60  93 113 153 204 238 289 351
#     4   8  17  36  62  91 113 147 201 250 286 333
#     4  11  24  40  53  84 132 150 193 247 288 353
#
# _framework density 19.177645999999999
#
# number of rings (size 3 to 8) (size 9 to 14) (size 15 to 20)
#    0.857    0.857    4.286    0.000    2.000    4.571 
#    0.000    3.571    0.000   10.286    0.000    0.000 
#    0.000    0.000    0.000    0.000    0.000    0.000 
#
# Total GULP energy -173474.838930 kJ/mol
# GULP energy per Si atom -12391.059924 kJ/mol
# Density = 1.913400 g / cm^3
# Si number density = 19.177646 Si / 1000 Ang^3
#
#
#
# Elastic Constant Matrix: (Units=GPa)
#
#
# Indices 1 2 3 4 5 6 
#
# 1 66.9737 39.5087 22.6354 -4.2883 -16.6248 -14.6417
# 2 39.5087 99.5474 35.5926 -12.1849 -7.0540 -21.7357
# 3 22.6354 35.5926 78.5167 -10.2825 -5.5692 -13.4842
# 4 -4.2883 -12.1849 -10.2825 22.4918 -1.9393 0.3116
# 5 -16.6248 -7.0540 -5.5692 -1.9393 36.8177 -0.0461
# 6 -14.6417 -21.7357 -13.4842 0.3116 -0.0461 30.7668
#
#
#
# Elastic Compliance Matrix: (Units=1/GPa)
#
#
# Indices 1 2 3 4 5 6 
#
# 1 0.022835 -0.006456 -0.002019 0.000618 0.008808 0.005428
# 2 -0.006456 0.016011 -0.003509 0.005741 -0.000068 0.006642
# 3 -0.002019 -0.003509 0.016302 0.005216 0.001161 0.003654
# 4 0.000618 0.005741 0.005216 0.050405 0.004830 0.006132
# 5 0.008808 -0.000068 0.001161 0.004830 0.031561 0.004651
# 6 0.005428 0.006642 0.003654 0.006132 0.004651 0.041325
#
#
# Mechanical properties :
#
#
# Convention : Reuss Voigt Hill
#
# Bulk Modulus (GPa) = 32.07177 48.94571 40.50874
# Shear Modulus (GPa) = 23.49654 27.83533 25.66594
#
# Velocity S-wave (km/s) = 3.50409 3.81392 3.66228
# Velocity P-wave (km/s) = 5.75598 6.70614 6.24915
#
# Compressibility (1/GPa) = 0.03118007
#
# Stress axis : x y z
#
# Youngs Moduli (GPa) = 43.79330 62.45876 61.34336
#
# Poissons Ratio (x) = 0.40324 0.12382
# Poissons Ratio (y) = 0.28273 0.21524
# Poissons Ratio (z) = 0.08840 0.21916
#
# Static dielectric constant tensor:
#      x y z
#    x 3.555200 -0.053670 0.360780 
#    y -0.053670 3.306020 0.088660 
#    z 0.360780 0.088660 3.328610 
# 
# 
# High freq. dielectric constant tensor:
#      x y z
#    x 1.747770 0.008650 0.000600 
#    y 0.008650 1.720870 -0.012470 
#    z 0.000600 -0.012470 1.740460 
# 
# From -- ./inp_files/456821.got.cif
#   From: 2010.06.25/outbox.cif.g09.slc.cpg/sg2_229_cif.got.tgz:456821.got - 2010.06.27 13:26:56.
