data_PCOD8009012
_publ_section_title
;
Structure prediction by ZEFSAII (Michael W. Deem and Ramdas Pophale) SiO2 
 PCOD8009012
Probable space group: P -1
;
_chemical_formula_sum "Si O2"
_cell_formula_units_Z 14
_cell_length_a 8.845179
_cell_length_b 9.398646
_cell_length_c 11.604857
_cell_angle_alpha 93.589859
_cell_angle_beta 141.150186
_cell_angle_gamma 101.372114
_cell_volume 555.419665
_symmetry_space_group_name_H-M "P -1"
_symmetry_group_IT_number 2
_symmetry_cell_setting 'triclinic'
loop_
_space_group_symop_operation_xyz
x,y,z
-x,-y,-z
loop_
_atom_site_type_symbol
_atom_site_label
_atom_site_fract_x
_atom_site_fract_y
_atom_site_fract_z
Si Si1 0.638654 0.605417 0.479246
Si Si2 0.153708 0.037257 0.210413
Si Si3 0.262281 0.759468 0.202082
Si Si4 0.406008 0.703745 0.622075
Si Si5 0.900670 0.613786 0.172911
Si Si6 0.357060 0.153022 0.996560
Si Si7 0.791933 0.272240 0.095800
O O1 0.500000 0.500000 0.500000
O O2 0.518628 0.721362 0.361944
O O3 0.611294 0.468283 0.363977
O O4 0.938145 0.713923 0.686005
O O5 0.302476 0.918791 0.301856
O O6 0.373594 0.214031 0.346185
O O7 0.919554 0.999309 0.166210
O O8 0.000000 0.000000 0.000000
O O9 0.020336 0.625136 0.114962
O O10 0.198359 0.776406 0.032440
O O11 0.484372 0.812426 0.786267
O O12 0.128808 0.690697 0.406994
O O13 0.749448 0.431424 0.094651
O O14 0.703805 0.698512 0.065987
O O15 0.548520 0.137139 0.009162
#
# Coordination Sequence:
#
# PCOD8009012 Si02
#       7
#     2   2   2   2   2   2   2
#     4  11  23  38  65  99 118 162 208 260 313 352
#     4   9  22  41  67  90 120 172 210 253 303 367
#     4  11  22  39  65  95 123 162 210 257 305 369
#     4  10  21  41  64  89 126 157 217 256 295 378
#     4  10  21  35  63  92 116 165 209 252 315 356
#     4  10  22  38  60  93 124 167 200 257 317 362
#     4  11  23  37  61  94 131 157 203 264 314 366
#
# _framework density 25.206164999999999
#
# number of rings (size 3 to 8) (size 9 to 14) (size 15 to 20)
#    0.000    1.714    2.857    1.714    6.000    5.714 
#    0.000    2.857    0.000    5.143    0.000    0.000 
#    0.000    0.000    0.000    0.000    0.000    0.000 
#
# Total GULP energy -173534.835915 kJ/mol
# GULP energy per Si atom -12395.345423 kJ/mol
# Density = 2.514879 g / cm^3
# Si number density = 25.206165 Si / 1000 Ang^3
#
#
#
# Elastic Constant Matrix: (Units=GPa)
#
#
# Indices 1 2 3 4 5 6 
#
# 1 86.8845 14.3995 31.9857 5.2203 15.4307 29.1524
# 2 14.3995 96.2129 43.6172 14.4720 17.2656 15.5055
# 3 31.9857 43.6172 72.6749 17.9818 0.3738 11.1484
# 4 5.2203 14.4720 17.9818 29.6808 0.1290 4.2055
# 5 15.4307 17.2656 0.3738 0.1290 32.9042 3.9257
# 6 29.1524 15.5055 11.1484 4.2055 3.9257 18.3080
#
#
#
# Elastic Compliance Matrix: (Units=1/GPa)
#
#
# Indices 1 2 3 4 5 6 
#
# 1 0.039120 0.014580 -0.017887 0.005579 -0.018530 -0.061057
# 2 0.014580 0.022686 -0.015372 -0.000018 -0.015006 -0.029847
# 3 -0.017887 -0.015372 0.029955 -0.010805 0.013429 0.022863
# 4 0.005579 -0.000018 -0.010805 0.040887 -0.001283 -0.011406
# 5 -0.018530 -0.015006 0.013429 -0.001283 0.043833 0.024934
# 6 -0.061057 -0.029847 0.022863 -0.011406 0.024934 0.160474
#
#
# Mechanical properties :
#
#
# Convention : Reuss Voigt Hill
#
# Bulk Modulus (GPa) = 18.38120 48.41968 33.40044
# Shear Modulus (GPa) = 12.74056 27.22991 19.98523
#
# Velocity S-wave (km/s) = 2.25067 3.29034 2.81885
# Velocity P-wave (km/s) = 3.74996 5.80399 4.88613
#
# Compressibility (1/GPa) = 0.05440342
#
# Stress axis : x y z
#
# Youngs Moduli (GPa) = 25.56225 44.08011 33.38301
#
# Poissons Ratio (x) = -0.64269 0.59712
# Poissons Ratio (y) = -0.37270 0.51317
# Poissons Ratio (z) = 0.45723 0.67760
#
# Static dielectric constant tensor:
#      x y z
#    x 4.506210 -0.404010 0.058090 
#    y -0.404010 6.513970 0.703300 
#    z 0.058090 0.703300 4.721800 
# 
# 
# High freq. dielectric constant tensor:
#      x y z
#    x 1.983630 -0.012880 0.011640 
#    y -0.012880 2.024300 -0.000650 
#    z 0.011640 -0.000650 2.000510 
# 
# From -- ./inp_files/390298.got.cif
#   From: 2010.06.25/outbox.cif.g09.slc.cpg/sg2_196_cif.got.tgz:390298.got - 2010.06.27 13:26:56.
