data_PCOD8009005
_publ_section_title
;
Structure prediction by ZEFSAII (Michael W. Deem and Ramdas Pophale) SiO2 
 PCOD8009005
Probable space group: P -1
;
_chemical_formula_sum "Si O2"
_cell_formula_units_Z 16
_cell_length_a 11.585995
_cell_length_b 15.161142
_cell_length_c 8.404884
_cell_angle_alpha 53.981910
_cell_angle_beta 49.263563
_cell_angle_gamma 40.683111
_cell_volume 716.147533
_symmetry_space_group_name_H-M "P -1"
_symmetry_group_IT_number 2
_symmetry_cell_setting 'triclinic'
loop_
_space_group_symop_operation_xyz
x,y,z
-x,-y,-z
loop_
_atom_site_type_symbol
_atom_site_label
_atom_site_fract_x
_atom_site_fract_y
_atom_site_fract_z
Si Si1 0.389629 0.889041 0.515118
Si Si2 0.741738 0.250905 0.367507
Si Si3 0.082671 0.055058 0.039831
Si Si4 0.962845 0.151982 0.606454
Si Si5 0.381746 0.254690 0.243517
Si Si6 0.025426 0.281513 0.654041
Si Si7 0.334729 0.524125 0.010269
Si Si8 0.449562 0.980809 0.895424
O O1 0.420976 0.772054 0.488883
O O2 0.426639 0.838965 0.718901
O O3 0.555723 0.906948 0.323984
O O4 0.189422 0.036240 0.494378
O O5 0.841647 0.199724 0.502071
O O6 0.877952 0.158475 0.195861
O O7 0.668629 0.404172 0.226941
O O8 0.108279 0.913396 0.136603
O O9 0.114267 0.122771 0.790702
O O10 0.240817 0.020557 0.062779
O O11 0.924163 0.289213 0.570346
O O12 0.187054 0.302636 0.459942
O O13 0.371677 0.385554 0.066055
O O14 0.407296 0.171610 0.149867
O O15 0.870767 0.389216 0.806678
O O16 0.500000 0.500000 0.000000
O O17 0.500000 0.000000 0.000000
#
# Coordination Sequence:
#
# PCOD8009005 Si02
#       8
#     2   2   2   2   2   2   2   2
#     4  11  20  40  66  95 135 167 209 268 333 388
#     4  10  22  42  65  93 134 171 217 271 320 381
#     4  10  21  35  62  96 129 167 209 263 326 390
#     4  11  21  38  64  99 132 165 208 275 338 374
#     4  12  24  43  66  94 134 176 215 263 320 389
#     4  11  23  41  65  95 130 173 220 262 320 389
#     4  11  25  46  68  90 125 180 235 262 299 387
#     4  12  23  37  63 101 135 160 207 269 335 389
#
# _framework density 22.341763
#
# number of rings (size 3 to 8) (size 9 to 14) (size 15 to 20)
#    0.000    1.000    3.750    4.875    1.750    0.000 
#    0.000    2.500    0.000    0.000    0.000    0.000 
#    0.000    0.000    0.000    0.000    0.000    0.000 
#
# Total GULP energy -198227.379943 kJ/mol
# GULP energy per Si atom -12389.211246 kJ/mol
# Density = 2.229091 g / cm^3
# Si number density = 22.341763 Si / 1000 Ang^3
#
#
#
# Elastic Constant Matrix: (Units=GPa)
#
#
# Indices 1 2 3 4 5 6 
#
# 1 92.8639 35.9520 14.9846 -8.7882 -15.4997 15.4649
# 2 35.9520 83.2389 33.9817 -24.4920 -0.5979 14.6699
# 3 14.9846 33.9817 71.5800 -25.7042 -14.3778 7.8888
# 4 -8.7882 -24.4920 -25.7042 33.3188 8.1242 -7.3774
# 5 -15.4997 -0.5979 -14.3778 8.1242 40.0984 -0.9380
# 6 15.4649 14.6699 7.8888 -7.3774 -0.9380 36.1592
#
#
#
# Elastic Compliance Matrix: (Units=1/GPa)
#
#
# Indices 1 2 3 4 5 6 
#
# 1 0.014748 -0.006793 0.000821 -0.002952 0.006394 -0.004167
# 2 -0.006793 0.020617 -0.005850 0.009915 -0.006479 -0.002328
# 3 0.000821 -0.005850 0.021814 0.011277 0.005760 -0.000287
# 4 -0.002952 0.009915 0.011277 0.047779 -0.006528 0.004359
# 5 0.006394 -0.006479 0.005760 -0.006528 0.030657 -0.001900
# 6 -0.004167 -0.002328 -0.000287 0.004359 -0.001900 0.031285
#
#
# Mechanical properties :
#
#
# Convention : Reuss Voigt Hill
#
# Bulk Modulus (GPa) = 29.82012 46.39103 38.10557
# Shear Modulus (GPa) = 24.78657 32.76625 28.77641
#
# Velocity S-wave (km/s) = 3.33442 3.83377 3.59278
# Velocity P-wave (km/s) = 5.31043 6.35660 5.85692
#
# Compressibility (1/GPa) = 0.03353441
#
# Stress axis : x y z
#
# Youngs Moduli (GPa) = 67.80674 48.50368 45.84240
#
# Poissons Ratio (x) = 0.32950 -0.03765
# Poissons Ratio (y) = 0.46063 0.26818
# Poissons Ratio (z) = -0.05569 0.28375
#
# Static dielectric constant tensor:
#      x y z
#    x 4.321250 0.103720 -0.755050 
#    y 0.103720 3.817750 -0.392750 
#    z -0.755050 -0.392750 5.674760 
# 
# 
# High freq. dielectric constant tensor:
#      x y z
#    x 1.900240 0.008080 -0.021420 
#    y 0.008080 1.844700 -0.010830 
#    z -0.021420 -0.010830 1.881270 
# 
# From -- ./inp_files/205634.got.cif
#   From: 2010.06.25/outbox.cif.g09.slc.cpg/sg2_103_cif.got.tgz:205634.got - 2010.06.27 13:26:56.
