data_PCOD8009021
_publ_section_title
;
Structure prediction by ZEFSAII (Michael W. Deem and Ramdas Pophale) SiO2 
 PCOD8009021
Probable space group: P -1
;
_chemical_formula_sum "Si O2"
_cell_formula_units_Z 16
_cell_length_a 8.765148
_cell_length_b 15.002887
_cell_length_c 11.938826
_cell_angle_alpha 51.674450
_cell_angle_beta 76.633717
_cell_angle_gamma 44.510524
_cell_volume 797.329740
_symmetry_space_group_name_H-M "P -1"
_symmetry_group_IT_number 2
_symmetry_cell_setting 'triclinic'
loop_
_space_group_symop_operation_xyz
x,y,z
-x,-y,-z
loop_
_atom_site_type_symbol
_atom_site_label
_atom_site_fract_x
_atom_site_fract_y
_atom_site_fract_z
Si Si1 0.683407 0.879127 0.399615
Si Si2 0.863788 0.471063 0.485697
Si Si3 0.309219 0.521025 0.065663
Si Si4 0.177831 0.679949 0.205391
Si Si5 0.559446 0.811213 0.671285
Si Si6 0.563025 0.660931 0.178567
Si Si7 0.626650 0.993285 0.084698
Si Si8 0.969463 0.397362 0.142958
O O1 0.546003 0.851838 0.510177
O O2 0.579202 0.943369 0.241923
O O3 0.959050 0.700163 0.485432
O O4 0.659874 0.015167 0.359539
O O5 0.746149 0.457405 0.611853
O O6 0.661760 0.624093 0.316729
O O7 0.000000 0.500000 0.500000
O O8 0.219394 0.607005 0.133264
O O9 0.418786 0.334465 0.199014
O O10 0.500000 0.500000 0.000000
O O11 0.092669 0.650161 0.914278
O O12 0.335182 0.704287 0.184052
O O13 0.904241 0.859504 0.121375
O O14 0.785527 0.763393 0.713176
O O15 0.758871 0.505144 0.184174
O O16 0.487943 0.822910 0.018084
O O17 0.500000 0.000000 0.000000
O O18 0.000000 0.500000 0.000000
#
# Coordination Sequence:
#
# PCOD8009021 Si02
#       8
#     2   2   2   2   2   2   2   2
#     4  10  21  39  62  95 124 157 214 261 321 364
#     4  11  23  42  67  92 125 170 221 265 310 393
#     4  11  22  39  62  95 126 161 213 263 326 383
#     4  11  25  40  63  91 130 168 207 269 332 380
#     4  10  21  38  66  88 123 168 210 268 316 379
#     4  12  22  43  63  93 129 168 214 266 328 378
#     4  11  25  39  63  95 125 167 215 267 315 383
#     4  10  21  35  64  89 120 165 211 264 306 377
#
# _framework density 20.066980000000001
#
# number of rings (size 3 to 8) (size 9 to 14) (size 15 to 20)
#    0.000    1.250    2.500    4.500    7.000    0.000 
#    0.000    0.000    0.000    3.750    0.000    0.000 
#    0.000    0.000    0.000    0.000    0.000    0.000 
#
# Total GULP energy -198339.604978 kJ/mol
# GULP energy per Si atom -12396.225311 kJ/mol
# Density = 2.002131 g / cm^3
# Si number density = 20.066980 Si / 1000 Ang^3
#
#
#
# Elastic Constant Matrix: (Units=GPa)
#
#
# Indices 1 2 3 4 5 6 
#
# 1 119.6082 29.5682 43.6690 6.4298 6.6836 1.2228
# 2 29.5682 107.5431 39.9418 10.9715 4.0896 4.2328
# 3 43.6690 39.9418 117.0268 12.2679 2.3665 2.4541
# 4 6.4298 10.9715 12.2679 40.1717 2.5706 -1.3251
# 5 6.6836 4.0896 2.3665 2.5706 33.4716 1.0905
# 6 1.2228 4.2328 2.4541 -1.3251 1.0905 28.4357
#
#
#
# Elastic Compliance Matrix: (Units=1/GPa)
#
#
# Indices 1 2 3 4 5 6 
#
# 1 0.009983 -0.001500 -0.003172 -0.000114 -0.001581 0.000123
# 2 -0.001500 0.011092 -0.002986 -0.001881 -0.000655 -0.001391
# 3 -0.003172 -0.002986 0.010967 -0.002067 0.000397 -0.000477
# 4 -0.000114 -0.001881 -0.002067 0.026221 -0.001672 0.001749
# 5 -0.001581 -0.000655 0.000397 -0.001672 0.030408 -0.001113
# 6 0.000123 -0.001391 -0.000477 0.001749 -0.001113 0.035534
#
#
# Mechanical properties :
#
#
# Convention : Reuss Voigt Hill
#
# Bulk Modulus (GPa) = 59.79061 63.39292 61.59177
# Shear Modulus (GPa) = 34.46010 35.81576 35.13793
#
# Velocity S-wave (km/s) = 4.14847 4.22928 4.18907
# Velocity P-wave (km/s) = 7.26682 7.45039 7.35918
#
# Compressibility (1/GPa) = 0.01672503
#
# Stress axis : x y z
#
# Youngs Moduli (GPa) = 100.17387 90.15779 91.18644
#
# Poissons Ratio (x) = 0.13521 0.28923
# Poissons Ratio (y) = 0.15023 0.27232
# Poissons Ratio (z) = 0.31774 0.26925
#
# Static dielectric constant tensor:
#      x y z
#    x 3.687070 -0.109120 0.145250 
#    y -0.109120 3.724420 -0.012940 
#    z 0.145250 -0.012940 3.999560 
# 
# 
# High freq. dielectric constant tensor:
#      x y z
#    x 1.761470 0.003100 0.003810 
#    y 0.003100 1.791190 0.014700 
#    z 0.003810 0.014700 1.804630 
# 
# From -- ./inp_files/262803.got.cif
#   From: 2010.06.25/outbox.cif.g09.slc.cpg/sg2_132_cif.got.tgz:262803.got - 2010.06.27 13:26:56.
