data_PCOD8009662
_publ_section_title
;
Structure prediction by ZEFSAII (Michael W. Deem and Ramdas Pophale) SiO2 
 PCOD8009662
Probable space group: P -1
;
_chemical_formula_sum "Si O2"
_cell_formula_units_Z 14
_cell_length_a 5.089494
_cell_length_b 9.451399
_cell_length_c 22.651011
_cell_angle_alpha 141.857563
_cell_angle_beta 71.614835
_cell_angle_gamma 108.430528
_cell_volume 634.269947
_symmetry_space_group_name_H-M "P -1"
_symmetry_group_IT_number 2
_symmetry_cell_setting 'triclinic'
loop_
_space_group_symop_operation_xyz
x,y,z
-x,-y,-z
loop_
_atom_site_type_symbol
_atom_site_label
_atom_site_fract_x
_atom_site_fract_y
_atom_site_fract_z
Si Si1 0.915909 0.792930 0.482234
Si Si2 0.627415 0.401255 0.194376
Si Si3 0.082230 0.242363 0.399617
Si Si4 0.407467 0.487537 0.363001
Si Si5 0.181844 0.225913 0.083574
Si Si6 0.630652 0.411070 0.902577
Si Si7 0.796103 0.792931 0.222137
O O1 0.832113 0.865086 0.578778
O O2 0.659506 0.646958 0.423907
O O3 0.163676 0.642058 0.421705
O O4 0.000000 0.000000 0.500000
O O5 0.474177 0.390970 0.263640
O O6 0.433323 0.203409 0.105275
O O7 0.642339 0.642757 0.237242
O O8 0.945455 0.365759 0.174353
O O9 0.330219 0.275369 0.344536
O O10 0.000000 0.500000 0.500000
O O11 0.843143 0.057714 0.327766
O O12 0.325259 0.353624 0.059536
O O13 0.000000 0.000000 0.000000
O O14 0.412593 0.220954 0.823181
O O15 0.920781 0.301852 0.852219
O O16 0.500000 0.500000 0.000000
#
# Coordination Sequence:
#
# PCOD8009662 Si02
#       7
#     2   2   2   2   2   2   2
#     4  11  23  40  62  86 118 161 202 248 305 364
#     4  10  21  38  58  86 117 156 204 243 299 373
#     4  10  24  42  62  93 128 162 210 262 307 357
#     4  11  23  39  60  88 119 155 202 257 301 353
#     4  10  21  37  59  86 118 152 194 252 306 361
#     4  10  22  39  61  89 119 156 203 247 305 370
#     4  10  22  39  61  86 122 164 200 249 305 366
#
# _framework density 22.072621999999999
#
# number of rings (size 3 to 8) (size 9 to 14) (size 15 to 20)
#    0.000    1.714    0.000    3.429    0.000   10.286 
#    0.000    0.000    0.000    0.000    0.000    0.000 
#    0.000    0.000    0.000    0.000    0.000    0.000 
#
# Total GULP energy -173473.823481 kJ/mol
# GULP energy per Si atom -12390.987392 kJ/mol
# Density = 2.202238 g / cm^3
# Si number density = 22.072622 Si / 1000 Ang^3
#
#
#
# Elastic Constant Matrix: (Units=GPa)
#
#
# Indices 1 2 3 4 5 6 
#
# 1 107.9801 32.5354 16.9236 -9.8730 30.4989 11.9447
# 2 32.5354 167.5865 70.0649 -25.7853 17.4256 13.2244
# 3 16.9236 70.0649 118.2235 -6.3090 34.1294 13.5586
# 4 -9.8730 -25.7853 -6.3090 47.7928 13.7089 3.9674
# 5 30.4989 17.4256 34.1294 13.7089 43.8761 5.9124
# 6 11.9447 13.2244 13.5586 3.9674 5.9124 28.6222
#
#
#
# Elastic Compliance Matrix: (Units=1/GPa)
#
#
# Indices 1 2 3 4 5 6 
#
# 1 0.014182 -0.001394 0.003718 0.007026 -0.013694 -0.005181
# 2 -0.001394 0.008975 -0.004693 0.004083 0.000037 -0.001916
# 3 0.003718 -0.004693 0.015348 0.004496 -0.013459 -0.004497
# 4 0.007026 0.004083 0.004496 0.031162 -0.018743 -0.007397
# 5 -0.013694 0.000037 -0.013459 -0.018743 0.047979 0.004760
# 6 -0.005181 -0.001916 -0.004497 -0.007397 0.004760 0.040158
#
#
# Mechanical properties :
#
#
# Convention : Reuss Voigt Hill
#
# Bulk Modulus (GPa) = 29.61319 70.31532 49.96426
# Shear Modulus (GPa) = 28.76924 42.34265 35.55594
#
# Velocity S-wave (km/s) = 3.61417 4.38463 4.01791
# Velocity P-wave (km/s) = 5.55533 7.58675 6.64908
#
# Compressibility (1/GPa) = 0.03376873
#
# Stress axis : x y z
#
# Youngs Moduli (GPa) = 70.51400 111.41799 65.15322
#
# Poissons Ratio (x) = 0.15532 -0.24227
# Poissons Ratio (y) = 0.09830 0.30574
# Poissons Ratio (z) = -0.26220 0.52285
#
# Static dielectric constant tensor:
#      x y z
#    x 4.774820 0.092470 0.160380 
#    y 0.092470 4.614140 -0.259600 
#    z 0.160380 -0.259600 3.938680 
# 
# 
# High freq. dielectric constant tensor:
#      x y z
#    x 1.876270 0.014440 0.016080 
#    y 0.014440 1.878490 -0.007890 
#    z 0.016080 -0.007890 1.865980 
# 
# From -- ./inp_files/53675.got.cif
#   From: 2010.06.25/outbox.cif.g09.slc.cpg/sg2_27_cif.got.tgz:53675.got - 2010.06.27 13:26:56.
