data_PCOD8009131
_publ_section_title
;
Structure prediction by ZEFSAII (Michael W. Deem and Ramdas Pophale) SiO2 
 PCOD8009131
Probable space group: P -1
;
_chemical_formula_sum "Si O2"
_cell_formula_units_Z 14
_cell_length_a 7.747560
_cell_length_b 9.309363
_cell_length_c 18.339331
_cell_angle_alpha 104.740371
_cell_angle_beta 77.802593
_cell_angle_gamma 146.351022
_cell_volume 708.802570
_symmetry_space_group_name_H-M "P -1"
_symmetry_group_IT_number 2
_symmetry_cell_setting 'triclinic'
loop_
_space_group_symop_operation_xyz
x,y,z
-x,-y,-z
loop_
_atom_site_type_symbol
_atom_site_label
_atom_site_fract_x
_atom_site_fract_y
_atom_site_fract_z
Si Si1 0.639080 0.531970 0.563910
Si Si2 0.638594 0.967575 0.436093
Si Si3 0.369804 0.250049 0.999994
Si Si4 0.634737 0.618045 0.734573
Si Si5 0.632795 0.881569 0.265432
Si Si6 0.653538 0.202499 0.863732
Si Si7 0.387864 0.702629 0.863741
O O1 0.500000 0.500000 0.500000
O O2 0.500156 0.275057 0.549770
O O3 0.563479 0.573809 0.648804
O O4 0.000187 0.775342 0.550334
O O5 0.562240 0.923786 0.351203
O O6 0.500000 0.000000 0.500000
O O7 0.493340 0.291631 0.073133
O O8 0.500000 0.500000 0.000000
O O9 0.483222 0.208432 0.926835
O O10 0.000000 0.000000 0.000000
O O11 0.499974 0.376883 0.752812
O O12 0.462089 0.642932 0.783472
O O13 0.001020 0.876677 0.752412
O O14 0.460163 0.857597 0.216543
O O15 0.022153 0.481582 0.872134
O O16 0.568884 0.981631 0.872206
#
# Coordination Sequence:
#
# PCOD8009131 Si02
#       7
#     2   2   2   2   2   2   2
#     4  10  21  36  57  82 113 148 189 234 279 333
#     4  10  21  36  57  82 113 148 189 234 279 333
#     4  12  24  42  64  84 114 156 188 222 278 344
#     4  10  21  39  58  81 113 153 190 225 278 344
#     4  10  21  39  58  81 113 153 190 225 278 344
#     4  12  24  39  60  89 117 144 186 240 280 322
#     4  12  24  39  60  89 117 144 186 240 280 322
#
# _framework density 19.751621
#
# number of rings (size 3 to 8) (size 9 to 14) (size 15 to 20)
#    0.000    1.143    0.000    6.857    0.000    2.286 
#    0.000    0.000    0.000    0.000    0.000    0.000 
#    0.000    0.000    0.000    0.000    0.000    0.000 
#
# Total GULP energy -173645.270518 kJ/mol
# GULP energy per Si atom -12403.233608 kJ/mol
# Density = 1.970667 g / cm^3
# Si number density = 19.751621 Si / 1000 Ang^3
#
#
#
# Elastic Constant Matrix: (Units=GPa)
#
#
# Indices 1 2 3 4 5 6 
#
# 1 108.5261 46.2816 86.0536 1.1592 -0.4031 2.9028
# 2 46.2816 145.8019 44.2860 -2.7635 0.1868 -8.9078
# 3 86.0536 44.2860 148.6727 3.2117 -0.0976 2.3335
# 4 1.1592 -2.7635 3.2117 24.9008 2.7054 0.3201
# 5 -0.4031 0.1868 -0.0976 2.7054 55.7576 -0.1055
# 6 2.9028 -8.9078 2.3335 0.3201 -0.1055 11.5074
#
#
#
# Elastic Compliance Matrix: (Units=1/GPa)
#
#
# Indices 1 2 3 4 5 6 
#
# 1 0.018302 -0.003223 -0.009554 0.000077 0.000113 -0.005175
# 2 -0.003223 0.008627 -0.000849 0.001129 -0.000094 0.007631
# 3 -0.009554 -0.000849 0.012548 -0.001260 0.000015 -0.000756
# 4 0.000077 0.001129 -0.001260 0.040659 -0.001978 -0.000039
# 5 0.000113 -0.000094 0.000015 -0.001978 0.018032 0.000116
# 6 -0.005175 0.007631 -0.000756 -0.000039 0.000116 0.094269
#
#
# Mechanical properties :
#
#
# Convention : Reuss Voigt Hill
#
# Bulk Modulus (GPa) = 81.78775 84.02702 82.90739
# Shear Modulus (GPa) = 22.34496 33.52510 27.93503
#
# Velocity S-wave (km/s) = 3.36713 4.12434 3.76482
# Velocity P-wave (km/s) = 7.52428 8.08174 7.80798
#
# Compressibility (1/GPa) = 0.01222677
#
# Stress axis : x y z
#
# Youngs Moduli (GPa) = 54.63760 115.91388 79.69312
#
# Poissons Ratio (x) = 0.37354 0.76140
# Poissons Ratio (y) = 0.17607 0.06764
# Poissons Ratio (z) = 0.52201 0.09838
#
# Static dielectric constant tensor:
#      x y z
#    x 3.552800 -0.039840 0.002270 
#    y -0.039840 3.972360 -0.037940 
#    z 0.002270 -0.037940 3.976160 
# 
# 
# High freq. dielectric constant tensor:
#      x y z
#    x 1.768280 -0.002900 0.000010 
#    y -0.002900 1.798890 -0.000890 
#    z 0.000010 -0.000890 1.790220 
# 
# From -- ./inp_files/7559.got.cif
#   From: 2010.06.25/outbox.cif.g09.slc.cpg/sg2_4_cif.got.tgz:7559.got - 2010.06.27 13:26:56.
