data_PCOD8009043
_publ_section_title
;
Structure prediction by ZEFSAII (Michael W. Deem and Ramdas Pophale) SiO2 
 PCOD8009043
Probable space group: P -1
;
_chemical_formula_sum "Si O2"
_cell_formula_units_Z 16
_cell_length_a 9.156125
_cell_length_b 14.102388
_cell_length_c 14.415276
_cell_angle_alpha 28.670868
_cell_angle_beta 79.102120
_cell_angle_gamma 77.007685
_cell_volume 870.037136
_symmetry_space_group_name_H-M "P -1"
_symmetry_group_IT_number 2
_symmetry_cell_setting 'triclinic'
loop_
_space_group_symop_operation_xyz
x,y,z
-x,-y,-z
loop_
_atom_site_type_symbol
_atom_site_label
_atom_site_fract_x
_atom_site_fract_y
_atom_site_fract_z
Si Si1 0.071077 0.618113 0.110639
Si Si2 0.619615 0.326731 0.888384
Si Si3 0.309534 0.331873 0.979486
Si Si4 0.399588 0.069995 0.865291
Si Si5 0.783345 0.644920 0.226935
Si Si6 0.924338 0.297988 0.305766
Si Si7 0.538927 0.400869 0.482865
Si Si8 0.061132 0.119750 0.257040
O O1 0.240267 0.606677 0.132310
O O2 0.962867 0.612523 0.219020
O O3 0.054422 0.425646 0.214473
O O4 0.021804 0.815717 0.885333
O O5 0.487462 0.316914 0.989512
O O6 0.565272 0.490448 0.677707
O O7 0.666634 0.111746 0.020429
O O8 0.291621 0.247005 0.949520
O O9 0.234224 0.561760 0.796684
O O10 0.225061 0.197456 0.175099
O O11 0.259524 0.222941 0.789671
O O12 0.501690 0.174082 0.689010
O O13 0.500000 0.000000 0.000000
O O14 0.714247 0.431421 0.421292
O O15 0.958571 0.217980 0.267654
O O16 0.915425 0.117684 0.533208
O O17 0.500000 0.500000 0.500000
#
# Coordination Sequence:
#
# PCOD8009043 Si02
#       8
#     2   2   2   2   2   2   2   2
#     4  10  21  36  50  79 115 131 168 217 269 306
#     4  11  22  33  51  79 110 140 170 218 263 302
#     4   9  17  32  52  81 103 133 179 208 254 305
#     4  11  18  33  55  73 100 139 184 218 244 298
#     4   8  17  34  50  75  99 138 181 212 252 299
#     4   9  18  36  59  78 102 133 175 210 254 318
#     4   9  17  33  52  71  95 132 186 215 247 296
#     4   9  18  36  61  79  96 138 174 209 256 316
#
# _framework density 18.39002
#
# number of rings (size 3 to 8) (size 9 to 14) (size 15 to 20)
#    0.000    2.750    3.750    1.500    0.000    4.500 
#    0.000    5.000    0.000    3.000    0.000    0.000 
#    0.000    0.000    0.000    0.000    0.000    0.000 
#
# Total GULP energy -198240.890287 kJ/mol
# GULP energy per Si atom -12390.055643 kJ/mol
# Density = 1.834816 g / cm^3
# Si number density = 18.390020 Si / 1000 Ang^3
#
#
#
# Elastic Constant Matrix: (Units=GPa)
#
#
# Indices 1 2 3 4 5 6 
#
# 1 131.3119 23.4811 26.6184 2.6401 -8.9942 -5.7225
# 2 23.4811 56.0440 13.7191 -7.4411 -1.8133 -9.7797
# 3 26.6184 13.7191 112.6908 0.4854 -10.8379 -2.8482
# 4 2.6401 -7.4411 0.4854 28.2684 -1.4768 -5.8142
# 5 -8.9942 -1.8133 -10.8379 -1.4768 14.2273 3.8824
# 6 -5.7225 -9.7797 -2.8482 -5.8142 3.8824 19.8810
#
#
#
# Elastic Compliance Matrix: (Units=1/GPa)
#
#
# Indices 1 2 3 4 5 6 
#
# 1 0.008800 -0.003594 -0.001251 -0.001676 0.004175 -0.000720
# 2 -0.003594 0.023290 -0.002030 0.009088 -0.003588 0.013490
# 3 -0.001251 -0.002030 0.010050 -0.000521 0.006942 -0.001427
# 4 -0.001676 0.009088 -0.000521 0.041212 -0.000399 0.016044
# 5 0.004175 -0.003588 0.006942 -0.000399 0.082000 -0.015698
# 6 -0.000720 0.013490 -0.001427 0.016044 -0.015698 0.064281
#
#
# Mechanical properties :
#
#
# Convention : Reuss Voigt Hill
#
# Bulk Modulus (GPa) = 35.22104 47.52044 41.37074
# Shear Modulus (GPa) = 19.77489 28.22387 23.99938
#
# Velocity S-wave (km/s) = 3.28274 3.92182 3.61643
# Velocity P-wave (km/s) = 5.79330 6.81205 6.32323
#
# Compressibility (1/GPa) = 0.02839212
#
# Stress axis : x y z
#
# Youngs Moduli (GPa) = 113.63753 42.93617 99.50121
#
# Poissons Ratio (x) = 0.15431 0.12443
# Poissons Ratio (y) = 0.40840 0.20196
# Poissons Ratio (z) = 0.14211 0.08715
#
# Static dielectric constant tensor:
#      x y z
#    x 3.184810 0.005730 -0.861550 
#    y 0.005730 1.577530 2.435260 
#    z -0.861550 2.435260 1.020990 
# 
# 
# High freq. dielectric constant tensor:
#      x y z
#    x 1.682840 -0.023990 -0.023220 
#    y -0.023990 1.703570 0.002000 
#    z -0.023220 0.002000 1.717720 
# 
# From -- ./inp_files/318570.got.cif
#   From: 2010.06.25/outbox.cif.g09.slc.cpg/sg2_160_cif.got.tgz:318570.got - 2010.06.27 13:26:56.
