data_PCOD8009994
_publ_section_title
;
Structure prediction by ZEFSAII (Michael W. Deem and Ramdas Pophale) SiO2 
 PCOD8009994
Probable space group: P -1
;
_chemical_formula_sum "Si O2"
_cell_formula_units_Z 16
_cell_length_a 8.951561
_cell_length_b 11.912179
_cell_length_c 11.486042
_cell_angle_alpha 58.565521
_cell_angle_beta 79.503432
_cell_angle_gamma 43.884476
_cell_volume 684.473174
_symmetry_space_group_name_H-M "P -1"
_symmetry_group_IT_number 2
_symmetry_cell_setting 'triclinic'
loop_
_space_group_symop_operation_xyz
x,y,z
-x,-y,-z
loop_
_atom_site_type_symbol
_atom_site_label
_atom_site_fract_x
_atom_site_fract_y
_atom_site_fract_z
Si Si1 0.201777 0.554920 0.279607
Si Si2 0.225575 0.795049 0.020505
Si Si3 0.423870 0.873353 0.623769
Si Si4 0.952382 0.754625 0.653910
Si Si5 0.937392 0.095308 0.265147
Si Si6 0.392204 0.266532 0.082616
Si Si7 0.232504 0.661487 0.450867
Si Si8 0.968097 0.593568 0.095453
O O1 0.318963 0.610982 0.180675
O O2 0.357764 0.324453 0.368298
O O3 0.142719 0.617351 0.388607
O O4 0.971005 0.677040 0.169220
O O5 0.173116 0.779700 0.905635
O O6 0.430978 0.767173 0.003288
O O7 0.000000 0.000000 0.000000
O O8 0.243209 0.869785 0.651584
O O9 0.479443 0.881786 0.744412
O O10 0.300718 0.073168 0.464297
O O11 0.990860 0.586207 0.787191
O O12 0.960552 0.850333 0.707464
O O13 0.150236 0.659415 0.586175
O O14 0.141010 0.865482 0.325652
O O15 0.187399 0.492572 0.039093
O O16 0.271277 0.235020 0.032579
O O17 0.500000 0.500000 0.500000
#
# Coordination Sequence:
#
# PCOD8009994 Si02
#       8
#     2   2   2   2   2   2   2   2
#     4  11  23  40  66  95 135 166 217 268 330 391
#     4  11  23  41  70  95 128 170 218 275 331 380
#     4   9  20  38  62  93 123 171 217 275 307 370
#     4  11  23  39  66  92 134 171 218 265 326 388
#     4  10  21  37  63  97 124 163 223 275 313 374
#     4   9  22  41  64  92 131 168 223 264 315 390
#     4  11  22  39  64  95 133 169 220 275 321 382
#     4  10  24  41  64  99 131 177 214 264 327 395
#
# _framework density 23.375641999999999
#
# number of rings (size 3 to 8) (size 9 to 14) (size 15 to 20)
#    0.000    1.750    1.250    3.000    8.750    5.000 
#    0.000    0.625    5.500    0.000    0.000    0.000 
#    0.000    0.000    0.000    0.000    0.000    0.000 
#
# Total GULP energy -198355.611511 kJ/mol
# GULP energy per Si atom -12397.225719 kJ/mol
# Density = 2.332244 g / cm^3
# Si number density = 23.375642 Si / 1000 Ang^3
#
#
#
# Elastic Constant Matrix: (Units=GPa)
#
#
# Indices 1 2 3 4 5 6 
#
# 1 106.1559 41.0640 20.6624 15.1175 39.1577 -1.9452
# 2 41.0640 88.8530 20.5387 13.0497 4.4513 3.2434
# 3 20.6624 20.5387 66.7430 0.5561 8.0315 3.8974
# 4 15.1175 13.0497 0.5561 30.4775 8.1233 8.9960
# 5 39.1577 4.4513 8.0315 8.1233 43.2174 5.8609
# 6 -1.9452 3.2434 3.8974 8.9960 5.8609 40.9480
#
#
#
# Elastic Compliance Matrix: (Units=1/GPa)
#
#
# Indices 1 2 3 4 5 6 
#
# 1 0.019201 -0.007264 -0.002000 -0.003445 -0.016276 0.004764
# 2 -0.007264 0.015740 -0.003277 -0.004463 0.006577 -0.001241
# 3 -0.002000 -0.003277 0.016852 0.002995 -0.001286 -0.001913
# 4 -0.003445 -0.004463 0.002995 0.039723 -0.003309 -0.008348
# 5 -0.016276 0.006577 -0.001286 -0.003309 0.038885 -0.006010
# 6 0.004764 -0.001241 -0.001913 -0.008348 -0.006010 0.027622
#
#
# Mechanical properties :
#
#
# Convention : Reuss Voigt Hill
#
# Bulk Modulus (GPa) = 37.43645 47.36469 42.40057
# Shear Modulus (GPa) = 26.04057 34.89438 30.46748
#
# Velocity S-wave (km/s) = 3.34129 3.86783 3.61416
# Velocity P-wave (km/s) = 5.56197 6.34454 5.96610
#
# Compressibility (1/GPa) = 0.02671194
#
# Stress axis : x y z
#
# Youngs Moduli (GPa) = 52.08066 63.53052 59.34093
#
# Poissons Ratio (x) = 0.46149 0.11867
# Poissons Ratio (y) = 0.37832 0.19444
# Poissons Ratio (z) = 0.10415 0.20817
#
# Static dielectric constant tensor:
#      x y z
#    x 4.447330 -0.039680 0.306670 
#    y -0.039680 3.985160 0.087750 
#    z 0.306670 0.087750 4.580800 
# 
# 
# High freq. dielectric constant tensor:
#      x y z
#    x 1.929520 0.000110 0.017770 
#    y 0.000110 1.896380 0.006790 
#    z 0.017770 0.006790 1.935680 
# 
# From -- ./inp_files/389406.got.cif
#   From: 2010.06.25/outbox.cif.g09.slc.cpg/sg2_195_cif.got.tgz:389406.got - 2010.06.27 13:26:56.
