data_PCOD8009215
_publ_section_title
;
Structure prediction by ZEFSAII (Michael W. Deem and Ramdas Pophale) SiO2 
 PCOD8009215
Probable space group: P -1
;
_chemical_formula_sum "Si O2"
_cell_formula_units_Z 16
_cell_length_a 5.320865
_cell_length_b 13.686489
_cell_length_c 15.058331
_cell_angle_alpha 38.809405
_cell_angle_beta 73.618947
_cell_angle_gamma 61.349895
_cell_volume 594.709745
_symmetry_space_group_name_H-M "P -1"
_symmetry_group_IT_number 2
_symmetry_cell_setting 'triclinic'
loop_
_space_group_symop_operation_xyz
x,y,z
-x,-y,-z
loop_
_atom_site_type_symbol
_atom_site_label
_atom_site_fract_x
_atom_site_fract_y
_atom_site_fract_z
Si Si1 0.228935 0.357563 0.916096
Si Si2 0.292558 0.958774 0.448171
Si Si3 0.358231 0.348148 0.259768
Si Si4 0.496353 0.739849 0.414137
Si Si5 0.836865 0.889198 0.025111
Si Si6 0.475673 0.800203 0.821595
Si Si7 0.050031 0.106820 0.748628
Si Si8 0.669856 0.424220 0.734763
O O1 0.430375 0.349473 0.815866
O O2 0.974463 0.550574 0.810768
O O3 0.129484 0.207063 0.006614
O O4 0.396093 0.313092 0.023912
O O5 0.569510 0.836858 0.568922
O O6 0.303464 0.849691 0.436660
O O7 0.299091 0.136682 0.291994
O O8 0.000000 0.000000 0.500000
O O9 0.562427 0.315270 0.173548
O O10 0.410241 0.469916 0.239657
O O11 0.275318 0.758165 0.342586
O O12 0.652312 0.538680 0.569553
O O13 0.738684 0.802994 0.315398
O O14 0.013785 0.008212 0.910652
O O15 0.007793 0.735330 0.188174
O O16 0.500000 0.000000 0.000000
O O17 0.183465 0.968655 0.753774
#
# Coordination Sequence:
#
# PCOD8009215 Si02
#       8
#     2   2   2   2   2   2   2   2
#     4  11  24  44  64  99 137 176 231 283 350 417
#     4  10  21  36  58  94 129 188 240 274 319 396
#     4  10  23  37  61  92 136 185 228 268 334 398
#     4  10  24  41  71  94 148 183 227 288 347 402
#     4  11  25  48  75  98 130 174 230 295 357 424
#     4  11  22  39  63  96 139 182 229 281 326 399
#     4  11  23  46  68 106 135 187 233 287 344 412
#     4  10  24  43  66 101 136 185 223 281 350 411
#
# _framework density 26.903880999999998
#
# number of rings (size 3 to 8) (size 9 to 14) (size 15 to 20)
#    0.000    1.500    1.250    3.000   10.500    1.000 
#    0.000    1.250    0.000    0.000    0.000    0.000 
#    0.000    0.000    0.000    0.000    0.000    0.000 
#
# Total GULP energy -198310.779786 kJ/mol
# GULP energy per Si atom -12394.423737 kJ/mol
# Density = 2.684265 g / cm^3
# Si number density = 26.903881 Si / 1000 Ang^3
#
#
#
# Elastic Constant Matrix: (Units=GPa)
#
#
# Indices 1 2 3 4 5 6 
#
# 1 87.8212 5.5556 57.0226 -13.5563 0.4228 -37.9612
# 2 5.5556 98.8152 36.4949 -14.7645 -11.1147 -22.5502
# 3 57.0226 36.4949 190.2136 -10.3558 8.8156 -32.7648
# 4 -13.5563 -14.7645 -10.3558 35.6425 -15.2040 -2.9502
# 5 0.4228 -11.1147 8.8156 -15.2040 49.6905 1.4342
# 6 -37.9612 -22.5502 -32.7648 -2.9502 1.4342 33.4527
#
#
#
# Elastic Compliance Matrix: (Units=1/GPa)
#
#
# Indices 1 2 3 4 5 6 
#
# 1 0.048463 0.022069 -0.005904 0.037886 0.015236 0.066777
# 2 0.022069 0.024731 -0.003647 0.026391 0.012914 0.039916
# 3 -0.005904 -0.003647 0.007331 -0.003056 -0.002940 -0.002120
# 4 0.037886 0.026391 -0.003056 0.068481 0.025265 0.062745
# 5 0.015236 0.012914 -0.002940 0.025265 0.030442 0.024038
# 6 0.066777 0.039916 -0.002120 0.062745 0.024038 0.135003
#
#
# Mechanical properties :
#
#
# Convention : Reuss Voigt Hill
#
# Bulk Modulus (GPa) = 9.47304 63.88847 36.68076
# Shear Modulus (GPa) = 15.40345 42.27560 28.83953
#
# Velocity S-wave (km/s) = 2.39537 3.96833 3.27761
# Velocity P-wave (km/s) = 3.34352 6.69294 5.29030
#
# Compressibility (1/GPa) = 0.10556273
#
# Stress axis : x y z
#
# Youngs Moduli (GPa) = 20.63409 40.43530 136.39945
#
# Poissons Ratio (x) = -0.89237 0.80526
# Poissons Ratio (y) = -0.45537 0.49743
# Poissons Ratio (z) = 0.12182 0.14746
#
# Static dielectric constant tensor:
#      x y z
#    x 4.588850 0.125450 0.095860 
#    y 0.125450 5.115540 -0.176150 
#    z 0.095860 -0.176150 5.029460 
# 
# 
# High freq. dielectric constant tensor:
#      x y z
#    x 2.064780 0.009300 0.008500 
#    y 0.009300 2.099720 -0.006970 
#    z 0.008500 -0.006970 2.091300 
# 
# From -- ./inp_files/138736.got.cif
#   From: 2010.06.25/outbox.cif.g09.slc.cpg/sg2_70_cif.got.tgz:138736.got - 2010.06.27 13:26:56.
