data_PCOD8009168
_publ_section_title
;
Structure prediction by ZEFSAII (Michael W. Deem and Ramdas Pophale) SiO2 
 PCOD8009168
Probable space group: P -1
;
_chemical_formula_sum "Si O2"
_cell_formula_units_Z 12
_cell_length_a 12.360231
_cell_length_b 4.962420
_cell_length_c 11.978304
_cell_angle_alpha 130.602064
_cell_angle_beta 115.850372
_cell_angle_gamma 66.840403
_cell_volume 495.516006
_symmetry_space_group_name_H-M "P -1"
_symmetry_group_IT_number 2
_symmetry_cell_setting 'triclinic'
loop_
_space_group_symop_operation_xyz
x,y,z
-x,-y,-z
loop_
_atom_site_type_symbol
_atom_site_label
_atom_site_fract_x
_atom_site_fract_y
_atom_site_fract_z
Si Si1 0.900579 0.712766 0.278862
Si Si2 0.063446 0.113614 0.323212
Si Si3 0.131975 0.823928 0.050503
Si Si4 0.497350 0.696818 0.326632
Si Si5 0.739093 0.412518 0.452069
Si Si6 0.653608 0.771898 0.741272
O O1 0.948214 0.381422 0.292559
O O2 0.017344 0.901614 0.349279
O O3 0.797294 0.993921 0.367365
O O4 0.842371 0.569837 0.100791
O O5 0.162250 0.342639 0.475449
O O6 0.128384 0.819768 0.183324
O O7 0.230064 0.066915 0.119112
O O8 0.000000 0.000000 0.000000
O O9 0.631929 0.462004 0.323513
O O10 0.393227 0.457659 0.243490
O O11 0.500000 0.000000 0.500000
O O12 0.455987 0.898058 0.246768
O O13 0.687461 0.514793 0.579800
#
# Coordination Sequence:
#
# PCOD8009168 Si02
#       6
#     2   2   2   2   2   2
#     4  11  22  36  55  85 113 142 182 228 273 322
#     4  10  22  36  56  82 113 145 181 223 274 328
#     4   9  21  39  59  81 111 148 181 220 274 332
#     4  10  21  37  58  83 109 145 186 225 268 323
#     4  10  21  36  58  83 111 144 182 230 274 316
#     4  10  22  38  58  82 110 144 186 224 267 327
#
# _framework density 24.217182999999999
#
# number of rings (size 3 to 8) (size 9 to 14) (size 15 to 20)
#    0.000    2.000    0.000    3.500    0.000   20.000 
#    0.000    1.667    0.000    0.000    0.000    0.000 
#    0.000    0.000    0.000    0.000    0.000    0.000 
#
# Total GULP energy -148792.578334 kJ/mol
# GULP energy per Si atom -12399.381528 kJ/mol
# Density = 2.416206 g / cm^3
# Si number density = 24.217183 Si / 1000 Ang^3
#
#
#
# Elastic Constant Matrix: (Units=GPa)
#
#
# Indices 1 2 3 4 5 6 
#
# 1 61.6097 23.5919 34.8075 9.2787 15.9449 -10.7352
# 2 23.5919 67.1467 23.2553 15.0993 3.5474 -8.4035
# 3 34.8075 23.2553 82.5351 13.9897 8.8474 -24.6591
# 4 9.2787 15.0993 13.9897 24.8438 -5.7086 3.1597
# 5 15.9449 3.5474 8.8474 -5.7086 35.8606 -1.2641
# 6 -10.7352 -8.4035 -24.6591 3.1597 -1.2641 43.4753
#
#
#
# Elastic Compliance Matrix: (Units=1/GPa)
#
#
# Indices 1 2 3 4 5 6 
#
# 1 0.025662 -0.004665 -0.007105 -0.005230 -0.009975 0.001495
# 2 -0.004665 0.019559 -0.000797 -0.010342 -0.001208 0.002893
# 3 -0.007105 -0.000797 0.020568 -0.010491 -0.003139 0.010429
# 4 -0.005230 -0.010342 -0.010491 0.059503 0.014946 -0.013131
# 5 -0.009975 -0.001208 -0.003139 0.014946 0.035435 -0.004533
# 6 0.001495 0.002893 0.010429 -0.013131 -0.004533 0.030668
#
#
# Mechanical properties :
#
#
# Convention : Reuss Voigt Hill
#
# Bulk Modulus (GPa) = 24.59772 41.62231 33.11002
# Shear Modulus (GPa) = 21.73160 29.47839 25.60500
#
# Velocity S-wave (km/s) = 2.99885 3.49270 3.25515
# Velocity P-wave (km/s) = 4.70850 5.78703 5.27540
#
# Compressibility (1/GPa) = 0.04065417
#
# Stress axis : x y z
#
# Youngs Moduli (GPa) = 38.96844 51.12628 48.62013
#
# Poissons Ratio (x) = 0.23851 0.34547
# Poissons Ratio (y) = 0.18180 0.03873
# Poissons Ratio (z) = 0.27689 0.04073
#
# Static dielectric constant tensor:
#      x y z
#    x 4.367200 -0.448520 0.124430 
#    y -0.448520 4.676290 -0.033130 
#    z 0.124430 -0.033130 5.002860 
# 
# 
# High freq. dielectric constant tensor:
#      x y z
#    x 1.947590 -0.008440 0.022380 
#    y -0.008440 1.962370 0.006080 
#    z 0.022380 0.006080 1.944270 
# 
# From -- ./inp_files/63134.got.cif
#   From: 2010.06.25/outbox.cif.g09.slc.cpg/sg2_32_cif.got.tgz:63134.got - 2010.06.27 13:26:56.
