data_PCOD8009910
_publ_section_title
;
Structure prediction by ZEFSAII (Michael W. Deem and Ramdas Pophale) SiO2 
 PCOD8009910
Probable space group: P -1
;
_chemical_formula_sum "Si O2"
_cell_formula_units_Z 16
_cell_length_a 17.200755
_cell_length_b 5.536757
_cell_length_c 18.921542
_cell_angle_alpha 82.539292
_cell_angle_beta 158.574576
_cell_angle_gamma 91.329027
_cell_volume 628.503801
_symmetry_space_group_name_H-M "P -1"
_symmetry_group_IT_number 2
_symmetry_cell_setting 'triclinic'
loop_
_space_group_symop_operation_xyz
x,y,z
-x,-y,-z
loop_
_atom_site_type_symbol
_atom_site_label
_atom_site_fract_x
_atom_site_fract_y
_atom_site_fract_z
Si Si1 0.388659 0.794346 0.445063
Si Si2 0.699988 0.062161 0.376553
Si Si3 0.893802 0.998194 0.053319
Si Si4 0.406598 0.312127 0.231313
Si Si5 0.416549 0.730351 0.111857
Si Si6 0.865824 0.293965 0.891164
Si Si7 0.480935 0.717122 0.919836
Si Si8 0.212814 0.962473 0.802651
O O1 0.546218 0.636030 0.647357
O O2 0.332257 0.625384 0.338244
O O3 0.500000 0.000000 0.500000
O O4 0.158249 0.933285 0.282919
O O5 0.600827 0.078266 0.371981
O O6 0.598586 0.309084 0.228200
O O7 0.639567 0.823733 0.297109
O O8 0.957303 0.017878 0.598533
O O9 0.787665 0.038475 0.039158
O O10 0.791639 0.263767 0.911252
O O11 0.825299 0.764611 0.965007
O O12 0.434203 0.506792 0.188638
O O13 0.337649 0.704881 0.964594
O O14 0.000000 0.500000 0.000000
O O15 0.000000 0.000000 0.000000
O O16 0.279005 0.935057 0.777381
O O17 0.500000 0.500000 0.000000
O O18 0.704240 0.807797 0.102780
#
# Coordination Sequence:
#
# PCOD8009910 Si02
#       8
#     2   2   2   2   2   2   2   2
#     4  11  23  43  68  97 128 172 229 282 345 415
#     4  10  22  40  61  93 128 164 216 269 322 397
#     4  10  23  41  64  88 133 166 218 279 344 400
#     4  11  23  42  64  94 127 172 224 272 340 406
#     4  10  23  39  61  88 126 172 212 270 330 399
#     4  10  23  44  68  96 134 177 223 288 358 413
#     4  10  21  37  62  94 124 170 209 262 324 390
#     4  10  21  39  60  89 131 164 215 263 325 388
#
# _framework density 25.457284999999999
#
# number of rings (size 3 to 8) (size 9 to 14) (size 15 to 20)
#    0.000    1.750    1.250    1.875    3.500    2.500 
#    9.000    3.125    0.000    0.000    0.000    0.000 
#    0.000    0.000    0.000    0.000    0.000    0.000 
#
# Total GULP energy -198252.124879 kJ/mol
# GULP energy per Si atom -12390.757805 kJ/mol
# Density = 2.539934 g / cm^3
# Si number density = 25.457285 Si / 1000 Ang^3
#
#
#
# Elastic Constant Matrix: (Units=GPa)
#
#
# Indices 1 2 3 4 5 6 
#
# 1 155.5692 22.5453 39.0894 17.4929 -24.7185 9.3676
# 2 22.5453 101.4170 44.4807 19.6041 -17.5262 49.1118
# 3 39.0894 44.4807 157.8762 28.1373 -2.7631 23.1053
# 4 17.4929 19.6041 28.1373 40.1907 11.1665 -3.7805
# 5 -24.7185 -17.5262 -2.7631 11.1665 47.2828 -1.4300
# 6 9.3676 49.1118 23.1053 -3.7805 -1.4300 43.8491
#
#
#
# Elastic Compliance Matrix: (Units=1/GPa)
#
#
# Indices 1 2 3 4 5 6 
#
# 1 0.008678 0.005678 -0.000745 -0.009174 0.008512 -0.008334
# 2 0.005678 0.052531 0.001415 -0.043651 0.030909 -0.063550
# 3 -0.000745 0.001415 0.008437 -0.007491 0.002202 -0.006445
# 4 -0.009174 -0.043651 -0.007491 0.071146 -0.036409 0.059744
# 5 0.008512 0.030909 0.002202 -0.036409 0.044596 -0.039283
# 6 -0.008334 -0.063550 -0.006445 0.059744 -0.039283 0.103029
#
#
# Mechanical properties :
#
#
# Convention : Reuss Voigt Hill
#
# Bulk Modulus (GPa) = 12.14435 69.67701 40.91068
# Shear Modulus (GPa) = 16.49244 46.84764 31.67004
#
# Velocity S-wave (km/s) = 2.54805 4.29446 3.53093
# Velocity P-wave (km/s) = 3.66573 7.21245 5.72088
#
# Compressibility (1/GPa) = 0.08234281
#
# Stress axis : x y z
#
# Youngs Moduli (GPa) = 115.23022 19.03621 118.53113
#
# Poissons Ratio (x) = -0.10808 0.08825
# Poissons Ratio (y) = -0.65425 -0.16773
# Poissons Ratio (z) = 0.08580 -0.02694
#
# Static dielectric constant tensor:
#      x y z
#    x 7.085800 -0.384530 -0.146460 
#    y -0.384530 4.805600 -0.164860 
#    z -0.146460 -0.164860 4.484680 
# 
# 
# High freq. dielectric constant tensor:
#      x y z
#    x 2.070700 -0.001060 0.007210 
#    y -0.001060 2.022460 -0.001450 
#    z 0.007210 -0.001450 2.003170 
# 
# From -- ./inp_files/598995.got.cif
#   From: 2010.06.25/outbox.cif.g09.slc.cpg/sg2_300_cif.got.tgz:598995.got - 2010.06.27 13:26:56.
