data_PCOD8009274
_publ_section_title
;
Structure prediction by ZEFSAII (Michael W. Deem and Ramdas Pophale) SiO2 
 PCOD8009274
Probable space group: P -1
;
_chemical_formula_sum "Si O2"
_cell_formula_units_Z 16
_cell_length_a 12.109819
_cell_length_b 14.155643
_cell_length_c 12.833222
_cell_angle_alpha 97.165123
_cell_angle_beta 85.257028
_cell_angle_gamma 159.348838
_cell_volume 766.147569
_symmetry_space_group_name_H-M "P -1"
_symmetry_group_IT_number 2
_symmetry_cell_setting 'triclinic'
loop_
_space_group_symop_operation_xyz
x,y,z
-x,-y,-z
loop_
_atom_site_type_symbol
_atom_site_label
_atom_site_fract_x
_atom_site_fract_y
_atom_site_fract_z
Si Si1 0.589655 0.834556 0.806905
Si Si2 0.011603 0.731141 0.316868
Si Si3 0.854263 0.870014 0.731363
Si Si4 0.439896 0.574153 0.299883
Si Si5 0.505909 0.983597 0.377301
Si Si6 0.727764 0.258817 0.068026
Si Si7 0.448754 0.568012 0.531713
Si Si8 0.093722 0.477685 0.270373
O O1 0.707917 0.821905 0.826916
O O2 0.493204 0.825802 0.908309
O O3 0.265272 0.565156 0.730491
O O4 0.895086 0.120215 0.760351
O O5 0.329243 0.928180 0.329760
O O6 0.897052 0.691518 0.426545
O O7 0.745043 0.673959 0.726616
O O8 0.720719 0.813999 0.627714
O O9 0.226377 0.173017 0.744788
O O10 0.476706 0.640968 0.426549
O O11 0.263135 0.513063 0.238478
O O12 0.356516 0.763898 0.323953
O O13 0.500000 0.000000 0.500000
O O14 0.867268 0.276504 0.357342
O O15 0.886005 0.344603 0.171219
O O16 0.000000 0.500000 0.000000
O O17 0.500000 0.000000 0.000000
O O18 0.500000 0.500000 0.500000
#
# Coordination Sequence:
#
# PCOD8009274 Si02
#       8
#     2   2   2   2   2   2   2   2
#     4  11  21  40  63  90 121 154 209 267 323 378
#     4  11  20  35  56  84 127 164 203 259 301 361
#     4  10  21  36  60  87 123 172 212 256 303 365
#     4  11  22  38  58  88 128 174 212 253 309 366
#     4  12  23  38  59  92 132 180 205 243 320 385
#     4  12  25  44  72  95 120 161 216 282 345 382
#     4   9  19  33  53  86 121 168 219 244 282 358
#     4  12  25  44  62  93 136 165 218 269 315 398
#
# _framework density 20.883704999999999
#
# number of rings (size 3 to 8) (size 9 to 14) (size 15 to 20)
#    0.000    1.000    2.500    6.000    0.000    6.000 
#    0.000    0.000    0.000    4.500    0.000    0.000 
#    0.000    0.000    0.000    0.000    0.000    0.000 
#
# Total GULP energy -198290.887680 kJ/mol
# GULP energy per Si atom -12393.180480 kJ/mol
# Density = 2.083617 g / cm^3
# Si number density = 20.883705 Si / 1000 Ang^3
#
#
#
# Elastic Constant Matrix: (Units=GPa)
#
#
# Indices 1 2 3 4 5 6 
#
# 1 126.9232 22.2664 34.9698 -11.8283 -22.0899 12.9700
# 2 22.2664 78.5217 16.9240 -24.8000 -7.3453 6.0484
# 3 34.9698 16.9240 64.9752 -9.9859 -14.7342 -2.4438
# 4 -11.8283 -24.8000 -9.9859 27.8455 6.5359 -5.8781
# 5 -22.0899 -7.3453 -14.7342 6.5359 34.4255 -3.8159
# 6 12.9700 6.0484 -2.4438 -5.8781 -3.8159 41.0724
#
#
#
# Elastic Compliance Matrix: (Units=1/GPa)
#
#
# Indices 1 2 3 4 5 6 
#
# 1 0.010350 -0.001374 -0.004382 0.000008 0.004145 -0.002940
# 2 -0.001374 0.018255 -0.001857 0.015113 -0.000680 -0.000265
# 3 -0.004382 -0.001857 0.020050 0.003262 0.005175 0.003798
# 4 0.000008 0.015113 0.003262 0.052748 -0.004827 0.005067
# 5 0.004145 -0.000680 0.005175 -0.004827 0.034877 0.001649
# 6 -0.002940 -0.000265 0.003798 0.005067 0.001649 0.026419
#
#
# Mechanical properties :
#
#
# Convention : Reuss Voigt Hill
#
# Bulk Modulus (GPa) = 29.91340 46.52671 38.22006
# Shear Modulus (GPa) = 26.44553 33.75266 30.09909
#
# Velocity S-wave (km/s) = 3.56240 4.02459 3.80053
# Velocity P-wave (km/s) = 5.59248 6.62750 6.13187
#
# Compressibility (1/GPa) = 0.03342984
#
# Stress axis : x y z
#
# Youngs Moduli (GPa) = 96.62129 54.77928 49.87465
#
# Poissons Ratio (x) = 0.07525 0.21854
# Poissons Ratio (y) = 0.13273 0.09262
# Poissons Ratio (z) = 0.42338 0.10173
#
# Static dielectric constant tensor:
#      x y z
#    x 4.309360 0.220470 -0.194270 
#    y 0.220470 3.835340 0.297670 
#    z -0.194270 0.297670 3.578180 
# 
# 
# High freq. dielectric constant tensor:
#      x y z
#    x 1.839050 0.004660 -0.022040 
#    y 0.004660 1.833880 -0.011010 
#    z -0.022040 -0.011010 1.768980 
# 
# From -- ./inp_files/434052.got.cif
#   From: 2010.06.25/outbox.cif.g09.slc.cpg/sg2_218_cif.got.tgz:434052.got - 2010.06.27 13:26:56.
