data_PCOD8009011
_publ_section_title
;
Structure prediction by ZEFSAII (Michael W. Deem and Ramdas Pophale) SiO2 
 PCOD8009011
Probable space group: P -1
;
_chemical_formula_sum "Si O2"
_cell_formula_units_Z 12
_cell_length_a 15.659622
_cell_length_b 11.987357
_cell_length_c 14.150311
_cell_angle_alpha 159.853779
_cell_angle_beta 141.343660
_cell_angle_gamma 42.657631
_cell_volume 571.434061
_symmetry_space_group_name_H-M "P -1"
_symmetry_group_IT_number 2
_symmetry_cell_setting 'triclinic'
loop_
_space_group_symop_operation_xyz
x,y,z
-x,-y,-z
loop_
_atom_site_type_symbol
_atom_site_label
_atom_site_fract_x
_atom_site_fract_y
_atom_site_fract_z
Si Si1 0.291154 0.132010 0.868325
Si Si2 0.822324 0.657990 0.532093
Si Si3 0.983880 0.875703 0.679913
Si Si4 0.446427 0.143451 0.194064
Si Si5 0.261505 0.013995 0.099905
Si Si6 0.873903 0.278965 0.741269
O O1 0.428017 0.114401 0.908284
O O2 0.184862 0.874415 0.528256
O O3 0.330540 0.029066 0.928069
O O4 0.233835 0.499532 0.116693
O O5 0.868699 0.901642 0.683219
O O6 0.728136 0.836221 0.668690
O O7 0.960515 0.498469 0.572532
O O8 0.726432 0.373040 0.182985
O O9 0.918666 0.977802 0.605476
O O10 0.113504 0.105187 0.997796
O O11 0.500000 0.500000 0.500000
O O12 0.383595 0.146615 0.246509
O O13 0.000000 0.500000 0.000000
#
# Coordination Sequence:
#
# PCOD8009011 Si02
#       6
#     2   2   2   2   2   2
#     4  11  26  41  58  92 123 168 206 248 317 361
#     4   9  21  36  61  95 116 161 208 249 312 350
#     4   9  22  37  64  90 129 153 201 258 312 370
#     4  11  24  42  66  85 128 165 220 257 290 369
#     4  10  21  35  63  92 115 156 214 254 301 353
#     4  12  25  39  63  94 132 161 197 254 330 378
#
# _framework density 20.999797000000001
#
# number of rings (size 3 to 8) (size 9 to 14) (size 15 to 20)
#    1.000    0.667    1.667    2.000    7.000    0.000 
#    0.000    0.000    0.000    6.000    0.000    0.000 
#    0.000    0.000    0.000    0.000    0.000    0.000 
#
# Total GULP energy -148710.060960 kJ/mol
# GULP energy per Si atom -12392.505080 kJ/mol
# Density = 2.095200 g / cm^3
# Si number density = 20.999797 Si / 1000 Ang^3
#
#
#
# Elastic Constant Matrix: (Units=GPa)
#
#
# Indices 1 2 3 4 5 6 
#
# 1 154.3459 24.6452 31.3877 9.5001 -10.2194 11.5622
# 2 24.6452 65.3890 26.5952 -3.2126 0.8462 5.9370
# 3 31.3877 26.5952 113.7535 2.7323 -16.1698 0.3528
# 4 9.5001 -3.2126 2.7323 24.4642 -4.8561 -5.6743
# 5 -10.2194 0.8462 -16.1698 -4.8561 35.8533 7.5592
# 6 11.5622 5.9370 0.3528 -5.6743 7.5592 23.6824
#
#
#
# Elastic Compliance Matrix: (Units=1/GPa)
#
#
# Indices 1 2 3 4 5 6 
#
# 1 0.007838 -0.002237 -0.001212 -0.003892 0.002246 -0.004897
# 2 -0.002237 0.018101 -0.003965 0.002805 -0.002038 -0.002064
# 3 -0.001212 -0.003965 0.010709 -0.000369 0.004552 -0.000115
# 4 -0.003892 0.002805 -0.000369 0.045936 0.002472 0.011420
# 5 0.002246 -0.002038 0.004552 0.002472 0.033216 -0.010663
# 6 -0.004897 -0.002064 -0.000115 0.011420 -0.010663 0.051275
#
#
# Mechanical properties :
#
#
# Convention : Reuss Voigt Hill
#
# Bulk Modulus (GPa) = 45.83162 55.41608 50.62385
# Shear Modulus (GPa) = 26.43060 33.52399 29.97730
#
# Velocity S-wave (km/s) = 3.55154 3.99983 3.78233
# Velocity P-wave (km/s) = 6.22014 6.91214 6.57525
#
# Compressibility (1/GPa) = 0.02181900
#
# Stress axis : x y z
#
# Youngs Moduli (GPa) = 127.58979 55.24703 93.38214
#
# Poissons Ratio (x) = 0.12358 0.11316
# Poissons Ratio (y) = 0.28539 0.37029
# Poissons Ratio (z) = 0.15461 0.21907
#
# Static dielectric constant tensor:
#      x y z
#    x 3.778480 -0.233340 -0.118370 
#    y -0.233340 3.563170 0.028280 
#    z -0.118370 0.028280 3.698880 
# 
# 
# High freq. dielectric constant tensor:
#      x y z
#    x 1.827070 -0.010180 -0.009800 
#    y -0.010180 1.780370 0.012490 
#    z -0.009800 0.012490 1.818460 
# 
# From -- ./inp_files/452017.got.cif
#   From: 2010.06.25/outbox.cif.g09.slc.cpg/sg2_227_cif.got.tgz:452017.got - 2010.06.27 13:26:56.
