data_PCOD8009343
_publ_section_title
;
Structure prediction by ZEFSAII (Michael W. Deem and Ramdas Pophale) SiO2 
 PCOD8009343
Probable space group: P -1
;
_chemical_formula_sum "Si O2"
_cell_formula_units_Z 16
_cell_length_a 8.946657
_cell_length_b 14.074573
_cell_length_c 11.513115
_cell_angle_alpha 147.789294
_cell_angle_beta 101.692129
_cell_angle_gamma 81.296021
_cell_volume 756.161631
_symmetry_space_group_name_H-M "P -1"
_symmetry_group_IT_number 2
_symmetry_cell_setting 'triclinic'
loop_
_space_group_symop_operation_xyz
x,y,z
-x,-y,-z
loop_
_atom_site_type_symbol
_atom_site_label
_atom_site_fract_x
_atom_site_fract_y
_atom_site_fract_z
Si Si1 0.441952 0.500286 0.677461
Si Si2 0.833463 0.217444 0.710067
Si Si3 0.346409 0.172090 0.971907
Si Si4 0.813481 0.809023 0.274555
Si Si5 0.246080 0.456285 0.820514
Si Si6 0.176900 0.345321 0.321854
Si Si7 0.691058 0.224611 0.450914
Si Si8 0.018728 0.658790 0.505227
O O1 0.387642 0.464069 0.762747
O O2 0.306233 0.469494 0.533327
O O3 0.579927 0.371907 0.537662
O O4 0.500595 0.703977 0.880055
O O5 0.744585 0.275481 0.641214
O O6 0.012900 0.248178 0.749094
O O7 0.794297 0.011655 0.524449
O O8 0.780087 0.342191 0.934528
O O9 0.239578 0.215766 0.891551
O O10 0.396470 0.968115 0.765239
O O11 0.252165 0.197384 0.101729
O O12 0.713205 0.674428 0.201490
O O13 0.095418 0.368780 0.648152
O O14 0.074711 0.465019 0.348221
O O15 0.068235 0.252562 0.307649
O O16 0.839382 0.214181 0.380772
#
# Coordination Sequence:
#
# PCOD8009343 Si02
#       8
#     2   2   2   2   2   2   2   2
#     4  11  25  42  59  88 125 160 199 244 295 357
#     4  10  21  36  61  94 123 152 195 248 298 351
#     4  11  23  39  63  88 123 160 196 242 304 350
#     4  10  21  37  61  94 122 151 198 249 292 354
#     4  11  22  39  65  89 121 161 195 241 303 352
#     4  10  22  42  64  86 121 156 200 255 294 345
#     4  11  23  39  63  91 120 156 203 243 295 362
#     4  10  21  40  65  92 115 153 206 251 292 350
#
# _framework density 21.159496000000001
#
# number of rings (size 3 to 8) (size 9 to 14) (size 15 to 20)
#    0.000    1.500    2.500    2.250    0.000    4.000 
#    0.000    2.500    0.000    0.000    0.000    0.000 
#    0.000    0.000    0.000    0.000    0.000    0.000 
#
# Total GULP energy -198456.734459 kJ/mol
# GULP energy per Si atom -12403.545904 kJ/mol
# Density = 2.111134 g / cm^3
# Si number density = 21.159496 Si / 1000 Ang^3
#
#
#
# Elastic Constant Matrix: (Units=GPa)
#
#
# Indices 1 2 3 4 5 6 
#
# 1 102.2975 21.0594 33.0785 0.7394 1.7043 21.8219
# 2 21.0594 58.9100 30.2395 -1.3603 1.2442 14.4262
# 3 33.0785 30.2395 79.1478 -1.2659 -3.4020 24.6037
# 4 0.7394 -1.3603 -1.2659 24.3887 8.1170 -2.4018
# 5 1.7043 1.2442 -3.4020 8.1170 22.2512 -4.9021
# 6 21.8219 14.4262 24.6037 -2.4018 -4.9021 31.0754
#
#
#
# Elastic Compliance Matrix: (Units=1/GPa)
#
#
# Indices 1 2 3 4 5 6 
#
# 1 0.012343 -0.001405 -0.002801 -0.000368 -0.002532 -0.006226
# 2 -0.001405 0.022079 -0.006580 0.001740 -0.003762 -0.004513
# 3 -0.002801 -0.006580 0.019572 -0.000813 0.001606 -0.010284
# 4 -0.000368 0.001740 -0.000813 0.046846 -0.017057 0.001025
# 5 -0.002532 -0.003762 0.001606 -0.017057 0.053892 0.009436
# 6 -0.006226 -0.004513 -0.010284 0.001025 0.009436 0.048357
#
#
# Mechanical properties :
#
#
# Convention : Reuss Voigt Hill
#
# Bulk Modulus (GPa) = 30.84229 45.45668 38.14949
# Shear Modulus (GPa) = 21.23416 25.94159 23.58788
#
# Velocity S-wave (km/s) = 3.17129 3.50523 3.34243
# Velocity P-wave (km/s) = 5.29313 6.15725 5.74147
#
# Compressibility (1/GPa) = 0.03242302
#
# Stress axis : x y z
#
# Youngs Moduli (GPa) = 81.01513 45.29088 51.09326
#
# Poissons Ratio (x) = 0.06364 0.14313
# Poissons Ratio (y) = 0.11383 0.33617
# Poissons Ratio (z) = 0.22695 0.29799
#
# Static dielectric constant tensor:
#      x y z
#    x 3.835680 0.135260 0.011050 
#    y 0.135260 3.796710 -0.168060 
#    z 0.011050 -0.168060 3.753670 
# 
# 
# High freq. dielectric constant tensor:
#      x y z
#    x 1.825680 0.005610 0.002390 
#    y 0.005610 1.835030 -0.012560 
#    z 0.002390 -0.012560 1.823350 
# 
# From -- ./inp_files/256018.got.cif
#   From: 2010.06.25/outbox.cif.g09.slc.cpg/sg2_129_cif.got.tgz:256018.got - 2010.06.27 13:26:56.
