data_PCOD8009774
_publ_section_title
;
Structure prediction by ZEFSAII (Michael W. Deem and Ramdas Pophale) SiO2 
 PCOD8009774
Probable space group: P -1
;
_chemical_formula_sum "Si O2"
_cell_formula_units_Z 16
_cell_length_a 5.285034
_cell_length_b 26.417875
_cell_length_c 10.294828
_cell_angle_alpha 45.855647
_cell_angle_beta 99.377291
_cell_angle_gamma 122.831971
_cell_volume 809.883298
_symmetry_space_group_name_H-M "P -1"
_symmetry_group_IT_number 2
_symmetry_cell_setting 'triclinic'
loop_
_space_group_symop_operation_xyz
x,y,z
-x,-y,-z
loop_
_atom_site_type_symbol
_atom_site_label
_atom_site_fract_x
_atom_site_fract_y
_atom_site_fract_z
Si Si1 0.828523 0.115314 0.452005
Si Si2 0.473298 0.288055 0.212441
Si Si3 0.497576 0.222429 0.908899
Si Si4 0.946404 0.727019 0.324881
Si Si5 0.946353 0.250324 0.408319
Si Si6 0.796666 0.378721 0.826845
Si Si7 0.425481 0.542683 0.526821
Si Si8 0.282487 0.052013 0.326231
O O1 0.748068 0.151228 0.506230
O O2 0.628357 0.106844 0.325884
O O3 0.206259 0.188025 0.316144
O O4 0.754438 0.020945 0.644314
O O5 0.773845 0.295737 0.283675
O O6 0.306457 0.311066 0.265368
O O7 0.591832 0.356293 0.980598
O O8 0.250480 0.241007 0.808589
O O9 0.732770 0.288786 0.927613
O O10 0.720913 0.230862 0.797207
O O11 0.268089 0.121101 0.119533
O O12 0.737388 0.619424 0.497085
O O13 0.033185 0.759988 0.419866
O O14 0.704807 0.410140 0.639758
O O15 0.165799 0.461002 0.745244
O O16 0.500000 0.500000 0.500000
O O17 0.000000 0.000000 0.500000
#
# Coordination Sequence:
#
# PCOD8009774 Si02
#       8
#     2   2   2   2   2   2   2   2
#     4   9  22  36  64  89 124 158 193 255 299 357
#     4  10  22  39  67  88 119 164 207 244 300 361
#     4  11  24  37  65  91 121 162 200 252 302 370
#     4  11  24  43  61  88 125 165 209 237 306 366
#     4  10  22  42  62  86 122 173 200 247 291 362
#     4  10  21  37  60  95 121 153 204 253 311 355
#     4  10  21  37  61  89 126 155 195 262 306 352
#     4  11  22  38  62  97 125 148 201 259 310 346
#
# _framework density 19.755932999999999
#
# number of rings (size 3 to 8) (size 9 to 14) (size 15 to 20)
#    0.750    1.000    1.250    3.000    8.750    0.000 
#    0.000    2.500    0.000    0.000    0.000    0.000 
#    0.000    0.000    0.000    0.000    0.000    0.000 
#
# Total GULP energy -198281.474020 kJ/mol
# GULP energy per Si atom -12392.592126 kJ/mol
# Density = 1.971097 g / cm^3
# Si number density = 19.755933 Si / 1000 Ang^3
#
#
#
# Elastic Constant Matrix: (Units=GPa)
#
#
# Indices 1 2 3 4 5 6 
#
# 1 95.4473 9.5688 23.1503 -0.7109 -14.3330 -7.2690
# 2 9.5688 69.0179 27.7135 -2.5882 -6.7572 -4.8570
# 3 23.1503 27.7135 95.3485 -7.2097 -22.3571 -0.9886
# 4 -0.7109 -2.5882 -7.2097 27.1307 -4.8747 -4.1827
# 5 -14.3330 -6.7572 -22.3571 -4.8747 31.2998 4.1318
# 6 -7.2690 -4.8570 -0.9886 -4.1827 4.1318 23.3995
#
#
#
# Elastic Compliance Matrix: (Units=1/GPa)
#
#
# Indices 1 2 3 4 5 6 
#
# 1 0.011743 -0.000297 -0.001770 0.000956 0.003800 0.003011
# 2 -0.000297 0.016674 -0.004734 0.000799 -0.000236 0.003353
# 3 -0.001770 -0.004734 0.014965 0.004981 0.009864 -0.001752
# 4 0.000956 0.000799 0.004981 0.041000 0.009724 0.006285
# 5 0.003800 -0.000236 0.009864 0.009724 0.042761 -0.004264
# 6 0.003011 0.003353 -0.001752 0.006285 -0.004264 0.046170
#
#
# Mechanical properties :
#
#
# Convention : Reuss Voigt Hill
#
# Bulk Modulus (GPa) = 33.58158 42.29766 37.93962
# Shear Modulus (GPa) = 25.40091 29.65807 27.52949
#
# Velocity S-wave (km/s) = 3.58961 3.87877 3.73698
# Velocity P-wave (km/s) = 5.84940 6.44332 6.15353
#
# Compressibility (1/GPa) = 0.02977823
#
# Stress axis : x y z
#
# Youngs Moduli (GPa) = 85.15508 59.97324 66.82265
#
# Poissons Ratio (x) = 0.01784 0.11829
# Poissons Ratio (y) = 0.02533 0.31637
# Poissons Ratio (z) = 0.15074 0.28394
#
# Static dielectric constant tensor:
#      x y z
#    x 3.604470 0.050910 -0.165760 
#    y 0.050910 3.705900 -0.336700 
#    z -0.165760 -0.336700 3.525690 
# 
# 
# High freq. dielectric constant tensor:
#      x y z
#    x 1.778040 -0.006840 -0.007870 
#    y -0.006840 1.756830 -0.015660 
#    z -0.007870 -0.015660 1.754480 
# 
# From -- ./inp_files/110864.got.cif
#   From: 2010.06.25/outbox.cif.g09.slc.cpg/sg2_56_cif.got.tgz:110864.got - 2010.06.27 13:26:56.
