data_PCOD8009793
_publ_section_title
;
Structure prediction by ZEFSAII (Michael W. Deem and Ramdas Pophale) SiO2 
 PCOD8009793
Probable space group: P -1
;
_chemical_formula_sum "Si O2"
_cell_formula_units_Z 12
_cell_length_a 13.918621
_cell_length_b 6.132697
_cell_length_c 15.941005
_cell_angle_alpha 90.321106
_cell_angle_beta 25.637658
_cell_angle_gamma 100.547123
_cell_volume 536.613654
_symmetry_space_group_name_H-M "P -1"
_symmetry_group_IT_number 2
_symmetry_cell_setting 'triclinic'
loop_
_space_group_symop_operation_xyz
x,y,z
-x,-y,-z
loop_
_atom_site_type_symbol
_atom_site_label
_atom_site_fract_x
_atom_site_fract_y
_atom_site_fract_z
Si Si1 0.549635 0.255413 0.055713
Si Si2 0.408051 0.476968 0.807512
Si Si3 0.473481 0.290237 0.456593
Si Si4 0.159134 0.375121 0.294871
Si Si5 0.356909 0.771490 0.275534
Si Si6 0.898785 0.124436 0.150832
O O1 0.536096 0.336876 0.160936
O O2 0.331408 0.232485 0.162549
O O3 0.534634 0.987636 0.077127
O O4 0.795035 0.447044 0.820641
O O5 0.562136 0.622194 0.607097
O O6 0.494775 0.266823 0.762993
O O7 0.121687 0.351674 0.013216
O O8 0.500000 0.500000 0.500000
O O9 0.706710 0.223718 0.267354
O O10 0.230913 0.061602 0.672798
O O11 0.233851 0.524898 0.322016
O O12 0.878610 0.182748 0.509168
O O13 0.000000 0.000000 0.000000
#
# Coordination Sequence:
#
# PCOD8009793 Si02
#       6
#     2   2   2   2   2   2
#     4  10  21  37  61  86 127 163 208 265 314 379
#     4  11  25  38  60  98 123 163 219 266 321 383
#     4  11  25  44  68  93 127 173 217 269 331 389
#     4   9  20  39  58  89 120 169 208 253 323 379
#     4  10  21  37  61  88 125 161 211 261 313 386
#     4  11  25  45  69  93 128 174 216 269 332 391
#
# _framework density 22.362455000000001
#
# number of rings (size 3 to 8) (size 9 to 14) (size 15 to 20)
#    0.000    1.667    1.667    1.500    2.333    4.000 
#    0.000    3.333    0.000    0.000    0.000    0.000 
#    0.000    0.000    0.000    0.000    0.000    0.000 
#
# Total GULP energy -148728.800872 kJ/mol
# GULP energy per Si atom -12394.066739 kJ/mol
# Density = 2.231156 g / cm^3
# Si number density = 22.362455 Si / 1000 Ang^3
#
#
#
# Elastic Constant Matrix: (Units=GPa)
#
#
# Indices 1 2 3 4 5 6 
#
# 1 91.8102 22.7361 42.8508 -9.7964 18.6763 -25.6515
# 2 22.7361 77.5304 25.1187 -4.9646 2.3397 -23.7871
# 3 42.8508 25.1187 102.8559 -6.5067 14.6150 -15.3976
# 4 -9.7964 -4.9646 -6.5067 41.7131 -7.9118 11.3056
# 5 18.6763 2.3397 14.6150 -7.9118 31.8432 -8.6101
# 6 -25.6515 -23.7871 -15.3976 11.3056 -8.6101 42.2628
#
#
#
# Elastic Compliance Matrix: (Units=1/GPa)
#
#
# Indices 1 2 3 4 5 6 
#
# 1 0.016319 -0.001106 -0.004778 0.000181 -0.005531 0.006367
# 2 -0.001106 0.016564 -0.002768 -0.000441 0.002848 0.008341
# 3 -0.004778 -0.002768 0.012747 0.000098 -0.002939 -0.000439
# 4 0.000181 -0.000441 0.000098 0.026579 0.004799 -0.006235
# 5 -0.005531 0.002848 -0.002939 0.004799 0.037960 0.003625
# 6 0.006367 0.008341 -0.000439 -0.006235 0.003625 0.034467
#
#
# Mechanical properties :
#
#
# Convention : Reuss Voigt Hill
#
# Bulk Modulus (GPa) = 35.30339 50.40086 42.85212
# Shear Modulus (GPa) = 29.17439 35.26321 32.21880
#
# Velocity S-wave (km/s) = 3.61586 3.97532 3.79984
# Velocity P-wave (km/s) = 5.76661 6.60742 6.20128
#
# Compressibility (1/GPa) = 0.02832589
#
# Stress axis : x y z
#
# Youngs Moduli (GPa) = 61.27734 60.37025 78.44871
#
# Poissons Ratio (x) = 0.06675 0.37485
# Poissons Ratio (y) = 0.06776 0.21718
# Poissons Ratio (z) = 0.29280 0.16713
#
# Static dielectric constant tensor:
#      x y z
#    x 4.034740 -0.367930 -0.014980 
#    y -0.367930 4.097550 0.113720 
#    z -0.014980 0.113720 4.356580 
# 
# 
# High freq. dielectric constant tensor:
#      x y z
#    x 1.872140 -0.015240 0.011000 
#    y -0.015240 1.880530 -0.007090 
#    z 0.011000 -0.007090 1.886170 
# 
# From -- ./inp_files/94974.got.cif
#   From: 2010.06.25/outbox.cif.g09.slc.cpg/sg2_48_cif.got.tgz:94974.got - 2010.06.27 13:26:56.
