data_PCOD8009432
_publ_section_title
;
Structure prediction by ZEFSAII (Michael W. Deem and Ramdas Pophale) SiO2 
 PCOD8009432
Probable space group: P -1
;
_chemical_formula_sum "Si O2"
_cell_formula_units_Z 16
_cell_length_a 13.421339
_cell_length_b 18.338195
_cell_length_c 11.078493
_cell_angle_alpha 146.450350
_cell_angle_beta 123.904568
_cell_angle_gamma 32.462917
_cell_volume 705.069963
_symmetry_space_group_name_H-M "P -1"
_symmetry_group_IT_number 2
_symmetry_cell_setting 'triclinic'
loop_
_space_group_symop_operation_xyz
x,y,z
-x,-y,-z
loop_
_atom_site_type_symbol
_atom_site_label
_atom_site_fract_x
_atom_site_fract_y
_atom_site_fract_z
Si Si1 0.473923 0.243926 0.657305
Si Si2 0.293875 0.827881 0.484790
Si Si3 0.909840 0.860988 0.530875
Si Si4 0.161088 0.670013 0.209031
Si Si5 0.636514 0.124883 0.159595
Si Si6 0.966570 0.089061 0.970819
Si Si7 0.750345 0.724058 0.651660
Si Si8 0.205572 0.528498 0.480935
O O1 0.568006 0.280611 0.693363
O O2 0.373287 0.228490 0.478556
O O3 0.682252 0.000762 0.536883
O O4 0.289779 0.449586 0.910354
O O5 0.312565 0.660545 0.313814
O O6 0.380960 0.850385 0.673131
O O7 0.048502 0.092762 0.673911
O O8 0.089830 0.668286 0.285107
O O9 0.989036 0.728874 0.530771
O O10 0.875250 0.053223 0.777433
O O11 0.397688 0.390126 0.326445
O O12 0.809278 0.067878 0.146888
O O13 0.673694 0.942471 0.896323
O O14 0.811752 0.355832 0.254429
O O15 0.000000 0.000000 0.000000
O O16 0.725554 0.675511 0.698313
O O17 0.000000 0.500000 0.500000
#
# Coordination Sequence:
#
# PCOD8009432 Si02
#       8
#     2   2   2   2   2   2   2   2
#     4  11  24  41  67  97 138 179 222 278 344 395
#     4  10  21  36  64 102 128 174 224 282 334 402
#     4  10  24  43  66 101 139 173 223 279 346 411
#     4  10  21  39  64  97 142 170 218 278 348 404
#     4  12  23  42  71  99 137 178 230 275 342 389
#     4  10  23  42  67 103 141 173 223 283 339 406
#     4  12  25  46  72  99 134 181 237 282 325 402
#     4  11  25  43  70 102 134 181 230 280 337 400
#
# _framework density 22.692784
#
# number of rings (size 3 to 8) (size 9 to 14) (size 15 to 20)
#    0.000    1.250    3.750    1.500    1.750    4.000 
#    0.000    1.250    0.000    0.000    0.000    0.000 
#    0.000    0.000    0.000    0.000    0.000    0.000 
#
# Total GULP energy -198234.915576 kJ/mol
# GULP energy per Si atom -12389.682224 kJ/mol
# Density = 2.264113 g / cm^3
# Si number density = 22.692784 Si / 1000 Ang^3
#
#
#
# Elastic Constant Matrix: (Units=GPa)
#
#
# Indices 1 2 3 4 5 6 
#
# 1 58.6280 30.1939 24.8036 -3.2145 -12.4281 -7.5585
# 2 30.1939 129.1081 38.0611 -12.9545 6.2759 -12.0824
# 3 24.8036 38.0611 83.5354 -12.4828 -24.0627 -7.0005
# 4 -3.2145 -12.9545 -12.4828 30.0730 -9.0972 -5.7585
# 5 -12.4281 6.2759 -24.0627 -9.0972 36.2143 -0.0235
# 6 -7.5585 -12.0824 -7.0005 -5.7585 -0.0235 31.9900
#
#
#
# Elastic Compliance Matrix: (Units=1/GPa)
#
#
# Indices 1 2 3 4 5 6 
#
# 1 0.022435 -0.004574 -0.001382 0.003118 0.008359 0.003838
# 2 -0.004574 0.010974 -0.005496 0.000178 -0.007077 0.001888
# 3 -0.001382 -0.005496 0.022878 0.013745 0.019136 0.005093
# 4 0.003118 0.000178 0.013745 0.048542 0.022374 0.012566
# 5 0.008359 -0.007077 0.019136 0.022374 0.050049 0.007554
# 6 0.003838 0.001888 0.005093 0.012566 0.007554 0.036262
#
#
# Mechanical properties :
#
#
# Convention : Reuss Voigt Hill
#
# Bulk Modulus (GPa) = 29.95466 50.82097 40.38781
# Shear Modulus (GPa) = 22.20551 31.53632 26.87091
#
# Velocity S-wave (km/s) = 3.13154 3.73192 3.44483
# Velocity P-wave (km/s) = 5.12875 6.40418 5.80162
#
# Compressibility (1/GPa) = 0.03338379
#
# Stress axis : x y z
#
# Youngs Moduli (GPa) = 44.57398 91.12662 43.70996
#
# Poissons Ratio (x) = 0.41677 0.06041
# Poissons Ratio (y) = 0.20386 0.24022
# Poissons Ratio (z) = 0.06160 0.50081
#
# Static dielectric constant tensor:
#      x y z
#    x 4.027310 -0.269680 0.032100 
#    y -0.269680 4.193590 -0.013500 
#    z 0.032100 -0.013500 2.817580 
# 
# 
# High freq. dielectric constant tensor:
#      x y z
#    x 1.886190 -0.016200 -0.022930 
#    y -0.016200 1.899250 -0.001840 
#    z -0.022930 -0.001840 1.893380 
# 
# From -- ./inp_files/457749.got.cif
#   From: 2010.06.25/outbox.cif.g09.slc.cpg/sg2_229_cif.got.tgz:457749.got - 2010.06.27 13:26:56.
