data_PCOD8009833
_publ_section_title
;
Structure prediction by ZEFSAII (Michael W. Deem and Ramdas Pophale) SiO2 
 PCOD8009833
Probable space group: P -1
;
_chemical_formula_sum "Si O2"
_cell_formula_units_Z 16
_cell_length_a 12.175074
_cell_length_b 14.657309
_cell_length_c 9.574588
_cell_angle_alpha 40.884821
_cell_angle_beta 114.225621
_cell_angle_gamma 134.420328
_cell_volume 772.528399
_symmetry_space_group_name_H-M "P -1"
_symmetry_group_IT_number 2
_symmetry_cell_setting 'triclinic'
loop_
_space_group_symop_operation_xyz
x,y,z
-x,-y,-z
loop_
_atom_site_type_symbol
_atom_site_label
_atom_site_fract_x
_atom_site_fract_y
_atom_site_fract_z
Si Si1 0.956197 0.789084 0.856303
Si Si2 0.504296 0.704500 0.454333
Si Si3 0.536495 0.963414 0.371578
Si Si4 0.171940 0.188928 0.516063
Si Si5 0.867113 0.327567 0.034450
Si Si6 0.645240 0.609976 0.056980
Si Si7 0.674298 0.433541 0.751613
Si Si8 0.467453 0.194750 0.165363
O O1 0.924771 0.807569 0.659430
O O2 0.795382 0.652365 0.015029
O O3 0.058284 0.986510 0.759742
O O4 0.052576 0.717220 0.981893
O O5 0.487762 0.849251 0.336130
O O6 0.677573 0.781443 0.498860
O O7 0.380234 0.504468 0.689111
O O8 0.473977 0.682415 0.298108
O O9 0.488629 0.823033 0.635086
O O10 0.429020 0.023712 0.256519
O O11 0.725639 0.145864 0.261243
O O12 0.228856 0.349209 0.469981
O O13 0.788147 0.389592 0.828263
O O14 0.000000 0.500000 0.000000
O O15 0.500000 0.500000 0.000000
O O16 0.670318 0.791324 0.909427
O O17 0.613039 0.380072 0.943185
#
# Coordination Sequence:
#
# PCOD8009833 Si02
#       8
#     2   2   2   2   2   2   2   2
#     4  11  23  39  66  95 127 165 217 269 308 373
#     4  12  23  41  66  97 131 165 214 264 322 384
#     4  10  22  39  63  95 123 163 215 265 313 370
#     4  11  21  39  63  94 126 165 211 261 317 372
#     4  11  23  40  64  91 129 172 215 258 318 384
#     4  12  22  38  65  96 126 165 217 265 314 370
#     4  11  24  41  66  96 130 170 208 264 326 379
#     4  10  21  37  61  94 123 158 212 267 306 360
#
# _framework density 20.711213999999998
#
# number of rings (size 3 to 8) (size 9 to 14) (size 15 to 20)
#    0.000    1.000    6.250    0.375    3.500    2.000 
#    0.000    1.250    2.750    0.000    0.000    0.000 
#    0.000    0.000    0.000    0.000    0.000    0.000 
#
# Total GULP energy -198280.496284 kJ/mol
# GULP energy per Si atom -12392.531018 kJ/mol
# Density = 2.066407 g / cm^3
# Si number density = 20.711214 Si / 1000 Ang^3
#
#
#
# Elastic Constant Matrix: (Units=GPa)
#
#
# Indices 1 2 3 4 5 6 
#
# 1 139.8214 23.1669 33.3273 -7.5707 12.2700 -13.9841
# 2 23.1669 90.7210 35.4754 -12.7707 2.8483 -15.3015
# 3 33.3273 35.4754 76.0637 -14.1857 -3.0738 -4.4072
# 4 -7.5707 -12.7707 -14.1857 21.3157 -3.4039 4.0813
# 5 12.2700 2.8483 -3.0738 -3.4039 35.4287 -11.4398
# 6 -13.9841 -15.3015 -4.4072 4.0813 -11.4398 24.9488
#
#
#
# Elastic Compliance Matrix: (Units=1/GPa)
#
#
# Indices 1 2 3 4 5 6 
#
# 1 0.008538 -0.000247 -0.003636 -0.000482 -0.002329 0.003003
# 2 -0.000247 0.015208 -0.005735 0.003861 0.001376 0.008175
# 3 -0.003636 -0.005735 0.019113 0.008948 0.003594 -0.001995
# 4 -0.000482 0.003861 0.008948 0.056434 0.005002 -0.003259
# 5 -0.002329 0.001376 0.003594 0.005002 0.034634 0.015235
# 6 0.003003 0.008175 -0.001995 -0.003259 0.015235 0.053946
#
#
# Mechanical properties :
#
#
# Convention : Reuss Voigt Hill
#
# Bulk Modulus (GPa) = 42.33111 54.50503 48.41807
# Shear Modulus (GPa) = 23.25766 30.64774 26.95270
#
# Velocity S-wave (km/s) = 3.35468 3.85095 3.61135
# Velocity P-wave (km/s) = 5.95720 6.79315 6.38886
#
# Compressibility (1/GPa) = 0.02362329
#
# Stress axis : x y z
#
# Youngs Moduli (GPa) = 117.12127 65.75621 52.31950
#
# Poissons Ratio (x) = 0.01623 0.19023
# Poissons Ratio (y) = 0.02891 0.30006
# Poissons Ratio (z) = 0.42585 0.37713
#
# Static dielectric constant tensor:
#      x y z
#    x 4.016150 -0.198450 0.238540 
#    y -0.198450 3.549730 -0.367550 
#    z 0.238540 -0.367550 3.804490 
# 
# 
# High freq. dielectric constant tensor:
#      x y z
#    x 1.820730 -0.020840 0.019110 
#    y -0.020840 1.781540 -0.026990 
#    z 0.019110 -0.026990 1.800940 
# 
# From -- ./inp_files/260775.got.cif
#   From: 2010.06.25/outbox.cif.g09.slc.cpg/sg2_131_cif.got.tgz:260775.got - 2010.06.27 13:26:56.
