data_PCOD8009959
_publ_section_title
;
Structure prediction by ZEFSAII (Michael W. Deem and Ramdas Pophale) SiO2 
 PCOD8009959
Probable space group: P -1
;
_chemical_formula_sum "Si O2"
_cell_formula_units_Z 14
_cell_length_a 11.533308
_cell_length_b 10.642530
_cell_length_c 12.929456
_cell_angle_alpha 132.500353
_cell_angle_beta 146.274165
_cell_angle_gamma 58.373892
_cell_volume 646.904390
_symmetry_space_group_name_H-M "P -1"
_symmetry_group_IT_number 2
_symmetry_cell_setting 'triclinic'
loop_
_space_group_symop_operation_xyz
x,y,z
-x,-y,-z
loop_
_atom_site_type_symbol
_atom_site_label
_atom_site_fract_x
_atom_site_fract_y
_atom_site_fract_z
Si Si1 0.940950 0.782194 0.458330
Si Si2 0.767459 0.506537 0.501086
Si Si3 0.569919 0.626046 0.215080
Si Si4 0.845521 0.828476 0.876219
Si Si5 0.485148 0.224587 0.227741
Si Si6 0.310013 0.909193 0.241556
Si Si7 0.258510 0.057040 0.784217
O O1 0.751930 0.771060 0.393791
O O2 0.866400 0.814945 0.304345
O O3 0.035447 0.600130 0.433383
O O4 0.112472 0.943301 0.696416
O O5 0.647622 0.525178 0.314714
O O6 0.848105 0.689373 0.709436
O O7 0.616050 0.408843 0.420147
O O8 0.368944 0.721726 0.150574
O O9 0.500000 0.500000 0.000000
O O10 0.713128 0.756893 0.836443
O O11 0.728788 0.985810 0.832756
O O12 0.085071 0.885197 0.121102
O O13 0.631065 0.073553 0.283905
O O14 0.422892 0.178097 0.037808
O O15 0.500000 0.000000 0.500000
#
# Coordination Sequence:
#
# PCOD8009959 Si02
#       7
#     2   2   2   2   2   2   2
#     4  10  21  37  63  90 127 168 211 271 330 369
#     4  11  23  41  61  97 134 166 220 273 315 401
#     4  12  24  41  67  94 132 171 218 272 329 376
#     4  11  24  43  68  91 132 176 214 264 335 382
#     4  10  21  39  65  90 128 169 212 268 328 376
#     4  11  25  45  66  96 133 169 223 267 316 399
#     4   9  20  39  61  95 124 160 223 268 312 399
#
# _framework density 21.641528000000001
#
# number of rings (size 3 to 8) (size 9 to 14) (size 15 to 20)
#    0.000    1.429    1.429    3.429    2.000    2.286 
#    0.000    1.429    0.000    0.000    0.000    0.000 
#    0.000    0.000    0.000    0.000    0.000    0.000 
#
# Total GULP energy -173573.206220 kJ/mol
# GULP energy per Si atom -12398.086159 kJ/mol
# Density = 2.159227 g / cm^3
# Si number density = 21.641528 Si / 1000 Ang^3
#
#
#
# Elastic Constant Matrix: (Units=GPa)
#
#
# Indices 1 2 3 4 5 6 
#
# 1 89.7002 23.5767 26.2359 -10.4781 20.1952 1.2097
# 2 23.5767 137.3528 32.1708 -19.8522 -9.8783 3.4030
# 3 26.2359 32.1708 103.2936 -15.1963 5.1058 -5.9468
# 4 -10.4781 -19.8522 -15.1963 32.5056 -3.8259 2.6313
# 5 20.1952 -9.8783 5.1058 -3.8259 39.8216 1.2960
# 6 1.2097 3.4030 -5.9468 2.6313 1.2960 22.5387
#
#
#
# Elastic Compliance Matrix: (Units=1/GPa)
#
#
# Indices 1 2 3 4 5 6 
#
# 1 0.014243 -0.002190 -0.002426 0.001325 -0.007302 -0.000809
# 2 -0.002190 0.009153 -0.001962 0.004665 0.004165 -0.002566
# 3 -0.002426 -0.001962 0.011574 0.003112 -0.000544 0.003148
# 4 0.001325 0.004665 0.003112 0.036289 0.003716 -0.004405
# 5 -0.007302 0.004165 -0.000544 0.003716 0.030358 -0.002560
# 6 -0.000809 -0.002566 0.003148 -0.004405 -0.002560 0.046291
#
#
# Mechanical properties :
#
#
# Convention : Reuss Voigt Hill
#
# Bulk Modulus (GPa) = 45.84092 54.92371 50.38232
# Shear Modulus (GPa) = 29.70235 35.53072 32.61653
#
# Velocity S-wave (km/s) = 3.70871 4.05629 3.88639
# Velocity P-wave (km/s) = 6.29025 6.88273 6.59315
#
# Compressibility (1/GPa) = 0.02181457
#
# Stress axis : x y z
#
# Youngs Moduli (GPa) = 70.20886 109.25026 86.39803
#
# Poissons Ratio (x) = 0.23927 0.20962
# Poissons Ratio (y) = 0.15377 0.16950
# Poissons Ratio (z) = 0.17034 0.21433
#
# Static dielectric constant tensor:
#      x y z
#    x 3.641920 -0.049550 0.327540 
#    y -0.049550 4.022100 -0.107650 
#    z 0.327540 -0.107650 4.003060 
# 
# 
# High freq. dielectric constant tensor:
#      x y z
#    x 1.832100 0.000650 0.020080 
#    y 0.000650 1.860030 -0.005220 
#    z 0.020080 -0.005220 1.858040 
# 
# From -- ./inp_files/519279.got.cif
#   From: 2010.06.25/outbox.cif.g09.slc.cpg/sg2_260_cif.got.tgz:519279.got - 2010.06.27 13:26:56.
