data_PCOD8009884
_publ_section_title
;
Structure prediction by ZEFSAII (Michael W. Deem and Ramdas Pophale) SiO2 
 PCOD8009884
Probable space group: P -1
;
_chemical_formula_sum "Si O2"
_cell_formula_units_Z 16
_cell_length_a 14.065849
_cell_length_b 10.852082
_cell_length_c 8.067924
_cell_angle_alpha 41.463508
_cell_angle_beta 73.444067
_cell_angle_gamma 88.770927
_cell_volume 744.978409
_symmetry_space_group_name_H-M "P -1"
_symmetry_group_IT_number 2
_symmetry_cell_setting 'triclinic'
loop_
_space_group_symop_operation_xyz
x,y,z
-x,-y,-z
loop_
_atom_site_type_symbol
_atom_site_label
_atom_site_fract_x
_atom_site_fract_y
_atom_site_fract_z
Si Si1 0.133271 0.071447 0.699298
Si Si2 0.251477 0.211206 0.192919
Si Si3 0.430081 0.523485 0.355833
Si Si4 0.968423 0.685451 0.270779
Si Si5 0.225972 0.496471 0.665669
Si Si6 0.469866 0.965090 0.815315
Si Si7 0.673638 0.069514 0.775159
Si Si8 0.364342 0.199705 0.460558
O O1 0.148362 0.105331 0.458768
O O2 0.077494 0.222978 0.645770
O O3 0.247679 0.112344 0.683939
O O4 0.069287 0.847643 0.987438
O O5 0.353472 0.259326 0.214068
O O6 0.265129 0.077856 0.167288
O O7 0.240466 0.411049 0.924293
O O8 0.500000 0.500000 0.500000
O O9 0.311209 0.470100 0.522816
O O10 0.435784 0.382192 0.344818
O O11 0.466608 0.741068 0.045053
O O12 0.886788 0.619668 0.229339
O O13 0.000000 0.500000 0.500000
O O14 0.238482 0.724856 0.449287
O O15 0.589048 0.095140 0.656604
O O16 0.425179 0.034773 0.599005
O O17 0.393404 0.013871 0.943477
#
# Coordination Sequence:
#
# PCOD8009884 Si02
#       8
#     2   2   2   2   2   2   2   2
#     4   9  24  43  63  91 123 158 205 257 323 367
#     4  10  23  40  60  88 133 166 196 254 321 369
#     4  11  21  38  65  93 122 163 213 257 303 365
#     4  11  24  43  69  94 116 160 217 263 307 372
#     4  11  22  38  63  91 123 161 209 254 309 370
#     4  10  21  37  62  90 123 165 216 252 296 363
#     4  10  22  37  60  93 124 164 208 253 302 367
#     4  10  21  39  62  86 125 166 199 259 309 367
#
# _framework density 21.477132000000001
#
# number of rings (size 3 to 8) (size 9 to 14) (size 15 to 20)
#    0.750    1.000    1.250    3.750    3.500    4.000 
#    0.000    5.625    0.000    0.000    0.000    0.000 
#    0.000    0.000    0.000    0.000    0.000    0.000 
#
# Total GULP energy -198344.969884 kJ/mol
# GULP energy per Si atom -12396.560618 kJ/mol
# Density = 2.142825 g / cm^3
# Si number density = 21.477132 Si / 1000 Ang^3
#
#
#
# Elastic Constant Matrix: (Units=GPa)
#
#
# Indices 1 2 3 4 5 6 
#
# 1 83.1403 19.1135 18.8870 -15.6628 11.6877 9.6872
# 2 19.1135 91.7626 30.8566 -21.5202 -4.4093 2.3971
# 3 18.8870 30.8566 67.2740 -17.4147 5.0832 2.1702
# 4 -15.6628 -21.5202 -17.4147 26.3893 -1.7005 -3.2817
# 5 11.6877 -4.4093 5.0832 -1.7005 43.2854 2.6925
# 6 9.6872 2.3971 2.1702 -3.2817 2.6925 34.5266
#
#
#
# Elastic Compliance Matrix: (Units=1/GPa)
#
#
# Indices 1 2 3 4 5 6 
#
# 1 0.014656 -0.001162 -0.001654 0.006053 -0.003452 -0.003083
# 2 -0.001162 0.014775 -0.004423 0.008636 0.002666 0.000191
# 3 -0.001654 -0.004423 0.019644 0.008305 -0.002015 0.000483
# 4 0.006053 0.008636 0.008305 0.054316 0.000259 0.002322
# 5 -0.003452 0.002666 -0.002015 0.000259 0.024614 -0.000985
# 6 -0.003083 0.000191 0.000483 0.002322 -0.000985 0.030082
#
#
# Mechanical properties :
#
#
# Convention : Reuss Voigt Hill
#
# Bulk Modulus (GPa) = 28.90420 42.21013 35.55716
# Shear Modulus (GPa) = 27.15944 32.39491 29.77717
#
# Velocity S-wave (km/s) = 3.55994 3.88795 3.72756
# Velocity P-wave (km/s) = 5.51225 6.31277 5.92605
#
# Compressibility (1/GPa) = 0.03459705
#
# Stress axis : x y z
#
# Youngs Moduli (GPa) = 68.23300 67.67975 50.90576
#
# Poissons Ratio (x) = 0.07865 0.08421
# Poissons Ratio (y) = 0.07929 0.22514
# Poissons Ratio (z) = 0.11288 0.29933
#
# Static dielectric constant tensor:
#      x y z
#    x 3.822650 -0.028170 -0.059880 
#    y -0.028170 3.776840 -0.066490 
#    z -0.059880 -0.066490 3.850350 
# 
# 
# High freq. dielectric constant tensor:
#      x y z
#    x 1.838860 -0.003320 0.002420 
#    y -0.003320 1.839040 -0.006820 
#    z 0.002420 -0.006820 1.839740 
# 
# From -- ./inp_files/306229.got.cif
#   From: 2010.06.25/outbox.cif.g09.slc.cpg/sg2_154_cif.got.tgz:306229.got - 2010.06.27 13:26:56.
