data_PCOD8009874
_publ_section_title
;
Structure prediction by ZEFSAII (Michael W. Deem and Ramdas Pophale) SiO2 
 PCOD8009874
Probable space group: P -1
;
_chemical_formula_sum "Si O2"
_cell_formula_units_Z 16
_cell_length_a 14.460493
_cell_length_b 11.844616
_cell_length_c 13.191055
_cell_angle_alpha 74.142453
_cell_angle_beta 57.321190
_cell_angle_gamma 28.727820
_cell_volume 794.267654
_symmetry_space_group_name_H-M "P -1"
_symmetry_group_IT_number 2
_symmetry_cell_setting 'triclinic'
loop_
_space_group_symop_operation_xyz
x,y,z
-x,-y,-z
loop_
_atom_site_type_symbol
_atom_site_label
_atom_site_fract_x
_atom_site_fract_y
_atom_site_fract_z
Si Si1 0.321993 0.200388 0.146542
Si Si2 0.240110 0.585723 0.794844
Si Si3 0.116998 0.542502 0.708732
Si Si4 0.926372 0.345065 0.918237
Si Si5 0.249641 0.605924 0.465547
Si Si6 0.240209 0.229127 0.854435
Si Si7 0.204810 0.884340 0.748859
Si Si8 0.773861 0.123024 0.495451
O O1 0.201470 0.443959 0.138277
O O2 0.123425 0.284944 0.245707
O O3 0.488740 0.042323 0.187283
O O4 0.500000 0.000000 0.000000
O O5 0.054110 0.693116 0.802150
O O6 0.122075 0.828558 0.818157
O O7 0.524097 0.312040 0.649936
O O8 0.256568 0.508640 0.914512
O O9 0.264245 0.470390 0.551907
O O10 0.284691 0.278773 0.724966
O O11 0.178467 0.162509 0.859075
O O12 0.996968 0.158106 0.864598
O O13 0.514324 0.368205 0.307324
O O14 0.214488 0.747342 0.530833
O O15 0.019303 0.824800 0.470073
O O16 0.000000 0.500000 0.000000
O O17 0.227543 0.905887 0.614554
#
# Coordination Sequence:
#
# PCOD8009874 Si02
#       8
#     2   2   2   2   2   2   2   2
#     4  11  21  38  59  89 119 154 207 257 297 348
#     4  11  19  39  64  93 121 161 202 246 296 366
#     4  11  20  34  64  93 110 152 208 251 292 347
#     4  11  24  38  62  93 125 159 195 255 310 359
#     4  10  21  37  62  89 119 166 208 242 289 363
#     4  11  21  38  59  87 117 156 204 251 299 348
#     4  11  22  41  58  90 136 158 189 249 314 363
#     4  10  21  37  63  89 122 164 209 240 288 365
#
# _framework density 20.144345000000001
#
# number of rings (size 3 to 8) (size 9 to 14) (size 15 to 20)
#    0.000    1.250    6.250    1.125    3.500    1.000 
#    0.000    2.500    0.000    9.750    0.000    0.000 
#    0.000    0.000    0.000    0.000    0.000    0.000 
#
# Total GULP energy -198338.279222 kJ/mol
# GULP energy per Si atom -12396.142451 kJ/mol
# Density = 2.009850 g / cm^3
# Si number density = 20.144345 Si / 1000 Ang^3
#
#
#
# Elastic Constant Matrix: (Units=GPa)
#
#
# Indices 1 2 3 4 5 6 
#
# 1 100.1422 54.0998 25.5088 0.4718 -14.8409 -6.7859
# 2 54.0998 101.5724 31.9038 -5.3162 -14.6873 -18.0779
# 3 25.5088 31.9038 61.2301 -17.1540 -10.3091 -2.7067
# 4 0.4718 -5.3162 -17.1540 30.3421 7.5825 -4.6178
# 5 -14.8409 -14.6873 -10.3091 7.5825 23.7332 1.7028
# 6 -6.7859 -18.0779 -2.7067 -4.6178 1.7028 38.6874
#
#
#
# Elastic Compliance Matrix: (Units=1/GPa)
#
#
# Indices 1 2 3 4 5 6 
#
# 1 0.015256 -0.006817 -0.003320 -0.004941 0.005571 -0.001576
# 2 -0.006817 0.016597 -0.004877 0.000353 0.003339 0.006114
# 3 -0.003320 -0.004877 0.023981 0.012461 0.001324 0.000246
# 4 -0.004941 0.000353 0.012461 0.044034 -0.011954 0.005952
# 5 0.005571 0.003339 0.001324 -0.011954 0.052158 -0.001093
# 6 -0.001576 0.006114 0.000246 0.005952 -0.001093 0.029204
#
#
# Mechanical properties :
#
#
# Convention : Reuss Voigt Hill
#
# Bulk Modulus (GPa) = 38.74825 53.99659 46.37242
# Shear Modulus (GPa) = 22.74186 28.64803 25.69495
#
# Velocity S-wave (km/s) = 3.36362 3.77522 3.57535
# Velocity P-wave (km/s) = 5.86194 6.77245 6.33358
#
# Compressibility (1/GPa) = 0.02580762
#
# Stress axis : x y z
#
# Youngs Moduli (GPa) = 65.54786 60.25173 41.70000
#
# Poissons Ratio (x) = 0.41071 0.13844
# Poissons Ratio (y) = 0.44681 0.20336
# Poissons Ratio (z) = 0.21761 0.29383
#
# Static dielectric constant tensor:
#      x y z
#    x 3.620570 -0.047640 -0.141790 
#    y -0.047640 3.313880 -0.052240 
#    z -0.141790 -0.052240 3.275830 
# 
# 
# High freq. dielectric constant tensor:
#      x y z
#    x 1.788590 -0.004610 -0.022690 
#    y -0.004610 1.784040 -0.023780 
#    z -0.022690 -0.023780 1.764700 
# 
# From -- ./inp_files/454598.got.cif
#   From: 2010.06.25/outbox.cif.g09.slc.cpg/sg2_228_cif.got.tgz:454598.got - 2010.06.27 13:26:56.
