data_PCOD8009164
_publ_section_title
;
Structure prediction by ZEFSAII (Michael W. Deem and Ramdas Pophale) SiO2 
 PCOD8009164
Probable space group: P -1
;
_chemical_formula_sum "Si O2"
_cell_formula_units_Z 16
_cell_length_a 27.317973
_cell_length_b 27.803016
_cell_length_c 8.694117
_cell_angle_alpha 39.779883
_cell_angle_beta 141.458037
_cell_angle_gamma 169.285486
_cell_volume 764.945777
_symmetry_space_group_name_H-M "P -1"
_symmetry_group_IT_number 2
_symmetry_cell_setting 'triclinic'
loop_
_space_group_symop_operation_xyz
x,y,z
-x,-y,-z
loop_
_atom_site_type_symbol
_atom_site_label
_atom_site_fract_x
_atom_site_fract_y
_atom_site_fract_z
Si Si1 0.741027 0.749997 0.877346
Si Si2 0.330085 0.750046 0.068465
Si Si3 0.525895 0.250006 0.018268
Si Si4 0.303140 0.750012 0.655659
Si Si5 0.427860 0.250324 0.482957
Si Si6 0.148869 0.749948 0.707691
Si Si7 0.090997 0.249683 0.773980
Si Si8 0.007061 0.749994 0.157153
O O1 0.650482 0.749914 0.596466
O O2 0.500000 0.500000 0.000000
O O3 0.815792 0.750071 0.944962
O O4 0.000000 0.000000 0.000000
O O5 0.122445 0.500131 0.243078
O O6 0.622314 0.000007 0.243041
O O7 0.341978 0.750051 0.917440
O O8 0.238422 0.749984 0.879022
O O9 0.621204 0.250010 0.270353
O O10 0.738892 0.499633 0.011011
O O11 0.501547 0.250075 0.779032
O O12 0.239556 0.000287 0.010978
O O13 0.000000 0.500000 0.500000
O O14 0.500000 0.000000 0.500000
O O15 0.680920 0.500434 0.380806
O O16 0.181205 0.000759 0.380268
O O17 0.098502 0.749970 0.429132
O O18 0.044239 0.249965 0.815893
#
# Coordination Sequence:
#
# PCOD8009164 Si02
#       8
#     2   2   2   2   2   2   2   2
#     4   8  16  34  60  92 121 155 201 252 296 351
#     4  10  21  37  57  83 101 149 201 241 291 354
#     4  12  26  41  61  91 128 161 203 256 319 357
#     4  12  25  41  62  83 119 162 208 245 310 371
#     4  10  21  40  65  93 123 159 209 258 292 363
#     4  10  21  36  58  79 114 141 192 252 293 342
#     4  10  21  38  67  92 122 165 208 243 305 367
#     4  12  25  41  60  89 130 162 198 253 318 363
#
# _framework density 20.916516000000001
#
# number of rings (size 3 to 8) (size 9 to 14) (size 15 to 20)
#    0.000    1.500    0.000    5.250    3.500    2.000 
#    0.000    1.250    0.000    0.000    0.000    0.000 
#    0.000    0.000    0.000    0.000    0.000    0.000 
#
# Total GULP energy -198324.816252 kJ/mol
# GULP energy per Si atom -12395.301016 kJ/mol
# Density = 2.086891 g / cm^3
# Si number density = 20.916516 Si / 1000 Ang^3
#
#
#
# Elastic Constant Matrix: (Units=GPa)
#
#
# Indices 1 2 3 4 5 6 
#
# 1 111.2801 55.0016 37.3010 -2.0309 0.8632 -0.4609
# 2 55.0016 188.3917 29.9311 -4.9716 -4.9056 2.1104
# 3 37.3010 29.9311 63.4707 -1.5277 7.7102 1.2454
# 4 -2.0309 -4.9716 -1.5277 26.9193 1.0465 -10.4503
# 5 0.8632 -4.9056 7.7102 1.0465 32.7956 -0.1647
# 6 -0.4609 2.1104 1.2454 -10.4503 -0.1647 23.5734
#
#
#
# Elastic Compliance Matrix: (Units=1/GPa)
#
#
# Indices 1 2 3 4 5 6 
#
# 1 0.012332 -0.002610 -0.006112 0.000466 0.000712 0.001009
# 2 -0.002610 0.006386 -0.001623 0.000763 0.001380 -0.000189
# 3 -0.006112 -0.001623 0.020742 0.000218 -0.004970 -0.001008
# 4 0.000466 0.000763 0.000218 0.045121 -0.001289 0.019923
# 5 0.000712 0.001380 -0.004970 -0.001289 0.031888 -0.000196
# 6 0.001009 -0.000189 -0.001008 0.019923 -0.000196 0.051341
#
#
# Mechanical properties :
#
#
# Convention : Reuss Voigt Hill
#
# Bulk Modulus (GPa) = 53.27728 67.51222 60.39475
# Shear Modulus (GPa) = 25.67303 32.71823 29.19563
#
# Velocity S-wave (km/s) = 3.50723 3.95932 3.74012
# Velocity P-wave (km/s) = 6.47515 7.29717 6.89842
#
# Compressibility (1/GPa) = 0.01876973
#
# Stress axis : x y z
#
# Youngs Moduli (GPa) = 81.08906 156.58852 48.21250
#
# Poissons Ratio (x) = 0.40867 0.29467
# Poissons Ratio (y) = 0.21163 0.07827
# Poissons Ratio (z) = 0.49560 0.25420
#
# Static dielectric constant tensor:
#      x y z
#    x 3.866970 0.033080 0.343890 
#    y 0.033080 4.195500 -0.031200 
#    z 0.343890 -0.031200 3.904540 
# 
# 
# High freq. dielectric constant tensor:
#      x y z
#    x 1.814930 0.002290 0.017840 
#    y 0.002290 1.845230 -0.002970 
#    z 0.017840 -0.002970 1.806320 
# 
# From -- ./inp_files/357997.got.cif
#   From: 2010.06.25/outbox.cif.g09.slc.cpg/sg2_179_cif.got.tgz:357997.got - 2010.06.27 13:26:56.
