data_PCOD8009550
_publ_section_title
;
Structure prediction by ZEFSAII (Michael W. Deem and Ramdas Pophale) SiO2 
 PCOD8009550
Probable space group: P -1
;
_chemical_formula_sum "Si O2"
_cell_formula_units_Z 16
_cell_length_a 32.593293
_cell_length_b 30.109124
_cell_length_c 6.690060
_cell_angle_alpha 55.916348
_cell_angle_beta 125.268418
_cell_angle_gamma 171.825424
_cell_volume 758.663613
_symmetry_space_group_name_H-M "P -1"
_symmetry_group_IT_number 2
_symmetry_cell_setting 'triclinic'
loop_
_space_group_symop_operation_xyz
x,y,z
-x,-y,-z
loop_
_atom_site_type_symbol
_atom_site_label
_atom_site_fract_x
_atom_site_fract_y
_atom_site_fract_z
Si Si1 0.226923 0.358176 0.873503
Si Si2 0.868767 0.493554 0.694883
Si Si3 0.691938 0.653474 0.575126
Si Si4 0.489400 0.098711 0.011975
Si Si5 0.835616 0.538838 0.156968
Si Si6 0.418233 0.289101 0.408688
Si Si7 0.310532 0.802538 0.161590
Si Si8 0.425648 0.203801 0.959330
O O1 0.338578 0.469693 0.680548
O O2 0.268102 0.345872 0.134311
O O3 0.405389 0.592803 0.891952
O O4 0.885277 0.014521 0.785392
O O5 0.626082 0.249675 0.795843
O O6 0.923557 0.606764 0.447570
O O7 0.742334 0.315436 0.629882
O O8 0.170646 0.791621 0.894113
O O9 0.500000 0.500000 0.500000
O O10 0.532767 0.459693 0.427147
O O11 0.000000 0.000000 0.500000
O O12 0.697967 0.345581 0.134234
O O13 0.462042 0.005456 0.226515
O O14 0.606778 0.345763 0.020392
O O15 0.116058 0.856638 0.034575
O O16 0.368415 0.185994 0.669200
O O17 0.000000 0.500000 0.000000
O O18 0.500000 0.000000 0.000000
#
# Coordination Sequence:
#
# PCOD8009550 Si02
#       8
#     2   2   2   2   2   2   2   2
#     4  11  24  43  66  89 121 167 203 235 292 347
#     4  10  21  37  57  83 114 148 189 239 296 359
#     4  11  24  41  64 100 134 154 194 249 284 339
#     4  10  21  37  57  83 114 148 189 239 296 359
#     4  12  24  38  60  87 114 151 198 247 302 347
#     4  11  24  43  66  89 121 167 203 235 292 347
#     4   8  16  33  54  77 110 146 182 231 290 357
#     4  11  26  42  58  88 120 151 204 255 284 339
#
# _framework density 21.089718000000001
#
# number of rings (size 3 to 8) (size 9 to 14) (size 15 to 20)
#    0.000    1.500    0.000    4.500    0.000   13.500 
#    0.000    0.000    0.000   10.500    0.000    0.000 
#    0.000    0.000    0.000    0.000    0.000    0.000 
#
# Total GULP energy -198362.119861 kJ/mol
# GULP energy per Si atom -12397.632491 kJ/mol
# Density = 2.104172 g / cm^3
# Si number density = 21.089718 Si / 1000 Ang^3
#
#
#
# Elastic Constant Matrix: (Units=GPa)
#
#
# Indices 1 2 3 4 5 6 
#
# 1 115.2723 45.6538 23.4650 -3.6604 5.3606 -0.6253
# 2 45.6538 127.5240 23.8936 -12.0509 6.3808 3.4037
# 3 23.4650 23.8936 58.5080 -7.1549 3.4276 -12.3912
# 4 -3.6604 -12.0509 -7.1549 34.0006 2.5881 -2.0031
# 5 5.3606 6.3808 3.4276 2.5881 29.0135 -1.2740
# 6 -0.6253 3.4037 -12.3912 -2.0031 -1.2740 44.5958
#
#
#
# Elastic Compliance Matrix: (Units=1/GPa)
#
#
# Indices 1 2 3 4 5 6 
#
# 1 0.010592 -0.003219 -0.003066 -0.000611 -0.000855 -0.000510
# 2 -0.003219 0.009851 -0.002628 0.002625 -0.001559 -0.001454
# 3 -0.003066 -0.002628 0.021237 0.003680 -0.001421 0.006183
# 4 -0.000611 0.002625 0.003680 0.031450 -0.003612 0.002123
# 5 -0.000855 -0.001559 -0.001421 -0.003612 0.035482 0.000564
# 6 -0.000510 -0.001454 0.006183 0.002123 0.000564 0.024357
#
#
# Mechanical properties :
#
#
# Convention : Reuss Voigt Hill
#
# Bulk Modulus (GPa) = 41.91912 54.14767 48.03340
# Shear Modulus (GPa) = 31.49687 35.40811 33.45249
#
# Velocity S-wave (km/s) = 3.86874 4.10192 3.98703
# Velocity P-wave (km/s) = 6.31474 6.94010 6.63479
#
# Compressibility (1/GPa) = 0.02385546
#
# Stress axis : x y z
#
# Youngs Moduli (GPa) = 94.41478 101.51052 47.08724
#
# Poissons Ratio (x) = 0.32673 0.14436
# Poissons Ratio (y) = 0.30389 0.12373
# Poissons Ratio (z) = 0.28946 0.26674
#
# Static dielectric constant tensor:
#      x y z
#    x 4.133240 -0.189190 0.155030 
#    y -0.189190 3.995340 -0.188740 
#    z 0.155030 -0.188740 3.665980 
# 
# 
# High freq. dielectric constant tensor:
#      x y z
#    x 1.848020 -0.000440 0.008370 
#    y -0.000440 1.846150 -0.011590 
#    z 0.008370 -0.011590 1.816380 
# 
# From -- ./inp_files/128887.got.cif
#   From: 2010.06.25/outbox.cif.g09.slc.cpg/sg2_65_cif.got.tgz:128887.got - 2010.06.27 13:26:56.
