data_PCOD8009825
_publ_section_title
;
Structure prediction by ZEFSAII (Michael W. Deem and Ramdas Pophale) SiO2 
 PCOD8009825
Probable space group: P -1
;
_chemical_formula_sum "Si O2"
_cell_formula_units_Z 16
_cell_length_a 11.011631
_cell_length_b 12.197735
_cell_length_c 8.066826
_cell_angle_alpha 131.360495
_cell_angle_beta 120.627025
_cell_angle_gamma 82.623320
_cell_volume 662.426422
_symmetry_space_group_name_H-M "P -1"
_symmetry_group_IT_number 2
_symmetry_cell_setting 'triclinic'
loop_
_space_group_symop_operation_xyz
x,y,z
-x,-y,-z
loop_
_atom_site_type_symbol
_atom_site_label
_atom_site_fract_x
_atom_site_fract_y
_atom_site_fract_z
Si Si1 0.010346 0.196145 0.677746
Si Si2 0.645600 0.396133 0.025063
Si Si3 0.880034 0.997360 0.663995
Si Si4 0.700479 0.709200 0.807850
Si Si5 0.667551 0.724072 0.424622
Si Si6 0.403153 0.639867 0.670876
Si Si7 0.066827 0.698281 0.841991
Si Si8 0.917002 0.403240 0.602674
O O1 0.007700 0.094531 0.407508
O O2 0.999349 0.361050 0.776645
O O3 0.160846 0.209489 0.896359
O O4 0.868046 0.102861 0.600129
O O5 0.709974 0.581796 0.227436
O O6 0.567757 0.372535 0.126994
O O7 0.771715 0.315647 0.014593
O O8 0.511883 0.317884 0.725488
O O9 0.727967 0.874687 0.500852
O O10 0.940057 0.127960 0.978850
O O11 0.739910 0.757534 0.691835
O O12 0.554184 0.754973 0.809532
O O13 0.648176 0.526497 0.619212
O O14 0.257971 0.695486 0.603228
O O15 0.014926 0.641593 0.564561
O O16 0.949886 0.589571 0.789268
#
# Coordination Sequence:
#
# PCOD8009825 Si02
#       8
#     2   2   2   2   2   2   2   2
#     4  11  25  41  60  90 128 164 200 251 312 367
#     4   9  19  39  65  91 120 160 207 256 305 362
#     4  11  25  40  60  89 124 162 206 254 310 365
#     4  10  21  37  61  92 124 162 204 249 304 364
#     4  10  21  39  65  91 122 164 208 253 304 366
#     4   9  19  37  62  93 121 152 206 260 302 355
#     4  10  22  40  65  93 121 159 209 257 305 363
#     4  10  22  42  66  92 124 162 206 255 304 364
#
# _framework density 24.153627
#
# number of rings (size 3 to 8) (size 9 to 14) (size 15 to 20)
#    0.000    2.000    0.000    2.250    0.000   13.500 
#    0.000    0.000    0.000    6.750    0.000    0.000 
#    0.000    0.000    0.000    0.000    0.000    0.000 
#
# Total GULP energy -198249.090481 kJ/mol
# GULP energy per Si atom -12390.568155 kJ/mol
# Density = 2.409865 g / cm^3
# Si number density = 24.153627 Si / 1000 Ang^3
#
#
#
# Elastic Constant Matrix: (Units=GPa)
#
#
# Indices 1 2 3 4 5 6 
#
# 1 96.1296 38.2601 33.1200 0.4330 19.6940 15.9930
# 2 38.2601 109.5375 45.4666 2.2569 27.9518 22.5712
# 3 33.1200 45.4666 84.0725 4.5341 14.8125 5.5810
# 4 0.4330 2.2569 4.5341 37.9131 -5.6336 10.0311
# 5 19.6940 27.9518 14.8125 -5.6336 28.8885 -0.9397
# 6 15.9930 22.5712 5.5810 10.0311 -0.9397 27.4288
#
#
#
# Elastic Compliance Matrix: (Units=1/GPa)
#
#
# Indices 1 2 3 4 5 6 
#
# 1 0.014865 0.000548 -0.004115 0.001422 -0.008573 -0.009095
# 2 0.000548 0.018811 -0.006740 0.001504 -0.015330 -0.015503
# 3 -0.004115 -0.006740 0.016906 -0.003023 0.000251 0.005620
# 4 0.001422 0.001504 -0.003023 0.030635 0.004693 -0.012495
# 5 -0.008573 -0.015330 0.000251 0.004693 0.056658 0.017787
# 6 -0.009095 -0.015503 0.005620 -0.012495 0.017787 0.058554
#
#
# Mechanical properties :
#
#
# Convention : Reuss Voigt Hill
#
# Bulk Modulus (GPa) = 33.36780 58.15921 45.76350
# Shear Modulus (GPa) = 22.02323 30.37227 26.19775
#
# Velocity S-wave (km/s) = 3.02288 3.54992 3.29695
# Velocity P-wave (km/s) = 5.10181 6.39795 5.78629
#
# Compressibility (1/GPa) = 0.02996902
#
# Stress axis : x y z
#
# Youngs Moduli (GPa) = 67.27051 53.16095 59.14949
#
# Poissons Ratio (x) = -0.02916 0.24341
# Poissons Ratio (y) = -0.03689 0.39867
# Poissons Ratio (z) = 0.27683 0.35831
#
# Static dielectric constant tensor:
#      x y z
#    x 4.565440 0.186140 -0.060230 
#    y 0.186140 4.161470 0.080560 
#    z -0.060230 0.080560 4.184440 
# 
# 
# High freq. dielectric constant tensor:
#      x y z
#    x 1.962980 0.011610 -0.003910 
#    y 0.011610 1.935330 -0.006360 
#    z -0.003910 -0.006360 1.945350 
# 
# From -- ./inp_files/263592.got.cif
#   From: 2010.06.25/outbox.cif.g09.slc.cpg/sg2_132_cif.got.tgz:263592.got - 2010.06.27 13:26:56.
