data_PCOD8009532
_publ_section_title
;
Structure prediction by ZEFSAII (Michael W. Deem and Ramdas Pophale) SiO2 
 PCOD8009532
Probable space group: P -1
;
_chemical_formula_sum "Si O2"
_cell_formula_units_Z 16
_cell_length_a 9.640168
_cell_length_b 16.085115
_cell_length_c 9.144219
_cell_angle_alpha 64.892040
_cell_angle_beta 119.531160
_cell_angle_gamma 70.335606
_cell_volume 805.855209
_symmetry_space_group_name_H-M "P -1"
_symmetry_group_IT_number 2
_symmetry_cell_setting 'triclinic'
loop_
_space_group_symop_operation_xyz
x,y,z
-x,-y,-z
loop_
_atom_site_type_symbol
_atom_site_label
_atom_site_fract_x
_atom_site_fract_y
_atom_site_fract_z
Si Si1 0.596356 0.892021 0.512753
Si Si2 0.260372 0.448110 0.548716
Si Si3 0.949113 0.694575 0.058533
Si Si4 0.265078 0.741914 0.160620
Si Si5 0.032682 0.998862 0.686956
Si Si6 0.270475 0.090105 0.732470
Si Si7 0.899355 0.679168 0.357209
Si Si8 0.239777 0.886698 0.279784
O O1 0.708654 0.906708 0.433073
O O2 0.409462 0.902925 0.334044
O O3 0.500000 0.000000 0.500000
O O4 0.782421 0.755027 0.790686
O O5 0.113273 0.540467 0.262924
O O6 0.510703 0.382359 0.707528
O O7 0.254820 0.340378 0.643930
O O8 0.151167 0.540207 0.567951
O O9 0.095444 0.727693 0.103884
O O10 0.810688 0.749961 0.099117
O O11 0.331395 0.759540 0.340338
O O12 0.154568 0.860440 0.910651
O O13 0.177985 0.029001 0.771956
O O14 0.000000 0.000000 0.500000
O O15 0.799421 0.108147 0.569784
O O16 0.105917 0.235194 0.596260
O O17 0.500000 0.000000 0.000000
O O18 0.000000 0.000000 0.000000
#
# Coordination Sequence:
#
# PCOD8009532 Si02
#       8
#     2   2   2   2   2   2   2   2
#     4  12  23  37  59  88 120 156 193 249 307 345
#     4   9  20  38  65  86 116 159 206 240 295 353
#     4  10  21  38  61  88 118 151 202 246 292 350
#     4  11  20  39  63  86 118 160 201 239 292 361
#     4  11  23  38  57  89 126 153 190 248 304 352
#     4  12  22  37  62  89 117 157 199 243 296 357
#     4   9  20  39  60  88 118 153 206 244 287 359
#     4  10  21  37  56  84 115 150 194 239 288 352
#
# _framework density 19.854683999999999
#
# number of rings (size 3 to 8) (size 9 to 14) (size 15 to 20)
#    0.750    0.750    0.000    7.875    0.000    1.000 
#    0.000    2.500    0.000    1.500    0.000    0.000 
#    0.000    0.000    0.000    0.000    0.000    0.000 
#
# Total GULP energy -198294.160332 kJ/mol
# GULP energy per Si atom -12393.385021 kJ/mol
# Density = 1.980949 g / cm^3
# Si number density = 19.854684 Si / 1000 Ang^3
#
#
#
# Elastic Constant Matrix: (Units=GPa)
#
#
# Indices 1 2 3 4 5 6 
#
# 1 94.1618 29.9938 38.8539 -9.7598 -10.9080 11.6709
# 2 29.9938 81.2050 25.2637 1.1800 -0.6143 -2.8181
# 3 38.8539 25.2637 88.9522 -4.9423 -12.3907 1.9416
# 4 -9.7598 1.1800 -4.9423 23.7656 -0.2570 -3.6002
# 5 -10.9080 -0.6143 -12.3907 -0.2570 37.3432 3.2731
# 6 11.6709 -2.8181 1.9416 -3.6002 3.2731 44.6276
#
#
#
# Elastic Compliance Matrix: (Units=1/GPa)
#
#
# Indices 1 2 3 4 5 6 
#
# 1 0.015306 -0.004399 -0.004622 0.004985 0.003242 -0.003915
# 2 -0.004399 0.014917 -0.002824 -0.002833 -0.002184 0.002147
# 3 -0.004622 -0.002824 0.014612 0.001356 0.003439 0.000252
# 4 0.004985 -0.002833 0.001356 0.044862 0.001999 0.001931
# 5 0.003242 -0.002184 0.003439 0.001999 0.029117 -0.003110
# 6 -0.003915 0.002147 0.000252 0.001931 -0.003110 0.023940
#
#
# Mechanical properties :
#
#
# Convention : Reuss Voigt Hill
#
# Bulk Modulus (GPa) = 47.29259 50.28242 48.78751
# Shear Modulus (GPa) = 28.81981 32.49446 30.65714
#
# Velocity S-wave (km/s) = 3.81404 4.04990 3.93374
# Velocity P-wave (km/s) = 6.57776 6.87380 6.72741
#
# Compressibility (1/GPa) = 0.02114496
#
# Stress axis : x y z
#
# Youngs Moduli (GPa) = 65.33344 67.03756 68.43828
#
# Poissons Ratio (x) = 0.29491 0.31633
# Poissons Ratio (y) = 0.28742 0.19324
# Poissons Ratio (z) = 0.30198 0.18929
#
# Static dielectric constant tensor:
#      x y z
#    x 1.996420 0.278480 0.375360 
#    y 0.278480 3.667080 -0.149640 
#    z 0.375360 -0.149640 3.319040 
# 
# 
# High freq. dielectric constant tensor:
#      x y z
#    x 1.797350 -0.003320 -0.012180 
#    y -0.003320 1.767150 -0.008330 
#    z -0.012180 -0.008330 1.748520 
# 
# From -- ./inp_files/206047.got.cif
#   From: 2010.06.25/outbox.cif.g09.slc.cpg/sg2_104_cif.got.tgz:206047.got - 2010.06.27 13:26:56.
