data_PCOD8009671
_publ_section_title
;
Structure prediction by ZEFSAII (Michael W. Deem and Ramdas Pophale) SiO2 
 PCOD8009671
Probable space group: P -1
;
_chemical_formula_sum "Si O2"
_cell_formula_units_Z 10
_cell_length_a 14.857782
_cell_length_b 9.426227
_cell_length_c 5.269627
_cell_angle_alpha 97.480569
_cell_angle_beta 66.301721
_cell_angle_gamma 49.171513
_cell_volume 421.153163
_symmetry_space_group_name_H-M "P -1"
_symmetry_group_IT_number 2
_symmetry_cell_setting 'triclinic'
loop_
_space_group_symop_operation_xyz
x,y,z
-x,-y,-z
loop_
_atom_site_type_symbol
_atom_site_label
_atom_site_fract_x
_atom_site_fract_y
_atom_site_fract_z
Si Si1 0.526573 0.060412 0.231317
Si Si2 0.905298 0.896167 0.123886
Si Si3 0.167749 0.875137 0.248484
Si Si4 0.238546 0.529194 0.836482
Si Si5 0.858805 0.667596 0.892569
O O1 0.394911 0.334691 0.444852
O O2 0.500000 0.000000 0.500000
O O3 0.500000 0.000000 0.000000
O O4 0.704826 0.914128 0.993514
O O5 0.797661 0.074582 0.521422
O O6 0.914019 0.250624 0.105469
O O7 0.826442 0.029123 0.980147
O O8 0.905526 0.720510 0.086311
O O9 0.278927 0.610515 0.011630
O O10 0.000000 0.000000 0.500000
O O11 0.185675 0.442757 0.009318
O O12 0.000000 0.500000 0.500000
#
# Coordination Sequence:
#
# PCOD8009671 Si02
#       5
#     2   2   2   2   2
#     4  10  23  39  59  89 122 156 197 244 299 356
#     4  11  22  37  60  91 119 152 199 250 293 344
#     4  10  21  37  59  87 119 158 198 238 293 360
#     4  10  21  40  63  88 120 163 201 242 295 361
#     4  11  22  39  64  93 120 155 202 254 297 347
#
# _framework density 23.744332
#
# number of rings (size 3 to 8) (size 9 to 14) (size 15 to 20)
#    0.000    1.600    0.000    6.600    0.000   11.200 
#    0.000    2.000    0.000    0.000    0.000    1.400 
#    0.000    0.000    0.000    0.000    0.000    0.000 
#
# Total GULP energy -123894.094821 kJ/mol
# GULP energy per Si atom -12389.409482 kJ/mol
# Density = 2.369029 g / cm^3
# Si number density = 23.744332 Si / 1000 Ang^3
#
#
#
# Elastic Constant Matrix: (Units=GPa)
#
#
# Indices 1 2 3 4 5 6 
#
# 1 92.3328 24.4910 77.9312 18.5638 23.2786 0.9024
# 2 24.4910 72.3707 61.1191 5.5041 16.0775 13.5611
# 3 77.9312 61.1191 213.9282 36.5450 35.9980 -3.4373
# 4 18.5638 5.5041 36.5450 54.7722 -3.7399 4.5142
# 5 23.2786 16.0775 35.9980 -3.7399 60.1935 14.2947
# 6 0.9024 13.5611 -3.4373 4.5142 14.2947 38.5264
#
#
#
# Elastic Compliance Matrix: (Units=1/GPa)
#
#
# Indices 1 2 3 4 5 6 
#
# 1 0.016468 -0.000844 -0.004613 -0.002786 -0.003856 0.001257
# 2 -0.000844 0.020715 -0.006459 0.003281 0.000894 -0.008564
# 3 -0.004613 -0.006459 0.009807 -0.005036 -0.003928 0.005304
# 4 -0.002786 0.003281 -0.005036 0.023197 0.006212 -0.006562
# 5 -0.003856 0.000894 -0.003928 0.006212 0.022931 -0.009811
# 6 0.001257 -0.008564 0.005304 -0.006562 -0.009811 0.033824
#
#
# Mechanical properties :
#
#
# Convention : Reuss Voigt Hill
#
# Bulk Modulus (GPa) = 43.18386 78.41269 60.79828
# Shear Modulus (GPa) = 31.54722 45.03779 38.29251
#
# Velocity S-wave (km/s) = 3.64898 4.35993 4.02020
# Velocity P-wave (km/s) = 5.99833 7.64466 6.87098
#
# Compressibility (1/GPa) = 0.02315680
#
# Stress axis : x y z
#
# Youngs Moduli (GPa) = 60.72545 48.27383 101.96961
#
# Poissons Ratio (x) = 0.04075 0.47037
# Poissons Ratio (y) = 0.05126 0.65866
# Poissons Ratio (z) = 0.28012 0.31182
#
# Static dielectric constant tensor:
#      x y z
#    x 5.025850 0.162810 0.673640 
#    y 0.162810 5.139870 1.522920 
#    z 0.673640 1.522920 6.099590 
# 
# 
# High freq. dielectric constant tensor:
#      x y z
#    x 1.924940 0.010000 0.024300 
#    y 0.010000 1.930230 0.020320 
#    z 0.024300 0.020320 1.949250 
# 
# From -- ./inp_files/72056.got.cif
#   From: 2010.06.25/outbox.cif.g09.slc.cpg/sg2_37_cif.got.tgz:72056.got - 2010.06.27 13:26:56.
