data_PCOD8009075
_publ_section_title
;
Structure prediction by ZEFSAII (Michael W. Deem and Ramdas Pophale) SiO2 
 PCOD8009075
Probable space group: P -1
;
_chemical_formula_sum "Si O2"
_cell_formula_units_Z 14
_cell_length_a 13.309110
_cell_length_b 13.935963
_cell_length_c 11.975240
_cell_angle_alpha 113.854568
_cell_angle_beta 113.053582
_cell_angle_gamma 20.638190
_cell_volume 715.394551
_symmetry_space_group_name_H-M "P -1"
_symmetry_group_IT_number 2
_symmetry_cell_setting 'triclinic'
loop_
_space_group_symop_operation_xyz
x,y,z
-x,-y,-z
loop_
_atom_site_type_symbol
_atom_site_label
_atom_site_fract_x
_atom_site_fract_y
_atom_site_fract_z
Si Si1 0.952244 0.585796 0.897190
Si Si2 0.295206 0.804345 0.027732
Si Si3 0.144965 0.029360 0.628603
Si Si4 0.472699 0.481727 0.793838
Si Si5 0.003072 0.947551 0.643319
Si Si6 0.468593 0.851992 0.020175
Si Si7 0.292959 0.406102 0.240907
O O1 0.869168 0.557040 0.774727
O O2 0.244804 0.383342 0.891432
O O3 0.692293 0.895926 0.933876
O O4 0.000000 0.500000 0.000000
O O5 0.465951 0.661185 0.152415
O O6 0.258647 0.954634 0.037270
O O7 0.499590 0.566875 0.913648
O O8 0.000000 0.000000 0.000000
O O9 0.043992 0.100791 0.491400
O O10 0.927406 0.301736 0.722127
O O11 0.180056 0.887375 0.641666
O O12 0.462882 0.793938 0.654327
O O13 0.162850 0.752222 0.726636
O O14 0.704682 0.264781 0.696508
O O15 0.551645 0.740297 0.880077
#
# Coordination Sequence:
#
# PCOD8009075 Si02
#       7
#     2   2   2   2   2   2   2
#     4  10  21  36  54  84 115 149 189 225 285 341
#     4  11  24  38  59  88 115 151 196 218 285 345
#     4  11  22  34  58  82 114 150 195 220 286 339
#     4  11  23  37  56  78 122 145 186 232 268 341
#     4  11  22  38  53  84 115 154 184 233 277 339
#     4  11  22  35  59  82 121 151 178 236 282 330
#     4  11  20  36  57  84 116 151 186 229 280 338
#
# _framework density 19.56962
#
# number of rings (size 3 to 8) (size 9 to 14) (size 15 to 20)
#    0.000    1.143    1.429    7.714    4.000    2.286 
#    0.000    0.000    0.000    0.000    0.000   20.000 
#    0.000    0.000    0.000    0.000    0.000    0.000 
#
# Total GULP energy -173525.442735 kJ/mol
# GULP energy per Si atom -12394.674481 kJ/mol
# Density = 1.952508 g / cm^3
# Si number density = 19.569620 Si / 1000 Ang^3
#
#
#
# Elastic Constant Matrix: (Units=GPa)
#
#
# Indices 1 2 3 4 5 6 
#
# 1 96.2508 27.5930 37.8303 -4.7273 16.3640 -4.4754
# 2 27.5930 113.1754 34.9905 -4.5207 11.0801 -1.7949
# 3 37.8303 34.9905 88.7644 -8.4568 13.9614 3.1159
# 4 -4.7273 -4.5207 -8.4568 32.7105 -1.5676 1.2795
# 5 16.3640 11.0801 13.9614 -1.5676 24.1742 -6.4114
# 6 -4.4754 -1.7949 3.1159 1.2795 -6.4114 30.2948
#
#
#
# Elastic Compliance Matrix: (Units=1/GPa)
#
#
# Indices 1 2 3 4 5 6 
#
# 1 0.013524 -0.001367 -0.004338 0.000326 -0.005699 0.001143
# 2 -0.001367 0.010355 -0.003187 0.000307 -0.001873 0.000330
# 3 -0.004338 -0.003187 0.015626 0.002858 -0.005425 -0.003706
# 4 0.000326 0.000307 0.002858 0.031444 -0.000408 -0.001642
# 5 -0.005699 -0.001873 -0.005425 -0.000408 0.052008 0.010629
# 6 0.001143 0.000330 -0.003706 -0.001642 0.010629 0.035897
#
#
# Mechanical properties :
#
#
# Convention : Reuss Voigt Hill
#
# Bulk Modulus (GPa) = 46.03592 55.44646 50.74119
# Shear Modulus (GPa) = 27.19151 30.62102 28.90627
#
# Velocity S-wave (km/s) = 3.73161 3.95995 3.84747
# Velocity P-wave (km/s) = 6.49167 7.02159 6.76182
#
# Compressibility (1/GPa) = 0.02172217
#
# Stress axis : x y z
#
# Youngs Moduli (GPa) = 73.94033 96.56815 63.99398
#
# Poissons Ratio (x) = 0.13202 0.27759
# Poissons Ratio (y) = 0.10109 0.20396
# Poissons Ratio (z) = 0.32073 0.30778
#
# Static dielectric constant tensor:
#      x y z
#    x 3.624550 -0.134300 0.242390 
#    y -0.134300 3.743270 -0.108060 
#    z 0.242390 -0.108060 3.591910 
# 
# 
# High freq. dielectric constant tensor:
#      x y z
#    x 1.734050 -0.000430 0.017510 
#    y -0.000430 1.785480 -0.002530 
#    z 0.017510 -0.002530 1.743210 
# 
# From -- ./inp_files/453996.got.cif
#   From: 2010.06.25/outbox.cif.g09.slc.cpg/sg2_227_cif.got.tgz:453996.got - 2010.06.27 13:26:56.
