data_PCOD8009277
_publ_section_title
;
Structure prediction by ZEFSAII (Michael W. Deem and Ramdas Pophale) SiO2 
 PCOD8009277
Probable space group: P -1
;
_chemical_formula_sum "Si O2"
_cell_formula_units_Z 16
_cell_length_a 14.439900
_cell_length_b 9.119020
_cell_length_c 13.487845
_cell_angle_alpha 117.996173
_cell_angle_beta 150.184469
_cell_angle_gamma 70.990577
_cell_volume 766.159250
_symmetry_space_group_name_H-M "P -1"
_symmetry_group_IT_number 2
_symmetry_cell_setting 'triclinic'
loop_
_space_group_symop_operation_xyz
x,y,z
-x,-y,-z
loop_
_atom_site_type_symbol
_atom_site_label
_atom_site_fract_x
_atom_site_fract_y
_atom_site_fract_z
Si Si1 0.804516 0.079442 0.785901
Si Si2 0.362819 0.759885 0.050213
Si Si3 0.534171 0.918241 0.644545
Si Si4 0.491833 0.391994 0.360230
Si Si5 0.731027 0.580765 0.028973
Si Si6 0.987498 0.794181 0.798947
Si Si7 0.830872 0.425005 0.547944
Si Si8 0.534192 0.196020 0.066090
O O1 0.663853 0.169076 0.618953
O O2 0.694909 0.940418 0.717160
O O3 0.935831 0.220748 0.020347
O O4 0.910453 0.968960 0.775571
O O5 0.357387 0.576948 0.034358
O O6 0.497979 0.901031 0.285836
O O7 0.154039 0.808385 0.876820
O O8 0.442265 0.769478 0.017072
O O9 0.588588 0.802365 0.746402
O O10 0.500000 0.500000 0.500000
O O11 0.351488 0.452063 0.169147
O O12 0.705401 0.400249 0.522374
O O13 0.654957 0.741027 0.053413
O O14 0.959415 0.614627 0.251050
O O15 0.841314 0.620609 0.585621
O O16 0.724794 0.299179 0.326250
O O17 0.500000 0.000000 0.000000
#
# Coordination Sequence:
#
# PCOD8009277 Si02
#       8
#     2   2   2   2   2   2   2   2
#     4   9  19  36  60  87 129 165 201 256 309 370
#     4  10  21  40  65  92 121 162 214 259 310 377
#     4  10  21  36  60  88 124 167 211 249 315 369
#     4  11  24  39  62  93 133 175 206 256 310 369
#     4  10  24  43  64  92 127 164 213 262 316 372
#     4   9  19  36  59  92 125 157 207 256 307 372
#     4  10  23  42  64  91 128 164 213 258 314 376
#     4  11  24  45  67  90 129 161 211 267 322 377
#
# _framework density 20.883388
#
# number of rings (size 3 to 8) (size 9 to 14) (size 15 to 20)
#    0.000    2.000    0.000    2.625   10.500    3.000 
#   11.250    0.000    0.000    0.000    0.000    0.000 
#    0.000    0.000    0.000    0.000    0.000    0.000 
#
# Total GULP energy -198303.990877 kJ/mol
# GULP energy per Si atom -12393.999430 kJ/mol
# Density = 2.083586 g / cm^3
# Si number density = 20.883388 Si / 1000 Ang^3
#
#
#
# Elastic Constant Matrix: (Units=GPa)
#
#
# Indices 1 2 3 4 5 6 
#
# 1 97.5700 21.4814 17.9788 -10.9421 -7.2986 -2.5214
# 2 21.4814 83.5794 25.8216 2.2343 -1.9697 2.5155
# 3 17.9788 25.8216 97.7573 -0.0758 -2.3947 -0.9327
# 4 -10.9421 2.2343 -0.0758 35.5493 -5.0388 -1.0763
# 5 -7.2986 -1.9697 -2.3947 -5.0388 25.7457 -1.0542
# 6 -2.5214 2.5155 -0.9327 -1.0763 -1.0542 39.3039
#
#
#
# Elastic Compliance Matrix: (Units=1/GPa)
#
#
# Indices 1 2 3 4 5 6 
#
# 1 0.011918 -0.002700 -0.001367 0.004430 0.003958 0.001132
# 2 -0.002700 0.013704 -0.003146 -0.001793 -0.000409 -0.001185
# 3 -0.001367 -0.003146 0.011326 -0.000128 0.000416 0.000390
# 4 0.004430 -0.001793 -0.000128 0.030665 0.007167 0.001428
# 5 0.003958 -0.000409 0.000416 0.007167 0.041439 0.001598
# 6 0.001132 -0.001185 0.000390 0.001428 0.001598 0.025682
#
#
# Mechanical properties :
#
#
# Convention : Reuss Voigt Hill
#
# Bulk Modulus (GPa) = 44.40276 45.49670 44.94973
# Shear Modulus (GPa) = 31.91457 34.36144 33.13800
#
# Velocity S-wave (km/s) = 3.91350 4.06075 3.98780
# Velocity P-wave (km/s) = 6.45980 6.61964 6.54021
#
# Compressibility (1/GPa) = 0.02252112
#
# Stress axis : x y z
#
# Youngs Moduli (GPa) = 83.90939 72.96875 88.29456
#
# Poissons Ratio (x) = 0.19700 0.12074
# Poissons Ratio (y) = 0.22654 0.27778
# Poissons Ratio (z) = 0.11474 0.22957
#
# Static dielectric constant tensor:
#      x y z
#    x 3.710310 -0.318050 0.131520 
#    y -0.318050 3.178560 0.387540 
#    z 0.131520 0.387540 3.683410 
# 
# 
# High freq. dielectric constant tensor:
#      x y z
#    x 1.817050 -0.015190 0.002250 
#    y -0.015190 1.814370 0.005540 
#    z 0.002250 0.005540 1.814760 
# 
# From -- ./inp_files/315742.got.cif
#   From: 2010.06.25/outbox.cif.g09.slc.cpg/sg2_158_cif.got.tgz:315742.got - 2010.06.27 13:26:56.
