data_PCOD8009260
_publ_section_title
;
Structure prediction by ZEFSAII (Michael W. Deem and Ramdas Pophale) SiO2 
 PCOD8009260
Probable space group: P -1
;
_chemical_formula_sum "Si O2"
_cell_formula_units_Z 16
_cell_length_a 16.350132
_cell_length_b 12.347844
_cell_length_c 8.833571
_cell_angle_alpha 105.286968
_cell_angle_beta 69.975044
_cell_angle_gamma 44.254491
_cell_volume 737.235048
_symmetry_space_group_name_H-M "P -1"
_symmetry_group_IT_number 2
_symmetry_cell_setting 'triclinic'
loop_
_space_group_symop_operation_xyz
x,y,z
-x,-y,-z
loop_
_atom_site_type_symbol
_atom_site_label
_atom_site_fract_x
_atom_site_fract_y
_atom_site_fract_z
Si Si1 0.990175 0.267389 0.248474
Si Si2 0.459398 0.679222 0.386946
Si Si3 0.388012 0.884725 0.798565
Si Si4 0.666168 0.583237 0.780008
Si Si5 0.781806 0.206085 0.612384
Si Si6 0.848987 0.135975 0.871414
Si Si7 0.676779 0.711282 0.402270
Si Si8 0.510219 0.127016 0.711741
O O1 0.842083 0.453113 0.549846
O O2 0.865152 0.430088 0.235696
O O3 0.075959 0.043025 0.122877
O O4 0.167152 0.152392 0.091770
O O5 0.390228 0.777111 0.639373
O O6 0.366241 0.680097 0.365023
O O7 0.406307 0.848838 0.382693
O O8 0.684814 0.397371 0.150099
O O9 0.516646 0.711097 0.797520
O O10 0.476617 0.891865 0.663220
O O11 0.738056 0.387315 0.740347
O O12 0.568329 0.777761 0.033383
O O13 0.780577 0.153682 0.763024
O O14 0.986487 0.963650 0.312039
O O15 0.663101 0.711390 0.230223
O O16 0.679524 0.839723 0.493188
#
# Coordination Sequence:
#
# PCOD8009260 Si02
#       8
#     2   2   2   2   2   2   2   2
#     4  10  22  40  61  88 127 159 196 250 303 362
#     4  11  22  38  64  89 122 164 201 248 298 359
#     4  10  23  40  59  92 124 162 204 244 306 360
#     4  10  21  40  63  87 126 158 201 252 299 361
#     4  10  21  36  59  93 125 158 200 247 298 361
#     4  10  21  37  60  90 127 158 200 246 303 359
#     4   9  22  46  64  86 124 156 204 257 299 359
#     4  10  21  42  69  88 115 165 205 250 305 350
#
# _framework density 21.702712999999999
#
# number of rings (size 3 to 8) (size 9 to 14) (size 15 to 20)
#    0.000    2.000    1.250    1.125    1.750    7.000 
#    0.000   16.875    0.000    0.000    0.000    0.000 
#    0.000    0.000    0.000    0.000    0.000    0.000 
#
# Total GULP energy -198313.125404 kJ/mol
# GULP energy per Si atom -12394.570338 kJ/mol
# Density = 2.165332 g / cm^3
# Si number density = 21.702713 Si / 1000 Ang^3
#
#
#
# Elastic Constant Matrix: (Units=GPa)
#
#
# Indices 1 2 3 4 5 6 
#
# 1 69.9455 26.6311 46.3147 6.6511 0.8937 -4.1024
# 2 26.6311 114.8209 35.3535 8.3524 3.3456 -6.6607
# 3 46.3147 35.3535 100.7508 -2.5985 -5.5702 -17.9723
# 4 6.6511 8.3524 -2.5985 23.7724 -4.8187 -1.1854
# 5 0.8937 3.3456 -5.5702 -4.8187 35.8913 1.8055
# 6 -4.1024 -6.6607 -17.9723 -1.1854 1.8055 20.4678
#
#
#
# Elastic Compliance Matrix: (Units=1/GPa)
#
#
# Indices 1 2 3 4 5 6 
#
# 1 0.022905 -0.001458 -0.011493 -0.008067 -0.002990 -0.006179
# 2 -0.001458 0.010373 -0.003131 -0.003963 -0.001962 0.000278
# 3 -0.011493 -0.003131 0.019155 0.007883 0.003925 0.013608
# 4 -0.008067 -0.003963 0.007883 0.048503 0.007998 0.006119
# 5 -0.002990 -0.001962 0.003925 0.007998 0.029800 0.000043
# 6 -0.006179 0.000278 0.013608 0.006119 0.000043 0.060008
#
#
# Mechanical properties :
#
#
# Convention : Reuss Voigt Hill
#
# Bulk Modulus (GPa) = 49.33676 55.79066 52.56371
# Shear Modulus (GPa) = 21.77082 27.84084 24.80583
#
# Velocity S-wave (km/s) = 3.17067 3.58554 3.38447
# Velocity P-wave (km/s) = 6.01553 6.55012 6.28851
#
# Compressibility (1/GPa) = 0.02026886
#
# Stress axis : x y z
#
# Youngs Moduli (GPa) = 43.65804 96.40482 52.20528
#
# Poissons Ratio (x) = 0.14058 0.60001
# Poissons Ratio (y) = 0.06366 0.16344
# Poissons Ratio (z) = 0.50178 0.30181
#
# Static dielectric constant tensor:
#      x y z
#    x 3.614040 -0.081320 -0.100190 
#    y -0.081320 4.005020 -0.084330 
#    z -0.100190 -0.084330 3.949550 
# 
# 
# High freq. dielectric constant tensor:
#      x y z
#    x 1.823400 -0.007410 -0.005350 
#    y -0.007410 1.861390 -0.008620 
#    z -0.005350 -0.008620 1.847500 
# 
# From -- ./inp_files/306315.got.cif
#   From: 2010.06.25/outbox.cif.g09.slc.cpg/sg2_154_cif.got.tgz:306315.got - 2010.06.27 13:26:56.
