data_PCOD8009255
_publ_section_title
;
Structure prediction by ZEFSAII (Michael W. Deem and Ramdas Pophale) SiO2 
 PCOD8009255
Probable space group: P -1
;
_chemical_formula_sum "Si O2"
_cell_formula_units_Z 14
_cell_length_a 21.525143
_cell_length_b 12.037874
_cell_length_c 6.534002
_cell_angle_alpha 65.002265
_cell_angle_beta 132.360424
_cell_angle_gamma 145.786881
_cell_volume 665.485284
_symmetry_space_group_name_H-M "P -1"
_symmetry_group_IT_number 2
_symmetry_cell_setting 'triclinic'
loop_
_space_group_symop_operation_xyz
x,y,z
-x,-y,-z
loop_
_atom_site_type_symbol
_atom_site_label
_atom_site_fract_x
_atom_site_fract_y
_atom_site_fract_z
Si Si1 0.650591 0.832704 0.552483
Si Si2 0.194406 0.755738 0.325095
Si Si3 0.788273 0.593124 0.423820
Si Si4 0.036739 0.786907 0.086148
Si Si5 0.837577 0.494930 0.232420
Si Si6 0.342428 0.764012 0.342198
Si Si7 0.420196 0.446653 0.062703
O O1 0.524906 0.663555 0.244061
O O2 0.612298 0.715860 0.764002
O O3 0.664578 0.995343 0.498724
O O4 0.807395 0.967546 0.719331
O O5 0.156729 0.619592 0.530133
O O6 0.228357 0.728504 0.207500
O O7 0.059557 0.692098 0.063016
O O8 0.822739 0.595932 0.265475
O O9 0.664310 0.360496 0.425178
O O10 0.929814 0.752314 0.757507
O O11 0.728863 0.661031 0.236487
O O12 0.978364 0.677608 0.263210
O O13 0.700691 0.324573 0.912680
O O14 0.500000 0.000000 0.500000
O O15 0.500000 0.500000 0.000000
#
# Coordination Sequence:
#
# PCOD8009255 Si02
#       7
#     2   2   2   2   2   2   2
#     4   9  24  41  63  89 116 156 206 247 288 364
#     4   9  21  38  60  90 123 156 200 236 292 363
#     4  10  24  39  59  91 123 153 202 248 294 357
#     4   9  21  40  61  91 123 157 195 245 296 359
#     4  10  21  36  59  92 124 161 187 243 303 352
#     4  10  23  34  59  92 127 159 197 242 293 360
#     4  11  25  44  64  85 116 160 204 254 300 344
#
# _framework density 21.037279000000002
#
# number of rings (size 3 to 8) (size 9 to 14) (size 15 to 20)
#    0.857    1.429    0.000    0.429    6.000   12.571 
#    0.000    1.429    0.000    0.000    0.000    0.000 
#    0.000    0.000    0.000    0.000    0.000    0.000 
#
# Total GULP energy -173509.330223 kJ/mol
# GULP energy per Si atom -12393.523587 kJ/mol
# Density = 2.098940 g / cm^3
# Si number density = 21.037279 Si / 1000 Ang^3
#
#
#
# Elastic Constant Matrix: (Units=GPa)
#
#
# Indices 1 2 3 4 5 6 
#
# 1 96.9551 13.1738 35.9269 -21.4177 2.6501 5.7199
# 2 13.1738 67.3288 16.7003 0.9734 -7.3600 21.9384
# 3 35.9269 16.7003 83.4140 -11.3005 5.2606 9.9561
# 4 -21.4177 0.9734 -11.3005 17.6345 6.6566 8.9126
# 5 2.6501 -7.3600 5.2606 6.6566 29.8176 -2.6797
# 6 5.7199 21.9384 9.9561 8.9126 -2.6797 34.1550
#
#
#
# Elastic Compliance Matrix: (Units=1/GPa)
#
#
# Indices 1 2 3 4 5 6 
#
# 1 0.018815 -0.001266 -0.001850 0.030622 -0.009441 -0.010530
# 2 -0.001266 0.019932 -0.002330 0.000068 0.004387 -0.011585
# 3 -0.001850 -0.002330 0.016696 0.015244 -0.007444 -0.007622
# 4 0.030622 0.000068 0.015244 0.145396 -0.042426 -0.050884
# 5 -0.009441 0.004387 -0.007444 -0.042426 0.047659 0.015743
# 6 -0.010530 -0.011585 -0.007622 -0.050884 0.015743 0.055218
#
#
# Mechanical properties :
#
#
# Convention : Reuss Voigt Hill
#
# Bulk Modulus (GPa) = 22.44614 42.14444 32.29529
# Shear Modulus (GPa) = 15.17649 28.44788 21.81219
#
# Velocity S-wave (km/s) = 2.68882 3.68130 3.22349
# Velocity P-wave (km/s) = 4.50916 6.17624 5.40733
#
# Compressibility (1/GPa) = 0.04455110
#
# Stress axis : x y z
#
# Youngs Moduli (GPa) = 53.14831 50.17182 59.89485
#
# Poissons Ratio (x) = 0.06354 0.11078
# Poissons Ratio (y) = 0.06731 0.13955
# Poissons Ratio (z) = 0.09830 0.11689
#
# Static dielectric constant tensor:
#      x y z
#    x 3.794090 0.150140 -0.033920 
#    y 0.150140 3.959340 0.144780 
#    z -0.033920 0.144780 3.776740 
# 
# 
# High freq. dielectric constant tensor:
#      x y z
#    x 1.820440 0.015720 -0.002930 
#    y 0.015720 1.825980 -0.000730 
#    z -0.002930 -0.000730 1.815740 
# 
# From -- ./inp_files/118140.got.cif
#   From: 2010.06.25/outbox.cif.g09.slc.cpg/sg2_60_cif.got.tgz:118140.got - 2010.06.27 13:26:56.
