data_PCOD8009358
_publ_section_title
;
Structure prediction by ZEFSAII (Michael W. Deem and Ramdas Pophale) SiO2 
 PCOD8009358
Probable space group: P -1
;
_chemical_formula_sum "Si O2"
_cell_formula_units_Z 14
_cell_length_a 8.412548
_cell_length_b 13.148005
_cell_length_c 16.637705
_cell_angle_alpha 154.670777
_cell_angle_beta 101.406708
_cell_angle_gamma 67.358545
_cell_volume 672.012430
_symmetry_space_group_name_H-M "P -1"
_symmetry_group_IT_number 2
_symmetry_cell_setting 'triclinic'
loop_
_space_group_symop_operation_xyz
x,y,z
-x,-y,-z
loop_
_atom_site_type_symbol
_atom_site_label
_atom_site_fract_x
_atom_site_fract_y
_atom_site_fract_z
Si Si1 0.377051 0.872687 0.043246
Si Si2 0.822626 0.102891 0.110407
Si Si3 0.265482 0.691729 0.333089
Si Si4 0.886970 0.760653 0.361903
Si Si5 0.909113 0.224006 0.463109
Si Si6 0.928657 0.209878 0.956499
Si Si7 0.664625 0.560936 0.539076
O O1 0.411546 0.117877 0.249882
O O2 0.338805 0.897135 0.960415
O O3 0.559239 0.588114 0.876521
O O4 0.206828 0.887220 0.087077
O O5 0.756762 0.407256 0.355017
O O6 0.000000 0.000000 0.000000
O O7 0.883287 0.896673 0.045565
O O8 0.251879 0.736768 0.461069
O O9 0.077036 0.694860 0.285721
O O10 0.276902 0.941759 0.469567
O O11 0.826605 0.537017 0.173660
O O12 0.928717 0.748161 0.453285
O O13 0.820104 0.450314 0.546041
O O14 0.005859 0.921621 0.218508
O O15 0.500000 0.500000 0.500000
#
# Coordination Sequence:
#
# PCOD8009358 Si02
#       7
#     2   2   2   2   2   2   2
#     4  11  23  38  56  88 120 147 186 237 283 331
#     4   9  21  38  57  86 117 154 178 224 287 345
#     4   9  21  40  60  80 116 149 191 241 274 332
#     4   9  20  41  60  80 113 151 195 231 284 331
#     4   9  20  38  58  83 110 155 186 231 279 341
#     4  10  21  36  62  84 113 152 187 229 285 343
#     4  11  23  35  57  89 117 145 188 234 281 337
#
# _framework density 20.832947999999998
#
# number of rings (size 3 to 8) (size 9 to 14) (size 15 to 20)
#    0.857    1.429    0.000    1.714    4.000    9.714 
#    0.000    0.714    0.000    0.000    0.000    0.000 
#    0.000    0.000    0.000    0.000    0.000    0.000 
#
# Total GULP energy -173501.915204 kJ/mol
# GULP energy per Si atom -12392.993943 kJ/mol
# Density = 2.078553 g / cm^3
# Si number density = 20.832948 Si / 1000 Ang^3
#
#
#
# Elastic Constant Matrix: (Units=GPa)
#
#
# Indices 1 2 3 4 5 6 
#
# 1 55.0388 18.2909 48.1043 9.6933 3.6001 3.4941
# 2 18.2909 43.5880 57.3771 8.1888 -4.5473 2.6307
# 3 48.1043 57.3771 194.0020 17.8397 1.8771 6.1612
# 4 9.6933 8.1888 17.8397 39.1634 6.9576 -3.7693
# 5 3.6001 -4.5473 1.8771 6.9576 34.5425 6.6731
# 6 3.4941 2.6307 6.1612 -3.7693 6.6731 20.0019
#
#
#
# Elastic Compliance Matrix: (Units=1/GPa)
#
#
# Indices 1 2 3 4 5 6 
#
# 1 0.024141 -0.003595 -0.004548 -0.003085 -0.001663 -0.002370
# 2 -0.003595 0.040351 -0.010530 -0.004689 0.008178 -0.005048
# 3 -0.004548 -0.010530 0.009502 -0.000845 -0.001158 -0.000521
# 4 -0.003085 -0.004689 -0.000845 0.030065 -0.008202 0.009818
# 5 -0.001663 0.008178 -0.001158 -0.008202 0.034521 -0.013491
# 6 -0.002370 -0.005048 -0.000521 0.009818 -0.013491 0.057585
#
#
# Mechanical properties :
#
#
# Convention : Reuss Voigt Hill
#
# Bulk Modulus (GPa) = 27.28647 60.01926 43.65286
# Shear Modulus (GPa) = 20.34783 29.99867 25.17325
#
# Velocity S-wave (km/s) = 3.12863 3.79880 3.47989
# Velocity P-wave (km/s) = 5.11638 6.93639 6.09470
#
# Compressibility (1/GPa) = 0.03664821
#
# Stress axis : x y z
#
# Youngs Moduli (GPa) = 41.42349 24.78264 105.24022
#
# Poissons Ratio (x) = 0.08909 0.47860
# Poissons Ratio (y) = 0.14891 1.10820
# Poissons Ratio (z) = 0.18838 0.26097
#
# Static dielectric constant tensor:
#      x y z
#    x 3.335670 -0.134130 -0.074420 
#    y -0.134130 3.919680 -0.107650 
#    z -0.074420 -0.107650 3.851690 
# 
# 
# High freq. dielectric constant tensor:
#      x y z
#    x 1.779130 -0.003010 -0.008840 
#    y -0.003010 1.802020 0.000560 
#    z -0.008840 0.000560 1.826520 
# 
# From -- ./inp_files/561254.got.cif
#   From: 2010.06.25/outbox.cif.g09.slc.cpg/sg2_281_cif.got.tgz:561254.got - 2010.06.27 13:26:56.
