data_PCOD8009095
_publ_section_title
;
Structure prediction by ZEFSAII (Michael W. Deem and Ramdas Pophale) SiO2 
 PCOD8009095
Probable space group: P -1
;
_chemical_formula_sum "Si O2"
_cell_formula_units_Z 16
_cell_length_a 21.577415
_cell_length_b 20.813670
_cell_length_c 9.766132
_cell_angle_alpha 153.512200
_cell_angle_beta 26.707361
_cell_angle_gamma 152.977987
_cell_volume 782.712490
_symmetry_space_group_name_H-M "P -1"
_symmetry_group_IT_number 2
_symmetry_cell_setting 'triclinic'
loop_
_space_group_symop_operation_xyz
x,y,z
-x,-y,-z
loop_
_atom_site_type_symbol
_atom_site_label
_atom_site_fract_x
_atom_site_fract_y
_atom_site_fract_z
Si Si1 0.002240 0.681820 0.612694
Si Si2 0.864437 0.310225 0.156496
Si Si3 0.462744 0.729754 0.242169
Si Si4 0.562571 0.825042 0.515933
Si Si5 0.372462 0.317436 0.407305
Si Si6 0.752809 0.189093 0.856817
Si Si7 0.322385 0.355786 0.870340
Si Si8 0.972575 0.817150 0.210103
O O1 0.968126 0.496747 0.347692
O O2 0.151437 0.773271 0.399109
O O3 0.857661 0.692248 0.846091
O O4 0.039266 0.770793 0.855346
O O5 0.689431 0.246458 0.435924
O O6 0.862967 0.290329 0.957258
O O7 0.938419 0.204089 0.875361
O O8 0.566433 0.839290 0.370571
O O9 0.565588 0.783686 0.003052
O O10 0.417822 0.546384 0.022933
O O11 0.618582 0.695787 0.209269
O O12 0.679075 0.999587 0.678418
O O13 0.386856 0.763852 0.798785
O O14 0.500000 0.500000 0.500000
O O15 0.345608 0.260756 0.511102
O O16 0.210379 0.301701 0.639023
O O17 0.000000 0.000000 0.500000
#
# Coordination Sequence:
#
# PCOD8009095 Si02
#       8
#     2   2   2   2   2   2   2   2
#     4  10  22  40  61  87 117 157 202 240 300 363
#     4  10  22  42  63  85 122 160 199 248 296 360
#     4   9  19  37  60  85 116 158 202 238 297 362
#     4  10  21  36  55  85 123 151 196 251 298 346
#     4   9  20  38  59  88 120 154 201 242 293 361
#     4  10  23  38  58  87 119 158 202 246 297 356
#     4   9  19  35  58  85 116 155 196 247 291 356
#     4  11  25  40  63  95 125 154 202 254 303 354
#
# _framework density 20.441732999999999
#
# number of rings (size 3 to 8) (size 9 to 14) (size 15 to 20)
#    0.000    2.250    0.000    1.875    5.250    4.500 
#    0.000    0.625    0.000    0.000    0.000    0.000 
#    0.000    0.000    0.000    0.000    0.000    0.000 
#
# Total GULP energy -198404.312681 kJ/mol
# GULP energy per Si atom -12400.269543 kJ/mol
# Density = 2.039521 g / cm^3
# Si number density = 20.441733 Si / 1000 Ang^3
#
#
#
# Elastic Constant Matrix: (Units=GPa)
#
#
# Indices 1 2 3 4 5 6 
#
# 1 86.1174 37.6109 37.5278 2.1043 -12.1660 6.1011
# 2 37.6109 58.6969 39.0074 -6.2752 -2.4914 2.1760
# 3 37.5278 39.0074 87.4740 -11.8392 6.1221 -2.0751
# 4 2.1043 -6.2752 -11.8392 44.0095 -7.1612 4.0648
# 5 -12.1660 -2.4914 6.1221 -7.1612 43.9470 5.5791
# 6 6.1011 2.1760 -2.0751 4.0648 5.5791 18.8362
#
#
#
# Elastic Compliance Matrix: (Units=1/GPa)
#
#
# Indices 1 2 3 4 5 6 
#
# 1 0.018962 -0.008316 -0.005276 -0.001853 0.006122 -0.007176
# 2 -0.008316 0.028839 -0.009107 0.002516 0.001339 -0.002581
# 3 -0.005276 -0.009107 0.018588 0.002640 -0.004857 0.005678
# 4 -0.001853 0.002516 0.002640 0.025108 0.004120 -0.006038
# 5 0.006122 0.001339 -0.004857 0.004120 0.027354 -0.011664
# 6 -0.007176 -0.002581 0.005678 -0.006038 -0.011664 0.061095
#
#
# Mechanical properties :
#
#
# Convention : Reuss Voigt Hill
#
# Bulk Modulus (GPa) = 47.63901 51.17560 49.40731
# Shear Modulus (GPa) = 21.52022 29.23467 25.37744
#
# Velocity S-wave (km/s) = 3.24814 3.78583 3.52725
# Velocity P-wave (km/s) = 6.11740 6.64825 6.38834
#
# Compressibility (1/GPa) = 0.02099120
#
# Stress axis : x y z
#
# Youngs Moduli (GPa) = 52.73830 34.67564 53.79738
#
# Poissons Ratio (x) = 0.28836 0.28383
# Poissons Ratio (y) = 0.43857 0.48992
# Poissons Ratio (z) = 0.27824 0.31578
#
# Static dielectric constant tensor:
#      x y z
#    x 3.703770 0.188030 0.230730 
#    y 0.188030 3.433080 -0.177260 
#    z 0.230730 -0.177260 4.124750 
# 
# 
# High freq. dielectric constant tensor:
#      x y z
#    x 1.797900 0.017610 0.012440 
#    y 0.017610 1.779720 -0.007110 
#    z 0.012440 -0.007110 1.807050 
# 
# From -- ./inp_files/348980.got.cif
#   From: 2010.06.25/outbox.cif.g09.slc.cpg/sg2_175_cif.got.tgz:348980.got - 2010.06.27 13:26:56.
