data_PCOD8009784
_publ_section_title
;
Structure prediction by ZEFSAII (Michael W. Deem and Ramdas Pophale) SiO2 
 PCOD8009784
Probable space group: P -1
;
_chemical_formula_sum "Si O2"
_cell_formula_units_Z 14
_cell_length_a 23.249474
_cell_length_b 10.055243
_cell_length_c 12.793856
_cell_angle_alpha 119.846649
_cell_angle_beta 28.624737
_cell_angle_gamma 140.677143
_cell_volume 728.168700
_symmetry_space_group_name_H-M "P -1"
_symmetry_group_IT_number 2
_symmetry_cell_setting 'triclinic'
loop_
_space_group_symop_operation_xyz
x,y,z
-x,-y,-z
loop_
_atom_site_type_symbol
_atom_site_label
_atom_site_fract_x
_atom_site_fract_y
_atom_site_fract_z
Si Si1 0.436650 0.088997 0.329876
Si Si2 0.732392 0.425615 0.276366
Si Si3 0.238967 0.368009 0.895955
Si Si4 0.696525 0.042960 0.129453
Si Si5 0.885769 0.211614 0.455130
Si Si6 0.230845 0.821701 0.153213
Si Si7 0.164947 0.942677 0.876949
O O1 0.601763 0.398640 0.182282
O O2 0.300667 0.955512 0.391476
O O3 0.295563 0.954638 0.606544
O O4 0.557937 0.054943 0.127313
O O5 0.688403 0.497125 0.280311
O O6 0.544899 0.231141 0.579130
O O7 0.764361 0.290520 0.125034
O O8 0.928013 0.684061 0.128179
O O9 0.249608 0.197001 0.812069
O O10 0.007583 0.183962 0.218051
O O11 0.816818 0.068603 0.033249
O O12 0.755733 0.053693 0.921313
O O13 0.794106 0.098367 0.673516
O O14 0.034498 0.510533 0.330766
#
# Coordination Sequence:
#
# PCOD8009784 Si02
#       7
#     2   2   2   2   2   2   2
#     4  11  19  35  60  85 111 144 196 235 282 325
#     4  11  21  37  56  85 120 150 187 235 288 336
#     4  11  22  38  56  91 115 148 194 233 281 341
#     4  11  21  37  55  86 123 145 183 239 286 343
#     4  10  21  37  61  81 115 150 195 238 270 334
#     4  10  21  39  56  85 114 152 193 234 277 333
#     4  12  23  34  61  88 118 152 183 233 296 340
#
# _framework density 19.226313999999999
#
# number of rings (size 3 to 8) (size 9 to 14) (size 15 to 20)
#    0.000    1.143    5.714    2.571    0.000    1.143 
#    0.000    0.714    0.000    1.714    0.000    0.000 
#    0.000    0.000    0.000    0.000    0.000    0.000 
#
# Total GULP energy -173632.248987 kJ/mol
# GULP energy per Si atom -12402.303499 kJ/mol
# Density = 1.918255 g / cm^3
# Si number density = 19.226314 Si / 1000 Ang^3
#
#
#
# Elastic Constant Matrix: (Units=GPa)
#
#
# Indices 1 2 3 4 5 6 
#
# 1 138.7885 37.2438 35.6121 -9.8894 16.6999 5.8424
# 2 37.2438 39.5288 20.4951 -10.8478 -0.0264 -1.6303
# 3 35.6121 20.4951 31.3849 0.9999 13.6240 10.0227
# 4 -9.8894 -10.8478 0.9999 21.6976 10.7286 -5.7413
# 5 16.6999 -0.0264 13.6240 10.7286 41.6980 -5.3972
# 6 5.8424 -1.6303 10.0227 -5.7413 -5.3972 32.2239
#
#
#
# Elastic Compliance Matrix: (Units=1/GPa)
#
#
# Indices 1 2 3 4 5 6 
#
# 1 0.011460 -0.004512 -0.009395 0.005003 -0.002673 0.001060
# 2 -0.004512 0.073612 -0.062064 0.038236 0.016622 0.033443
# 3 -0.009395 -0.062064 0.112379 -0.038778 -0.029256 -0.048199
# 4 0.005003 0.038236 -0.038778 0.079325 -0.006333 0.026161
# 5 -0.002673 0.016622 -0.029256 -0.006333 0.038284 0.015709
# 6 0.001060 0.033443 -0.048199 0.026161 0.015709 0.054816
#
#
# Mechanical properties :
#
#
# Convention : Reuss Voigt Hill
#
# Bulk Modulus (GPa) = 21.97349 44.04490 33.00920
# Shear Modulus (GPa) = 9.31120 26.88066 18.09593
#
# Velocity S-wave (km/s) = 2.20306 3.74320 3.07124
# Velocity P-wave (km/s) = 4.23379 6.45294 5.45735
#
# Compressibility (1/GPa) = 0.04550939
#
# Stress axis : x y z
#
# Youngs Moduli (GPa) = 87.25964 13.58483 8.89846
#
# Poissons Ratio (x) = 0.06129 0.08360
# Poissons Ratio (y) = 0.39370 0.55227
# Poissons Ratio (z) = 0.81977 0.84313
#
# Static dielectric constant tensor:
#      x y z
#    x 3.602210 0.155700 0.040100 
#    y 0.155700 3.327800 -0.099880 
#    z 0.040100 -0.099880 3.716210 
# 
# 
# High freq. dielectric constant tensor:
#      x y z
#    x 1.753390 0.013700 -0.005930 
#    y 0.013700 1.717800 -0.018870 
#    z -0.005930 -0.018870 1.753310 
# 
# From -- ./inp_files/175788.got.cif
#   From: 2010.06.25/outbox.cif.g09.slc.cpg/sg2_88_cif.got.tgz:175788.got - 2010.06.27 13:26:56.
