data_PCOD8009595
_publ_section_title
;
Structure prediction by ZEFSAII (Michael W. Deem and Ramdas Pophale) SiO2 
 PCOD8009595
Probable space group: P -1
;
_chemical_formula_sum "Si O2"
_cell_formula_units_Z 16
_cell_length_a 8.624554
_cell_length_b 15.371243
_cell_length_c 6.458271
_cell_angle_alpha 114.537065
_cell_angle_beta 79.420904
_cell_angle_gamma 80.083142
_cell_volume 735.469921
_symmetry_space_group_name_H-M "P -1"
_symmetry_group_IT_number 2
_symmetry_cell_setting 'triclinic'
loop_
_space_group_symop_operation_xyz
x,y,z
-x,-y,-z
loop_
_atom_site_type_symbol
_atom_site_label
_atom_site_fract_x
_atom_site_fract_y
_atom_site_fract_z
Si Si1 0.374316 0.934872 0.490951
Si Si2 0.539944 0.728773 0.462175
Si Si3 0.889120 0.429473 0.516246
Si Si4 0.873774 0.913145 0.014976
Si Si5 0.612933 0.392074 0.316942
Si Si6 0.636791 0.599819 0.929258
Si Si7 0.123248 0.966094 0.250976
Si Si8 0.799073 0.725855 0.717883
O O1 0.450738 0.824098 0.444383
O O2 0.301802 0.920611 0.266170
O O3 0.500000 0.000000 0.500000
O O4 0.237673 0.991987 0.742626
O O5 0.415607 0.692915 0.605736
O O6 0.679663 0.760245 0.587424
O O7 0.630084 0.636044 0.201390
O O8 0.800383 0.396925 0.302502
O O9 0.745620 0.482902 0.770222
O O10 0.000000 0.500000 0.500000
O O11 0.017919 0.328708 0.469596
O O12 0.057815 0.889093 0.046759
O O13 0.803770 0.818681 0.953377
O O14 0.875555 0.939476 0.798109
O O15 0.500000 0.500000 0.500000
O O16 0.553025 0.376073 0.082235
O O17 0.733355 0.654481 0.810000
O O18 0.000000 0.000000 0.500000
#
# Coordination Sequence:
#
# PCOD8009595 Si02
#       8
#     2   2   2   2   2   2   2   2
#     4  11  23  38  59  90 122 156 203 246 290 356
#     4  11  23  37  59  88 116 155 200 237 291 355
#     4   9  19  37  59  83 112 147 188 238 294 347
#     4  10  21  39  61  82 119 161 191 245 304 340
#     4   9  20  39  61  85 117 150 194 245 292 351
#     4   9  20  39  59  83 117 150 188 243 295 344
#     4   9  21  39  58  83 118 155 198 243 293 355
#     4  10  21  37  58  84 113 150 196 239 289 355
#
# _framework density 21.754795999999999
#
# number of rings (size 3 to 8) (size 9 to 14) (size 15 to 20)
#    0.000    2.250    0.000    2.250    0.000   11.500 
#    0.000    2.500    0.000    1.500    0.000    0.000 
#    0.000    0.000    0.000    0.000    0.000    0.000 
#
# Total GULP energy -198232.259995 kJ/mol
# GULP energy per Si atom -12389.516250 kJ/mol
# Density = 2.170528 g / cm^3
# Si number density = 21.754796 Si / 1000 Ang^3
#
#
#
# Elastic Constant Matrix: (Units=GPa)
#
#
# Indices 1 2 3 4 5 6 
#
# 1 144.7824 36.2299 32.0575 -1.2250 39.2447 -4.8346
# 2 36.2299 74.5920 12.8766 0.9970 16.3835 -8.5690
# 3 32.0575 12.8766 79.2749 3.0289 15.6417 -6.8771
# 4 -1.2250 0.9970 3.0289 32.2823 -0.5372 3.7911
# 5 39.2447 16.3835 15.6417 -0.5372 38.9898 -0.0335
# 6 -4.8346 -8.5690 -6.8771 3.7911 -0.0335 31.1867
#
#
#
# Elastic Compliance Matrix: (Units=1/GPa)
#
#
# Indices 1 2 3 4 5 6 
#
# 1 0.010361 -0.002798 -0.002066 0.000497 -0.008417 0.000312
# 2 -0.002798 0.016150 -0.000338 -0.001114 -0.003846 0.004060
# 3 -0.002066 -0.000338 0.014556 -0.001849 -0.003640 0.003017
# 4 0.000497 -0.001114 -0.001849 0.031750 0.001143 -0.004495
# 5 -0.008417 -0.003846 -0.003640 0.001143 0.037209 -0.003263
# 6 0.000312 0.004060 0.003017 -0.004495 -0.003263 0.034437
#
#
# Mechanical properties :
#
#
# Convention : Reuss Voigt Hill
#
# Bulk Modulus (GPa) = 32.61437 51.21971 41.91704
# Shear Modulus (GPa) = 30.28705 34.99078 32.63892
#
# Velocity S-wave (km/s) = 3.73527 4.01486 3.87758
# Velocity P-wave (km/s) = 5.79891 6.71471 6.27354
#
# Compressibility (1/GPa) = 0.03066134
#
# Stress axis : x y z
#
# Youngs Moduli (GPa) = 96.51966 61.92102 68.70254
#
# Poissons Ratio (x) = 0.17323 0.14197
# Poissons Ratio (y) = 0.27002 0.02323
# Poissons Ratio (z) = 0.19945 0.02094
#
# Static dielectric constant tensor:
#      x y z
#    x 4.953900 -0.111560 0.657230 
#    y -0.111560 3.889780 0.143370 
#    z 0.657230 0.143370 4.186090 
# 
# 
# High freq. dielectric constant tensor:
#      x y z
#    x 1.870490 0.002840 0.024430 
#    y 0.002840 1.844200 0.006330 
#    z 0.024430 0.006330 1.838880 
# 
# From -- ./inp_files/37946.got.cif
#   From: 2010.06.25/outbox.cif.g09.slc.cpg/sg2_19_cif.got.tgz:37946.got - 2010.06.27 13:26:56.
