data_PCOD8009738
_publ_section_title
;
Structure prediction by ZEFSAII (Michael W. Deem and Ramdas Pophale) SiO2 
 PCOD8009738
Probable space group: P -1
;
_chemical_formula_sum "Si O2"
_cell_formula_units_Z 14
_cell_length_a 7.220411
_cell_length_b 11.215892
_cell_length_c 9.985270
_cell_angle_alpha 121.915945
_cell_angle_beta 83.676681
_cell_angle_gamma 121.242653
_cell_volume 571.659015
_symmetry_space_group_name_H-M "P -1"
_symmetry_group_IT_number 2
_symmetry_cell_setting 'triclinic'
loop_
_space_group_symop_operation_xyz
x,y,z
-x,-y,-z
loop_
_atom_site_type_symbol
_atom_site_label
_atom_site_fract_x
_atom_site_fract_y
_atom_site_fract_z
Si Si1 0.702838 0.409763 0.781593
Si Si2 0.043275 0.769618 0.038535
Si Si3 0.413918 0.686890 0.981520
Si Si4 0.045571 0.294505 0.420209
Si Si5 0.354749 0.675477 0.555333
Si Si6 0.249031 0.134250 0.161376
Si Si7 0.926839 0.671729 0.274621
O O1 0.571191 0.336634 0.609092
O O2 0.813347 0.610146 0.903927
O O3 0.911934 0.393525 0.757371
O O4 0.541292 0.305413 0.857124
O O5 0.246576 0.744500 0.993231
O O6 0.005118 0.793582 0.212650
O O7 0.096157 0.933036 0.050665
O O8 0.644695 0.807433 0.959261
O O9 0.316645 0.495411 0.830655
O O10 0.226175 0.493478 0.524294
O O11 0.093408 0.202619 0.246674
O O12 0.064828 0.234882 0.532985
O O13 0.799650 0.250620 0.385761
O O14 0.568109 0.802843 0.699497
#
# Coordination Sequence:
#
# PCOD8009738 Si02
#       7
#     2   2   2   2   2   2   2
#     4   8  17  37  62  80 117 164 198 231 298 357
#     4   9  19  34  60  87 121 159 192 238 309 347
#     4   9  17  34  60  85 117 162 195 235 295 360
#     4  10  21  37  60  88 123 150 201 242 300 345
#     4  10  21  39  65  86 114 160 203 245 284 356
#     4  12  22  35  65  94 116 150 202 251 292 349
#     4   8  15  34  59  81 112 164 197 226 287 369
#
# _framework density 24.490122
#
# number of rings (size 3 to 8) (size 9 to 14) (size 15 to 20)
#    0.000    2.571    1.429    2.571    2.000    0.571 
#    0.000    7.857    0.000    0.000    0.000    0.000 
#    0.000    0.000    0.000    0.000    0.000    0.000 
#
# Total GULP energy -173590.822447 kJ/mol
# GULP energy per Si atom -12399.344460 kJ/mol
# Density = 2.443438 g / cm^3
# Si number density = 24.490122 Si / 1000 Ang^3
#
#
#
# Elastic Constant Matrix: (Units=GPa)
#
#
# Indices 1 2 3 4 5 6 
#
# 1 48.4883 18.6237 41.0971 -5.1073 -2.1544 7.2856
# 2 18.6237 149.2825 60.0443 -27.1204 -13.9668 12.8465
# 3 41.0971 60.0443 105.3143 -33.6341 -4.9546 18.1912
# 4 -5.1073 -27.1204 -33.6341 47.9088 -0.4394 -1.7818
# 5 -2.1544 -13.9668 -4.9546 -0.4394 35.6186 4.8325
# 6 7.2856 12.8465 18.1912 -1.7818 4.8325 14.1051
#
#
#
# Elastic Compliance Matrix: (Units=1/GPa)
#
#
# Indices 1 2 3 4 5 6 
#
# 1 0.032678 0.000805 -0.015843 -0.007111 -0.000273 0.002015
# 2 0.000805 0.009397 -0.003767 0.002606 0.003939 -0.005136
# 3 -0.015843 -0.003767 0.026243 0.013825 0.004368 -0.021981
# 4 -0.007111 0.002606 0.013825 0.030809 0.004834 -0.014295
# 5 -0.000273 0.003939 0.004368 0.004834 0.032951 -0.019758
# 6 0.002015 -0.005136 -0.021981 -0.014295 -0.019758 0.107846
#
#
# Mechanical properties :
#
#
# Convention : Reuss Voigt Hill
#
# Bulk Modulus (GPa) = 32.56437 60.29058 46.42747
# Shear Modulus (GPa) = 17.37491 31.74784 24.56138
#
# Velocity S-wave (km/s) = 2.66647 3.60440 3.17031
# Velocity P-wave (km/s) = 4.77555 6.48028 5.69209
#
# Compressibility (1/GPa) = 0.03070841
#
# Stress axis : x y z
#
# Youngs Moduli (GPa) = 30.60117 106.41161 38.10491
#
# Poissons Ratio (x) = -0.08564 0.60370
# Poissons Ratio (y) = -0.02463 0.14355
# Poissons Ratio (z) = 0.48481 0.40088
#
# Static dielectric constant tensor:
#      x y z
#    x 4.150550 -0.055260 -0.057880 
#    y -0.055260 4.364450 -0.558370 
#    z -0.057880 -0.558370 4.618730 
# 
# 
# High freq. dielectric constant tensor:
#      x y z
#    x 1.970360 -0.005520 -0.000100 
#    y -0.005520 1.960230 -0.035420 
#    z -0.000100 -0.035420 1.966880 
# 
# From -- ./inp_files/280560.got.cif
#   From: 2010.06.25/outbox.cif.g09.slc.cpg/sg2_141_cif.got.tgz:280560.got - 2010.06.27 13:26:56.
