data_PCOD8009508
_publ_section_title
;
Structure prediction by ZEFSAII (Michael W. Deem and Ramdas Pophale) SiO2 
 PCOD8009508
Probable space group: P -1
;
_chemical_formula_sum "Si O2"
_cell_formula_units_Z 16
_cell_length_a 14.097414
_cell_length_b 12.521552
_cell_length_c 14.702717
_cell_angle_alpha 67.595771
_cell_angle_beta 19.871617
_cell_angle_gamma 65.283126
_cell_volume 800.756052
_symmetry_space_group_name_H-M "P -1"
_symmetry_group_IT_number 2
_symmetry_cell_setting 'triclinic'
loop_
_space_group_symop_operation_xyz
x,y,z
-x,-y,-z
loop_
_atom_site_type_symbol
_atom_site_label
_atom_site_fract_x
_atom_site_fract_y
_atom_site_fract_z
Si Si1 0.147707 0.743369 0.268360
Si Si2 0.842853 0.030141 0.726983
Si Si3 0.392101 0.583323 0.771482
Si Si4 0.997415 0.609513 0.283691
Si Si5 0.214231 0.351542 0.230071
Si Si6 0.946511 0.368919 0.106841
Si Si7 0.462508 0.673891 0.353216
Si Si8 0.377159 0.182548 0.988158
O O1 0.032265 0.884083 0.343914
O O2 0.012851 0.716558 0.303055
O O3 0.041616 0.675810 0.470150
O O4 0.487286 0.697105 0.973679
O O5 0.542087 0.111876 0.946489
O O6 0.000000 0.000000 0.500000
O O7 0.813832 0.910065 0.846469
O O8 0.672067 0.616567 0.549069
O O9 0.271964 0.657223 0.764957
O O10 0.442013 0.444734 0.751862
O O11 0.146127 0.625409 0.050594
O O12 0.155528 0.491643 0.228833
O O13 0.190244 0.297641 0.167487
O O14 0.808032 0.340455 0.337474
O O15 0.000000 0.500000 0.000000
O O16 0.269487 0.296237 0.839215
O O17 0.410726 0.781136 0.291760
#
# Coordination Sequence:
#
# PCOD8009508 Si02
#       8
#     2   2   2   2   2   2   2   2
#     4  11  23  37  54  78 113 154 195 229 276 323
#     4  10  21  38  57  78 118 148 190 246 278 313
#     4  11  21  35  54  81 116 147 184 226 287 333
#     4  12  22  34  55  82 111 156 188 224 271 351
#     4  11  21  36  53  78 118 147 191 230 273 332
#     4  10  21  37  54  84 117 151 177 237 284 345
#     4  11  21  35  59  83 117 146 192 224 286 350
#     4  10  22  35  57  86 108 155 188 231 288 332
#
# _framework density 19.981116
#
# number of rings (size 3 to 8) (size 9 to 14) (size 15 to 20)
#    0.000    1.250    2.500    6.000    3.500    0.000 
#    0.000    0.000    0.000    0.000    0.000    5.250 
#    0.000    0.000    0.000    0.000    0.000    0.000 
#
# Total GULP energy -198229.777468 kJ/mol
# GULP energy per Si atom -12389.361092 kJ/mol
# Density = 1.993564 g / cm^3
# Si number density = 19.981116 Si / 1000 Ang^3
#
#
#
# Elastic Constant Matrix: (Units=GPa)
#
#
# Indices 1 2 3 4 5 6 
#
# 1 113.9591 42.6484 59.9559 -6.2412 -2.9871 29.5020
# 2 42.6484 76.6053 33.5112 -15.0589 8.0132 30.0288
# 3 59.9559 33.5112 153.3484 -1.3758 10.4973 17.3028
# 4 -6.2412 -15.0589 -1.3758 27.4128 -8.6460 8.5857
# 5 -2.9871 8.0132 10.4973 -8.6460 44.3614 -4.2503
# 6 29.5020 30.0288 17.3028 8.5857 -4.2503 31.9157
#
#
#
# Elastic Compliance Matrix: (Units=1/GPa)
#
#
# Indices 1 2 3 4 5 6 
#
# 1 0.015129 0.000493 -0.004526 0.008610 0.002337 -0.014000
# 2 0.000493 0.039020 -0.003032 0.034335 -0.003945 -0.045287
# 3 -0.004526 -0.003032 0.008730 -0.003940 -0.002298 0.003057
# 4 0.008610 0.034335 -0.003940 0.076804 0.004707 -0.058162
# 5 0.002337 -0.003945 -0.002298 0.004707 0.025343 0.004906
# 6 -0.014000 -0.045287 0.003057 -0.058162 0.004906 0.101526
#
#
# Mechanical properties :
#
#
# Convention : Reuss Voigt Hill
#
# Bulk Modulus (GPa) = 20.51283 68.46040 44.48662
# Shear Modulus (GPa) = 16.83890 34.59115 25.71502
#
# Velocity S-wave (km/s) = 2.90615 4.16527 3.59132
# Velocity P-wave (km/s) = 4.64213 7.58087 6.28566
#
# Compressibility (1/GPa) = 0.04874998
#
# Stress axis : x y z
#
# Youngs Moduli (GPa) = 66.09888 25.62779 114.54495
#
# Poissons Ratio (x) = -0.01264 0.51842
# Poissons Ratio (y) = -0.03260 0.34729
# Poissons Ratio (z) = 0.29916 0.07770
#
# Static dielectric constant tensor:
#      x y z
#    x 3.822490 0.087350 -0.144080 
#    y 0.087350 3.855830 -0.092030 
#    z -0.144080 -0.092030 3.746300 
# 
# 
# High freq. dielectric constant tensor:
#      x y z
#    x 1.763430 0.004010 -0.004790 
#    y 0.004010 1.744600 -0.007680 
#    z -0.004790 -0.007680 1.799480 
# 
# From -- ./inp_files/522086.got.cif
#   From: 2010.06.25/outbox.cif.g09.slc.cpg/sg2_262_cif.got.tgz:522086.got - 2010.06.27 13:26:56.
