data_PCOD8009273
_publ_section_title
;
Structure prediction by ZEFSAII (Michael W. Deem and Ramdas Pophale) SiO2 
 PCOD8009273
Probable space group: P -1
;
_chemical_formula_sum "Si O2"
_cell_formula_units_Z 16
_cell_length_a 24.357178
_cell_length_b 21.743600
_cell_length_c 9.175078
_cell_angle_alpha 29.380951
_cell_angle_beta 30.142437
_cell_angle_gamma 20.938298
_cell_volume 815.198956
_symmetry_space_group_name_H-M "P -1"
_symmetry_group_IT_number 2
_symmetry_cell_setting 'triclinic'
loop_
_space_group_symop_operation_xyz
x,y,z
-x,-y,-z
loop_
_atom_site_type_symbol
_atom_site_label
_atom_site_fract_x
_atom_site_fract_y
_atom_site_fract_z
Si Si1 0.692664 0.774751 0.356459
Si Si2 0.028451 0.935986 0.731586
Si Si3 0.204971 0.117627 0.334527
Si Si4 0.433858 0.503959 0.989951
Si Si5 0.348428 0.999252 0.787731
Si Si6 0.145362 0.613203 0.300366
Si Si7 0.301382 0.846378 0.440384
Si Si8 0.711665 0.086254 0.169967
O O1 0.747960 0.808356 0.303823
O O2 0.780099 0.569510 0.572819
O O3 0.501458 0.921060 0.508948
O O4 0.732252 0.813054 0.036260
O O5 0.131603 0.956396 0.528494
O O6 0.118767 0.728390 0.985836
O O7 0.000000 0.000000 0.500000
O O8 0.851642 0.065740 0.940218
O O9 0.015742 0.289634 0.445338
O O10 0.245813 0.957016 0.487187
O O11 0.303700 0.014449 0.470985
O O12 0.420430 0.631636 0.645890
O O13 0.500000 0.500000 0.000000
O O14 0.260206 0.580274 0.228989
O O15 0.551115 0.300823 0.074775
O O16 0.238430 0.021082 0.876250
O O17 0.401470 0.855102 0.088021
#
# Coordination Sequence:
#
# PCOD8009273 Si02
#       8
#     2   2   2   2   2   2   2   2
#     4  10  21  41  60  82 117 157 202 243 292 341
#     4  10  21  36  60  87 121 152 188 237 301 355
#     4  10  22  38  62  83 119 160 197 240 295 341
#     4  11  22  36  59  93 124 147 192 242 293 356
#     4  10  21  38  62  85 115 155 199 244 295 338
#     4  10  22  38  62  87 119 157 195 241 292 349
#     4  10  21  38  61  88 121 158 189 238 301 354
#     4  11  21  37  59  91 118 152 200 240 295 351
#
# _framework density 19.627112
#
# number of rings (size 3 to 8) (size 9 to 14) (size 15 to 20)
#    0.000    1.750    3.750    0.375    1.750    3.500 
#    0.000    2.500    2.750    0.000    0.000    0.000 
#    0.000    0.000    0.000    0.000    0.000    0.000 
#
# Total GULP energy -198247.258410 kJ/mol
# GULP energy per Si atom -12390.453651 kJ/mol
# Density = 1.958244 g / cm^3
# Si number density = 19.627112 Si / 1000 Ang^3
#
#
#
# Elastic Constant Matrix: (Units=GPa)
#
#
# Indices 1 2 3 4 5 6 
#
# 1 109.7413 37.9146 41.3771 -9.2591 10.7707 0.4590
# 2 37.9146 90.9723 47.7962 -7.8685 3.6012 -0.9888
# 3 41.3771 47.7962 116.9923 -0.4339 9.3259 1.4729
# 4 -9.2591 -7.8685 -0.4339 29.4050 0.8640 -2.1736
# 5 10.7707 3.6012 9.3259 0.8640 28.4184 0.3280
# 6 0.4590 -0.9888 1.4729 -2.1736 0.3280 30.2933
#
#
#
# Elastic Compliance Matrix: (Units=1/GPa)
#
#
# Indices 1 2 3 4 5 6 
#
# 1 0.011748 -0.003148 -0.002597 0.002922 -0.003291 0.000091
# 2 -0.003148 0.015278 -0.005198 0.003070 0.000858 0.001010
# 3 -0.002597 -0.005198 0.011764 -0.002033 -0.002146 -0.000825
# 4 0.002922 0.003070 -0.002033 0.035981 -0.001955 0.002758
# 5 -0.003291 0.000858 -0.002146 -0.001955 0.037095 -0.000360
# 6 0.000091 0.001010 -0.000825 0.002758 -0.000360 0.033284
#
#
# Mechanical properties :
#
#
# Convention : Reuss Voigt Hill
#
# Bulk Modulus (GPa) = 59.15772 63.54239 61.35005
# Shear Modulus (GPa) = 28.95701 30.33122 29.64411
#
# Velocity S-wave (km/s) = 3.84521 3.93539 3.89056
# Velocity P-wave (km/s) = 7.06544 7.28662 7.17688
#
# Compressibility (1/GPa) = 0.01690396
#
# Stress axis : x y z
#
# Youngs Moduli (GPa) = 85.11901 65.45424 85.00825
#
# Poissons Ratio (x) = 0.20604 0.22076
# Poissons Ratio (y) = 0.26795 0.44187
# Poissons Ratio (z) = 0.22105 0.34023
#
# Static dielectric constant tensor:
#      x y z
#    x 3.749290 -0.019950 -0.073310 
#    y -0.019950 3.474250 -0.037050 
#    z -0.073310 -0.037050 3.785800 
# 
# 
# High freq. dielectric constant tensor:
#      x y z
#    x 1.766720 0.000650 -0.002560 
#    y 0.000650 1.748820 -0.002190 
#    z -0.002560 -0.002190 1.777620 
# 
# From -- ./inp_files/171485.got.cif
#   From: 2010.06.25/outbox.cif.g09.slc.cpg/sg2_86_cif.got.tgz:171485.got - 2010.06.27 13:26:56.
