data_PCOD8009998
_publ_section_title
;
Structure prediction by ZEFSAII (Michael W. Deem and Ramdas Pophale) SiO2 
 PCOD8009998
Probable space group: P -1
;
_chemical_formula_sum "Si O2"
_cell_formula_units_Z 16
_cell_length_a 14.198615
_cell_length_b 8.821774
_cell_length_c 9.454060
_cell_angle_alpha 72.041371
_cell_angle_beta 119.698402
_cell_angle_gamma 66.878951
_cell_volume 735.069690
_symmetry_space_group_name_H-M "P -1"
_symmetry_group_IT_number 2
_symmetry_cell_setting 'triclinic'
loop_
_space_group_symop_operation_xyz
x,y,z
-x,-y,-z
loop_
_atom_site_type_symbol
_atom_site_label
_atom_site_fract_x
_atom_site_fract_y
_atom_site_fract_z
Si Si1 0.340756 0.197483 0.624491
Si Si2 0.845784 0.053592 0.722651
Si Si3 0.898773 0.994401 0.097283
Si Si4 0.643289 0.463599 0.794743
Si Si5 0.654429 0.768311 0.888000
Si Si6 0.407211 0.470567 0.579786
Si Si7 0.158559 0.280715 0.718263
Si Si8 0.838118 0.713491 0.787950
O O1 0.359287 0.357327 0.657493
O O2 0.264064 0.164387 0.695171
O O3 0.229204 0.326658 0.374986
O O4 0.496256 0.982646 0.752773
O O5 0.689368 0.280010 0.546550
O O6 0.839242 0.894120 0.678629
O O7 0.903932 0.941536 0.951864
O O8 0.944681 0.093374 0.712634
O O9 0.852251 0.888205 0.183749
O O10 0.806201 0.245229 0.973366
O O11 0.633677 0.607370 0.866254
O O12 0.555952 0.385016 0.785901
O O13 0.582781 0.586019 0.563394
O O14 0.728570 0.804292 0.812117
O O15 0.764946 0.672711 0.128691
O O16 0.000000 0.500000 0.500000
O O17 0.000000 0.500000 0.000000
#
# Coordination Sequence:
#
# PCOD8009998 Si02
#       8
#     2   2   2   2   2   2   2   2
#     4  12  26  42  67 100 135 177 220 268 336 398
#     4  10  21  37  65  95 127 166 214 273 323 384
#     4  10  21  40  64  91 127 169 217 265 330 385
#     4  10  21  38  66  94 127 167 215 274 323 378
#     4  12  24  44  67  98 136 174 224 273 328 391
#     4  10  21  37  63  98 130 165 214 267 329 385
#     4  12  26  46  67  94 134 181 220 269 334 404
#     4  12  24  40  67 102 134 168 225 277 326 385
#
# _framework density 21.766643999999999
#
# number of rings (size 3 to 8) (size 9 to 14) (size 15 to 20)
#    0.000    1.000    2.500    4.500    7.000    0.000 
#    0.000    6.250    0.000    0.000    0.000    0.000 
#    0.000    0.000    0.000    0.000    0.000    0.000 
#
# Total GULP energy -198327.933764 kJ/mol
# GULP energy per Si atom -12395.495860 kJ/mol
# Density = 2.171710 g / cm^3
# Si number density = 21.766644 Si / 1000 Ang^3
#
#
#
# Elastic Constant Matrix: (Units=GPa)
#
#
# Indices 1 2 3 4 5 6 
#
# 1 147.5489 48.2030 34.5997 -0.2554 8.2565 -2.1297
# 2 48.2030 111.9870 34.3358 -2.7236 9.3641 13.4265
# 3 34.5997 34.3358 90.5580 7.4638 14.4747 -2.2708
# 4 -0.2554 -2.7236 7.4638 28.2798 4.6672 2.8507
# 5 8.2565 9.3641 14.4747 4.6672 27.6014 1.8607
# 6 -2.1297 13.4265 -2.2708 2.8507 1.8607 37.9673
#
#
#
# Elastic Compliance Matrix: (Units=1/GPa)
#
#
# Indices 1 2 3 4 5 6 
#
# 1 0.008289 -0.003115 -0.001875 0.000217 -0.000575 0.001466
# 2 -0.003115 0.012118 -0.003518 0.002797 -0.001483 -0.004808
# 3 -0.001875 -0.003518 0.014295 -0.003505 -0.005319 0.002518
# 4 0.000217 0.002797 -0.003505 0.037814 -0.005316 -0.003765
# 5 -0.000575 -0.001483 -0.005319 -0.005316 0.040689 -0.001421
# 6 0.001466 -0.004808 0.002518 -0.003765 -0.001421 0.028624
#
#
# Mechanical properties :
#
#
# Convention : Reuss Voigt Hill
#
# Bulk Modulus (GPa) = 56.54659 64.93010 60.73834
# Shear Modulus (GPa) = 30.35077 34.30005 32.32541
#
# Velocity S-wave (km/s) = 3.73818 3.97395 3.85787
# Velocity P-wave (km/s) = 6.68333 7.13801 6.91441
#
# Compressibility (1/GPa) = 0.01768453
#
# Stress axis : x y z
#
# Youngs Moduli (GPa) = 120.64907 82.52389 69.95361
#
# Poissons Ratio (x) = 0.25709 0.13115
# Poissons Ratio (y) = 0.37586 0.24612
# Poissons Ratio (z) = 0.22620 0.29034
#
# Static dielectric constant tensor:
#      x y z
#    x 4.163230 0.092500 0.282930 
#    y 0.092500 3.819050 0.096370 
#    z 0.282930 0.096370 3.833850 
# 
# 
# High freq. dielectric constant tensor:
#      x y z
#    x 1.869290 0.012270 0.030730 
#    y 0.012270 1.852480 -0.009940 
#    z 0.030730 -0.009940 1.839820 
# 
# From -- ./inp_files/298350.got.cif
#   From: 2010.06.25/outbox.cif.g09.slc.cpg/sg2_150_cif.got.tgz:298350.got - 2010.06.27 13:26:56.
