data_PCOD8009594
_publ_section_title
;
Structure prediction by ZEFSAII (Michael W. Deem and Ramdas Pophale) SiO2 
 PCOD8009594
Probable space group: P -1
;
_chemical_formula_sum "Si O2"
_cell_formula_units_Z 14
_cell_length_a 18.255402
_cell_length_b 15.501171
_cell_length_c 9.155788
_cell_angle_alpha 146.768320
_cell_angle_beta 147.628975
_cell_angle_gamma 21.826741
_cell_volume 497.554959
_symmetry_space_group_name_H-M "P -1"
_symmetry_group_IT_number 2
_symmetry_cell_setting 'triclinic'
loop_
_space_group_symop_operation_xyz
x,y,z
-x,-y,-z
loop_
_atom_site_type_symbol
_atom_site_label
_atom_site_fract_x
_atom_site_fract_y
_atom_site_fract_z
Si Si1 0.758159 0.548302 0.447739
Si Si2 0.862416 0.021672 0.505504
Si Si3 0.363915 0.082695 0.060816
Si Si4 0.209888 0.163587 0.531413
Si Si5 0.343205 0.981544 0.208963
Si Si6 0.720113 0.298141 0.374686
Si Si7 0.298593 0.745069 0.157834
O O1 0.736868 0.653112 0.719544
O O2 0.590472 0.773575 0.374141
O O3 0.989100 0.379666 0.538950
O O4 0.713349 0.397925 0.171317
O O5 0.733407 0.247653 0.499161
O O6 0.890315 0.090554 0.805643
O O7 0.079528 0.776699 0.451074
O O8 0.749347 0.954847 0.278680
O O9 0.611811 0.883122 0.151227
O O10 0.320367 0.051846 0.104696
O O11 0.210624 0.205122 0.417872
O O12 0.297738 0.907768 0.299190
O O13 0.256134 0.881675 0.931681
O O14 0.503320 0.570352 0.359601
#
# Coordination Sequence:
#
# PCOD8009594 Si02
#       7
#     2   2   2   2   2   2   2
#     4  10  21  37  58  84 112 149 189 230 280 333
#     4  10  21  40  61  85 113 147 190 232 281 337
#     4  10  23  39  57  85 117 147 189 234 279 337
#     4  11  22  36  57  85 118 150 184 233 285 329
#     4   9  20  38  58  86 114 145 191 236 277 333
#     4   9  20  39  63  82 111 152 188 233 280 327
#     4  11  23  37  59  87 114 147 192 233 275 338
#
# _framework density 28.137595999999998
#
# number of rings (size 3 to 8) (size 9 to 14) (size 15 to 20)
#    0.000    2.000    0.000    3.429    0.000   11.429 
#    0.000    4.286    0.000    0.000    0.000    0.000 
#    0.000    0.000    0.000    0.000    0.000    0.000 
#
# Total GULP energy -173455.022596 kJ/mol
# GULP energy per Si atom -12389.644471 kJ/mol
# Density = 2.807355 g / cm^3
# Si number density = 28.137596 Si / 1000 Ang^3
#
#
#
# Elastic Constant Matrix: (Units=GPa)
#
#
# Indices 1 2 3 4 5 6 
#
# 1 32.1288 3.6089 15.1526 0.1632 20.3289 -13.0296
# 2 3.6089 75.9556 -3.5082 3.3944 8.5649 -12.1038
# 3 15.1526 -3.5082 109.6494 5.5745 5.7602 -21.9138
# 4 0.1632 3.3944 5.5745 30.1291 -12.7497 6.8841
# 5 20.3289 8.5649 5.7602 -12.7497 42.1861 -12.0597
# 6 -13.0296 -12.1038 -21.9138 6.8841 -12.0597 33.4122
#
#
#
# Elastic Compliance Matrix: (Units=1/GPa)
#
#
# Indices 1 2 3 4 5 6 
#
# 1 0.055088 0.003306 -0.002445 -0.015059 -0.027344 0.014310
# 2 0.003306 0.015095 0.002093 -0.005763 -0.004485 0.007699
# 3 -0.002445 0.002093 0.011354 -0.004062 0.000320 0.008204
# 4 -0.015059 -0.005763 -0.004062 0.045740 0.019038 -0.013177
# 5 -0.027344 -0.004485 0.000320 0.019038 0.043407 -0.000333
# 6 0.014310 0.007699 0.008204 -0.013177 -0.000333 0.046274
#
#
# Mechanical properties :
#
#
# Convention : Reuss Voigt Hill
#
# Bulk Modulus (GPa) = 11.43553 27.58227 19.50890
# Shear Modulus (GPa) = 20.81622 34.64417 27.73019
#
# Velocity S-wave (km/s) = 2.72288 3.51271 3.14271
# Velocity P-wave (km/s) = 3.73609 5.12602 4.48523
#
# Compressibility (1/GPa) = 0.08744675
#
# Stress axis : x y z
#
# Youngs Moduli (GPa) = 18.15292 66.24564 88.07322
#
# Poissons Ratio (x) = -0.21903 0.21533
# Poissons Ratio (y) = -0.06002 -0.18437
# Poissons Ratio (z) = 0.04438 -0.13868
#
# Static dielectric constant tensor:
#      x y z
#    x 5.097450 0.174770 0.105360 
#    y 0.174770 5.051940 0.030190 
#    z 0.105360 0.030190 6.109590 
# 
# 
# High freq. dielectric constant tensor:
#      x y z
#    x 2.165780 -0.003840 0.004590 
#    y -0.003840 2.121470 -0.011020 
#    z 0.004590 -0.011020 2.144840 
# 
# From -- ./inp_files/418624.got.cif
#   From: 2010.06.25/outbox.cif.g09.slc.cpg/sg2_210_cif.got.tgz:418624.got - 2010.06.27 13:26:56.
