data_PCOD8009887
_publ_section_title
;
Structure prediction by ZEFSAII (Michael W. Deem and Ramdas Pophale) SiO2 
 PCOD8009887
Probable space group: P -1
;
_chemical_formula_sum "Si O2"
_cell_formula_units_Z 16
_cell_length_a 14.744123
_cell_length_b 11.899990
_cell_length_c 14.988007
_cell_angle_alpha 28.101261
_cell_angle_beta 138.881409
_cell_angle_gamma 136.082972
_cell_volume 801.253618
_symmetry_space_group_name_H-M "P -1"
_symmetry_group_IT_number 2
_symmetry_cell_setting 'triclinic'
loop_
_space_group_symop_operation_xyz
x,y,z
-x,-y,-z
loop_
_atom_site_type_symbol
_atom_site_label
_atom_site_fract_x
_atom_site_fract_y
_atom_site_fract_z
Si Si1 0.686238 0.984059 0.997464
Si Si2 0.225004 0.595865 0.107759
Si Si3 0.029836 0.186799 0.654810
Si Si4 0.457041 0.649269 0.781674
Si Si5 0.398829 0.901283 0.335354
Si Si6 0.015657 0.128481 0.326112
Si Si7 0.480335 0.533514 0.224710
Si Si8 0.180453 0.698755 0.450050
O O1 0.843633 0.941003 0.130823
O O2 0.592031 0.784734 0.129408
O O3 0.692122 0.248564 0.859695
O O4 0.613896 0.969355 0.858085
O O5 0.154479 0.335465 0.277860
O O6 0.332202 0.566508 0.129729
O O7 0.116511 0.744234 0.878938
O O8 0.076891 0.476653 0.482251
O O9 0.904052 0.134617 0.670269
O O10 0.973496 0.080137 0.592166
O O11 0.548650 0.585862 0.810684
O O12 0.293788 0.590490 0.671508
O O13 0.490397 0.930714 0.636459
O O14 0.500000 0.500000 0.000000
O O15 0.451271 0.648509 0.534474
O O16 0.252124 0.860120 0.308637
O O17 0.000000 0.000000 0.500000
#
# Coordination Sequence:
#
# PCOD8009887 Si02
#       8
#     2   2   2   2   2   2   2   2
#     4  11  22  42  61  90 125 160 206 254 302 359
#     4  10  25  41  62  91 120 163 209 251 305 359
#     4  10  21  40  62  86 124 156 202 250 301 362
#     4  11  21  39  61  93 127 154 200 251 306 362
#     4  11  23  37  65  91 122 161 199 251 310 362
#     4  10  24  43  63  87 123 163 205 255 301 361
#     4  11  22  40  62  89 125 158 202 257 301 362
#     4  10  21  37  62  91 118 162 198 244 307 365
#
# _framework density 19.968707999999999
#
# number of rings (size 3 to 8) (size 9 to 14) (size 15 to 20)
#    0.000    1.500    3.750    1.875    5.250    3.000 
#    0.000    0.000    0.000    0.000    0.000    0.000 
#    0.000    0.000    0.000    0.000    0.000    0.000 
#
# Total GULP energy -198392.555236 kJ/mol
# GULP energy per Si atom -12399.534702 kJ/mol
# Density = 1.992326 g / cm^3
# Si number density = 19.968708 Si / 1000 Ang^3
#
#
#
# Elastic Constant Matrix: (Units=GPa)
#
#
# Indices 1 2 3 4 5 6 
#
# 1 139.9429 46.4374 42.8675 -9.8074 18.9045 -2.3516
# 2 46.4374 128.8597 27.2048 -21.9046 0.3587 -14.8843
# 3 42.8675 27.2048 69.1130 -9.6213 -9.6831 -3.6772
# 4 -9.8074 -21.9046 -9.6213 25.7174 -0.9827 -1.7055
# 5 18.9045 0.3587 -9.6831 -0.9827 24.8804 0.0407
# 6 -2.3516 -14.8843 -3.6772 -1.7055 0.0407 35.4474
#
#
#
# Elastic Compliance Matrix: (Units=1/GPa)
#
#
# Indices 1 2 3 4 5 6 
#
# 1 0.012364 -0.003062 -0.008557 -0.001676 -0.012744 -0.001419
# 2 -0.003062 0.010963 -0.000697 0.008307 0.002218 0.004725
# 3 -0.008557 -0.000697 0.023116 0.005510 0.015723 0.001784
# 4 -0.001676 0.008307 0.005510 0.047994 0.005183 0.006252
# 5 -0.012744 0.002218 0.015723 0.005183 0.056164 0.001902
# 6 -0.001419 0.004725 0.001784 0.006252 0.001902 0.030584
#
#
# Mechanical properties :
#
#
# Convention : Reuss Voigt Hill
#
# Bulk Modulus (GPa) = 45.85390 63.43722 54.64556
# Shear Modulus (GPa) = 23.46435 31.96944 27.71689
#
# Velocity S-wave (km/s) = 3.43163 4.00556 3.72965
# Velocity P-wave (km/s) = 6.22207 7.29589 6.78027
#
# Compressibility (1/GPa) = 0.02180839
#
# Stress axis : x y z
#
# Youngs Moduli (GPa) = 80.88323 91.21758 43.25955
#
# Poissons Ratio (x) = 0.27932 0.37019
# Poissons Ratio (y) = 0.24768 0.03017
# Poissons Ratio (z) = 0.69216 0.06362
#
# Static dielectric constant tensor:
#      x y z
#    x 3.658650 -0.074160 0.084560 
#    y -0.074160 3.941730 -0.213150 
#    z 0.084560 -0.213150 3.426840 
# 
# 
# High freq. dielectric constant tensor:
#      x y z
#    x 1.781270 -0.005340 0.003620 
#    y -0.005340 1.792730 -0.014050 
#    z 0.003620 -0.014050 1.764970 
# 
# From -- ./inp_files/521422.got.cif
#   From: 2010.06.25/outbox.cif.g09.slc.cpg/sg2_261_cif.got.tgz:521422.got - 2010.06.27 13:26:56.
