data_PCOD8009362
_publ_section_title
;
Structure prediction by ZEFSAII (Michael W. Deem and Ramdas Pophale) SiO2 
 PCOD8009362
Probable space group: P -1
;
_chemical_formula_sum "Si O2"
_cell_formula_units_Z 14
_cell_length_a 17.085318
_cell_length_b 16.026410
_cell_length_c 15.442906
_cell_angle_alpha 161.379606
_cell_angle_beta 33.637051
_cell_angle_gamma 146.228960
_cell_volume 726.203621
_symmetry_space_group_name_H-M "P -1"
_symmetry_group_IT_number 2
_symmetry_cell_setting 'triclinic'
loop_
_space_group_symop_operation_xyz
x,y,z
-x,-y,-z
loop_
_atom_site_type_symbol
_atom_site_label
_atom_site_fract_x
_atom_site_fract_y
_atom_site_fract_z
Si Si1 0.856656 0.986704 0.339968
Si Si2 0.017719 0.249123 0.291461
Si Si3 0.584303 0.633891 0.306380
Si Si4 0.095891 0.794257 0.185694
Si Si5 0.262402 0.395604 0.342912
Si Si6 0.300790 0.845088 0.201396
Si Si7 0.854125 0.153861 0.009410
O O1 0.707366 0.750911 0.234796
O O2 0.834666 0.176307 0.627504
O O3 0.892202 0.171438 0.403768
O O4 0.986065 0.844172 0.100803
O O5 0.177778 0.322527 0.258686
O O6 0.000000 0.500000 0.500000
O O7 0.000000 0.000000 0.000000
O O8 0.429817 0.534463 0.303827
O O9 0.579933 0.874024 0.614646
O O10 0.624795 0.399723 0.094750
O O11 0.240843 0.843359 0.158199
O O12 0.150325 0.826962 0.070123
O O13 0.000000 0.000000 0.500000
O O14 0.000000 0.500000 0.000000
O O15 0.189063 0.589847 0.657706
O O16 0.257271 0.123337 0.133032
#
# Coordination Sequence:
#
# PCOD8009362 Si02
#       7
#     2   2   2   2   2   2   2
#     4   9  22  38  67  83 121 157 205 238 309 353
#     4  11  24  40  65  93 120 146 198 258 306 359
#     4  10  22  40  63  84 122 171 201 233 303 377
#     4  12  21  35  58  96 125 156 213 262 287 336
#     4  11  24  43  62  89 125 163 196 246 315 365
#     4  10  21  36  62  86 122 161 208 246 290 346
#     4  11  22  37  64  91 122 161 209 253 298 347
#
# _framework density 19.278338999999999
#
# number of rings (size 3 to 8) (size 9 to 14) (size 15 to 20)
#    0.857    0.571    1.429    5.143    8.000    0.000 
#    0.000    5.714    0.000    0.000    0.000    0.000 
#    0.000    0.000    0.000    0.000    0.000    0.000 
#
# Total GULP energy -173562.501482 kJ/mol
# GULP energy per Si atom -12397.321534 kJ/mol
# Density = 1.923446 g / cm^3
# Si number density = 19.278339 Si / 1000 Ang^3
#
#
#
# Elastic Constant Matrix: (Units=GPa)
#
#
# Indices 1 2 3 4 5 6 
#
# 1 144.4521 77.0164 43.9442 13.7242 1.4445 -1.6491
# 2 77.0164 112.5100 19.4717 15.4536 0.7176 14.6407
# 3 43.9442 19.4717 102.7846 24.1226 2.7393 -6.0923
# 4 13.7242 15.4536 24.1226 34.1887 -1.8093 1.0611
# 5 1.4445 0.7176 2.7393 -1.8093 30.7046 4.0496
# 6 -1.6491 14.6407 -6.0923 1.0611 4.0496 41.7878
#
#
#
# Elastic Compliance Matrix: (Units=1/GPa)
#
#
# Indices 1 2 3 4 5 6 
#
# 1 0.012528 -0.008472 -0.003912 0.001453 -0.000338 0.002888
# 2 -0.008472 0.015798 0.001342 -0.004493 0.000383 -0.005597
# 3 -0.003912 0.001342 0.013307 -0.008572 -0.001764 0.001704
# 4 0.001453 -0.004493 -0.008572 0.036935 0.003091 -0.000856
# 5 -0.000338 0.000383 -0.001764 0.003091 0.033406 -0.003721
# 6 0.002888 -0.005597 0.001704 -0.000856 -0.003721 0.026636
#
#
# Mechanical properties :
#
#
# Convention : Reuss Voigt Hill
#
# Bulk Modulus (GPa) = 51.15450 71.17902 61.16676
# Shear Modulus (GPa) = 29.90235 35.95718 32.92976
#
# Velocity S-wave (km/s) = 3.94265 4.32343 4.13743
# Velocity P-wave (km/s) = 6.87883 7.86922 7.39064
#
# Compressibility (1/GPa) = 0.01954862
#
# Stress axis : x y z
#
# Youngs Moduli (GPa) = 79.82064 63.29835 75.14746
#
# Poissons Ratio (x) = 0.53627 0.29399
# Poissons Ratio (y) = 0.67624 -0.10083
# Poissons Ratio (z) = 0.31227 -0.08493
#
# Static dielectric constant tensor:
#      x y z
#    x 3.522150 0.039580 0.034510 
#    y 0.039580 3.531910 0.142240 
#    z 0.034510 0.142240 3.580120 
# 
# 
# High freq. dielectric constant tensor:
#      x y z
#    x 1.741310 0.003900 -0.003050 
#    y 0.003900 1.741800 0.018050 
#    z -0.003050 0.018050 1.765090 
# 
# From -- ./inp_files/534661.got.cif
#   From: 2010.06.25/outbox.cif.g09.slc.cpg/sg2_268_cif.got.tgz:534661.got - 2010.06.27 13:26:56.
