data_PCOD8009227
_publ_section_title
;
Structure prediction by ZEFSAII (Michael W. Deem and Ramdas Pophale) SiO2 
 PCOD8009227
Probable space group: P -1
;
_chemical_formula_sum "Si O2"
_cell_formula_units_Z 14
_cell_length_a 8.910425
_cell_length_b 20.691474
_cell_length_c 11.266179
_cell_angle_alpha 145.554780
_cell_angle_beta 38.166750
_cell_angle_gamma 139.639451
_cell_volume 686.585076
_symmetry_space_group_name_H-M "P -1"
_symmetry_group_IT_number 2
_symmetry_cell_setting 'triclinic'
loop_
_space_group_symop_operation_xyz
x,y,z
-x,-y,-z
loop_
_atom_site_type_symbol
_atom_site_label
_atom_site_fract_x
_atom_site_fract_y
_atom_site_fract_z
Si Si1 0.292678 0.856275 0.296079
Si Si2 0.858204 0.894032 0.758262
Si Si3 0.309430 0.721795 0.846893
Si Si4 0.611848 0.275331 0.731980
Si Si5 0.013207 0.533356 0.358389
Si Si6 0.261445 0.929202 0.751616
Si Si7 0.883806 0.652032 0.833273
O O1 0.314943 0.767469 0.252379
O O2 0.055585 0.906666 0.546560
O O3 0.555203 0.966974 0.290414
O O4 0.228606 0.783348 0.103772
O O5 0.610105 0.777091 0.713983
O O6 0.986313 0.876308 0.777021
O O7 0.773515 0.015037 0.013260
O O8 0.235746 0.577231 0.698327
O O9 0.144822 0.742064 0.866882
O O10 0.822658 0.403010 0.760983
O O11 0.615189 0.178185 0.479123
O O12 0.332767 0.286565 0.926700
O O13 0.189102 0.477665 0.249110
O O14 0.924695 0.630598 0.636287
#
# Coordination Sequence:
#
# PCOD8009227 Si02
#       7
#     2   2   2   2   2   2   2
#     4  10  21  36  59  85 112 145 183 232 278 323
#     4   9  17  34  56  76 111 148 176 220 274 325
#     4   9  20  37  56  83 113 146 182 227 281 326
#     4  11  20  34  61  85 106 148 190 226 273 328
#     4   9  21  38  58  81 110 151 188 220 277 332
#     4   9  20  36  55  83 113 148 185 221 276 332
#     4   9  21  40  57  79 113 149 188 226 270 332
#
# _framework density 20.390771000000001
#
# number of rings (size 3 to 8) (size 9 to 14) (size 15 to 20)
#    0.857    1.714    0.000    2.143    0.000    9.714 
#    0.000    7.857    0.000   11.143    0.000    0.000 
#    0.000    0.000    0.000    0.000    0.000    0.000 
#
# Total GULP energy -173480.277852 kJ/mol
# GULP energy per Si atom -12391.448418 kJ/mol
# Density = 2.034436 g / cm^3
# Si number density = 20.390771 Si / 1000 Ang^3
#
#
#
# Elastic Constant Matrix: (Units=GPa)
#
#
# Indices 1 2 3 4 5 6 
#
# 1 35.8142 28.8846 42.1005 1.6941 0.1488 28.1719
# 2 28.8846 69.4887 29.1178 -9.7428 -0.5274 30.3925
# 3 42.1005 29.1178 149.3707 -8.1639 -10.8576 18.8435
# 4 1.6941 -9.7428 -8.1639 26.8298 2.3310 -1.1304
# 5 0.1488 -0.5274 -10.8576 2.3310 25.2103 0.3762
# 6 28.1719 30.3925 18.8435 -1.1304 0.3762 33.4837
#
#
#
# Elastic Compliance Matrix: (Units=1/GPa)
#
#
# Indices 1 2 3 4 5 6 
#
# 1 0.159355 -0.009311 -0.031635 -0.026717 -0.010669 -0.108603
# 2 -0.009311 0.026599 -0.000026 0.009570 -0.000046 -0.015971
# 3 -0.031635 -0.000026 0.013973 0.006576 0.005313 0.018939
# 4 -0.026717 0.009570 0.006576 0.045024 -0.001147 0.011625
# 5 -0.010669 -0.000046 0.005313 -0.001147 0.042040 0.005517
# 6 -0.108603 -0.015971 0.018939 0.011625 0.005517 0.125408
#
#
# Mechanical properties :
#
#
# Convention : Reuss Voigt Hill
#
# Bulk Modulus (GPa) = 8.47580 50.54217 29.50898
# Shear Modulus (GPa) = 9.36905 27.40947 18.38926
#
# Velocity S-wave (km/s) = 2.14586 3.67032 3.00633
# Velocity P-wave (km/s) = 3.21019 6.54235 5.15304
#
# Compressibility (1/GPa) = 0.11798295
#
# Stress axis : x y z
#
# Youngs Moduli (GPa) = 6.27528 37.59562 71.56843
#
# Poissons Ratio (x) = 0.35004 2.26406
# Poissons Ratio (y) = 0.05843 0.00189
# Poissons Ratio (z) = 0.19852 0.00099
#
# Static dielectric constant tensor:
#      x y z
#    x 3.244640 0.125260 0.053890 
#    y 0.125260 3.599240 0.040310 
#    z 0.053890 0.040310 4.040460 
# 
# 
# High freq. dielectric constant tensor:
#      x y z
#    x 1.755150 0.012810 0.006360 
#    y 0.012810 1.790280 -0.002230 
#    z 0.006360 -0.002230 1.814680 
# 
# From -- ./inp_files/404888.got.cif
#   From: 2010.06.25/outbox.cif.g09.slc.cpg/sg2_203_cif.got.tgz:404888.got - 2010.06.27 13:26:56.
