data_PCOD8009685
_publ_section_title
;
Structure prediction by ZEFSAII (Michael W. Deem and Ramdas Pophale) SiO2 
 PCOD8009685
Probable space group: P -1
;
_chemical_formula_sum "Si O2"
_cell_formula_units_Z 14
_cell_length_a 9.516208
_cell_length_b 8.822600
_cell_length_c 14.225441
_cell_angle_alpha 43.082653
_cell_angle_beta 82.632837
_cell_angle_gamma 107.489565
_cell_volume 657.977496
_symmetry_space_group_name_H-M "P -1"
_symmetry_group_IT_number 2
_symmetry_cell_setting 'triclinic'
loop_
_space_group_symop_operation_xyz
x,y,z
-x,-y,-z
loop_
_atom_site_type_symbol
_atom_site_label
_atom_site_fract_x
_atom_site_fract_y
_atom_site_fract_z
Si Si1 0.342714 0.591043 0.254143
Si Si2 0.271640 0.926562 0.988559
Si Si3 0.317379 0.082822 0.536813
Si Si4 0.885401 0.182881 0.136971
Si Si5 0.964994 0.098951 0.839459
Si Si6 0.802283 0.264043 0.643136
Si Si7 0.702504 0.288462 0.449032
O O1 0.238176 0.651067 0.161594
O O2 0.289840 0.284809 0.388858
O O3 0.296616 0.622560 0.349566
O O4 0.545720 0.804970 0.117741
O O5 0.121057 0.963879 0.020001
O O6 0.264270 0.896298 0.890403
O O7 0.519332 0.245873 0.473578
O O8 0.199955 0.981644 0.685599
O O9 0.256495 0.823176 0.594863
O O10 0.013375 0.121470 0.106823
O O11 0.000000 0.500000 0.000000
O O12 0.810259 0.063202 0.803736
O O13 0.149883 0.393014 0.691687
O O14 0.701647 0.129647 0.614018
O O15 0.000000 0.500000 0.500000
#
# Coordination Sequence:
#
# PCOD8009685 Si02
#       7
#     2   2   2   2   2   2   2
#     4  10  21  39  63  90 115 154 199 240 287 345
#     4  10  22  40  62  87 121 155 193 239 293 348
#     4  11  23  38  60  88 120 153 196 243 288 346
#     4  12  25  39  59  89 119 153 196 244 293 346
#     4  10  21  39  60  82 117 158 193 238 294 349
#     4   9  18  35  58  85 114 149 193 236 286 341
#     4  10  21  37  59  88 118 154 195 240 292 344
#
# _framework density 21.277322999999999
#
# number of rings (size 3 to 8) (size 9 to 14) (size 15 to 20)
#    0.000    1.714    0.000    4.714    0.000    5.143 
#    0.000    7.857    0.000    9.429    0.000    0.000 
#    0.000    0.000    0.000    0.000    0.000    0.000 
#
# Total GULP energy -173569.035746 kJ/mol
# GULP energy per Si atom -12397.788268 kJ/mol
# Density = 2.122890 g / cm^3
# Si number density = 21.277323 Si / 1000 Ang^3
#
#
#
# Elastic Constant Matrix: (Units=GPa)
#
#
# Indices 1 2 3 4 5 6 
#
# 1 88.1883 38.6314 23.4579 -7.6990 -3.0249 -25.6590
# 2 38.6314 91.6663 25.1072 2.4111 9.1714 -15.6098
# 3 23.4579 25.1072 86.8065 0.5224 2.1181 -23.0643
# 4 -7.6990 2.4111 0.5224 34.7921 -5.5642 2.8418
# 5 -3.0249 9.1714 2.1181 -5.5642 33.4587 2.3496
# 6 -25.6590 -15.6098 -23.0643 2.8418 2.3496 30.1201
#
#
#
# Elastic Compliance Matrix: (Units=1/GPa)
#
#
# Indices 1 2 3 4 5 6 
#
# 1 0.017698 -0.005901 -0.000180 0.003901 0.003086 0.011272
# 2 -0.005901 0.014874 -0.002085 -0.003276 -0.005150 0.001796
# 3 -0.000180 -0.002085 0.014990 -0.001187 -0.001326 0.010461
# 4 0.003901 -0.003276 -0.001187 0.031146 0.006698 -0.002744
# 5 0.003086 -0.005150 -0.001326 0.006698 0.033076 -0.004267
# 6 0.011272 0.001796 0.010461 -0.002744 -0.004267 0.052336
#
#
# Mechanical properties :
#
#
# Convention : Reuss Voigt Hill
#
# Bulk Modulus (GPa) = 32.01906 49.00601 40.51254
# Shear Modulus (GPa) = 26.19688 31.63848 28.91768
#
# Velocity S-wave (km/s) = 3.51267 3.86029 3.69058
# Velocity P-wave (km/s) = 5.61542 6.55372 6.10263
#
# Compressibility (1/GPa) = 0.03123140
#
# Stress axis : x y z
#
# Youngs Moduli (GPa) = 56.50200 67.22963 66.70982
#
# Poissons Ratio (x) = 0.39675 0.01198
# Poissons Ratio (y) = 0.33344 0.13909
# Poissons Ratio (z) = 0.01014 0.14017
#
# Static dielectric constant tensor:
#      x y z
#    x 4.271310 0.220730 0.301900 
#    y 0.220730 3.873400 0.446920 
#    z 0.301900 0.446920 3.979180 
# 
# 
# High freq. dielectric constant tensor:
#      x y z
#    x 1.850840 -0.000170 0.002660 
#    y -0.000170 1.820940 0.026530 
#    z 0.002660 0.026530 1.833610 
# 
# From -- ./inp_files/223852.got.cif
#   From: 2010.06.25/outbox.cif.g09.slc.cpg/sg2_112_cif.got.tgz:223852.got - 2010.06.27 13:26:56.
