data_PCOD8009349
_publ_section_title
;
Structure prediction by ZEFSAII (Michael W. Deem and Ramdas Pophale) SiO2 
 PCOD8009349
Probable space group: P -1
;
_chemical_formula_sum "Si O2"
_cell_formula_units_Z 14
_cell_length_a 9.148070
_cell_length_b 7.584256
_cell_length_c 12.604568
_cell_angle_alpha 101.659024
_cell_angle_beta 115.838699
_cell_angle_gamma 54.465430
_cell_volume 638.938704
_symmetry_space_group_name_H-M "P -1"
_symmetry_group_IT_number 2
_symmetry_cell_setting 'triclinic'
loop_
_space_group_symop_operation_xyz
x,y,z
-x,-y,-z
loop_
_atom_site_type_symbol
_atom_site_label
_atom_site_fract_x
_atom_site_fract_y
_atom_site_fract_z
Si Si1 0.418320 0.003758 0.860881
Si Si2 0.383171 0.667417 0.712526
Si Si3 0.605947 0.109765 0.470856
Si Si4 0.009347 0.633062 0.267641
Si Si5 0.983245 0.217860 0.488293
Si Si6 0.714652 0.861096 0.745013
Si Si7 0.729507 0.229073 0.723704
O O1 0.356783 0.830982 0.816950
O O2 0.584811 0.940900 0.819406
O O3 0.223605 0.241946 0.805731
O O4 0.500000 0.000000 0.000000
O O5 0.420026 0.753548 0.626222
O O6 0.573131 0.430741 0.772152
O O7 0.189965 0.660085 0.638977
O O8 0.420026 0.088092 0.398609
O O9 0.603372 0.252463 0.582896
O O10 0.806258 0.865950 0.505994
O O11 0.111937 0.391638 0.224402
O O12 0.086014 0.760452 0.243849
O O13 0.060922 0.625282 0.407321
O O14 0.000000 0.000000 0.500000
O O15 0.808285 0.001724 0.780345
#
# Coordination Sequence:
#
# PCOD8009349 Si02
#       7
#     2   2   2   2   2   2   2
#     4  11  24  46  68  88 123 168 212 261 314 369
#     4  10  18  36  62  91 125 166 203 251 309 366
#     4  10  17  35  57  93 134 164 199 249 307 374
#     4  12  21  43  68  88 130 167 201 258 319 372
#     4  10  16  31  64  91 122 167 205 241 307 382
#     4  11  25  41  60 100 127 161 214 257 309 375
#     4  12  21  37  66  95 131 164 205 258 313 373
#
# _framework density 21.911335999999999
#
# number of rings (size 3 to 8) (size 9 to 14) (size 15 to 20)
#    0.000    1.143   10.000    1.714    0.000    0.571 
#    5.143    2.857    0.000    0.000    0.000    0.000 
#    0.000    0.000    0.000    0.000    0.000    0.000 
#
# Total GULP energy -173561.109820 kJ/mol
# GULP energy per Si atom -12397.222130 kJ/mol
# Density = 2.186147 g / cm^3
# Si number density = 21.911336 Si / 1000 Ang^3
#
#
#
# Elastic Constant Matrix: (Units=GPa)
#
#
# Indices 1 2 3 4 5 6 
#
# 1 66.7922 62.1006 16.0268 3.9288 4.5476 -5.2376
# 2 62.1006 153.1458 39.4522 11.6256 3.5732 -15.3100
# 3 16.0268 39.4522 106.6067 12.3844 10.4894 -6.5817
# 4 3.9288 11.6256 12.3844 11.3241 -4.9430 -1.9405
# 5 4.5476 3.5732 10.4894 -4.9430 15.3233 0.7723
# 6 -5.2376 -15.3100 -6.5817 -1.9405 0.7723 35.4800
#
#
#
# Elastic Compliance Matrix: (Units=1/GPa)
#
#
# Indices 1 2 3 4 5 6 
#
# 1 0.024460 -0.009877 0.000770 -0.001924 -0.006079 -0.000481
# 2 -0.009877 0.011826 -0.001876 -0.006498 -0.000787 0.002958
# 3 0.000770 -0.001876 0.013974 -0.020413 -0.015999 0.001128
# 4 -0.001924 -0.006498 -0.020413 0.145413 0.062982 -0.000293
# 5 -0.006079 -0.000787 -0.015999 0.062982 0.098663 -0.002908
# 6 -0.000481 0.002958 0.001128 -0.000293 -0.002908 0.029647
#
#
# Mechanical properties :
#
#
# Convention : Reuss Voigt Hill
#
# Bulk Modulus (GPa) = 35.34490 62.41154 48.87822
# Shear Modulus (GPa) = 14.06945 26.35647 20.21296
#
# Velocity S-wave (km/s) = 2.53673 3.47200 3.04055
# Velocity P-wave (km/s) = 4.97453 6.67971 5.88916
#
# Compressibility (1/GPa) = 0.02829262
#
# Stress axis : x y z
#
# Youngs Moduli (GPa) = 40.88387 84.56202 71.56068
#
# Poissons Ratio (x) = 0.83521 -0.05510
# Poissons Ratio (y) = 0.40381 0.13428
# Poissons Ratio (z) = -0.03148 0.15868
#
# Static dielectric constant tensor:
#      x y z
#    x 4.403020 -0.278870 0.281770 
#    y -0.278870 4.053920 0.186690 
#    z 0.281770 0.186690 3.577390 
# 
# 
# High freq. dielectric constant tensor:
#      x y z
#    x 1.860770 -0.012890 0.008430 
#    y -0.012890 1.871040 0.015810 
#    z 0.008430 0.015810 1.805660 
# 
# From -- ./inp_files/379622.got.cif
#   From: 2010.06.25/outbox.cif.g09.slc.cpg/sg2_190_cif.got.tgz:379622.got - 2010.06.27 13:26:56.
