data_PCOD8009452
_publ_section_title
;
Structure prediction by ZEFSAII (Michael W. Deem and Ramdas Pophale) SiO2 
 PCOD8009452
Probable space group: P -1
;
_chemical_formula_sum "Si O2"
_cell_formula_units_Z 14
_cell_length_a 9.539808
_cell_length_b 22.162845
_cell_length_c 11.015543
_cell_angle_alpha 28.267790
_cell_angle_beta 141.266843
_cell_angle_gamma 147.456156
_cell_volume 586.850159
_symmetry_space_group_name_H-M "P -1"
_symmetry_group_IT_number 2
_symmetry_cell_setting 'triclinic'
loop_
_space_group_symop_operation_xyz
x,y,z
-x,-y,-z
loop_
_atom_site_type_symbol
_atom_site_label
_atom_site_fract_x
_atom_site_fract_y
_atom_site_fract_z
Si Si1 0.940155 0.998046 0.712412
Si Si2 0.562040 0.875309 0.317589
Si Si3 0.650995 0.271349 0.236586
Si Si4 0.779282 0.225971 0.153958
Si Si5 0.428725 0.369804 0.086855
Si Si6 0.087206 0.658958 0.221705
Si Si7 0.706646 0.044314 0.813094
O O1 0.139644 0.007987 0.726621
O O2 0.952517 0.156174 0.436727
O O3 0.652048 0.863737 0.728072
O O4 0.045934 0.972790 0.956997
O O5 0.567632 0.764957 0.611509
O O6 0.374632 0.780875 0.246191
O O7 0.453035 0.969032 0.145835
O O8 0.765507 0.319587 0.092695
O O9 0.644332 0.410033 0.051853
O O10 0.807002 0.205783 0.531180
O O11 0.483011 0.089286 0.168933
O O12 0.906539 0.338222 0.926844
O O13 0.500000 0.500000 0.000000
O O14 0.139911 0.311310 0.940455
O O15 0.000000 0.500000 0.500000
#
# Coordination Sequence:
#
# PCOD8009452 Si02
#       7
#     2   2   2   2   2   2   2
#     4  11  20  37  65  95 131 168 198 255 322 375
#     4  11  22  37  63 101 124 160 218 261 304 372
#     4  10  25  40  61  97 134 159 208 258 317 380
#     4  11  24  40  60  97 132 164 205 261 315 378
#     4  11  23  44  68  86 122 173 217 262 309 361
#     4  12  24  42  68  89 122 167 221 264 300 368
#     4  10  21  36  64  94 134 161 205 249 319 378
#
# _framework density 23.856175
#
# number of rings (size 3 to 8) (size 9 to 14) (size 15 to 20)
#    0.000    1.143    4.286    3.000    2.000    4.000 
#    0.000    1.429    0.000    0.000    0.000    0.000 
#    0.000    0.000    0.000    0.000    0.000    0.000 
#
# Total GULP energy -173514.664670 kJ/mol
# GULP energy per Si atom -12393.904619 kJ/mol
# Density = 2.380188 g / cm^3
# Si number density = 23.856175 Si / 1000 Ang^3
#
#
#
# Elastic Constant Matrix: (Units=GPa)
#
#
# Indices 1 2 3 4 5 6 
#
# 1 122.4142 10.6197 57.6400 3.0221 -16.7727 -29.5158
# 2 10.6197 43.5578 33.8189 13.7580 2.5438 -6.0266
# 3 57.6400 33.8189 158.1979 17.7936 6.4009 -3.9710
# 4 3.0221 13.7580 17.7936 38.9321 0.9190 1.0980
# 5 -16.7727 2.5438 6.4009 0.9190 25.6883 -1.9556
# 6 -29.5158 -6.0266 -3.9710 1.0980 -1.9556 33.2218
#
#
#
# Elastic Compliance Matrix: (Units=1/GPa)
#
#
# Indices 1 2 3 4 5 6 
#
# 1 0.016662 0.002463 -0.006782 0.000188 0.013477 0.015226
# 2 0.002463 0.030971 -0.006426 -0.008431 0.001006 0.007377
# 3 -0.006782 -0.006426 0.010469 -0.001650 -0.006820 -0.006286
# 4 0.000188 -0.008431 -0.001650 0.029473 0.000122 -0.002526
# 5 0.013477 0.001006 -0.006820 0.000122 0.050412 0.014305
# 6 0.015226 0.007377 -0.006286 -0.002526 0.014305 0.045141
#
#
# Mechanical properties :
#
#
# Convention : Reuss Voigt Hill
#
# Bulk Modulus (GPa) = 27.31158 58.70302 43.00730
# Shear Modulus (GPa) = 23.06047 34.37454 28.71750
#
# Velocity S-wave (km/s) = 3.11247 3.80005 3.47331
# Velocity P-wave (km/s) = 4.93861 6.62679 5.84398
#
# Compressibility (1/GPa) = 0.03661450
#
# Stress axis : x y z
#
# Youngs Moduli (GPa) = 60.01764 32.28801 95.51607
#
# Poissons Ratio (x) = -0.07954 0.64775
# Poissons Ratio (y) = -0.14784 0.61375
# Poissons Ratio (z) = 0.40702 0.20747
#
# Static dielectric constant tensor:
#      x y z
#    x 4.626840 -0.241670 0.223860 
#    y -0.241670 4.086640 0.330150 
#    z 0.223860 0.330150 4.746200 
# 
# 
# High freq. dielectric constant tensor:
#      x y z
#    x 1.948350 -0.006470 0.001230 
#    y -0.006470 1.918780 0.022920 
#    z 0.001230 0.022920 1.963180 
# 
# From -- ./inp_files/406176.got.cif
#   From: 2010.06.25/outbox.cif.g09.slc.cpg/sg2_204_cif.got.tgz:406176.got - 2010.06.27 13:26:56.
