data_PCOD8009482
_publ_section_title
;
Structure prediction by ZEFSAII (Michael W. Deem and Ramdas Pophale) SiO2 
 PCOD8009482
Probable space group: P -1
;
_chemical_formula_sum "Si O2"
_cell_formula_units_Z 16
_cell_length_a 6.577094
_cell_length_b 11.751481
_cell_length_c 19.046557
_cell_angle_alpha 45.162499
_cell_angle_beta 51.306300
_cell_angle_gamma 46.524418
_cell_volume 728.937859
_symmetry_space_group_name_H-M "P -1"
_symmetry_group_IT_number 2
_symmetry_cell_setting 'triclinic'
loop_
_space_group_symop_operation_xyz
x,y,z
-x,-y,-z
loop_
_atom_site_type_symbol
_atom_site_label
_atom_site_fract_x
_atom_site_fract_y
_atom_site_fract_z
Si Si1 0.103492 0.877399 0.376445
Si Si2 0.404609 0.366158 0.538244
Si Si3 0.376895 0.885391 0.176266
Si Si4 0.297903 0.726702 0.742432
Si Si5 0.144477 0.788295 0.903691
Si Si6 0.671600 0.128515 0.034502
Si Si7 0.262040 0.374471 0.903614
Si Si8 0.212255 0.370374 0.427387
O O1 0.367301 0.827879 0.397465
O O2 0.243182 0.810206 0.298547
O O3 0.894909 0.783708 0.476880
O O4 0.918616 0.090517 0.328459
O O5 0.500000 0.500000 0.500000
O O6 0.420897 0.362395 0.451371
O O7 0.063861 0.431445 0.602277
O O8 0.632305 0.722900 0.151834
O O9 0.497610 0.011693 0.132295
O O10 0.126874 0.012015 0.121113
O O11 0.321226 0.759939 0.805520
O O12 0.171722 0.583241 0.822128
O O13 0.615944 0.654126 0.671329
O O14 0.355510 0.770185 0.930174
O O15 0.023308 0.640551 0.001667
O O16 0.527135 0.283983 0.940354
O O17 0.000000 0.000000 0.000000
#
# Coordination Sequence:
#
# PCOD8009482 Si02
#       8
#     2   2   2   2   2   2   2   2
#     4  10  23  43  64  95 130 169 213 254 323 387
#     4   9  21  41  68  94 121 161 217 267 310 370
#     4  10  21  36  66  93 122 167 217 260 312 376
#     4  11  25  40  65  95 135 175 201 265 336 374
#     4  10  21  43  60  89 130 167 213 261 318 381
#     4  11  19  38  66  91 121 169 217 266 309 369
#     4  11  22  38  61  94 129 164 214 265 316 377
#     4  10  22  44  68  92 130 164 213 271 311 373
#
# _framework density 21.949746000000001
#
# number of rings (size 3 to 8) (size 9 to 14) (size 15 to 20)
#    0.000    1.750    2.500    1.500    5.250    4.000 
#    0.000    8.750    0.000    0.000    0.000    0.000 
#    0.000    0.000    0.000    0.000    0.000    0.000 
#
# Total GULP energy -198391.517056 kJ/mol
# GULP energy per Si atom -12399.469816 kJ/mol
# Density = 2.189979 g / cm^3
# Si number density = 21.949746 Si / 1000 Ang^3
#
#
#
# Elastic Constant Matrix: (Units=GPa)
#
#
# Indices 1 2 3 4 5 6 
#
# 1 121.1849 35.7064 43.6841 -4.8845 17.8326 6.6452
# 2 35.7064 93.6310 41.2765 5.2227 4.1909 8.8328
# 3 43.6841 41.2765 96.8823 10.5859 -4.2208 7.9230
# 4 -4.8845 5.2227 10.5859 42.5413 2.2801 -4.0043
# 5 17.8326 4.1909 -4.2208 2.2801 18.7919 -0.3528
# 6 6.6452 8.8328 7.9230 -4.0043 -0.3528 23.0647
#
#
#
# Elastic Compliance Matrix: (Units=1/GPa)
#
#
# Indices 1 2 3 4 5 6 
#
# 1 0.013310 -0.001883 -0.006211 0.004014 -0.014102 -0.000499
# 2 -0.001883 0.014010 -0.004849 -0.000918 -0.002378 -0.003353
# 3 -0.006211 -0.004849 0.016454 -0.005070 0.011235 -0.002714
# 4 0.004014 -0.000918 -0.005070 0.026267 -0.007829 0.005377
# 5 -0.014102 -0.002378 0.011235 -0.007829 0.070616 0.000835
# 6 -0.000499 -0.003353 -0.002714 0.005377 0.000835 0.046663
#
#
# Mechanical properties :
#
#
# Convention : Reuss Voigt Hill
#
# Bulk Modulus (GPa) = 55.90710 61.44800 58.67755
# Shear Modulus (GPa) = 22.81346 29.61498 26.21422
#
# Velocity S-wave (km/s) = 3.22739 3.67715 3.45959
# Velocity P-wave (km/s) = 6.27805 6.78854 6.53828
#
# Compressibility (1/GPa) = 0.01788682
#
# Stress axis : x y z
#
# Youngs Moduli (GPa) = 75.13123 71.37801 60.77667
#
# Poissons Ratio (x) = 0.13442 0.37750
# Poissons Ratio (y) = 0.14149 0.29470
# Poissons Ratio (z) = 0.46666 0.34610
#
# Static dielectric constant tensor:
#      x y z
#    x 4.136990 -0.183350 0.155850 
#    y -0.183350 4.036830 -0.067350 
#    z 0.155850 -0.067350 3.978570 
# 
# 
# High freq. dielectric constant tensor:
#      x y z
#    x 1.854680 0.001410 0.004650 
#    y 0.001410 1.864340 0.003330 
#    z 0.004650 0.003330 1.860070 
# 
# From -- ./inp_files/549409.got.cif
#   From: 2010.06.25/outbox.cif.g09.slc.cpg/sg2_275_cif.got.tgz:549409.got - 2010.06.27 13:26:56.
