data_PCOD8009476
_publ_section_title
;
Structure prediction by ZEFSAII (Michael W. Deem and Ramdas Pophale) SiO2 
 PCOD8009476
Probable space group: P -1
;
_chemical_formula_sum "Si O2"
_cell_formula_units_Z 16
_cell_length_a 14.905449
_cell_length_b 25.072753
_cell_length_c 9.920647
_cell_angle_alpha 28.739376
_cell_angle_beta 50.907017
_cell_angle_gamma 29.954471
_cell_volume 750.442112
_symmetry_space_group_name_H-M "P -1"
_symmetry_group_IT_number 2
_symmetry_cell_setting 'triclinic'
loop_
_space_group_symop_operation_xyz
x,y,z
-x,-y,-z
loop_
_atom_site_type_symbol
_atom_site_label
_atom_site_fract_x
_atom_site_fract_y
_atom_site_fract_z
Si Si1 0.138330 0.161554 0.794146
Si Si2 0.891202 0.458825 0.824391
Si Si3 0.575551 0.135902 0.579281
Si Si4 0.070279 0.900740 0.852637
Si Si5 0.168835 0.445554 0.630014
Si Si6 0.321016 0.704100 0.803274
Si Si7 0.813624 0.968281 0.448077
Si Si8 0.412563 0.960046 0.737450
O O1 0.943517 0.396392 0.495802
O O2 0.229347 0.139434 0.619773
O O3 0.052520 0.107124 0.957351
O O4 0.308332 0.031363 0.045246
O O5 0.677424 0.684087 0.594372
O O6 0.851260 0.472705 0.672521
O O7 0.081036 0.391804 0.819506
O O8 0.964675 0.281442 0.211647
O O9 0.585049 0.251404 0.367525
O O10 0.690425 0.027419 0.568366
O O11 0.263174 0.702545 0.010752
O O12 0.156673 0.921242 0.833961
O O13 0.905485 0.114263 0.458483
O O14 0.413763 0.243849 0.886528
O O15 0.500000 0.500000 0.000000
O O16 0.671337 0.055797 0.260579
O O17 0.500000 0.000000 0.500000
#
# Coordination Sequence:
#
# PCOD8009476 Si02
#       8
#     2   2   2   2   2   2   2   2
#     4  11  24  42  67  94 135 170 215 268 320 388
#     4  11  22  39  68  98 124 170 220 264 316 379
#     4  10  21  36  65  98 124 168 208 265 319 370
#     4   9  21  37  60  97 127 172 206 258 323 378
#     4  11  25  41  65  95 129 169 222 265 317 389
#     4   9  17  31  59  93 132 159 206 260 313 371
#     4  11  23  43  66  97 136 161 218 269 311 393
#     4  12  27  46  64  94 132 175 213 270 337 371
#
# _framework density 21.320765999999999
#
# number of rings (size 3 to 8) (size 9 to 14) (size 15 to 20)
#    0.000    1.500    3.750    1.500    3.500    2.500 
#    0.000    0.625    0.000    0.000    0.000    0.000 
#    0.000    0.000    0.000    0.000    0.000    0.000 
#
# Total GULP energy -198342.445384 kJ/mol
# GULP energy per Si atom -12396.402836 kJ/mol
# Density = 2.127224 g / cm^3
# Si number density = 21.320766 Si / 1000 Ang^3
#
#
#
# Elastic Constant Matrix: (Units=GPa)
#
#
# Indices 1 2 3 4 5 6 
#
# 1 105.2195 18.9452 30.4863 -3.2705 17.5002 8.4402
# 2 18.9452 98.0605 18.9775 -6.1906 -3.1612 4.8335
# 3 30.4863 18.9775 51.8024 -3.6866 -2.6032 2.7635
# 4 -3.2705 -6.1906 -3.6866 34.1136 1.5121 -0.6800
# 5 17.5002 -3.1612 -2.6032 1.5121 22.7073 -4.3517
# 6 8.4402 4.8335 2.7635 -0.6800 -4.3517 28.1037
#
#
#
# Elastic Compliance Matrix: (Units=1/GPa)
#
#
# Indices 1 2 3 4 5 6 
#
# 1 0.015055 -0.001348 -0.008714 0.000762 -0.013907 -0.005567
# 2 -0.001348 0.011255 -0.003078 0.001475 0.001985 -0.000885
# 3 -0.008714 -0.003078 0.026004 0.001033 0.009602 0.002101
# 4 0.000762 0.001475 0.001033 0.029863 -0.002294 -0.000217
# 5 -0.013907 0.001985 0.009602 -0.002294 0.058568 0.011904
# 6 -0.005567 -0.000885 0.002101 -0.000217 0.011904 0.039038
#
#
# Mechanical properties :
#
#
# Convention : Reuss Voigt Hill
#
# Bulk Modulus (GPa) = 38.41116 43.54448 40.97782
# Shear Modulus (GPa) = 23.28411 29.42982 26.35697
#
# Velocity S-wave (km/s) = 3.30826 3.71932 3.51979
# Velocity P-wave (km/s) = 5.71382 6.23797 5.98164
#
# Compressibility (1/GPa) = 0.02603410
#
# Stress axis : x y z
#
# Youngs Moduli (GPa) = 66.42509 88.85264 38.45623
#
# Poissons Ratio (x) = 0.11977 0.33509
# Poissons Ratio (y) = 0.08954 0.11836
# Poissons Ratio (z) = 0.57880 0.27347
#
# Static dielectric constant tensor:
#      x y z
#    x 3.937340 -0.121910 0.051770 
#    y -0.121910 4.007750 -0.164940 
#    z 0.051770 -0.164940 3.619020 
# 
# 
# High freq. dielectric constant tensor:
#      x y z
#    x 1.840930 -0.003750 -0.009310 
#    y -0.003750 1.843160 -0.013410 
#    z -0.009310 -0.013410 1.808140 
# 
# From -- ./inp_files/314655.got.cif
#   From: 2010.06.25/outbox.cif.g09.slc.cpg/sg2_158_cif.got.tgz:314655.got - 2010.06.27 13:26:56.
