data_PCOD8009318
_publ_section_title
;
Structure prediction by ZEFSAII (Michael W. Deem and Ramdas Pophale) SiO2 
 PCOD8009318
Probable space group: P -1
;
_chemical_formula_sum "Si O2"
_cell_formula_units_Z 16
_cell_length_a 12.374654
_cell_length_b 9.921325
_cell_length_c 13.798961
_cell_angle_alpha 91.908742
_cell_angle_beta 150.602609
_cell_angle_gamma 77.750265
_cell_volume 771.037676
_symmetry_space_group_name_H-M "P -1"
_symmetry_group_IT_number 2
_symmetry_cell_setting 'triclinic'
loop_
_space_group_symop_operation_xyz
x,y,z
-x,-y,-z
loop_
_atom_site_type_symbol
_atom_site_label
_atom_site_fract_x
_atom_site_fract_y
_atom_site_fract_z
Si Si1 0.530670 0.923426 0.887796
Si Si2 0.769385 0.597995 0.382794
Si Si3 0.785620 0.294995 0.737727
Si Si4 0.283092 0.288396 0.137725
Si Si5 0.392652 0.821525 0.970220
Si Si6 0.127990 0.132702 0.457717
Si Si7 0.654441 0.056840 0.554594
Si Si8 0.451854 0.512384 0.620248
O O1 0.690680 0.788870 0.946698
O O2 0.535566 0.852368 0.993712
O O3 0.266122 0.004985 0.638771
O O4 0.655893 0.042083 0.991423
O O5 0.811418 0.725702 0.476900
O O6 0.695943 0.503316 0.402295
O O7 0.000000 0.500000 0.500000
O O8 0.550779 0.669014 0.139434
O O9 0.817465 0.125828 0.744046
O O10 0.576817 0.362665 0.655270
O O11 0.731005 0.374896 0.593084
O O12 0.016476 0.315441 0.963578
O O13 0.467949 0.188049 0.354703
O O14 0.340258 0.434183 0.178674
O O15 0.151149 0.814862 0.741564
O O16 0.186069 0.074074 0.392277
O O17 0.500000 0.000000 0.500000
#
# Coordination Sequence:
#
# PCOD8009318 Si02
#       8
#     2   2   2   2   2   2   2   2
#     4   9  20  37  58  89 112 147 198 246 286 357
#     4  11  26  40  56  88 123 158 201 244 292 352
#     4  10  21  39  63  85 116 159 195 241 293 348
#     4  10  21  36  61  87 115 155 196 237 298 349
#     4  10  21  38  60  83 115 155 196 242 299 339
#     4  10  21  39  60  84 117 152 194 244 295 348
#     4  10  21  37  60  92 118 145 192 248 299 347
#     4  10  23  40  56  85 122 156 201 241 283 355
#
# _framework density 20.751256999999999
#
# number of rings (size 3 to 8) (size 9 to 14) (size 15 to 20)
#    0.000    2.000    0.000    2.250    3.500    3.000 
#    4.500    0.000    0.000    0.000    0.000    0.000 
#    0.000    0.000    0.000    0.000    0.000    0.000 
#
# Total GULP energy -198373.395117 kJ/mol
# GULP energy per Si atom -12398.337195 kJ/mol
# Density = 2.070403 g / cm^3
# Si number density = 20.751257 Si / 1000 Ang^3
#
#
#
# Elastic Constant Matrix: (Units=GPa)
#
#
# Indices 1 2 3 4 5 6 
#
# 1 103.6127 36.9999 4.9786 -2.7185 7.3810 4.2323
# 2 36.9999 98.9885 10.4728 11.3435 7.9256 -8.1741
# 3 4.9786 10.4728 72.6090 12.3552 13.6454 4.3201
# 4 -2.7185 11.3435 12.3552 30.6400 0.8336 3.5576
# 5 7.3810 7.9256 13.6454 0.8336 23.1991 4.1299
# 6 4.2323 -8.1741 4.3201 3.5576 4.1299 30.0593
#
#
#
# Elastic Compliance Matrix: (Units=1/GPa)
#
#
# Indices 1 2 3 4 5 6 
#
# 1 0.011728 -0.004883 -0.000197 0.003333 -0.001508 -0.003138
# 2 -0.004883 0.013372 -0.000247 -0.005830 -0.003648 0.005550
# 3 -0.000197 -0.000247 0.016687 -0.006354 -0.009369 -0.000398
# 4 0.003333 -0.005830 -0.006354 0.038262 0.004411 -0.006276
# 5 -0.001508 -0.003648 -0.009369 0.004411 0.051434 -0.007022
# 6 -0.003138 0.005550 -0.000398 -0.006276 -0.007022 0.036983
#
#
# Mechanical properties :
#
#
# Convention : Reuss Voigt Hill
#
# Bulk Modulus (GPa) = 32.11938 42.23475 37.17707
# Shear Modulus (GPa) = 26.38574 31.63027 29.00801
#
# Velocity S-wave (km/s) = 3.56971 3.90841 3.74290
# Velocity P-wave (km/s) = 5.70108 6.38472 6.05256
#
# Compressibility (1/GPa) = 0.03113385
#
# Stress axis : x y z
#
# Youngs Moduli (GPa) = 85.26905 74.78359 59.92672
#
# Poissons Ratio (x) = 0.36517 0.01179
# Poissons Ratio (y) = 0.41637 0.01477
# Poissons Ratio (z) = 0.01678 0.01844
#
# Static dielectric constant tensor:
#      x y z
#    x 3.388360 -0.408020 0.024340 
#    y -0.408020 3.709040 0.253560 
#    z 0.024340 0.253560 3.635730 
# 
# 
# High freq. dielectric constant tensor:
#      x y z
#    x 1.806500 -0.009600 -0.001040 
#    y -0.009600 1.818490 0.011220 
#    z -0.001040 0.011220 1.807670 
# 
# From -- ./inp_files/85006.got.cif
#   From: 2010.06.25/outbox.cif.g09.slc.cpg/sg2_43_cif.got.tgz:85006.got - 2010.06.27 13:26:56.
