data_PCOD8009070
_publ_section_title
;
Structure prediction by ZEFSAII (Michael W. Deem and Ramdas Pophale) SiO2 
 PCOD8009070
Probable space group: P -1
;
_chemical_formula_sum "Si O2"
_cell_formula_units_Z 14
_cell_length_a 9.222942
_cell_length_b 9.226103
_cell_length_c 10.428283
_cell_angle_alpha 57.633314
_cell_angle_beta 101.301684
_cell_angle_gamma 91.605391
_cell_volume 731.792419
_symmetry_space_group_name_H-M "P -1"
_symmetry_group_IT_number 2
_symmetry_cell_setting 'triclinic'
loop_
_space_group_symop_operation_xyz
x,y,z
-x,-y,-z
loop_
_atom_site_type_symbol
_atom_site_label
_atom_site_fract_x
_atom_site_fract_y
_atom_site_fract_z
Si Si1 0.891128 0.661460 0.359519
Si Si2 0.871616 0.963151 0.401440
Si Si3 0.011611 0.588477 0.154256
Si Si4 0.146655 0.678763 0.889238
Si Si5 0.663910 0.477951 0.796341
Si Si6 0.414033 0.154970 0.486024
Si Si7 0.451855 0.341856 0.646155
O O1 0.928690 0.825805 0.369096
O O2 0.719099 0.627167 0.355798
O O3 0.000000 0.500000 0.500000
O O4 0.928228 0.700247 0.199009
O O5 0.753074 0.890184 0.508544
O O6 0.808435 0.138009 0.236300
O O7 0.000000 0.000000 0.500000
O O8 0.181480 0.525068 0.257177
O O9 0.918938 0.423596 0.191340
O O10 0.020663 0.699238 0.971435
O O11 0.295050 0.572262 0.025030
O O12 0.580498 0.669742 0.679103
O O13 0.560313 0.332823 0.793085
O O14 0.476886 0.177675 0.631742
O O15 0.500000 0.000000 0.500000
O O16 0.500000 0.500000 0.500000
#
# Coordination Sequence:
#
# PCOD8009070 Si02
#       7
#     2   2   2   2   2   2   2
#     4  11  21  35  58  87 113 149 188 235 282 335
#     4  11  23  37  59  85 114 143 195 238 277 338
#     4   9  19  37  61  78 116 146 191 225 291 333
#     4   9  20  38  61  81 116 150 187 234 287 331
#     4   9  18  38  59  76 112 153 182 228 283 335
#     4  10  21  36  54  82 114 145 187 236 279 331
#     4   9  19  35  55  80 112 148 188 226 276 337
#
# _framework density 19.131108000000001
#
# number of rings (size 3 to 8) (size 9 to 14) (size 15 to 20)
#    0.857    1.429    0.000    4.286    0.000    6.286 
#    0.000    7.143    0.000    0.000    0.000    0.000 
#    0.000    0.000    0.000    0.000    0.000    0.000 
#
# Total GULP energy -173463.244649 kJ/mol
# GULP energy per Si atom -12390.231761 kJ/mol
# Density = 1.908756 g / cm^3
# Si number density = 19.131108 Si / 1000 Ang^3
#
#
#
# Elastic Constant Matrix: (Units=GPa)
#
#
# Indices 1 2 3 4 5 6 
#
# 1 77.9257 65.8271 20.4028 18.6861 17.8016 8.4780
# 2 65.8271 146.0795 40.9257 14.2420 15.1201 0.6764
# 3 20.4028 40.9257 73.9895 -1.3516 11.1142 2.3578
# 4 18.6861 14.2420 -1.3516 32.0904 3.2344 0.4352
# 5 17.8016 15.1201 11.1142 3.2344 29.0049 9.0955
# 6 8.4780 0.6764 2.3578 0.4352 9.0955 40.1831
#
#
#
# Elastic Compliance Matrix: (Units=1/GPa)
#
#
# Indices 1 2 3 4 5 6 
#
# 1 0.025720 -0.009568 -0.000607 -0.009860 -0.008460 -0.003208
# 2 -0.009568 0.012320 -0.004318 -0.000156 0.000510 0.001951
# 3 -0.000607 -0.004318 0.016763 0.003399 -0.004222 0.000136
# 4 -0.009860 -0.000156 0.003399 0.037071 0.000249 0.001426
# 5 -0.008460 0.000510 -0.004222 0.000249 0.043443 -0.007812
# 6 -0.003208 0.001951 0.000136 0.001426 -0.007812 0.027275
#
#
# Mechanical properties :
#
#
# Convention : Reuss Voigt Hill
#
# Bulk Modulus (GPa) = 38.73385 61.36733 50.05059
# Shear Modulus (GPa) = 24.97683 31.64496 28.31090
#
# Velocity S-wave (km/s) = 3.61718 4.07149 3.85104
# Velocity P-wave (km/s) = 6.14294 7.36543 6.78179
#
# Compressibility (1/GPa) = 0.02581721
#
# Stress axis : x y z
#
# Youngs Moduli (GPa) = 38.87950 81.16578 59.65487
#
# Poissons Ratio (x) = 0.77663 0.03621
# Poissons Ratio (y) = 0.37202 0.25758
# Poissons Ratio (z) = 0.02360 0.35047
#
# Static dielectric constant tensor:
#      x y z
#    x 4.059840 0.250840 0.084550 
#    y 0.250840 3.924480 0.197640 
#    z 0.084550 0.197640 3.673640 
# 
# 
# High freq. dielectric constant tensor:
#      x y z
#    x 1.736140 0.020440 -0.002000 
#    y 0.020440 1.744770 0.017560 
#    z -0.002000 0.017560 1.727310 
# 
# From -- ./inp_files/187686.got.cif
#   From: 2010.06.25/outbox.cif.g09.slc.cpg/sg2_94_cif.got.tgz:187686.got - 2010.06.27 13:26:56.
