data_PCOD8009138
_publ_section_title
;
Structure prediction by ZEFSAII (Michael W. Deem and Ramdas Pophale) SiO2 
 PCOD8009138
Probable space group: P -1
;
_chemical_formula_sum "Si O2"
_cell_formula_units_Z 16
_cell_length_a 5.108757
_cell_length_b 21.473913
_cell_length_c 10.853823
_cell_angle_alpha 140.068441
_cell_angle_beta 95.736214
_cell_angle_gamma 81.921421
_cell_volume 756.647321
_symmetry_space_group_name_H-M "P -1"
_symmetry_group_IT_number 2
_symmetry_cell_setting 'triclinic'
loop_
_space_group_symop_operation_xyz
x,y,z
-x,-y,-z
loop_
_atom_site_type_symbol
_atom_site_label
_atom_site_fract_x
_atom_site_fract_y
_atom_site_fract_z
Si Si1 0.793622 0.874452 0.855409
Si Si2 0.326428 0.590429 0.571015
Si Si3 0.311774 0.272684 0.894248
Si Si4 0.728148 0.417931 0.905612
Si Si5 0.865034 0.514560 0.827384
Si Si6 0.777350 0.213690 0.669985
Si Si7 0.198816 0.292417 0.202906
Si Si8 0.747974 0.096698 0.255868
O O1 0.851797 0.799436 0.855923
O O2 0.528397 0.858571 0.745873
O O3 0.028124 0.857401 0.742280
O O4 0.780210 0.980380 0.076340
O O5 0.500000 0.500000 0.500000
O O6 0.170710 0.552225 0.390992
O O7 0.546719 0.662598 0.657078
O O8 0.079773 0.637833 0.713866
O O9 0.581051 0.207116 0.767451
O O10 0.074302 0.226308 0.744203
O O11 0.345248 0.386916 0.031332
O O12 0.278921 0.262025 0.022231
O O13 0.903897 0.437584 0.824731
O O14 0.656080 0.307675 0.727443
O O15 0.500000 0.500000 0.000000
O O16 0.860040 0.435211 0.072907
O O17 0.772546 0.121981 0.439888
#
# Coordination Sequence:
#
# PCOD8009138 Si02
#       8
#     2   2   2   2   2   2   2   2
#     4  10  23  43  68  97 129 162 200 273 330 387
#     4  12  26  41  63  91 130 176 221 259 308 384
#     4  11  23  41  59  84 130 166 210 256 313 365
#     4  10  21  36  57  84 124 163 208 262 309 372
#     4  10  23  37  54  85 123 167 208 257 312 361
#     4  11  23  38  63  90 118 168 212 256 315 382
#     4  12  26  42  64  94 128 173 219 263 319 380
#     4  10  22  44  69  96 129 158 207 268 338 379
#
# _framework density 21.145914000000001
#
# number of rings (size 3 to 8) (size 9 to 14) (size 15 to 20)
#    0.000    1.250    2.500    2.625    5.250    0.000 
#    0.000    1.250    0.000    0.000    0.000    0.000 
#    0.000    0.000    0.000    0.000    0.000    0.000 
#
# Total GULP energy -198230.649805 kJ/mol
# GULP energy per Si atom -12389.415613 kJ/mol
# Density = 2.109778 g / cm^3
# Si number density = 21.145914 Si / 1000 Ang^3
#
#
#
# Elastic Constant Matrix: (Units=GPa)
#
#
# Indices 1 2 3 4 5 6 
#
# 1 132.9117 24.3099 46.0068 -6.9636 -3.3473 8.1784
# 2 24.3099 89.5165 42.4490 -11.6611 0.1578 3.9922
# 3 46.0068 42.4490 113.4606 -22.6994 0.5459 4.7784
# 4 -6.9636 -11.6611 -22.6994 24.9770 0.2586 1.1104
# 5 -3.3473 0.1578 0.5459 0.2586 18.4670 -9.5548
# 6 8.1784 3.9922 4.7784 1.1104 -9.5548 22.5582
#
#
#
# Elastic Compliance Matrix: (Units=1/GPa)
#
#
# Indices 1 2 3 4 5 6 
#
# 1 0.008955 -0.000841 -0.003418 -0.000919 0.000691 -0.002036
# 2 -0.000841 0.013821 -0.004258 0.002441 -0.001130 -0.001837
# 3 -0.003418 -0.004258 0.013867 0.009794 -0.002393 -0.002440
# 4 -0.000919 0.002441 0.009794 0.050162 -0.004587 -0.006585
# 5 0.000691 -0.001130 -0.002393 -0.004587 0.070146 0.030393
# 6 -0.002036 -0.001837 -0.002440 -0.006585 0.030393 0.059108
#
#
# Mechanical properties :
#
#
# Convention : Reuss Voigt Hill
#
# Bulk Modulus (GPa) = 51.00117 62.38001 56.69059
# Shear Modulus (GPa) = 20.86560 28.07531 24.47046
#
# Velocity S-wave (km/s) = 3.14466 3.64771 3.40548
# Velocity P-wave (km/s) = 6.11197 6.87785 6.50619
#
# Compressibility (1/GPa) = 0.01960739
#
# Stress axis : x y z
#
# Youngs Moduli (GPa) = 111.66573 72.35403 72.11623
#
# Poissons Ratio (x) = 0.06087 0.24649
# Poissons Ratio (y) = 0.09395 0.30710
# Poissons Ratio (z) = 0.38166 0.30811
#
# Static dielectric constant tensor:
#      x y z
#    x 4.034250 0.570660 -0.385730 
#    y 0.570660 3.424840 0.429720 
#    z -0.385730 0.429720 3.103710 
# 
# 
# High freq. dielectric constant tensor:
#      x y z
#    x 1.847110 0.000560 0.007650 
#    y 0.000560 1.810820 -0.010190 
#    z 0.007650 -0.010190 1.824590 
# 
# From -- ./inp_files/370911.got.cif
#   From: 2010.06.25/outbox.cif.g09.slc.cpg/sg2_186_cif.got.tgz:370911.got - 2010.06.27 13:26:56.
