data_PCOD8009600
_publ_section_title
;
Structure prediction by ZEFSAII (Michael W. Deem and Ramdas Pophale) SiO2 
 PCOD8009600
Probable space group: P -1
;
_chemical_formula_sum "Si O2"
_cell_formula_units_Z 16
_cell_length_a 11.834776
_cell_length_b 11.780475
_cell_length_c 15.354170
_cell_angle_alpha 40.933387
_cell_angle_beta 51.531531
_cell_angle_gamma 83.578240
_cell_volume 786.218329
_symmetry_space_group_name_H-M "P -1"
_symmetry_group_IT_number 2
_symmetry_cell_setting 'triclinic'
loop_
_space_group_symop_operation_xyz
x,y,z
-x,-y,-z
loop_
_atom_site_type_symbol
_atom_site_label
_atom_site_fract_x
_atom_site_fract_y
_atom_site_fract_z
Si Si1 0.747909 0.169485 0.879279
Si Si2 0.190586 0.169131 0.566190
Si Si3 0.601617 0.093359 0.533281
Si Si4 0.074228 0.215878 0.778386
Si Si5 0.411988 0.661341 0.762023
Si Si6 0.328512 0.754794 0.397948
Si Si7 0.018988 0.708557 0.836001
Si Si8 0.021253 0.698625 0.481432
O O1 0.815878 0.206113 0.726392
O O2 0.866419 0.133175 0.902893
O O3 0.813778 0.416701 0.734480
O O4 0.509011 0.935627 0.137385
O O5 0.184727 0.238139 0.626090
O O6 0.421672 0.351314 0.315886
O O7 0.055605 0.168117 0.563320
O O8 0.099901 0.898986 0.764805
O O9 0.593249 0.246329 0.382098
O O10 0.565164 0.135307 0.622821
O O11 0.813113 0.164669 0.392887
O O12 0.438127 0.816053 0.740359
O O13 0.231772 0.481350 0.593762
O O14 0.000000 0.000000 0.000000
O O15 0.192448 0.393442 0.038956
O O16 0.149851 0.748925 0.475511
O O17 0.000000 0.500000 0.000000
#
# Coordination Sequence:
#
# PCOD8009600 Si02
#       8
#     2   2   2   2   2   2   2   2
#     4   9  20  39  59  80 117 164 196 228 285 350
#     4  10  21  37  58  85 116 150 195 235 286 351
#     4   9  20  36  55  86 111 144 200 234 286 342
#     4  10  24  36  53  91 130 148 180 244 294 346
#     4   9  19  36  57  80 112 152 191 236 284 347
#     4  11  22  37  62  87 117 160 192 236 289 349
#     4   9  19  36  60  80 110 156 191 235 290 342
#     4   9  20  39  57  84 117 154 201 238 280 340
#
# _framework density 20.350580000000001
#
# number of rings (size 3 to 8) (size 9 to 14) (size 15 to 20)
#    0.000    2.500    0.000    1.875    5.250    5.500 
#    0.000    2.500    0.000    4.500    0.000    0.000 
#    0.000    0.000    0.000    0.000    0.000    0.000 
#
# Total GULP energy -198235.086110 kJ/mol
# GULP energy per Si atom -12389.692882 kJ/mol
# Density = 2.030426 g / cm^3
# Si number density = 20.350580 Si / 1000 Ang^3
#
#
#
# Elastic Constant Matrix: (Units=GPa)
#
#
# Indices 1 2 3 4 5 6 
#
# 1 76.5546 30.9338 25.3592 -8.7986 -9.9258 -4.2084
# 2 30.9338 91.5448 18.4396 -10.5712 -1.0162 2.8442
# 3 25.3592 18.4396 88.7670 -10.7557 -18.4687 0.5594
# 4 -8.7986 -10.5712 -10.7557 12.8508 -3.2015 -0.4962
# 5 -9.9258 -1.0162 -18.4687 -3.2015 40.2768 3.1962
# 6 -4.2084 2.8442 0.5594 -0.4962 3.1962 30.8517
#
#
#
# Elastic Compliance Matrix: (Units=1/GPa)
#
#
# Indices 1 2 3 4 5 6 
#
# 1 0.017053 -0.004525 -0.002428 0.006845 0.003316 0.002554
# 2 -0.004525 0.013478 -0.000699 0.007242 -0.000386 -0.001691
# 3 -0.002428 -0.000699 0.015127 0.012219 0.007380 -0.001109
# 4 0.006845 0.007242 0.012219 0.102583 0.015621 0.000076
# 5 0.003316 -0.000386 0.007380 0.015621 0.030464 -0.002551
# 6 0.002554 -0.001691 -0.001109 0.000076 -0.002551 0.033203
#
#
# Mechanical properties :
#
#
# Convention : Reuss Voigt Hill
#
# Bulk Modulus (GPa) = 32.94575 45.14794 39.04685
# Shear Modulus (GPa) = 21.06771 28.93811 25.00291
#
# Velocity S-wave (km/s) = 3.22100 3.77501 3.50896
# Velocity P-wave (km/s) = 5.48246 6.42138 5.97041
#
# Compressibility (1/GPa) = 0.03035293
#
# Stress axis : x y z
#
# Youngs Moduli (GPa) = 58.64217 74.19445 66.10529
#
# Poissons Ratio (x) = 0.33574 0.16052
# Poissons Ratio (y) = 0.26536 0.04622
# Poissons Ratio (z) = 0.14240 0.05187
#
# Static dielectric constant tensor:
#      x y z
#    x 3.867330 -0.139340 -0.353920 
#    y -0.139340 3.570290 -0.110520 
#    z -0.353920 -0.110520 3.811870 
# 
# 
# High freq. dielectric constant tensor:
#      x y z
#    x 1.794570 -0.007590 -0.021420 
#    y -0.007590 1.781480 -0.010180 
#    z -0.021420 -0.010180 1.785500 
# 
# From -- ./inp_files/519533.got.cif
#   From: 2010.06.25/outbox.cif.g09.slc.cpg/sg2_260_cif.got.tgz:519533.got - 2010.06.27 13:26:56.
