data_PCOD8009468
_publ_section_title
;
Structure prediction by ZEFSAII (Michael W. Deem and Ramdas Pophale) SiO2 
 PCOD8009468
Probable space group: P -1
;
_chemical_formula_sum "Si O2"
_cell_formula_units_Z 16
_cell_length_a 11.451933
_cell_length_b 18.225906
_cell_length_c 11.561441
_cell_angle_alpha 30.921713
_cell_angle_beta 137.144273
_cell_angle_gamma 122.370658
_cell_volume 812.679245
_symmetry_space_group_name_H-M "P -1"
_symmetry_group_IT_number 2
_symmetry_cell_setting 'triclinic'
loop_
_space_group_symop_operation_xyz
x,y,z
-x,-y,-z
loop_
_atom_site_type_symbol
_atom_site_label
_atom_site_fract_x
_atom_site_fract_y
_atom_site_fract_z
Si Si1 0.029955 0.831389 0.271897
Si Si2 0.047088 0.446616 0.977375
Si Si3 0.593179 0.332695 0.828657
Si Si4 0.953267 0.171221 0.197990
Si Si5 0.001963 0.704690 0.171139
Si Si6 0.247706 0.303383 0.677543
Si Si7 0.288793 0.415198 0.792032
Si Si8 0.322116 0.622795 0.907009
O O1 0.022584 0.754372 0.248667
O O2 0.213411 0.763566 0.563737
O O3 0.870039 0.812715 0.264872
O O4 0.000000 0.000000 0.000000
O O5 0.226232 0.489013 0.009685
O O6 0.876555 0.531984 0.663101
O O7 0.000000 0.500000 0.000000
O O8 0.066781 0.270171 0.213905
O O9 0.500000 0.500000 0.500000
O O10 0.430207 0.254934 0.801947
O O11 0.744946 0.245898 0.969743
O O12 0.670173 0.329265 0.018998
O O13 0.998976 0.171676 0.093728
O O14 0.000000 0.000000 0.500000
O O15 0.175216 0.572810 0.450635
O O16 0.821707 0.646885 0.105106
O O17 0.316778 0.300146 0.862874
O O18 0.486357 0.427664 0.950857
#
# Coordination Sequence:
#
# PCOD8009468 Si02
#       8
#     2   2   2   2   2   2   2   2
#     4  10  23  39  58  87 123 160 195 263 314 354
#     4  11  19  36  60  92 118 158 208 255 297 367
#     4  11  19  39  66  90 116 164 215 249 292 383
#     4  12  25  38  59  95 130 164 198 255 321 371
#     4  10  21  40  61  81 127 162 194 250 318 371
#     4   9  18  36  62  84 110 155 216 245 290 367
#     4   9  18  38  63  89 109 152 210 257 296 354
#     4  10  21  36  65  93 114 149 223 257 296 364
#
# _framework density 19.687964000000001
#
# number of rings (size 3 to 8) (size 9 to 14) (size 15 to 20)
#    0.000    1.750    3.750    0.750    3.500    0.500 
#    2.250    1.875    0.000    4.500    0.000    0.000 
#    0.000    0.000    0.000    0.000    0.000    0.000 
#
# Total GULP energy -198225.868391 kJ/mol
# GULP energy per Si atom -12389.116774 kJ/mol
# Density = 1.964315 g / cm^3
# Si number density = 19.687964 Si / 1000 Ang^3
#
#
#
# Elastic Constant Matrix: (Units=GPa)
#
#
# Indices 1 2 3 4 5 6 
#
# 1 122.5505 45.0791 66.3703 10.2694 5.5700 33.5791
# 2 45.0791 81.5665 53.0306 4.4771 1.7250 20.8309
# 3 66.3703 53.0306 119.3368 -8.3189 -12.9176 24.5244
# 4 10.2694 4.4771 -8.3189 33.5050 5.0845 -0.9556
# 5 5.5700 1.7250 -12.9176 5.0845 35.4552 12.9060
# 6 33.5791 20.8309 24.5244 -0.9556 12.9060 40.7621
#
#
#
# Elastic Compliance Matrix: (Units=1/GPa)
#
#
# Indices 1 2 3 4 5 6 
#
# 1 0.014887 -0.001777 -0.006558 -0.005981 -0.001171 -0.007179
# 2 -0.001777 0.019034 -0.007135 -0.003660 -0.001408 -0.003610
# 3 -0.006558 -0.007135 0.017281 0.005899 0.008215 -0.003811
# 4 -0.005981 -0.003660 0.005899 0.034317 -0.003537 0.005172
# 5 -0.001171 -0.001408 0.008215 -0.003537 0.037495 -0.015213
# 6 -0.007179 -0.003610 -0.003811 0.005172 -0.015213 0.039523
#
#
# Mechanical properties :
#
#
# Convention : Reuss Voigt Hill
#
# Bulk Modulus (GPa) = 49.35610 72.49044 60.92327
# Shear Modulus (GPa) = 24.97107 32.54273 28.75690
#
# Velocity S-wave (km/s) = 3.56524 4.07003 3.82597
# Velocity P-wave (km/s) = 6.48626 7.68026 7.10837
#
# Compressibility (1/GPa) = 0.02026092
#
# Stress axis : x y z
#
# Youngs Moduli (GPa) = 67.17387 52.53799 57.86589
#
# Poissons Ratio (x) = 0.09338 0.37948
# Poissons Ratio (y) = 0.11939 0.41289
# Poissons Ratio (z) = 0.44052 0.37488
#
# Static dielectric constant tensor:
#      x y z
#    x 4.148220 0.377260 -0.283620 
#    y 0.377260 3.368280 0.242210 
#    z -0.283620 0.242210 3.674340 
# 
# 
# High freq. dielectric constant tensor:
#      x y z
#    x 1.784560 0.020730 -0.012360 
#    y 0.020730 1.754950 0.016680 
#    z -0.012360 0.016680 1.742170 
# 
# From -- ./inp_files/257421.got.cif
#   From: 2010.06.25/outbox.cif.g09.slc.cpg/sg2_129_cif.got.tgz:257421.got - 2010.06.27 13:26:56.
