data_PCOD8009110
_publ_section_title
;
Structure prediction by ZEFSAII (Michael W. Deem and Ramdas Pophale) SiO2 
 PCOD8009110
Probable space group: P -1
;
_chemical_formula_sum "Si O2"
_cell_formula_units_Z 14
_cell_length_a 9.895808
_cell_length_b 9.233904
_cell_length_c 10.583968
_cell_angle_alpha 72.793179
_cell_angle_beta 136.175843
_cell_angle_gamma 107.422696
_cell_volume 634.284960
_symmetry_space_group_name_H-M "P -1"
_symmetry_group_IT_number 2
_symmetry_cell_setting 'triclinic'
loop_
_space_group_symop_operation_xyz
x,y,z
-x,-y,-z
loop_
_atom_site_type_symbol
_atom_site_label
_atom_site_fract_x
_atom_site_fract_y
_atom_site_fract_z
Si Si1 0.138122 0.368666 0.247770
Si Si2 0.790975 0.800117 0.297855
Si Si3 0.851243 0.500424 0.517712
Si Si4 0.754777 0.196551 0.433888
Si Si5 0.273234 0.658431 0.122278
Si Si6 0.453799 0.665236 0.968444
Si Si7 0.618509 0.871187 0.405713
O O1 0.056094 0.451483 0.295507
O O2 0.284660 0.495540 0.239098
O O3 0.256616 0.228997 0.396362
O O4 0.953338 0.307714 0.049618
O O5 0.719624 0.632611 0.359448
O O6 0.727662 0.914490 0.332342
O O7 0.019203 0.837439 0.411174
O O8 0.656308 0.787357 0.083794
O O9 0.733930 0.328417 0.491016
O O10 0.000000 0.500000 0.500000
O O11 0.692504 0.264325 0.242291
O O12 0.620089 0.040200 0.424868
O O13 0.396571 0.791088 0.255029
O O14 0.353189 0.653290 0.038153
O O15 0.500000 0.500000 0.000000
#
# Coordination Sequence:
#
# PCOD8009110 Si02
#       7
#     2   2   2   2   2   2   2
#     4  10  21  40  63  80 112 153 196 232 277 344
#     4   9  19  33  54  82 114 150 184 227 285 332
#     4   9  17  33  57  83 109 145 187 228 275 331
#     4  11  21  34  56  89 118 146 183 238 293 329
#     4  10  22  38  62  83 110 155 196 231 278 339
#     4  11  21  34  58  87 116 142 193 240 276 334
#     4  10  21  36  56  86 117 147 187 235 287 338
#
# _framework density 22.072098
#
# number of rings (size 3 to 8) (size 9 to 14) (size 15 to 20)
#    0.000    2.000    1.429    3.429    2.000    3.429 
#    0.000    0.714    0.000    1.714    0.000    0.000 
#    0.000    0.000    0.000    0.000    0.000    0.000 
#
# Total GULP energy -173455.357383 kJ/mol
# GULP energy per Si atom -12389.668385 kJ/mol
# Density = 2.202186 g / cm^3
# Si number density = 22.072098 Si / 1000 Ang^3
#
#
#
# Elastic Constant Matrix: (Units=GPa)
#
#
# Indices 1 2 3 4 5 6 
#
# 1 19.2469 14.3514 14.7978 -4.5779 2.9475 12.2191
# 2 14.3514 161.3117 43.1513 8.9615 6.2041 7.2127
# 3 14.7978 43.1513 99.7459 13.6146 4.4566 9.3327
# 4 -4.5779 8.9615 13.6146 29.0498 10.8711 5.4796
# 5 2.9475 6.2041 4.4566 10.8711 19.7283 3.5458
# 6 12.2191 7.2127 9.3327 5.4796 3.5458 22.7767
#
#
#
# Elastic Compliance Matrix: (Units=1/GPa)
#
#
# Indices 1 2 3 4 5 6 
#
# 1 0.132335 -0.006039 -0.016593 0.055886 -0.032210 -0.070714
# 2 -0.006039 0.007347 -0.002144 -0.002724 0.000141 0.002425
# 3 -0.016593 -0.002144 0.014238 -0.011713 0.005362 0.005730
# 4 0.055886 -0.002724 -0.011713 0.070135 -0.037130 -0.035412
# 5 -0.032210 0.000141 0.005362 -0.037130 0.072424 0.012696
# 6 -0.070714 0.002425 0.005730 -0.035412 0.012696 0.085268
#
#
# Mechanical properties :
#
#
# Convention : Reuss Voigt Hill
#
# Bulk Modulus (GPa) = 9.58138 47.21170 28.39654
# Shear Modulus (GPa) = 10.72758 28.17789 19.45274
#
# Velocity S-wave (km/s) = 2.20699 3.57687 2.97194
# Velocity P-wave (km/s) = 3.29314 6.20442 4.96687
#
# Compressibility (1/GPa) = 0.10436910
#
# Stress axis : x y z
#
# Youngs Moduli (GPa) = 7.55656 136.10136 70.23568
#
# Poissons Ratio (x) = 0.82191 1.16540
# Poissons Ratio (y) = 0.04563 0.15059
# Poissons Ratio (z) = 0.12538 0.29182
#
# Static dielectric constant tensor:
#      x y z
#    x 3.659910 -0.165510 0.048540 
#    y -0.165510 4.430260 0.309000 
#    z 0.048540 0.309000 4.371890 
# 
# 
# High freq. dielectric constant tensor:
#      x y z
#    x 1.826990 -0.000560 0.006390 
#    y -0.000560 1.868280 0.018130 
#    z 0.006390 0.018130 1.880850 
# 
# From -- ./inp_files/416737.got.cif
#   From: 2010.06.25/outbox.cif.g09.slc.cpg/sg2_209_cif.got.tgz:416737.got - 2010.06.27 13:26:56.
