data_PCOD8009555
_publ_section_title
;
Structure prediction by ZEFSAII (Michael W. Deem and Ramdas Pophale) SiO2 
 PCOD8009555
Probable space group: P -1
;
_chemical_formula_sum "Si O2"
_cell_formula_units_Z 16
_cell_length_a 9.839405
_cell_length_b 13.786227
_cell_length_c 13.675737
_cell_angle_alpha 99.320998
_cell_angle_beta 94.219397
_cell_angle_gamma 25.352676
_cell_volume 772.122177
_symmetry_space_group_name_H-M "P -1"
_symmetry_group_IT_number 2
_symmetry_cell_setting 'triclinic'
loop_
_space_group_symop_operation_xyz
x,y,z
-x,-y,-z
loop_
_atom_site_type_symbol
_atom_site_label
_atom_site_fract_x
_atom_site_fract_y
_atom_site_fract_z
Si Si1 0.931330 0.178093 0.220753
Si Si2 0.270277 0.173531 0.808838
Si Si3 0.930682 0.631470 0.445142
Si Si4 0.311763 0.054985 0.370890
Si Si5 0.588734 0.718889 0.085642
Si Si6 0.624478 0.610101 0.746515
Si Si7 0.588934 0.080198 0.083186
Si Si8 0.232945 0.618495 0.945175
O O1 0.662999 0.278925 0.261119
O O2 0.756599 0.369170 0.168929
O O3 0.066663 0.141273 0.319056
O O4 0.219962 0.937283 0.135285
O O5 0.270244 0.292996 0.833553
O O6 0.904584 0.381858 0.795583
O O7 0.524803 0.978000 0.705342
O O8 0.416052 0.027981 0.891312
O O9 0.881054 0.762357 0.526209
O O10 0.000000 0.500000 0.500000
O O11 0.229645 0.458610 0.361830
O O12 0.615220 0.802619 0.396710
O O13 0.775756 0.493523 0.058055
O O14 0.655013 0.727606 0.984555
O O15 0.457981 0.816819 0.812136
O O16 0.926121 0.872527 0.014577
O O17 0.500000 0.500000 0.000000
#
# Coordination Sequence:
#
# PCOD8009555 Si02
#       8
#     2   2   2   2   2   2   2   2
#     4  10  22  39  58  86 119 155 195 237 282 342
#     4  10  21  37  57  84 115 151 194 241 288 341
#     4  10  21  41  65  87 112 146 187 241 300 349
#     4   9  21  40  61  84 115 148 189 238 293 350
#     4  10  22  37  56  82 117 158 198 237 284 339
#     4  11  23  37  59  86 115 150 193 238 288 346
#     4  11  21  34  55  83 117 154 197 243 284 333
#     4  11  22  37  57  83 122 164 196 234 285 337
#
# _framework density 20.722109
#
# number of rings (size 3 to 8) (size 9 to 14) (size 15 to 20)
#    0.000    1.750    0.000    4.125    0.000   10.500 
#    0.000    0.625    0.000    0.000    0.000    0.000 
#    0.000    0.000    0.000    0.000    0.000    0.000 
#
# Total GULP energy -198266.907360 kJ/mol
# GULP energy per Si atom -12391.681710 kJ/mol
# Density = 2.067494 g / cm^3
# Si number density = 20.722109 Si / 1000 Ang^3
#
#
#
# Elastic Constant Matrix: (Units=GPa)
#
#
# Indices 1 2 3 4 5 6 
#
# 1 110.7758 48.9888 55.3950 -3.3033 0.0722 -6.3772
# 2 48.9888 81.4189 48.4894 -14.0695 -4.0549 2.8246
# 3 55.3950 48.4894 137.9501 -1.6197 -3.8739 0.5018
# 4 -3.3033 -14.0695 -1.6197 36.0058 2.3032 -2.1214
# 5 0.0722 -4.0549 -3.8739 2.3032 33.8969 -3.8536
# 6 -6.3772 2.8246 0.5018 -2.1214 -3.8536 34.6030
#
#
#
# Elastic Compliance Matrix: (Units=1/GPa)
#
#
# Indices 1 2 3 4 5 6 
#
# 1 0.013732 -0.006720 -0.003200 -0.001286 -0.000775 0.002961
# 2 -0.006720 0.020201 -0.004279 0.006873 0.001217 -0.002269
# 3 -0.003200 -0.004279 0.010041 -0.001583 0.000704 -0.000405
# 4 -0.001286 0.006873 -0.001583 0.030410 -0.001315 0.000943
# 5 -0.000775 0.001217 0.000704 -0.001315 0.030162 0.003026
# 6 0.002961 -0.002269 -0.000405 0.000943 0.003026 0.030031
#
#
# Mechanical properties :
#
#
# Convention : Reuss Voigt Hill
#
# Bulk Modulus (GPa) = 64.20238 70.65457 67.42848
# Shear Modulus (GPa) = 29.73265 32.71924 31.22595
#
# Velocity S-wave (km/s) = 3.79202 3.97792 3.88608
# Velocity P-wave (km/s) = 7.08678 7.43429 7.26261
#
# Compressibility (1/GPa) = 0.01557575
#
# Stress axis : x y z
#
# Youngs Moduli (GPa) = 72.82397 49.50242 99.59646
#
# Poissons Ratio (x) = 0.33267 0.31866
# Poissons Ratio (y) = 0.48940 0.42617
# Poissons Ratio (z) = 0.23300 0.21182
#
# Static dielectric constant tensor:
#      x y z
#    x 3.480570 0.020070 -0.006500 
#    y 0.020070 3.828650 0.229730 
#    z -0.006500 0.229730 3.941230 
# 
# 
# High freq. dielectric constant tensor:
#      x y z
#    x 1.791460 -0.006030 -0.005140 
#    y -0.006030 1.817130 0.001880 
#    z -0.005140 0.001880 1.821700 
# 
# From -- ./inp_files/37228.got.cif
#   From: 2010.06.25/outbox.cif.g09.slc.cpg/sg2_19_cif.got.tgz:37228.got - 2010.06.27 13:26:56.
