data_PCOD8009309
_publ_section_title
;
Structure prediction by ZEFSAII (Michael W. Deem and Ramdas Pophale) SiO2 
 PCOD8009309
Probable space group: P -1
;
_chemical_formula_sum "Si O2"
_cell_formula_units_Z 14
_cell_length_a 16.356512
_cell_length_b 28.877564
_cell_length_c 16.356377
_cell_angle_alpha 18.497021
_cell_angle_beta 161.762895
_cell_angle_gamma 161.504479
_cell_volume 672.961743
_symmetry_space_group_name_H-M "P -1"
_symmetry_group_IT_number 2
_symmetry_cell_setting 'triclinic'
loop_
_space_group_symop_operation_xyz
x,y,z
-x,-y,-z
loop_
_atom_site_type_symbol
_atom_site_label
_atom_site_fract_x
_atom_site_fract_y
_atom_site_fract_z
Si Si1 0.074654 0.189129 0.925379
Si Si2 0.384114 0.990139 0.615932
Si Si3 0.586898 0.791264 0.412964
Si Si4 0.771141 0.082685 0.228980
Si Si5 0.177032 0.686226 0.822888
Si Si6 0.176575 0.201524 0.823492
Si Si7 0.263598 0.482910 0.736396
O O1 0.196813 0.279271 0.803322
O O2 0.137305 0.308447 0.862590
O O3 0.725702 0.075122 0.773856
O O4 0.226175 0.075157 0.274320
O O5 0.351554 0.009291 0.648770
O O6 0.231642 0.797900 0.768232
O O7 0.415844 0.619030 0.584325
O O8 0.874276 0.800879 0.625435
O O9 0.683312 0.940786 0.316726
O O10 0.374041 0.800733 0.125541
O O11 0.989627 0.727516 0.510280
O O12 0.489654 0.727552 0.010245
O O13 0.000000 0.500000 0.000000
O O14 0.000000 0.000000 0.000000
O O15 0.000000 0.500000 0.500000
O O16 0.500000 0.500000 0.000000
#
# Coordination Sequence:
#
# PCOD8009309 Si02
#       7
#     2   2   2   2   2   2   2
#     4  12  25  40  71  94 126 181 221 268 332 405
#     4  12  23  42  64  97 127 170 228 264 333 405
#     4  10  21  38  56  85 118 160 202 257 322 373
#     4  10  21  36  61  82 119 161 202 254 318 392
#     4  12  26  43  69 102 140 175 222 294 343 393
#     4  12  23  46  70  99 138 178 230 279 336 417
#     4  12  25  42  63  94 132 162 218 279 322 382
#
# _framework density 20.803560999999998
#
# number of rings (size 3 to 8) (size 9 to 14) (size 15 to 20)
#    0.000    0.571    2.857    6.000    0.000    4.571 
#    0.000    0.000    0.000    0.000    0.000    0.000 
#    0.000    0.000    0.000    0.000    0.000    0.000 
#
# Total GULP energy -173645.585622 kJ/mol
# GULP energy per Si atom -12403.256116 kJ/mol
# Density = 2.075621 g / cm^3
# Si number density = 20.803561 Si / 1000 Ang^3
#
#
#
# Elastic Constant Matrix: (Units=GPa)
#
#
# Indices 1 2 3 4 5 6 
#
# 1 112.1082 38.6086 53.9911 15.0362 0.1638 15.2487
# 2 38.6086 113.3901 78.6320 -1.3983 8.9278 13.6158
# 3 53.9911 78.6320 169.4663 30.2896 -9.0820 15.4790
# 4 15.0362 -1.3983 30.2896 41.4343 6.1624 3.1688
# 5 0.1638 8.9278 -9.0820 6.1624 43.1395 1.7031
# 6 15.2487 13.6158 15.4790 3.1688 1.7031 46.6581
#
#
#
# Elastic Compliance Matrix: (Units=1/GPa)
#
#
# Indices 1 2 3 4 5 6 
#
# 1 0.011275 -0.002479 -0.001695 -0.002857 0.000609 -0.002227
# 2 -0.002479 0.016432 -0.008618 0.008822 -0.006407 -0.001491
# 3 -0.001695 -0.008618 0.012538 -0.009660 0.005835 -0.000648
# 4 -0.002857 0.008822 -0.009660 0.033852 -0.008668 -0.000419
# 5 0.000609 -0.006407 0.005835 -0.008668 0.026997 -0.000662
# 6 -0.002227 -0.001491 -0.000648 -0.000419 -0.000662 0.022863
#
#
# Mechanical properties :
#
#
# Convention : Reuss Voigt Hill
#
# Bulk Modulus (GPa) = 68.21371 81.93644 75.07507
# Shear Modulus (GPa) = 32.37708 41.16192 36.76950
#
# Velocity S-wave (km/s) = 3.94931 4.45297 4.20868
# Velocity P-wave (km/s) = 7.32507 8.11849 7.73196
#
# Compressibility (1/GPa) = 0.01465981
#
# Stress axis : x y z
#
# Youngs Moduli (GPa) = 88.68852 60.85601 79.75536
#
# Poissons Ratio (x) = 0.15089 0.13520
# Poissons Ratio (y) = 0.21989 0.68737
# Poissons Ratio (z) = 0.15034 0.52449
#
# Static dielectric constant tensor:
#      x y z
#    x 3.900900 -0.041560 -0.059820 
#    y -0.041560 3.674380 -0.110890 
#    z -0.059820 -0.110890 3.539420 
# 
# 
# High freq. dielectric constant tensor:
#      x y z
#    x 1.829430 0.005930 -0.000870 
#    y 0.005930 1.812340 0.014850 
#    z -0.000870 0.014850 1.833300 
# 
# From -- ./inp_files/138625.got.cif
#   From: 2010.06.25/outbox.cif.g09.slc.cpg/sg2_70_cif.got.tgz:138625.got - 2010.06.27 13:26:56.
