data_PCOD8009291
_publ_section_title
;
Structure prediction by ZEFSAII (Michael W. Deem and Ramdas Pophale) SiO2 
 PCOD8009291
Probable space group: P -1
;
_chemical_formula_sum "Si O2"
_cell_formula_units_Z 14
_cell_length_a 32.216069
_cell_length_b 32.018539
_cell_length_c 12.920296
_cell_angle_alpha 161.708327
_cell_angle_beta 160.730694
_cell_angle_gamma 8.715205
_cell_volume 629.596266
_symmetry_space_group_name_H-M "P -1"
_symmetry_group_IT_number 2
_symmetry_cell_setting 'triclinic'
loop_
_space_group_symop_operation_xyz
x,y,z
-x,-y,-z
loop_
_atom_site_type_symbol
_atom_site_label
_atom_site_fract_x
_atom_site_fract_y
_atom_site_fract_z
Si Si1 0.228612 0.179228 0.255047
Si Si2 0.660195 0.607755 0.420700
Si Si3 0.292770 0.875647 0.842982
Si Si4 0.205139 0.655859 0.094228
Si Si5 0.321158 0.536368 0.664898
Si Si6 0.204088 0.087685 0.755866
Si Si7 0.214317 0.195755 0.820176
O O1 0.000000 0.500000 0.500000
O O2 0.500000 0.000000 0.500000
O O3 0.196973 0.174516 0.049446
O O4 0.226824 0.043329 0.993743
O O5 0.764755 0.413943 0.302154
O O6 0.899899 0.506431 0.751261
O O7 0.333966 0.940861 0.458337
O O8 0.695009 0.509734 0.162526
O O9 0.222665 0.796739 0.446930
O O10 0.608774 0.574143 0.914117
O O11 0.106850 0.084847 0.998300
O O12 0.031750 0.807313 0.557761
O O13 0.495443 0.257210 0.362894
O O14 0.500000 0.500000 0.000000
O O15 0.157584 0.239760 0.913019
O O16 0.500000 0.000000 0.000000
#
# Coordination Sequence:
#
# PCOD8009291 Si02
#       7
#     2   2   2   2   2   2   2
#     4  12  26  44  65  94 128 178 226 260 320 388
#     4  10  21  36  60  92 117 153 209 246 312 389
#     4  10  23  41  62  90 127 166 216 272 319 373
#     4  10  21  41  63  92 124 162 215 270 325 377
#     4  10  21  39  62  94 123 156 197 251 326 386
#     4  10  23  41  59  91 126 159 206 260 307 372
#     4  10  21  38  59  88 125 159 198 251 314 375
#
# _framework density 22.236473
#
# number of rings (size 3 to 8) (size 9 to 14) (size 15 to 20)
#    0.000    1.714    0.000    3.429    2.000    3.429 
#    5.143    0.000    0.000    0.000    0.000    0.000 
#    0.000    0.000    0.000    0.000    0.000    0.000 
#
# Total GULP energy -173480.046207 kJ/mol
# GULP energy per Si atom -12391.431872 kJ/mol
# Density = 2.218586 g / cm^3
# Si number density = 22.236473 Si / 1000 Ang^3
#
#
#
# Elastic Constant Matrix: (Units=GPa)
#
#
# Indices 1 2 3 4 5 6 
#
# 1 142.4539 45.2861 80.0387 7.5726 -12.0268 -1.7425
# 2 45.2861 138.0988 39.5160 2.1108 2.1109 -2.4308
# 3 80.0387 39.5160 98.1256 -4.0867 -5.1224 -4.0810
# 4 7.5726 2.1108 -4.0867 42.8138 -2.9103 5.6510
# 5 -12.0268 2.1109 -5.1224 -2.9103 39.0739 6.0268
# 6 -1.7425 -2.4308 -4.0810 5.6510 6.0268 30.4626
#
#
#
# Elastic Compliance Matrix: (Units=1/GPa)
#
#
# Indices 1 2 3 4 5 6 
#
# 1 0.013960 -0.001497 -0.010797 -0.003134 0.002844 -0.000749
# 2 -0.001497 0.008411 -0.002232 -0.000541 -0.001349 0.000654
# 3 -0.010797 -0.002232 0.020080 0.003731 -0.000493 0.001300
# 4 -0.003134 -0.000541 0.003731 0.025075 0.002162 -0.004802
# 5 0.002844 -0.001349 -0.000493 0.002162 0.027541 -0.005861
# 6 -0.000749 0.000654 0.001300 -0.004802 -0.005861 0.035061
#
#
# Mechanical properties :
#
#
# Convention : Reuss Voigt Hill
#
# Bulk Modulus (GPa) = 74.62962 78.70666 76.66814
# Shear Modulus (GPa) = 30.55381 36.72589 33.63985
#
# Velocity S-wave (km/s) = 3.71083 4.06840 3.89372
# Velocity P-wave (km/s) = 7.21075 7.58560 7.40055
#
# Compressibility (1/GPa) = 0.01339951
#
# Stress axis : x y z
#
# Youngs Moduli (GPa) = 71.63580 118.88987 49.80024
#
# Poissons Ratio (x) = 0.17798 0.53768
# Poissons Ratio (y) = 0.10724 0.11115
# Poissons Ratio (z) = 0.77343 0.26535
#
# Static dielectric constant tensor:
#      x y z
#    x 3.997410 2.562790 0.955500 
#    y 2.562790 53.701650 14.406230 
#    z 0.955500 14.406230 8.345430 
# 
# 
# High freq. dielectric constant tensor:
#      x y z
#    x 1.866340 -0.010830 0.006900 
#    y -0.010830 1.913380 0.005270 
#    z 0.006900 0.005270 1.881570 
# 
# From -- ./inp_files/477849.got.cif
#   From: 2010.06.25/outbox.cif.g09.slc.cpg/sg2_239_cif.got.tgz:477849.got - 2010.06.27 13:26:56.
