data_PCOD8009773
_publ_section_title
;
Structure prediction by ZEFSAII (Michael W. Deem and Ramdas Pophale) SiO2 
 PCOD8009773
Probable space group: P -1
;
_chemical_formula_sum "Si O2"
_cell_formula_units_Z 12
_cell_length_a 5.158264
_cell_length_b 18.347418
_cell_length_c 11.866074
_cell_angle_alpha 151.434888
_cell_angle_beta 69.633970
_cell_angle_gamma 101.329112
_cell_volume 488.242282
_symmetry_space_group_name_H-M "P -1"
_symmetry_group_IT_number 2
_symmetry_cell_setting 'triclinic'
loop_
_space_group_symop_operation_xyz
x,y,z
-x,-y,-z
loop_
_atom_site_type_symbol
_atom_site_label
_atom_site_fract_x
_atom_site_fract_y
_atom_site_fract_z
Si Si1 0.254140 0.144150 0.193569
Si Si2 0.758632 0.060826 0.278826
Si Si3 0.731546 0.531162 0.289955
Si Si4 0.783508 0.679082 0.255259
Si Si5 0.682920 0.638558 0.975953
Si Si6 0.181002 0.890150 0.415998
O O1 0.348468 0.307263 0.408018
O O2 0.973668 0.161204 0.335899
O O3 0.500000 0.000000 0.000000
O O4 0.191782 0.104981 0.020035
O O5 0.440740 0.168257 0.451593
O O6 0.821096 0.017075 0.340855
O O7 0.865828 0.553864 0.175752
O O8 0.441186 0.476932 0.242763
O O9 0.973302 0.403995 0.150931
O O10 0.056869 0.736198 0.243958
O O11 0.629749 0.615049 0.086207
O O12 0.508847 0.820830 0.226690
O O13 0.000000 0.000000 0.500000
#
# Coordination Sequence:
#
# PCOD8009773 Si02
#       6
#     2   2   2   2   2   2
#     4  11  21  36  60  92 133 163 206 255 319 386
#     4  10  21  37  60  94 124 168 212 253 316 367
#     4  12  22  37  62  94 136 158 199 263 325 389
#     4  11  21  39  60  97 128 165 204 261 323 378
#     4  11  25  37  61  95 128 167 203 257 332 372
#     4  11  24  43  65  89 127 172 219 260 303 375
#
# _framework density 24.577961999999999
#
# number of rings (size 3 to 8) (size 9 to 14) (size 15 to 20)
#    0.000    1.000    5.000    2.000    4.667    2.667 
#    0.000    0.000    0.000    2.000    0.000    0.000 
#    0.000    0.000    0.000    0.000    0.000    0.000 
#
# Total GULP energy -148762.466805 kJ/mol
# GULP energy per Si atom -12396.872234 kJ/mol
# Density = 2.452202 g / cm^3
# Si number density = 24.577962 Si / 1000 Ang^3
#
#
#
# Elastic Constant Matrix: (Units=GPa)
#
#
# Indices 1 2 3 4 5 6 
#
# 1 128.0004 22.7309 40.6060 -3.1345 -3.9503 -28.9815
# 2 22.7309 57.8384 20.5605 5.7154 0.6352 -28.1200
# 3 40.6060 20.5605 126.3200 -7.7556 11.5707 -28.2312
# 4 -3.1345 5.7154 -7.7556 20.3939 -13.3350 -11.4172
# 5 -3.9503 0.6352 11.5707 -13.3350 54.9336 2.9344
# 6 -28.9815 -28.1200 -28.2312 -11.4172 2.9344 36.1332
#
#
#
# Elastic Compliance Matrix: (Units=1/GPa)
#
#
# Indices 1 2 3 4 5 6 
#
# 1 0.010783 0.000519 -0.000725 0.009157 0.002548 0.011173
# 2 0.000519 0.028507 0.001453 0.006994 -0.000288 0.025970
# 3 -0.000725 0.001453 0.011536 0.010777 -0.000578 0.013015
# 4 0.009157 0.006994 0.010777 0.091560 0.017933 0.048682
# 5 0.002548 -0.000288 -0.000578 0.017933 0.022588 0.005200
# 6 0.011173 0.025970 0.013015 0.048682 0.005200 0.081977
#
#
# Mechanical properties :
#
#
# Convention : Reuss Voigt Hill
#
# Bulk Modulus (GPa) = 18.75438 53.32817 36.04128
# Shear Modulus (GPa) = 19.06724 37.50957 28.28841
#
# Velocity S-wave (km/s) = 2.78832 3.91083 3.39627
# Velocity P-wave (km/s) = 4.24422 6.49134 5.48411
#
# Compressibility (1/GPa) = 0.05332087
#
# Stress axis : x y z
#
# Youngs Moduli (GPa) = 92.73983 35.07873 86.68369
#
# Poissons Ratio (x) = -0.01821 0.06283
# Poissons Ratio (y) = -0.04814 -0.12595
# Poissons Ratio (z) = 0.06722 -0.05097
#
# Static dielectric constant tensor:
#      x y z
#    x 4.867680 -0.258810 0.141940 
#    y -0.258810 3.760920 -0.209700 
#    z 0.141940 -0.209700 4.736870 
# 
# 
# High freq. dielectric constant tensor:
#      x y z
#    x 2.003560 -0.028240 0.000850 
#    y -0.028240 1.899030 -0.004390 
#    z 0.000850 -0.004390 2.002350 
# 
# From -- ./inp_files/67949.got.cif
#   From: 2010.06.25/outbox.cif.g09.slc.cpg/sg2_34_cif.got.tgz:67949.got - 2010.06.27 13:26:56.
