data_PCOD8009556
_publ_section_title
;
Structure prediction by ZEFSAII (Michael W. Deem and Ramdas Pophale) SiO2 
 PCOD8009556
Probable space group: P -1
;
_chemical_formula_sum "Si O2"
_cell_formula_units_Z 14
_cell_length_a 18.350009
_cell_length_b 18.040204
_cell_length_c 20.576230
_cell_angle_alpha 18.933835
_cell_angle_beta 19.407944
_cell_angle_gamma 29.019763
_cell_volume 724.467341
_symmetry_space_group_name_H-M "P -1"
_symmetry_group_IT_number 2
_symmetry_cell_setting 'triclinic'
loop_
_space_group_symop_operation_xyz
x,y,z
-x,-y,-z
loop_
_atom_site_type_symbol
_atom_site_label
_atom_site_fract_x
_atom_site_fract_y
_atom_site_fract_z
Si Si1 0.108079 0.811472 0.379939
Si Si2 0.341316 0.568751 0.239582
Si Si3 0.544240 0.940208 0.209402
Si Si4 0.153069 0.095654 0.350962
Si Si5 0.462856 0.505531 0.327861
Si Si6 0.138339 0.401585 0.356143
Si Si7 0.473006 0.241014 0.292323
O O1 0.291289 0.658387 0.376283
O O2 0.000676 0.900121 0.460087
O O3 0.916468 0.666030 0.616805
O O4 0.236026 0.021339 0.053167
O O5 0.372388 0.427886 0.396569
O O6 0.442176 0.440122 0.204237
O O7 0.083183 0.575143 0.437317
O O8 0.462745 0.834669 0.925623
O O9 0.535406 0.715525 0.446207
O O10 0.323962 0.916970 0.369341
O O11 0.288705 0.348047 0.008391
O O12 0.000000 0.000000 0.500000
O O13 0.267330 0.209153 0.441061
O O14 0.293898 0.652474 0.025316
O O15 0.500000 0.000000 0.500000
#
# Coordination Sequence:
#
# PCOD8009556 Si02
#       7
#     2   2   2   2   2   2   2
#     4   9  20  39  57  77 109 145 182 224 271 324
#     4   9  20  37  54  76 110 143 180 227 269 313
#     4   9  20  37  58  81 107 145 186 224 267 320
#     4  10  21  37  57  84 116 143 173 222 277 326
#     4   9  20  36  58  84 107 144 189 221 263 323
#     4   9  20  36  52  74 105 143 182 220 269 318
#     4  11  22  33  51  81 109 139 181 225 267 319
#
# _framework density 19.324542999999998
#
# number of rings (size 3 to 8) (size 9 to 14) (size 15 to 20)
#    0.000    3.143    0.000    2.143    0.000   12.571 
#    0.000    1.429    0.000    0.000    0.000    0.000 
#    0.000    0.000    0.000    0.000    0.000    0.000 
#
# Total GULP energy -173505.353470 kJ/mol
# GULP energy per Si atom -12393.239534 kJ/mol
# Density = 1.928056 g / cm^3
# Si number density = 19.324543 Si / 1000 Ang^3
#
#
#
# Elastic Constant Matrix: (Units=GPa)
#
#
# Indices 1 2 3 4 5 6 
#
# 1 101.4428 45.0368 57.8883 -8.6247 0.9193 -20.1990
# 2 45.0368 63.0203 46.9578 -1.8612 7.1135 -12.3935
# 3 57.8883 46.9578 97.4941 -2.7821 11.7223 -21.4761
# 4 -8.6247 -1.8612 -2.7821 27.0448 -16.5252 9.9878
# 5 0.9193 7.1135 11.7223 -16.5252 40.0314 -5.6764
# 6 -20.1990 -12.3935 -21.4761 9.9878 -5.6764 41.0216
#
#
#
# Elastic Compliance Matrix: (Units=1/GPa)
#
#
# Indices 1 2 3 4 5 6 
#
# 1 0.018590 -0.007940 -0.007384 0.008049 0.006733 0.001861
# 2 -0.007940 0.028249 -0.008376 -0.004151 -0.003999 0.000697
# 3 -0.007384 -0.008376 0.020402 -0.006627 -0.006307 0.005256
# 4 0.008049 -0.004151 -0.006627 0.057949 0.024793 -0.011439
# 5 0.006733 -0.003999 -0.006307 0.024793 0.037325 -0.002067
# 6 0.001861 0.000697 0.005256 -0.011439 -0.002067 0.030755
#
#
# Mechanical properties :
#
#
# Convention : Reuss Voigt Hill
#
# Bulk Modulus (GPa) = 50.39555 62.41367 56.40461
# Shear Modulus (GPa) = 20.21974 29.09118 24.65546
#
# Velocity S-wave (km/s) = 3.23820 3.88416 3.57580
# Velocity P-wave (km/s) = 6.33375 7.24454 6.80440
#
# Compressibility (1/GPa) = 0.01984302
#
# Stress axis : x y z
#
# Youngs Moduli (GPa) = 53.79168 35.39982 49.01393
#
# Poissons Ratio (x) = 0.28106 0.36191
# Poissons Ratio (y) = 0.42709 0.41052
# Poissons Ratio (z) = 0.39719 0.29650
#
# Static dielectric constant tensor:
#      x y z
#    x 3.537680 -0.163670 -0.071490 
#    y -0.163670 3.375240 0.276770 
#    z -0.071490 0.276770 3.523670 
# 
# 
# High freq. dielectric constant tensor:
#      x y z
#    x 1.754010 -0.012270 -0.000880 
#    y -0.012270 1.737150 0.026820 
#    z -0.000880 0.026820 1.749620 
# 
# From -- ./inp_files/600395.got.cif
#   From: 2010.06.25/outbox.cif.g09.slc.cpg/sg2_301_cif.got.tgz:600395.got - 2010.06.27 13:26:56.
