data_PCOD8009017
_publ_section_title
;
Structure prediction by ZEFSAII (Michael W. Deem and Ramdas Pophale) SiO2 
 PCOD8009017
Probable space group: P -1
;
_chemical_formula_sum "Si O2"
_cell_formula_units_Z 16
_cell_length_a 28.749478
_cell_length_b 14.486164
_cell_length_c 11.306880
_cell_angle_alpha 151.078995
_cell_angle_beta 30.871727
_cell_angle_gamma 159.933644
_cell_volume 762.567434
_symmetry_space_group_name_H-M "P -1"
_symmetry_group_IT_number 2
_symmetry_cell_setting 'triclinic'
loop_
_space_group_symop_operation_xyz
x,y,z
-x,-y,-z
loop_
_atom_site_type_symbol
_atom_site_label
_atom_site_fract_x
_atom_site_fract_y
_atom_site_fract_z
Si Si1 0.206880 0.899704 0.701223
Si Si2 0.983147 0.835707 0.087710
Si Si3 0.286385 0.003590 0.171530
Si Si4 0.607084 0.214151 0.406090
Si Si5 0.996245 0.305668 0.637483
Si Si6 0.101949 0.332974 0.665947
Si Si7 0.492381 0.400615 0.772021
Si Si8 0.153939 0.674972 0.328298
O O1 0.093381 0.582187 0.651665
O O2 0.250432 0.853824 0.434799
O O3 0.334563 0.147102 0.786167
O O4 0.137829 0.992024 0.915430
O O5 0.918884 0.626329 0.109450
O O6 0.875125 0.591768 0.947913
O O7 0.989371 0.074178 0.346745
O O8 0.413136 0.347342 0.250156
O O9 0.230661 0.923371 0.337833
O O10 0.158897 0.856362 0.198251
O O11 0.349729 0.899498 0.889936
O O12 0.743289 0.503670 0.504174
O O13 0.547035 0.272220 0.512208
O O14 0.500000 0.000000 0.500000
O O15 0.063268 0.428470 0.759705
O O16 0.000000 0.000000 0.500000
O O17 0.500000 0.500000 0.000000
O O18 0.000000 0.500000 0.500000
#
# Coordination Sequence:
#
# PCOD8009017 Si02
#       8
#     2   2   2   2   2   2   2   2
#     4  11  25  44  65  98 134 174 230 278 324 403
#     4  10  21  40  70  98 134 167 223 285 334 391
#     4  12  25  44  70  97 137 180 217 282 338 391
#     4  12  24  44  63  95 141 175 213 274 331 400
#     4  11  23  38  71 102 127 176 223 276 348 390
#     4  10  21  35  63  96 130 160 217 271 336 390
#     4  12  28  43  68 100 138 181 225 264 345 413
#     4  10  21  47  67  98 135 171 228 291 327 381
#
# _framework density 20.981750000000002
#
# number of rings (size 3 to 8) (size 9 to 14) (size 15 to 20)
#    0.000    1.000    5.000    2.250    5.250    3.000 
#    0.000    0.625    0.000    0.000    0.000    0.000 
#    0.000    0.000    0.000    0.000    0.000    0.000 
#
# Total GULP energy -198233.702296 kJ/mol
# GULP energy per Si atom -12389.606393 kJ/mol
# Density = 2.093399 g / cm^3
# Si number density = 20.981750 Si / 1000 Ang^3
#
#
#
# Elastic Constant Matrix: (Units=GPa)
#
#
# Indices 1 2 3 4 5 6 
#
# 1 85.3788 40.1008 47.4022 -2.5300 4.1846 9.3648
# 2 40.1008 137.1878 46.8914 -3.8742 3.5787 -2.8994
# 3 47.4022 46.8914 106.9278 -0.3166 -6.6217 -0.1552
# 4 -2.5300 -3.8742 -0.3166 30.1461 -1.8311 2.4848
# 5 4.1846 3.5787 -6.6217 -1.8311 45.1250 1.0594
# 6 9.3648 -2.8994 -0.1552 2.4848 1.0594 45.9221
#
#
#
# Elastic Compliance Matrix: (Units=1/GPa)
#
#
# Indices 1 2 3 4 5 6 
#
# 1 0.017203 -0.002779 -0.006546 0.001191 -0.002200 -0.003719
# 2 -0.002779 0.009135 -0.002825 0.000766 -0.000876 0.001113
# 3 -0.006546 -0.002825 0.013664 -0.000697 0.002780 0.001176
# 4 0.001191 0.000766 -0.000697 0.033600 0.001138 -0.002041
# 5 -0.002200 -0.000876 0.002780 0.001138 0.022893 -0.000187
# 6 -0.003719 0.001113 0.001176 -0.002041 -0.000187 0.022723
#
#
# Mechanical properties :
#
#
# Convention : Reuss Voigt Hill
#
# Bulk Modulus (GPa) = 63.67723 66.47591 65.07657
# Shear Modulus (GPa) = 33.61313 37.24531 35.42922
#
# Velocity S-wave (km/s) = 4.00686 4.21780 4.11368
# Velocity P-wave (km/s) = 7.19870 7.44790 7.32436
#
# Compressibility (1/GPa) = 0.01570420
#
# Stress axis : x y z
#
# Youngs Moduli (GPa) = 58.12973 109.46945 73.18301
#
# Poissons Ratio (x) = 0.30419 0.47904
# Poissons Ratio (y) = 0.16153 0.20671
# Poissons Ratio (z) = 0.38050 0.30920
#
# Static dielectric constant tensor:
#      x y z
#    x -0.759860 -2.215590 -0.023850 
#    y -2.215590 2.998090 -0.428580 
#    z -0.023850 -0.428580 4.462220 
# 
# 
# High freq. dielectric constant tensor:
#      x y z
#    x 1.812720 -0.006670 0.001010 
#    y -0.006670 1.830220 0.003320 
#    z 0.001010 0.003320 1.826270 
# 
# From -- ./inp_files/477684.got.cif
#   From: 2010.06.25/outbox.cif.g09.slc.cpg/sg2_239_cif.got.tgz:477684.got - 2010.06.27 13:26:56.
