data_PCOD8009757
_publ_section_title
;
Structure prediction by ZEFSAII (Michael W. Deem and Ramdas Pophale) SiO2 
 PCOD8009757
Probable space group: P -1
;
_chemical_formula_sum "Si O2"
_cell_formula_units_Z 16
_cell_length_a 13.704176
_cell_length_b 11.826159
_cell_length_c 11.340107
_cell_angle_alpha 92.209701
_cell_angle_beta 119.454263
_cell_angle_gamma 139.600042
_cell_volume 706.797597
_symmetry_space_group_name_H-M "P -1"
_symmetry_group_IT_number 2
_symmetry_cell_setting 'triclinic'
loop_
_space_group_symop_operation_xyz
x,y,z
-x,-y,-z
loop_
_atom_site_type_symbol
_atom_site_label
_atom_site_fract_x
_atom_site_fract_y
_atom_site_fract_z
Si Si1 0.831959 0.093916 0.436895
Si Si2 0.397528 0.036646 0.934863
Si Si3 0.768222 0.198401 0.588143
Si Si4 0.954888 0.592868 0.813099
Si Si5 0.619967 0.392578 0.274843
Si Si6 0.638161 0.007330 0.731114
Si Si7 0.462226 0.292864 0.549311
Si Si8 0.710955 0.752195 0.786157
O O1 0.909001 0.278597 0.560387
O O2 0.098623 0.297344 0.545924
O O3 0.619258 0.932101 0.206915
O O4 0.716657 0.901158 0.453854
O O5 0.571679 0.282301 0.120026
O O6 0.114101 0.790911 0.808844
O O7 0.500000 0.000000 0.000000
O O8 0.934621 0.442082 0.763711
O O9 0.728264 0.055822 0.652179
O O10 0.491083 0.987790 0.369915
O O11 0.681609 0.400113 0.658122
O O12 0.117198 0.757421 0.033999
O O13 0.426635 0.320273 0.182383
O O14 0.582569 0.270951 0.356887
O O15 0.595616 0.528645 0.676370
O O16 0.310061 0.178249 0.332377
O O17 0.000000 0.000000 0.000000
#
# Coordination Sequence:
#
# PCOD8009757 Si02
#       8
#     2   2   2   2   2   2   2   2
#     4  12  25  41  61  95 137 167 207 258 307 377
#     4  11  24  40  62  95 134 176 212 250 306 371
#     4  11  21  35  60  93 131 172 211 254 311 369
#     4  11  22  40  63  91 129 168 214 261 309 373
#     4  11  24  42  64  89 125 170 209 255 321 378
#     4  10  21  37  60  91 125 169 218 260 303 365
#     4  11  26  43  68  99 123 160 213 269 322 374
#     4  11  24  48  74  93 118 158 212 271 328 382
#
# _framework density 22.637315999999998
#
# number of rings (size 3 to 8) (size 9 to 14) (size 15 to 20)
#    0.000    1.000    0.000    8.625    0.000    6.000 
#    0.000    1.250    0.000    0.000    0.000    0.000 
#    0.000    0.000    0.000    0.000    0.000    0.000 
#
# Total GULP energy -198300.982644 kJ/mol
# GULP energy per Si atom -12393.811415 kJ/mol
# Density = 2.258579 g / cm^3
# Si number density = 22.637316 Si / 1000 Ang^3
#
#
#
# Elastic Constant Matrix: (Units=GPa)
#
#
# Indices 1 2 3 4 5 6 
#
# 1 91.0851 21.5092 36.6834 -11.0503 0.1594 6.7017
# 2 21.5092 120.0554 61.5272 -14.5683 8.6115 11.6748
# 3 36.6834 61.5272 127.1907 -8.7998 13.7916 15.6272
# 4 -11.0503 -14.5683 -8.7998 30.5646 7.6923 -3.4364
# 5 0.1594 8.6115 13.7916 7.6923 34.6115 -1.0031
# 6 6.7017 11.6748 15.6272 -3.4364 -1.0031 28.7053
#
#
#
# Elastic Compliance Matrix: (Units=1/GPa)
#
#
# Indices 1 2 3 4 5 6 
#
# 1 0.012830 -0.000128 -0.003380 0.003391 0.000546 -0.000678
# 2 -0.000128 0.011703 -0.004905 0.004441 -0.001990 -0.001597
# 3 -0.003380 -0.004905 0.012134 0.000455 -0.003813 -0.003901
# 4 0.003391 0.004441 0.000455 0.038845 -0.009893 0.001459
# 5 0.000546 -0.001990 -0.003813 -0.009893 0.033182 0.002733
# 6 -0.000678 -0.001597 -0.003901 0.001459 0.002733 0.038038
#
#
# Mechanical properties :
#
#
# Convention : Reuss Voigt Hill
#
# Bulk Modulus (GPa) = 50.39961 64.19675 57.29818
# Shear Modulus (GPa) = 29.38190 33.35038 31.36614
#
# Velocity S-wave (km/s) = 3.60660 3.84246 3.72640
# Velocity P-wave (km/s) = 6.29728 6.93587 6.62428
#
# Compressibility (1/GPa) = 0.01984143
#
# Stress axis : x y z
#
# Youngs Moduli (GPa) = 77.93930 85.44654 82.41411
#
# Poissons Ratio (x) = 0.01098 0.27853
# Poissons Ratio (y) = 0.01001 0.40424
# Poissons Ratio (z) = 0.26341 0.41911
#
# Static dielectric constant tensor:
#      x y z
#    x 4.230780 0.088340 -0.203570 
#    y 0.088340 4.335310 -0.087400 
#    z -0.203570 -0.087400 4.138820 
# 
# 
# High freq. dielectric constant tensor:
#      x y z
#    x 1.892830 0.011280 -0.015210 
#    y 0.011280 1.895720 0.002490 
#    z -0.015210 0.002490 1.905400 
# 
# From -- ./inp_files/452394.got.cif
#   From: 2010.06.25/outbox.cif.g09.slc.cpg/sg2_227_cif.got.tgz:452394.got - 2010.06.27 13:26:56.
