data_PCOD8009739
_publ_section_title
;
Structure prediction by ZEFSAII (Michael W. Deem and Ramdas Pophale) SiO2 
 PCOD8009739
Probable space group: P -1
;
_chemical_formula_sum "Si O2"
_cell_formula_units_Z 14
_cell_length_a 14.553783
_cell_length_b 13.755290
_cell_length_c 9.137031
_cell_angle_alpha 98.836141
_cell_angle_beta 58.844494
_cell_angle_gamma 149.338721
_cell_volume 594.190400
_symmetry_space_group_name_H-M "P -1"
_symmetry_group_IT_number 2
_symmetry_cell_setting 'triclinic'
loop_
_space_group_symop_operation_xyz
x,y,z
-x,-y,-z
loop_
_atom_site_type_symbol
_atom_site_label
_atom_site_fract_x
_atom_site_fract_y
_atom_site_fract_z
Si Si1 0.137854 0.908740 0.984506
Si Si2 0.295793 0.824563 0.764943
Si Si3 0.711404 0.940153 0.785574
Si Si4 0.304220 0.224789 0.751381
Si Si5 0.790302 0.181086 0.612222
Si Si6 0.503338 0.406368 0.311608
Si Si7 0.152967 0.591584 0.175100
O O1 0.258393 0.902573 0.874520
O O2 0.355135 0.163842 0.776191
O O3 0.825485 0.647162 0.118350
O O4 0.126510 0.936486 0.167782
O O5 0.997989 0.525955 0.888281
O O6 0.500000 0.000000 0.500000
O O7 0.454544 0.899441 0.782617
O O8 0.632251 0.765527 0.752254
O O9 0.891015 0.155984 0.569957
O O10 0.452304 0.794989 0.981856
O O11 0.326358 0.228025 0.559819
O O12 0.518660 0.494759 0.680192
O O13 0.000000 0.000000 0.000000
O O14 0.846739 0.301096 0.728886
O O15 0.961509 0.354401 0.369199
#
# Coordination Sequence:
#
# PCOD8009739 Si02
#       7
#     2   2   2   2   2   2   2
#     4  11  23  41  62  97 128 162 209 255 307 368
#     4  10  21  37  60  88 125 172 212 242 300 360
#     4  12  24  37  63  94 126 162 208 255 307 368
#     4   9  22  46  71  89 124 157 203 262 313 382
#     4  10  23  38  54  87 130 166 212 253 291 363
#     4  10  23  44  67  95 119 161 206 257 321 365
#     4  10  21  39  56  82 127 170 207 251 302 346
#
# _framework density 23.561471000000001
#
# number of rings (size 3 to 8) (size 9 to 14) (size 15 to 20)
#    0.000    1.714    2.857    0.429    4.000    3.429 
#    0.000    6.429    0.000    0.000    0.000    0.000 
#    0.000    0.000    0.000    0.000    0.000    0.000 
#
# Total GULP energy -173566.085914 kJ/mol
# GULP energy per Si atom -12397.577565 kJ/mol
# Density = 2.350784 g / cm^3
# Si number density = 23.561471 Si / 1000 Ang^3
#
#
#
# Elastic Constant Matrix: (Units=GPa)
#
#
# Indices 1 2 3 4 5 6 
#
# 1 63.2123 19.3831 -1.5179 3.1397 24.1808 -5.0777
# 2 19.3831 124.4896 4.1232 20.9871 20.1815 0.0242
# 3 -1.5179 4.1232 53.4978 3.8228 8.3569 -2.2276
# 4 3.1397 20.9871 3.8228 36.1783 -4.8341 1.4738
# 5 24.1808 20.1815 8.3569 -4.8341 28.4108 2.4174
# 6 -5.0777 0.0242 -2.2276 1.4738 2.4174 25.8740
#
#
#
# Elastic Compliance Matrix: (Units=1/GPa)
#
#
# Indices 1 2 3 4 5 6 
#
# 1 0.027479 0.001468 0.006043 -0.008029 -0.028342 0.009017
# 2 0.001468 0.010918 0.001587 -0.008179 -0.011025 0.001910
# 3 0.006043 0.001587 0.021534 -0.005779 -0.013985 0.004674
# 4 -0.008029 -0.008179 -0.005779 0.036765 0.021121 -0.006133
# 5 -0.028342 -0.011025 -0.013985 0.021121 0.076142 -0.015073
# 6 0.009017 0.001910 0.004674 -0.006133 -0.015073 0.042577
#
#
# Mechanical properties :
#
#
# Convention : Reuss Voigt Hill
#
# Bulk Modulus (GPa) = 12.79995 31.68629 22.24312
# Shear Modulus (GPa) = 22.39523 32.70671 27.55097
#
# Velocity S-wave (km/s) = 3.08637 3.72982 3.42325
# Velocity P-wave (km/s) = 4.25972 5.65918 5.00857
#
# Compressibility (1/GPa) = 0.07812531
#
# Stress axis : x y z
#
# Youngs Moduli (GPa) = 36.39080 91.59466 46.43861
#
# Poissons Ratio (x) = -0.13443 -0.28063
# Poissons Ratio (y) = -0.05341 -0.07368
# Poissons Ratio (z) = -0.21991 -0.14532
#
# Static dielectric constant tensor:
#      x y z
#    x 4.623590 -0.305950 0.437560 
#    y -0.305950 4.576520 -0.188700 
#    z 0.437560 -0.188700 4.486200 
# 
# 
# High freq. dielectric constant tensor:
#      x y z
#    x 1.929580 -0.009570 0.024380 
#    y -0.009570 1.938920 -0.004190 
#    z 0.024380 -0.004190 1.944190 
# 
# From -- ./inp_files/313498.got.cif
#   From: 2010.06.25/outbox.cif.g09.slc.cpg/sg2_157_cif.got.tgz:313498.got - 2010.06.27 13:26:56.
