data_PCOD8009664
_publ_section_title
;
Structure prediction by ZEFSAII (Michael W. Deem and Ramdas Pophale) SiO2 
 PCOD8009664
Probable space group: P -1
;
_chemical_formula_sum "Si O2"
_cell_formula_units_Z 12
_cell_length_a 21.405841
_cell_length_b 5.172492
_cell_length_c 5.130362
_cell_angle_alpha 122.712255
_cell_angle_beta 80.700589
_cell_angle_gamma 89.437250
_cell_volume 468.426496
_symmetry_space_group_name_H-M "P -1"
_symmetry_group_IT_number 2
_symmetry_cell_setting 'triclinic'
loop_
_space_group_symop_operation_xyz
x,y,z
-x,-y,-z
loop_
_atom_site_type_symbol
_atom_site_label
_atom_site_fract_x
_atom_site_fract_y
_atom_site_fract_z
Si Si1 0.880555 0.331805 0.038497
Si Si2 0.426756 0.600290 0.183076
Si Si3 0.687180 0.719108 0.815124
Si Si4 0.266343 0.640187 0.905585
Si Si5 0.452955 0.798934 0.779671
Si Si6 0.927840 0.636601 0.664339
O O1 0.808981 0.267036 0.998809
O O2 0.904797 0.544757 0.913459
O O3 0.924594 0.006092 0.847267
O O4 0.883208 0.510828 0.406768
O O5 0.390651 0.302523 0.132572
O O6 0.419143 0.873788 0.559366
O O7 0.500000 0.500000 0.000000
O O8 0.398062 0.735129 0.997485
O O9 0.716684 0.471826 0.873677
O O10 0.702229 0.060869 0.051136
O O11 0.712677 0.629567 0.461902
O O12 0.500000 0.500000 0.500000
O O13 0.500000 0.000000 0.000000
O O14 0.000000 0.500000 0.500000
#
# Coordination Sequence:
#
# PCOD8009664 Si02
#       6
#     2   2   2   2   2   2
#     4  12  24  44  71 100 145 192 232 285 343 406
#     4  10  23  42  66  96 130 172 217 285 363 420
#     4  12  27  46  71 102 138 178 240 297 342 422
#     4  12  26  47  70 102 138 189 239 285 342 406
#     4  10  21  37  59  86 120 159 204 254 329 422
#     4  12  25  44  72 110 145 184 232 286 343 406
#
# _framework density 25.617681000000001
#
# number of rings (size 3 to 8) (size 9 to 14) (size 15 to 20)
#    0.000    0.667    0.000    8.000    0.000    8.000 
#    0.000    0.000    0.000    0.000    0.000    0.000 
#    0.000    0.000    0.000    0.000    0.000    0.000 
#
# Total GULP energy -148743.416630 kJ/mol
# GULP energy per Si atom -12395.284719 kJ/mol
# Density = 2.555937 g / cm^3
# Si number density = 25.617681 Si / 1000 Ang^3
#
#
#
# Elastic Constant Matrix: (Units=GPa)
#
#
# Indices 1 2 3 4 5 6 
#
# 1 100.9312 20.0892 0.2584 -12.8316 -3.0476 15.2085
# 2 20.0892 129.2713 37.8857 -17.1642 20.5357 -3.2109
# 3 0.2584 37.8857 138.6454 -20.7947 27.7300 -9.2764
# 4 -12.8316 -17.1642 -20.7947 55.6292 -1.1147 4.3950
# 5 -3.0476 20.5357 27.7300 -1.1147 42.0269 -4.2482
# 6 15.2085 -3.2109 -9.2764 4.3950 -4.2482 33.0754
#
#
#
# Elastic Compliance Matrix: (Units=1/GPa)
#
#
# Indices 1 2 3 4 5 6 
#
# 1 0.011482 -0.001820 0.000294 0.002659 0.001033 -0.005594
# 2 -0.001820 0.009276 -0.001515 0.001755 -0.003555 0.000623
# 3 0.000294 -0.001515 0.009147 0.002819 -0.005072 0.001257
# 4 0.002659 0.001755 0.002819 0.020397 -0.002314 -0.003269
# 5 0.001033 -0.003555 -0.005072 -0.002314 0.029073 0.001799
# 6 -0.005594 0.000623 0.001257 -0.003269 0.001799 0.033885
#
#
# Mechanical properties :
#
#
# Convention : Reuss Voigt Hill
#
# Bulk Modulus (GPa) = 41.97902 53.92383 47.95143
# Shear Modulus (GPa) = 39.28222 46.85396 43.06809
#
# Velocity S-wave (km/s) = 3.92012 4.28129 4.10468
# Velocity P-wave (km/s) = 6.07553 6.74792 6.42053
#
# Compressibility (1/GPa) = 0.02382142
#
# Stress axis : x y z
#
# Youngs Moduli (GPa) = 87.09618 107.80555 109.31954
#
# Poissons Ratio (x) = 0.19625 -0.03213
# Poissons Ratio (y) = 0.15855 0.16566
# Poissons Ratio (z) = -0.02560 0.16336
#
# Static dielectric constant tensor:
#      x y z
#    x 2.145390 7.269470 -2.147200 
#    y 7.269470 -13.736900 5.674030 
#    z -2.147200 5.674030 2.827600 
# 
# 
# High freq. dielectric constant tensor:
#      x y z
#    x 2.032540 -0.007910 0.008360 
#    y -0.007910 2.044930 -0.011510 
#    z 0.008360 -0.011510 2.048930 
# 
# From -- ./inp_files/114360.got.cif
#   From: 2010.06.25/outbox.cif.g09.slc.cpg/sg2_58_cif.got.tgz:114360.got - 2010.06.27 13:26:56.
