data_PCOD8009480
_publ_section_title
;
Structure prediction by ZEFSAII (Michael W. Deem and Ramdas Pophale) SiO2 
 PCOD8009480
Probable space group: P -1
;
_chemical_formula_sum "Si O2"
_cell_formula_units_Z 16
_cell_length_a 11.720961
_cell_length_b 13.951438
_cell_length_c 8.547363
_cell_angle_alpha 40.913117
_cell_angle_beta 58.794010
_cell_angle_gamma 62.940089
_cell_volume 777.900795
_symmetry_space_group_name_H-M "P -1"
_symmetry_group_IT_number 2
_symmetry_cell_setting 'triclinic'
loop_
_space_group_symop_operation_xyz
x,y,z
-x,-y,-z
loop_
_atom_site_type_symbol
_atom_site_label
_atom_site_fract_x
_atom_site_fract_y
_atom_site_fract_z
Si Si1 0.481196 0.473058 0.799382
Si Si2 0.877764 0.170876 0.998461
Si Si3 0.212710 0.873707 0.220967
Si Si4 0.227115 0.173632 0.012549
Si Si5 0.714814 0.452558 0.899433
Si Si6 0.101351 0.354060 0.616061
Si Si7 0.504191 0.726957 0.240294
Si Si8 0.950168 0.912064 0.500867
O O1 0.590539 0.429418 0.906439
O O2 0.534928 0.592789 0.502090
O O3 0.465952 0.326741 0.891438
O O4 0.337966 0.533984 0.901858
O O5 0.787803 0.144719 0.943483
O O6 0.817304 0.305035 0.987578
O O7 0.024316 0.215509 0.784320
O O8 0.888409 0.021058 0.274034
O O9 0.351040 0.795769 0.287438
O O10 0.080010 0.807935 0.467460
O O11 0.196772 0.042711 0.079430
O O12 0.161841 0.321499 0.787868
O O13 0.388159 0.161070 0.933276
O O14 0.163160 0.176384 0.230060
O O15 0.776523 0.606462 0.629803
O O16 0.000000 0.500000 0.500000
O O17 0.000000 0.000000 0.500000
#
# Coordination Sequence:
#
# PCOD8009480 Si02
#       8
#     2   2   2   2   2   2   2   2
#     4  10  22  39  65  86 123 169 203 257 313 370
#     4  11  21  41  65  92 126 160 210 253 314 377
#     4  11  23  39  63  93 123 174 202 253 314 372
#     4  11  23  42  61  95 128 165 208 259 308 367
#     4  10  21  40  63  93 118 162 208 259 312 365
#     4  10  21  36  66  89 122 157 205 260 309 358
#     4  11  23  42  62  91 131 162 212 258 312 372
#     4  10  22  38  62  90 125 164 205 249 307 373
#
# _framework density 20.568175
#
# number of rings (size 3 to 8) (size 9 to 14) (size 15 to 20)
#    0.000    1.500    5.000    0.750    3.500    1.000 
#    0.000    0.625    0.000    5.250    0.000    0.000 
#    0.000    0.000    0.000    0.000    0.000    0.000 
#
# Total GULP energy -198254.438531 kJ/mol
# GULP energy per Si atom -12390.902408 kJ/mol
# Density = 2.052136 g / cm^3
# Si number density = 20.568175 Si / 1000 Ang^3
#
#
#
# Elastic Constant Matrix: (Units=GPa)
#
#
# Indices 1 2 3 4 5 6 
#
# 1 87.7879 20.7371 33.0183 3.1133 -2.7296 -12.6999
# 2 20.7371 91.6589 25.9470 14.9576 -1.8568 -13.6691
# 3 33.0183 25.9470 84.0123 10.1882 -8.3164 -5.5104
# 4 3.1133 14.9576 10.1882 24.9483 -6.4249 1.7582
# 5 -2.7296 -1.8568 -8.3164 -6.4249 30.4701 0.5083
# 6 -12.6999 -13.6691 -5.5104 1.7582 0.5083 30.2650
#
#
#
# Elastic Compliance Matrix: (Units=1/GPa)
#
#
# Indices 1 2 3 4 5 6 
#
# 1 0.014177 -0.001246 -0.004987 0.000676 -0.000099 0.004441
# 2 -0.001246 0.014107 -0.002680 -0.008081 -0.001785 0.005860
# 3 -0.004987 -0.002680 0.015350 -0.003268 0.002897 -0.000367
# 4 0.000676 -0.008081 -0.003268 0.049019 0.009129 -0.006962
# 5 -0.000099 -0.001785 0.002897 0.009129 0.035441 -0.001446
# 6 0.004441 0.005860 -0.000367 -0.006962 -0.001446 0.037913
#
#
# Mechanical properties :
#
#
# Convention : Reuss Voigt Hill
#
# Bulk Modulus (GPa) = 38.74831 46.98488 42.86659
# Shear Modulus (GPa) = 25.98290 29.38714 27.68502
#
# Velocity S-wave (km/s) = 3.55809 3.78400 3.67278
# Velocity P-wave (km/s) = 5.97995 6.47956 6.23476
#
# Compressibility (1/GPa) = 0.02580758
#
# Stress axis : x y z
#
# Youngs Moduli (GPa) = 70.53926 70.88778 65.14795
#
# Poissons Ratio (x) = 0.08830 0.32492
# Poissons Ratio (y) = 0.08786 0.17458
# Poissons Ratio (z) = 0.35181 0.18996
#
# Static dielectric constant tensor:
#      x y z
#    x 3.824090 -0.159240 -0.213160 
#    y -0.159240 3.812540 0.442290 
#    z -0.213160 0.442290 4.349420 
# 
# 
# High freq. dielectric constant tensor:
#      x y z
#    x 1.813130 -0.011580 0.001580 
#    y -0.011580 1.788200 0.012860 
#    z 0.001580 0.012860 1.797310 
# 
# From -- ./inp_files/261514.got.cif
#   From: 2010.06.25/outbox.cif.g09.slc.cpg/sg2_131_cif.got.tgz:261514.got - 2010.06.27 13:26:56.
