data_PCOD8009522
_publ_section_title
;
Structure prediction by ZEFSAII (Michael W. Deem and Ramdas Pophale) SiO2 
 PCOD8009522
Probable space group: P -1
;
_chemical_formula_sum "Si O2"
_cell_formula_units_Z 16
_cell_length_a 8.050337
_cell_length_b 6.201641
_cell_length_c 24.478210
_cell_angle_alpha 101.497762
_cell_angle_beta 47.684237
_cell_angle_gamma 121.733324
_cell_volume 744.937063
_symmetry_space_group_name_H-M "P -1"
_symmetry_group_IT_number 2
_symmetry_cell_setting 'triclinic'
loop_
_space_group_symop_operation_xyz
x,y,z
-x,-y,-z
loop_
_atom_site_type_symbol
_atom_site_label
_atom_site_fract_x
_atom_site_fract_y
_atom_site_fract_z
Si Si1 0.338872 0.471564 0.780734
Si Si2 0.424286 0.684660 0.554899
Si Si3 0.499437 0.605005 0.920326
Si Si4 0.669266 0.853208 0.141443
Si Si5 0.257526 0.734538 0.484754
Si Si6 0.302049 0.031971 0.204108
Si Si7 0.891606 0.570937 0.908084
Si Si8 0.301890 0.351312 0.663093
O O1 0.322354 0.226225 0.801789
O O2 0.570972 0.734512 0.769490
O O3 0.428822 0.491452 0.699436
O O4 0.052140 0.441977 0.846161
O O5 0.500000 0.500000 0.500000
O O6 0.226103 0.698709 0.556038
O O7 0.283807 0.552974 0.636886
O O8 0.684261 0.976264 0.525372
O O9 0.310502 0.346074 0.912846
O O10 0.611020 0.862408 0.871678
O O11 0.745712 0.597564 0.889630
O O12 0.322422 0.616640 0.008349
O O13 0.393218 0.833318 0.188400
O O14 0.914270 0.147967 0.092466
O O15 0.519042 0.743573 0.407476
O O16 0.000000 0.500000 0.500000
O O17 0.988542 0.897050 0.272897
#
# Coordination Sequence:
#
# PCOD8009522 Si02
#       8
#     2   2   2   2   2   2   2   2
#     4  10  23  38  57  88 121 159 207 252 307 366
#     4   9  22  42  64  92 124 158 198 245 299 368
#     4  10  21  37  58  82 116 158 206 259 308 360
#     4  10  21  37  56  79 114 157 209 258 307 360
#     4  10  23  42  67  96 124 159 202 248 303 371
#     4  10  23  39  57  86 121 160 206 252 308 367
#     4  10  21  37  57  83 115 157 208 259 307 362
#     4  11  23  39  62  89 124 159 196 249 306 369
#
# _framework density 21.478325000000002
#
# number of rings (size 3 to 8) (size 9 to 14) (size 15 to 20)
#    0.000    2.000    0.000    1.875    0.000   17.500 
#    0.000    3.125    0.000    0.000    0.000    0.000 
#    0.000    0.000    0.000    0.000    0.000    0.000 
#
# Total GULP energy -198389.259732 kJ/mol
# GULP energy per Si atom -12399.328733 kJ/mol
# Density = 2.142944 g / cm^3
# Si number density = 21.478325 Si / 1000 Ang^3
#
#
#
# Elastic Constant Matrix: (Units=GPa)
#
#
# Indices 1 2 3 4 5 6 
#
# 1 107.8993 32.3070 42.4235 -8.0191 25.6226 -5.3896
# 2 32.3070 96.0265 35.3389 -12.0621 6.3635 -4.9335
# 3 42.4235 35.3389 85.2659 -8.3963 23.4798 -8.5330
# 4 -8.0191 -12.0621 -8.3963 26.5390 2.1246 0.1773
# 5 25.6226 6.3635 23.4798 2.1246 38.1126 -5.0566
# 6 -5.3896 -4.9335 -8.5330 0.1773 -5.0566 40.9196
#
#
#
# Elastic Compliance Matrix: (Units=1/GPa)
#
#
# Indices 1 2 3 4 5 6 
#
# 1 0.013040 -0.002386 -0.003548 0.002240 -0.006321 -0.000101
# 2 -0.002386 0.013205 -0.004406 0.003724 0.001985 0.000588
# 3 -0.003548 -0.004406 0.017993 0.003239 -0.007911 0.001762
# 4 0.002240 0.003724 0.003239 0.041582 -0.006381 0.000451
# 5 -0.006321 0.001985 -0.007911 -0.006381 0.035676 0.002193
# 6 -0.000101 0.000588 0.001762 0.000451 0.002193 0.025132
#
#
# Mechanical properties :
#
#
# Convention : Reuss Voigt Hill
#
# Bulk Modulus (GPa) = 42.45138 56.59228 49.52183
# Shear Modulus (GPa) = 28.54501 33.05572 30.80037
#
# Velocity S-wave (km/s) = 3.64952 3.92730 3.79096
# Velocity P-wave (km/s) = 6.12914 6.85351 6.50142
#
# Compressibility (1/GPa) = 0.02355636
#
# Stress axis : x y z
#
# Youngs Moduli (GPa) = 76.68888 75.73057 55.57648
#
# Poissons Ratio (x) = 0.18072 0.19717
# Poissons Ratio (y) = 0.18301 0.24489
# Poissons Ratio (z) = 0.27208 0.33370
#
# Static dielectric constant tensor:
#      x y z
#    x 4.220740 -0.118730 0.318000 
#    y -0.118730 3.898650 -0.107590 
#    z 0.318000 -0.107590 3.744750 
# 
# 
# High freq. dielectric constant tensor:
#      x y z
#    x 1.855580 0.003530 0.016230 
#    y 0.003530 1.846850 -0.004090 
#    z 0.016230 -0.004090 1.825490 
# 
# From -- ./inp_files/104528.got.cif
#   From: 2010.06.25/outbox.cif.g09.slc.cpg/sg2_53_cif.got.tgz:104528.got - 2010.06.27 13:26:56.
