data_PCOD8009269
_publ_section_title
;
Structure prediction by ZEFSAII (Michael W. Deem and Ramdas Pophale) SiO2 
 PCOD8009269
Probable space group: P -1
;
_chemical_formula_sum "Si O2"
_cell_formula_units_Z 14
_cell_length_a 5.424603
_cell_length_b 7.437841
_cell_length_c 17.367272
_cell_angle_alpha 63.404437
_cell_angle_beta 62.359229
_cell_angle_gamma 54.654326
_cell_volume 490.496740
_symmetry_space_group_name_H-M "P -1"
_symmetry_group_IT_number 2
_symmetry_cell_setting 'triclinic'
loop_
_space_group_symop_operation_xyz
x,y,z
-x,-y,-z
loop_
_atom_site_type_symbol
_atom_site_label
_atom_site_fract_x
_atom_site_fract_y
_atom_site_fract_z
Si Si1 0.361266 0.773189 0.113501
Si Si2 0.073909 0.606831 0.829362
Si Si3 0.422586 0.874230 0.924045
Si Si4 0.956188 0.478180 0.722054
Si Si5 0.955772 0.703025 0.525774
Si Si6 0.313586 0.925569 0.761066
Si Si7 0.510006 0.814061 0.429671
O O1 0.681717 0.533505 0.111895
O O2 0.125353 0.734026 0.214635
O O3 0.437546 0.963941 0.098260
O O4 0.243400 0.824530 0.030717
O O5 0.074537 0.850029 0.769821
O O6 0.731453 0.642774 0.897753
O O7 0.192793 0.463482 0.759399
O O8 0.210899 0.969621 0.859217
O O9 0.066765 0.505875 0.614529
O O10 0.659825 0.719865 0.739058
O O11 0.777182 0.656457 0.486471
O O12 0.274822 0.716412 0.456249
O O13 0.690572 0.939181 0.551880
O O14 0.316751 0.150309 0.679041
#
# Coordination Sequence:
#
# PCOD8009269 Si02
#       7
#     2   2   2   2   2   2   2
#     4  10  22  39  59  86 119 156 201 250 305 368
#     4  10  21  36  60  86 120 158 196 248 307 362
#     4  10  22  39  59  86 119 156 201 250 305 368
#     4   9  20  34  55  85 120 154 201 249 303 364
#     4   9  18  29  53  85 122 159 204 254 307 368
#     4   9  20  34  55  85 120 154 201 249 303 364
#     4   9  18  29  53  85 122 159 204 254 307 368
#
# _framework density 28.542493
#
# number of rings (size 3 to 8) (size 9 to 14) (size 15 to 20)
#    0.000    2.571    0.000    0.429   14.000    7.429 
#    0.000    2.857    0.000    1.714    0.000    0.000 
#    0.000    0.000    0.000    0.000    0.000    0.000 
#
# Total GULP energy -173603.238996 kJ/mol
# GULP energy per Si atom -12400.231357 kJ/mol
# Density = 2.847753 g / cm^3
# Si number density = 28.542493 Si / 1000 Ang^3
#
#
#
# Elastic Constant Matrix: (Units=GPa)
#
#
# Indices 1 2 3 4 5 6 
#
# 1 105.9105 30.5239 74.1265 4.8410 3.6777 25.6935
# 2 30.5239 101.6841 77.3807 -8.5169 8.8131 7.9858
# 3 74.1265 77.3807 236.3212 15.2026 -9.0080 10.6392
# 4 4.8410 -8.5169 15.2026 47.0817 -9.2747 10.1215
# 5 3.6777 8.8131 -9.0080 -9.2747 51.0626 4.6760
# 6 25.6935 7.9858 10.6392 10.1215 4.6760 58.7222
#
#
#
# Elastic Compliance Matrix: (Units=1/GPa)
#
#
# Indices 1 2 3 4 5 6 
#
# 1 0.013626 -0.000532 -0.003948 0.000706 -0.000980 -0.005218
# 2 -0.000532 0.014302 -0.004806 0.004003 -0.002428 -0.001338
# 3 -0.003948 -0.004806 0.007224 -0.002752 0.001760 0.001406
# 4 0.000706 0.004003 -0.002752 0.024554 0.003679 -0.004880
# 5 -0.000980 -0.002428 0.001760 0.003679 0.021225 -0.001884
# 6 -0.005218 -0.001338 0.001406 -0.004880 -0.001884 0.020231
#
#
# Mechanical properties :
#
#
# Convention : Reuss Voigt Hill
#
# Bulk Modulus (GPa) = 60.31146 89.77532 75.04339
# Shear Modulus (GPa) = 39.91690 48.83229 44.37459
#
# Velocity S-wave (km/s) = 3.74372 4.14074 3.94723
# Velocity P-wave (km/s) = 6.31376 7.37445 6.86462
#
# Compressibility (1/GPa) = 0.01658060
#
# Stress axis : x y z
#
# Youngs Moduli (GPa) = 73.38994 69.91854 138.42339
#
# Poissons Ratio (x) = 0.03722 0.54643
# Poissons Ratio (y) = 0.03907 0.66526
# Poissons Ratio (z) = 0.28971 0.33603
#
# Static dielectric constant tensor:
#      x y z
#    x 5.165280 -0.291490 0.170410 
#    y -0.291490 5.987850 0.020750 
#    z 0.170410 0.020750 5.658600 
# 
# 
# High freq. dielectric constant tensor:
#      x y z
#    x 2.154820 -0.033190 0.002200 
#    y -0.033190 2.236110 0.007230 
#    z 0.002200 0.007230 2.168170 
# 
# From -- ./inp_files/44130.got.cif
#   From: 2010.06.25/outbox.cif.g09.slc.cpg/sg2_23_cif.got.tgz:44130.got - 2010.06.27 13:26:56.
