data_PCOD8009975
_publ_section_title
;
Structure prediction by ZEFSAII (Michael W. Deem and Ramdas Pophale) SiO2 
 PCOD8009975
Probable space group: P -1
;
_chemical_formula_sum "Si O2"
_cell_formula_units_Z 16
_cell_length_a 21.267340
_cell_length_b 8.489932
_cell_length_c 13.994175
_cell_angle_alpha 39.084124
_cell_angle_beta 150.390059
_cell_angle_gamma 139.530795
_cell_volume 756.583483
_symmetry_space_group_name_H-M "P -1"
_symmetry_group_IT_number 2
_symmetry_cell_setting 'triclinic'
loop_
_space_group_symop_operation_xyz
x,y,z
-x,-y,-z
loop_
_atom_site_type_symbol
_atom_site_label
_atom_site_fract_x
_atom_site_fract_y
_atom_site_fract_z
Si Si1 0.642884 0.355615 0.574068
Si Si2 0.831300 0.297141 0.009356
Si Si3 0.310880 0.236524 0.829235
Si Si4 0.921763 0.850491 0.556320
Si Si5 0.596063 0.269012 0.171095
Si Si6 0.231158 0.045775 0.529171
Si Si7 0.384678 0.989279 0.481876
Si Si8 0.857367 0.864366 0.834460
O O1 0.673314 0.665486 0.465130
O O2 0.629884 0.237563 0.507222
O O3 0.504565 0.242977 0.498773
O O4 0.762118 0.279484 0.823133
O O5 0.986677 0.306052 0.196870
O O6 0.756937 0.055063 0.089744
O O7 0.827687 0.554850 0.939230
O O8 0.215197 0.332106 0.582906
O O9 0.332585 0.426322 0.860196
O O10 0.447189 0.245196 0.949764
O O11 0.877465 0.030099 0.493371
O O12 0.000000 0.000000 0.500000
O O13 0.582539 0.113968 0.325008
O O14 0.678224 0.154824 0.255706
O O15 0.152399 0.020422 0.337773
O O16 0.250436 0.074692 0.266358
O O17 0.000000 0.000000 0.000000
#
# Coordination Sequence:
#
# PCOD8009975 Si02
#       8
#     2   2   2   2   2   2   2   2
#     4  10  21  37  63  93 121 159 199 253 322 364
#     4  10  22  39  61  86 126 161 205 249 307 372
#     4  10  21  40  62  85 119 170 205 249 309 351
#     4  10  23  42  61  84 120 170 208 250 302 367
#     4  10  21  38  65  88 123 157 207 262 297 366
#     4  10  23  38  64  91 120 159 207 261 305 372
#     4  10  21  38  61  92 126 156 199 258 308 371
#     4  10  24  37  62  96 124 161 198 255 312 369
#
# _framework density 21.1477
#
# number of rings (size 3 to 8) (size 9 to 14) (size 15 to 20)
#    0.000    2.000    1.250    0.750    8.750    3.000 
#    0.000    5.000    0.000    0.000    0.000    0.000 
#    0.000    0.000    0.000    0.000    0.000    0.000 
#
# Total GULP energy -198352.135660 kJ/mol
# GULP energy per Si atom -12397.008479 kJ/mol
# Density = 2.109957 g / cm^3
# Si number density = 21.147700 Si / 1000 Ang^3
#
#
#
# Elastic Constant Matrix: (Units=GPa)
#
#
# Indices 1 2 3 4 5 6 
#
# 1 116.8661 30.3886 35.0362 3.8372 27.5844 0.3278
# 2 30.3886 92.0799 38.8481 8.3155 15.0373 -2.3473
# 3 35.0362 38.8481 125.7307 25.6442 38.4461 -0.2464
# 4 3.8372 8.3155 25.6442 38.2628 -3.8316 2.0520
# 5 27.5844 15.0373 38.4461 -3.8316 33.3749 -2.0893
# 6 0.3278 -2.3473 -0.2464 2.0520 -2.0893 24.5694
#
#
#
# Elastic Compliance Matrix: (Units=1/GPa)
#
#
# Indices 1 2 3 4 5 6 
#
# 1 0.011236 -0.002380 0.001023 -0.002213 -0.009710 -0.001008
# 2 -0.002380 0.013118 -0.003199 -0.000561 -0.000243 0.001279
# 3 0.001023 -0.003199 0.018179 -0.013746 -0.021977 -0.000858
# 4 -0.002213 -0.000561 -0.013746 0.037991 0.022188 -0.001448
# 5 -0.009710 -0.000243 -0.021977 0.022188 0.066191 0.003661
# 6 -0.001008 0.001279 -0.000858 -0.001448 0.003661 0.041260
#
#
# Mechanical properties :
#
#
# Convention : Reuss Voigt Hill
#
# Bulk Modulus (GPa) = 29.92041 60.35806 45.13923
# Shear Modulus (GPa) = 24.01218 34.60168 29.30693
#
# Velocity S-wave (km/s) = 3.37330 4.04937 3.72670
# Velocity P-wave (km/s) = 5.41768 7.10397 6.31734
#
# Compressibility (1/GPa) = 0.03342201
#
# Stress axis : x y z
#
# Youngs Moduli (GPa) = 88.99645 76.23071 55.00868
#
# Poissons Ratio (x) = 0.18142 -0.05626
# Poissons Ratio (y) = 0.21180 0.17595
# Poissons Ratio (z) = -0.09103 0.24383
#
# Static dielectric constant tensor:
#      x y z
#    x 3.799320 -0.065250 0.177580 
#    y -0.065250 3.832110 0.242480 
#    z 0.177580 0.242480 4.400100 
# 
# 
# High freq. dielectric constant tensor:
#      x y z
#    x 1.819100 -0.003550 0.008210 
#    y -0.003550 1.824950 0.013560 
#    z 0.008210 0.013560 1.843910 
# 
# From -- ./inp_files/331658.got.cif
#   From: 2010.06.25/outbox.cif.g09.slc.cpg/sg2_166_cif.got.tgz:331658.got - 2010.06.27 13:26:56.
