data_PCOD8009030
_publ_section_title
;
Structure prediction by ZEFSAII (Michael W. Deem and Ramdas Pophale) SiO2 
 PCOD8009030
Probable space group: P -1
;
_chemical_formula_sum "Si O2"
_cell_formula_units_Z 14
_cell_length_a 10.050832
_cell_length_b 4.951208
_cell_length_c 13.387783
_cell_angle_alpha 104.368736
_cell_angle_beta 103.480261
_cell_angle_gamma 75.168875
_cell_volume 613.568745
_symmetry_space_group_name_H-M "P -1"
_symmetry_group_IT_number 2
_symmetry_cell_setting 'triclinic'
loop_
_space_group_symop_operation_xyz
x,y,z
-x,-y,-z
loop_
_atom_site_type_symbol
_atom_site_label
_atom_site_fract_x
_atom_site_fract_y
_atom_site_fract_z
Si Si1 0.040942 0.814575 0.202331
Si Si2 0.336578 0.050044 0.673302
Si Si3 0.250046 0.231374 0.880099
Si Si4 0.048335 0.403073 0.344043
Si Si5 0.468056 0.124990 0.141349
Si Si6 0.782232 0.495325 0.439821
Si Si7 0.710285 0.323629 0.920977
O O1 0.050510 0.537452 0.247494
O O2 0.156504 0.752862 0.132395
O O3 0.889712 0.881466 0.125431
O O4 0.060774 0.068137 0.300818
O O5 0.253310 0.811925 0.603975
O O6 0.248640 0.258827 0.761817
O O7 0.486502 0.903543 0.735423
O O8 0.347197 0.254246 0.599021
O O9 0.395371 0.009298 0.915998
O O10 0.247498 0.536640 0.957296
O O11 0.183605 0.451164 0.434319
O O12 0.911463 0.533277 0.396202
O O13 0.341168 0.963525 0.087220
O O14 0.416155 0.456169 0.135681
#
# Coordination Sequence:
#
# PCOD8009030 Si02
#       7
#     2   2   2   2   2   2   2
#     4  12  24  40  60  93 129 156 196 248 311 357
#     4  10  21  35  65  90 118 146 206 256 292 339
#     4  10  23  40  65  91 121 160 209 246 289 357
#     4  11  21  37  61  88 125 156 197 250 308 356
#     4  10  23  40  64  86 124 160 211 241 289 354
#     4  11  19  37  62  94 115 153 204 259 296 344
#     4  12  24  41  60  91 127 165 193 247 304 359
#
# _framework density 22.817329000000001
#
# number of rings (size 3 to 8) (size 9 to 14) (size 15 to 20)
#    0.857    0.286    2.857    3.857    0.000    5.714 
#    0.000    2.857    0.000   17.143    0.000    0.000 
#    0.000    0.000    0.000    0.000    0.000    0.000 
#
# Total GULP energy -173566.611464 kJ/mol
# GULP energy per Si atom -12397.615105 kJ/mol
# Density = 2.276540 g / cm^3
# Si number density = 22.817329 Si / 1000 Ang^3
#
#
#
# Elastic Constant Matrix: (Units=GPa)
#
#
# Indices 1 2 3 4 5 6 
#
# 1 97.6372 5.2690 31.1763 0.7451 4.5193 -7.6883
# 2 5.2690 63.7669 11.2076 -2.1186 2.8304 9.8972
# 3 31.1763 11.2076 101.0659 11.8765 37.7966 0.2102
# 4 0.7451 -2.1186 11.8765 20.7642 8.2824 1.6715
# 5 4.5193 2.8304 37.7966 8.2824 26.1225 2.8258
# 6 -7.6883 9.8972 0.2102 1.6715 2.8258 20.1576
#
#
#
# Elastic Compliance Matrix: (Units=1/GPa)
#
#
# Indices 1 2 3 4 5 6 
#
# 1 0.012264 -0.000895 -0.006017 0.000096 0.006185 0.004305
# 2 -0.000895 0.017790 -0.003055 0.003320 0.002644 -0.009690
# 3 -0.006017 -0.003055 0.025561 -0.000757 -0.035808 0.004021
# 4 0.000096 0.003320 -0.000757 0.055850 -0.016568 -0.003894
# 5 0.006185 0.002644 -0.035808 -0.016568 0.095127 -0.010527
# 6 0.004305 -0.009690 0.004021 -0.003894 -0.010527 0.057766
#
#
# Mechanical properties :
#
#
# Convention : Reuss Voigt Hill
#
# Bulk Modulus (GPa) = 28.02722 39.75286 33.89004
# Shear Modulus (GPa) = 16.88127 27.73000 22.30564
#
# Velocity S-wave (km/s) = 2.72296 3.48990 3.13001
# Velocity P-wave (km/s) = 4.71126 5.80511 5.28655
#
# Compressibility (1/GPa) = 0.03567961
#
# Stress axis : x y z
#
# Youngs Moduli (GPa) = 81.54223 56.21107 39.12138
#
# Poissons Ratio (x) = 0.05032 0.23540
# Poissons Ratio (y) = 0.07300 0.11953
# Poissons Ratio (z) = 0.49066 0.17174
#
# Static dielectric constant tensor:
#      x y z
#    x 3.831460 -0.100000 0.278040 
#    y -0.100000 3.872880 -0.095770 
#    z 0.278040 -0.095770 4.138210 
# 
# 
# High freq. dielectric constant tensor:
#      x y z
#    x 1.872910 0.003370 0.026780 
#    y 0.003370 1.898540 -0.007320 
#    z 0.026780 -0.007320 1.909940 
# 
# From -- ./inp_files/84864.got.cif
#   From: 2010.06.25/outbox.cif.g09.slc.cpg/sg2_43_cif.got.tgz:84864.got - 2010.06.27 13:26:56.
