data_PCOD8009617
_publ_section_title
;
Structure prediction by ZEFSAII (Michael W. Deem and Ramdas Pophale) SiO2 
 PCOD8009617
Probable space group: P -1
;
_chemical_formula_sum "Si O2"
_cell_formula_units_Z 14
_cell_length_a 8.077644
_cell_length_b 6.070495
_cell_length_c 20.453623
_cell_angle_alpha 100.769336
_cell_angle_beta 127.031373
_cell_angle_gamma 57.641917
_cell_volume 662.544537
_symmetry_space_group_name_H-M "P -1"
_symmetry_group_IT_number 2
_symmetry_cell_setting 'triclinic'
loop_
_space_group_symop_operation_xyz
x,y,z
-x,-y,-z
loop_
_atom_site_type_symbol
_atom_site_label
_atom_site_fract_x
_atom_site_fract_y
_atom_site_fract_z
Si Si1 0.398766 0.940647 0.875802
Si Si2 0.764006 0.099871 0.027647
Si Si3 0.895919 0.176453 0.420636
Si Si4 0.813903 0.404899 0.950785
Si Si5 0.526550 0.305122 0.587060
Si Si6 0.955131 0.780126 0.309944
Si Si7 0.780812 0.731977 0.589582
O O1 0.261124 0.901184 0.901078
O O2 0.569284 0.641855 0.870130
O O3 0.202378 0.141761 0.788676
O O4 0.567871 0.049709 0.943775
O O5 0.735221 0.366007 0.003774
O O6 0.053237 0.873065 0.070976
O O7 0.663255 0.474145 0.394698
O O8 0.116047 0.193824 0.444258
O O9 0.823272 0.024444 0.343070
O O10 0.000000 0.000000 0.500000
O O11 0.000000 0.500000 0.000000
O O12 0.395737 0.359422 0.487441
O O13 0.763700 0.322776 0.643838
O O14 0.622759 0.996339 0.612080
O O15 0.985332 0.510395 0.330405
#
# Coordination Sequence:
#
# PCOD8009617 Si02
#       7
#     2   2   2   2   2   2   2
#     4  10  21  37  58  88 121 156 195 243 301 357
#     4   9  19  37  63  86 118 158 194 239 297 360
#     4  11  23  38  62  85 112 158 207 251 303 359
#     4   9  18  36  63  90 112 153 199 238 290 361
#     4  10  22  38  60  85 116 155 203 249 303 359
#     4  11  24  38  57  91 123 154 202 254 298 357
#     4  10  22  38  61  86 115 159 202 250 305 357
#
# _framework density 21.130654
#
# number of rings (size 3 to 8) (size 9 to 14) (size 15 to 20)
#    0.000    2.000    1.429    1.286    4.000    3.429 
#    0.000    2.857    0.000    0.000    0.000    0.000 
#    0.000    0.000    0.000    0.000    0.000    0.000 
#
# Total GULP energy -173445.193362 kJ/mol
# GULP energy per Si atom -12388.942383 kJ/mol
# Density = 2.108256 g / cm^3
# Si number density = 21.130654 Si / 1000 Ang^3
#
#
#
# Elastic Constant Matrix: (Units=GPa)
#
#
# Indices 1 2 3 4 5 6 
#
# 1 99.8326 42.8115 40.7863 -13.7128 -5.4774 2.9495
# 2 42.8115 136.6885 48.8318 -24.3835 -7.5079 -17.2676
# 3 40.7863 48.8318 120.5210 -30.2681 -10.6157 -3.5943
# 4 -13.7128 -24.3835 -30.2681 35.3755 0.4349 -3.8308
# 5 -5.4774 -7.5079 -10.6157 0.4349 17.0410 -4.9322
# 6 2.9495 -17.2676 -3.5943 -3.8308 -4.9322 41.6229
#
#
#
# Elastic Compliance Matrix: (Units=1/GPa)
#
#
# Indices 1 2 3 4 5 6 
#
# 1 0.012723 -0.003231 -0.003138 -0.000254 -0.000017 -0.002538
# 2 -0.003231 0.010737 -0.001303 0.005586 0.004359 0.005601
# 3 -0.003138 -0.001303 0.012840 0.009051 0.006891 0.002440
# 4 -0.000254 0.005586 0.009051 0.040511 0.009284 0.007946
# 5 -0.000017 0.004359 0.006891 0.009284 0.067926 0.011308
# 6 -0.002538 0.005601 0.002440 0.007946 0.011308 0.028811
#
#
# Mechanical properties :
#
#
# Convention : Reuss Voigt Hill
#
# Bulk Modulus (GPa) = 47.71662 69.10014 58.40838
# Shear Modulus (GPa) = 25.52615 33.78205 29.65410
#
# Velocity S-wave (km/s) = 3.47942 4.00274 3.75022
# Velocity P-wave (km/s) = 6.22676 7.35765 6.81570
#
# Compressibility (1/GPa) = 0.02095706
#
# Stress axis : x y z
#
# Youngs Moduli (GPa) = 78.59538 93.13648 77.88109
#
# Poissons Ratio (x) = 0.30093 0.24437
# Poissons Ratio (y) = 0.25395 0.10147
# Poissons Ratio (z) = 0.24661 0.12134
#
# Static dielectric constant tensor:
#      x y z
#    x 3.971230 -0.177290 0.029910 
#    y -0.177290 4.505650 -0.309280 
#    z 0.029910 -0.309280 3.379760 
# 
# 
# High freq. dielectric constant tensor:
#      x y z
#    x 1.833790 -0.002350 0.006730 
#    y -0.002350 1.852280 -0.024190 
#    z 0.006730 -0.024190 1.780440 
# 
# From -- ./inp_files/41822.got.cif
#   From: 2010.06.25/outbox.cif.g09.slc.cpg/sg2_21_cif.got.tgz:41822.got - 2010.06.27 13:26:56.
