data_PCOD8009820
_publ_section_title
;
Structure prediction by ZEFSAII (Michael W. Deem and Ramdas Pophale) SiO2 
 PCOD8009820
Probable space group: P -1
;
_chemical_formula_sum "Si O2"
_cell_formula_units_Z 16
_cell_length_a 29.652616
_cell_length_b 24.326308
_cell_length_c 5.510254
_cell_angle_alpha 81.770485
_cell_angle_beta 80.905209
_cell_angle_gamma 10.048291
_cell_volume 682.983764
_symmetry_space_group_name_H-M "P -1"
_symmetry_group_IT_number 2
_symmetry_cell_setting 'triclinic'
loop_
_space_group_symop_operation_xyz
x,y,z
-x,-y,-z
loop_
_atom_site_type_symbol
_atom_site_label
_atom_site_fract_x
_atom_site_fract_y
_atom_site_fract_z
Si Si1 0.472583 0.832195 0.063629
Si Si2 0.729792 0.431267 0.356405
Si Si3 0.473034 0.620991 0.512795
Si Si4 0.321723 0.326531 0.682481
Si Si5 0.083237 0.705229 0.348444
Si Si6 0.099052 0.487454 0.982361
Si Si7 0.714724 0.231863 0.792154
Si Si8 0.217072 0.285285 0.498982
O O1 0.493992 0.748052 0.240634
O O2 0.464029 0.893740 0.216629
O O3 0.732138 0.529466 0.881687
O O4 0.209564 0.147353 0.933339
O O5 0.628514 0.491621 0.459469
O O6 0.826916 0.344204 0.576147
O O7 0.983322 0.126567 0.152593
O O8 0.679469 0.325487 0.577110
O O9 0.340088 0.763265 0.279499
O O10 0.219428 0.928356 0.714234
O O11 0.107774 0.623352 0.561185
O O12 0.174804 0.460862 0.904378
O O13 0.495602 0.085645 0.486580
O O14 0.166224 0.376775 0.739401
O O15 0.235832 0.300981 0.227651
O O16 0.500000 0.500000 0.000000
O O17 0.000000 0.500000 0.500000
#
# Coordination Sequence:
#
# PCOD8009820 Si02
#       8
#     2   2   2   2   2   2   2   2
#     4  11  24  41  64  91 128 170 213 271 324 389
#     4  10  22  39  59  92 124 165 212 258 322 386
#     4  10  21  39  61  88 126 161 208 262 316 386
#     4  11  25  42  65  94 128 167 218 270 325 396
#     4  10  23  40  62  88 128 165 211 265 321 382
#     4  12  27  43  70  98 129 176 222 272 339 395
#     4  10  21  37  61  91 123 162 207 261 318 378
#     4  12  25  46  69  96 134 171 220 279 335 394
#
# _framework density 23.426615999999999
#
# number of rings (size 3 to 8) (size 9 to 14) (size 15 to 20)
#    0.000    1.250    1.250    3.750    5.250    2.500 
#    0.000    0.000    0.000    0.000    0.000    0.000 
#    0.000    0.000    0.000    0.000    0.000    0.000 
#
# Total GULP energy -198317.884259 kJ/mol
# GULP energy per Si atom -12394.867766 kJ/mol
# Density = 2.337330 g / cm^3
# Si number density = 23.426616 Si / 1000 Ang^3
#
#
#
# Elastic Constant Matrix: (Units=GPa)
#
#
# Indices 1 2 3 4 5 6 
#
# 1 133.4891 28.9098 27.3220 -2.8871 -18.8891 2.0123
# 2 28.9098 114.1198 0.8699 13.8943 14.5451 3.8745
# 3 27.3220 0.8699 69.4782 14.2919 7.0256 6.6986
# 4 -2.8871 13.8943 14.2919 38.1996 -0.7311 -1.7683
# 5 -18.8891 14.5451 7.0256 -0.7311 20.2830 4.5444
# 6 2.0123 3.8745 6.6986 -1.7683 4.5444 30.3600
#
#
#
# Elastic Compliance Matrix: (Units=1/GPa)
#
#
# Indices 1 2 3 4 5 6 
#
# 1 0.014261 -0.007255 -0.009227 0.007553 0.022145 -0.000858
# 2 -0.007255 0.014046 0.006393 -0.008433 -0.019274 -0.000328
# 3 -0.009227 0.006393 0.022811 -0.012087 -0.020884 -0.002815
# 4 0.007553 -0.008433 -0.012087 0.034802 0.017944 0.002584
# 5 0.022145 -0.019274 -0.020884 0.017944 0.093266 -0.007315
# 6 -0.000858 -0.000328 -0.002815 0.002584 -0.007315 0.034904
#
#
# Mechanical properties :
#
#
# Convention : Reuss Voigt Hill
#
# Bulk Modulus (GPa) = 32.32226 47.92119 40.12172
# Shear Modulus (GPa) = 20.44292 35.10087 27.77190
#
# Velocity S-wave (km/s) = 2.95725 3.87503 3.44682
# Velocity P-wave (km/s) = 5.04852 6.36564 5.74496
#
# Compressibility (1/GPa) = 0.03093843
#
# Stress axis : x y z
#
# Youngs Moduli (GPa) = 70.12138 71.19229 43.83812
#
# Poissons Ratio (x) = 0.51652 0.40452
# Poissons Ratio (y) = 0.50875 -0.28024
# Poissons Ratio (z) = 0.64704 -0.45511
#
# Static dielectric constant tensor:
#      x y z
#    x 4.348520 0.419010 -0.147320 
#    y 0.419010 5.064080 -0.208320 
#    z -0.147320 -0.208320 4.122790 
# 
# 
# High freq. dielectric constant tensor:
#      x y z
#    x 1.932290 0.009850 -0.007330 
#    y 0.009850 1.947310 0.005850 
#    z -0.007330 0.005850 1.907050 
# 
# From -- ./inp_files/47572.got.cif
#   From: 2010.06.25/outbox.cif.g09.slc.cpg/sg2_24_cif.got.tgz:47572.got - 2010.06.27 13:26:56.
