data_PCOD8009736
_publ_section_title
;
Structure prediction by ZEFSAII (Michael W. Deem and Ramdas Pophale) SiO2 
 PCOD8009736
Probable space group: P -1
;
_chemical_formula_sum "Si O2"
_cell_formula_units_Z 16
_cell_length_a 8.307106
_cell_length_b 28.150958
_cell_length_c 28.070017
_cell_angle_alpha 10.224991
_cell_angle_beta 138.273306
_cell_angle_gamma 136.421204
_cell_volume 772.753490
_symmetry_space_group_name_H-M "P -1"
_symmetry_group_IT_number 2
_symmetry_cell_setting 'triclinic'
loop_
_space_group_symop_operation_xyz
x,y,z
-x,-y,-z
loop_
_atom_site_type_symbol
_atom_site_label
_atom_site_fract_x
_atom_site_fract_y
_atom_site_fract_z
Si Si1 0.616801 0.505197 0.281677
Si Si2 0.697473 0.770307 0.683062
Si Si3 0.025643 0.470285 0.479281
Si Si4 0.166127 0.051131 0.161891
Si Si5 0.232583 0.923389 0.026006
Si Si6 0.936895 0.534593 0.784652
Si Si7 0.066946 0.734820 0.718540
Si Si8 0.850138 0.015189 0.665555
O O1 0.772886 0.566259 0.302675
O O2 0.340581 0.528361 0.213870
O O3 0.697471 0.222753 0.555164
O O4 0.655271 0.722448 0.034932
O O5 0.416362 0.856853 0.531906
O O6 0.812241 0.753897 0.671762
O O7 0.828731 0.975386 0.543215
O O8 0.734615 0.477520 0.003911
O O9 0.000000 0.500000 0.500000
O O10 0.232928 0.650173 0.326747
O O11 0.090639 0.158198 0.792794
O O12 0.116521 0.054285 0.203482
O O13 0.903373 0.112547 0.018632
O O14 0.500000 0.000000 0.000000
O O15 0.021422 0.655867 0.732810
O O16 0.967154 0.760859 0.528062
O O17 0.097014 0.258148 0.082512
#
# Coordination Sequence:
#
# PCOD8009736 Si02
#       8
#     2   2   2   2   2   2   2   2
#     4  10  22  41  61  82 116 160 198 230 279 350
#     4  10  22  40  61  83 111 152 194 230 281 351
#     4  10  21  37  60  88 117 153 193 238 288 338
#     4  10  22  41  61  82 116 160 198 230 279 350
#     4  10  21  37  60  88 117 153 193 238 288 338
#     4  12  25  38  59  90 119 149 189 244 297 332
#     4  10  22  40  61  83 111 152 194 230 281 351
#     4  12  25  38  59  90 119 149 189 244 297 332
#
# _framework density 20.705181
#
# number of rings (size 3 to 8) (size 9 to 14) (size 15 to 20)
#    0.000    1.500    0.000    4.500    0.000    8.000 
#    0.000    0.000    0.000    0.000    0.000    0.000 
#    0.000    0.000    0.000    0.000    0.000    0.000 
#
# Total GULP energy -198488.598472 kJ/mol
# GULP energy per Si atom -12405.537404 kJ/mol
# Density = 2.065805 g / cm^3
# Si number density = 20.705181 Si / 1000 Ang^3
#
#
#
# Elastic Constant Matrix: (Units=GPa)
#
#
# Indices 1 2 3 4 5 6 
#
# 1 126.7389 70.2884 45.2010 1.4350 -12.1102 -1.4013
# 2 70.2884 84.9951 21.5563 -1.0833 -5.9990 -3.9710
# 3 45.2010 21.5563 115.9102 -14.4659 -10.1391 -2.5701
# 4 1.4350 -1.0833 -14.4659 26.7730 1.7305 -0.0090
# 5 -12.1102 -5.9990 -10.1391 1.7305 40.5483 -3.6892
# 6 -1.4013 -3.9710 -2.5701 -0.0090 -3.6892 28.6929
#
#
#
# Elastic Compliance Matrix: (Units=1/GPa)
#
#
# Indices 1 2 3 4 5 6 
#
# 1 0.016759 -0.012667 -0.004520 -0.003987 0.002073 -0.001074
# 2 -0.012667 0.022088 0.001155 0.002204 -0.000090 0.002531
# 3 -0.004520 0.001155 0.011098 0.006193 0.001434 0.001120
# 4 -0.003987 0.002204 0.006193 0.041066 -0.001019 0.000547
# 5 0.002073 -0.000090 0.001434 -0.001019 0.025994 0.003559
# 6 -0.001074 0.002531 0.001120 0.000547 0.003559 0.035708
#
#
# Mechanical properties :
#
#
# Convention : Reuss Voigt Hill
#
# Bulk Modulus (GPa) = 55.92388 66.85951 61.39169
# Shear Modulus (GPa) = 26.21421 31.90941 29.06181
#
# Velocity S-wave (km/s) = 3.56205 3.92998 3.75053
# Velocity P-wave (km/s) = 6.63218 7.27697 6.96205
#
# Compressibility (1/GPa) = 0.01788145
#
# Stress axis : x y z
#
# Youngs Moduli (GPa) = 59.67029 45.27365 90.10498
#
# Poissons Ratio (x) = 0.57350 0.40724
# Poissons Ratio (y) = 0.75587 -0.10410
# Poissons Ratio (z) = 0.26969 -0.05231
#
# Static dielectric constant tensor:
#      x y z
#    x 3.742730 -0.003940 -0.043520 
#    y -0.003940 3.685120 -0.108590 
#    z -0.043520 -0.108590 4.155560 
# 
# 
# High freq. dielectric constant tensor:
#      x y z
#    x 1.811980 -0.001290 -0.002970 
#    y -0.001290 1.807470 -0.008190 
#    z -0.002970 -0.008190 1.832370 
# 
# From -- ./inp_files/582343.got.cif
#   From: 2010.06.25/outbox.cif.g09.slc.cpg/sg2_292_cif.got.tgz:582343.got - 2010.06.27 13:26:56.
