data_PCOD8009381
_publ_section_title
;
Structure prediction by ZEFSAII (Michael W. Deem and Ramdas Pophale) SiO2 
 PCOD8009381
Probable space group: P -1
;
_chemical_formula_sum "Si O2"
_cell_formula_units_Z 16
_cell_length_a 14.453168
_cell_length_b 17.574307
_cell_length_c 10.838448
_cell_angle_alpha 149.205025
_cell_angle_beta 48.026124
_cell_angle_gamma 148.297618
_cell_volume 720.716024
_symmetry_space_group_name_H-M "P -1"
_symmetry_group_IT_number 2
_symmetry_cell_setting 'triclinic'
loop_
_space_group_symop_operation_xyz
x,y,z
-x,-y,-z
loop_
_atom_site_type_symbol
_atom_site_label
_atom_site_fract_x
_atom_site_fract_y
_atom_site_fract_z
Si Si1 0.500023 0.358546 0.467184
Si Si2 0.918698 0.577120 0.820416
Si Si3 0.293042 0.142083 0.734269
Si Si4 0.390286 0.720206 0.494273
Si Si5 0.312002 0.974307 0.924451
Si Si6 0.825346 0.746179 0.809467
Si Si7 0.883530 0.217124 0.414298
Si Si8 0.816580 0.792548 0.317209
O O1 0.570799 0.320173 0.465506
O O2 0.684735 0.616631 0.636883
O O3 0.339552 0.325586 0.606795
O O4 0.438284 0.213224 0.200682
O O5 0.820583 0.472209 0.629061
O O6 0.890707 0.401096 0.677963
O O7 0.129667 0.797600 0.921598
O O8 0.820455 0.623412 0.044620
O O9 0.178206 0.912122 0.582370
O O10 0.492586 0.252748 0.682605
O O11 0.202488 0.109641 0.642221
O O12 0.297520 0.298895 0.029723
O O13 0.435278 0.933619 0.764780
O O14 0.258032 0.962240 0.814360
O O15 0.913302 0.660046 0.631258
O O16 0.000000 0.000000 0.000000
O O17 0.000000 0.000000 0.500000
#
# Coordination Sequence:
#
# PCOD8009381 Si02
#       8
#     2   2   2   2   2   2   2   2
#     4  11  21  37  63  93 123 164 208 259 315 364
#     4  11  21  38  63  96 123 163 216 255 304 373
#     4  10  22  41  64  88 122 166 215 253 308 380
#     4  10  21  36  62  92 121 167 210 253 307 370
#     4  11  21  35  61  94 130 155 208 263 309 367
#     4  10  21  40  65  88 121 168 209 251 306 380
#     4  10  22  40  66  88 124 172 204 256 315 368
#     4  11  22  39  65  93 127 161 208 270 307 362
#
# _framework density 22.200144999999999
#
# number of rings (size 3 to 8) (size 9 to 14) (size 15 to 20)
#    0.000    1.500    1.250    5.625    0.000    4.000 
#    0.000    3.125    8.250    0.000    0.000    0.000 
#    0.000    0.000    0.000    0.000    0.000    0.000 
#
# Total GULP energy -198242.054359 kJ/mol
# GULP energy per Si atom -12390.128397 kJ/mol
# Density = 2.214962 g / cm^3
# Si number density = 22.200145 Si / 1000 Ang^3
#
#
#
# Elastic Constant Matrix: (Units=GPa)
#
#
# Indices 1 2 3 4 5 6 
#
# 1 80.9232 31.6581 35.6853 0.8596 -14.1440 13.0839
# 2 31.6581 82.0909 42.4760 9.9661 -8.6684 15.5829
# 3 35.6853 42.4760 138.3623 17.7830 -0.8723 11.9338
# 4 0.8596 9.9661 17.7830 41.0233 11.5601 -0.6231
# 5 -14.1440 -8.6684 -0.8723 11.5601 31.8333 1.4977
# 6 13.0839 15.5829 11.9338 -0.6231 1.4977 35.4852
#
#
#
# Elastic Compliance Matrix: (Units=1/GPa)
#
#
# Indices 1 2 3 4 5 6 
#
# 1 0.016803 -0.003523 -0.002840 -0.000212 0.006693 -0.003980
# 2 -0.003523 0.017332 -0.003384 -0.004108 0.004810 -0.005449
# 3 -0.002840 -0.003384 0.009435 -0.002991 -0.000808 -0.000658
# 4 -0.000212 -0.004108 -0.002991 0.030248 -0.012465 0.003945
# 5 0.006693 0.004810 -0.000808 -0.012465 0.040495 -0.006236
# 6 -0.003980 -0.005449 -0.000658 0.003945 -0.006236 0.032595
#
#
# Mechanical properties :
#
#
# Convention : Reuss Voigt Hill
#
# Bulk Modulus (GPa) = 41.53279 57.89057 49.71168
# Shear Modulus (GPa) = 28.66537 34.43883 31.55210
#
# Velocity S-wave (km/s) = 3.59726 3.94291 3.77405
# Velocity P-wave (km/s) = 6.00022 6.84558 6.43680
#
# Compressibility (1/GPa) = 0.02407736
#
# Stress axis : x y z
#
# Youngs Moduli (GPa) = 59.51186 57.69609 105.99219
#
# Poissons Ratio (x) = 0.20326 0.30098
# Poissons Ratio (y) = 0.20966 0.35867
# Poissons Ratio (z) = 0.16899 0.19524
#
# Static dielectric constant tensor:
#      x y z
#    x 4.170860 0.546380 -0.171440 
#    y 0.546380 4.260440 -0.049230 
#    z -0.171440 -0.049230 3.942430 
# 
# 
# High freq. dielectric constant tensor:
#      x y z
#    x 1.876330 0.026060 -0.014160 
#    y 0.026060 1.872250 0.002390 
#    z -0.014160 0.002390 1.872870 
# 
# From -- ./inp_files/406542.got.cif
#   From: 2010.06.25/outbox.cif.g09.slc.cpg/sg2_204_cif.got.tgz:406542.got - 2010.06.27 13:26:56.
