data_PCOD8009194
_publ_section_title
;
Structure prediction by ZEFSAII (Michael W. Deem and Ramdas Pophale) SiO2 
 PCOD8009194
Probable space group: P -1
;
_chemical_formula_sum "Si O2"
_cell_formula_units_Z 16
_cell_length_a 8.966960
_cell_length_b 19.402928
_cell_length_c 15.834409
_cell_angle_alpha 18.652128
_cell_angle_beta 83.711498
_cell_angle_gamma 81.080322
_cell_volume 864.327763
_symmetry_space_group_name_H-M "P -1"
_symmetry_group_IT_number 2
_symmetry_cell_setting 'triclinic'
loop_
_space_group_symop_operation_xyz
x,y,z
-x,-y,-z
loop_
_atom_site_type_symbol
_atom_site_label
_atom_site_fract_x
_atom_site_fract_y
_atom_site_fract_z
Si Si1 0.321885 0.493806 0.147637
Si Si2 0.672486 0.615017 0.538048
Si Si3 0.658979 0.256062 0.385271
Si Si4 0.622035 0.053881 0.794552
Si Si5 0.331942 0.956938 0.542772
Si Si6 0.822616 0.978861 0.030093
Si Si7 0.586940 0.300050 0.778680
Si Si8 0.828677 0.600439 0.898800
O O1 0.270811 0.438358 0.308514
O O2 0.489905 0.379984 0.250595
O O3 0.225314 0.389839 0.205518
O O4 0.302956 0.752889 0.837356
O O5 0.661629 0.388411 0.754648
O O6 0.504669 0.758483 0.376271
O O7 0.797593 0.742164 0.340688
O O8 0.698056 0.130049 0.616806
O O9 0.687560 0.082994 0.508803
O O10 0.757040 0.446212 0.146414
O O11 0.760708 0.995517 0.918754
O O12 0.537794 0.849734 0.014528
O O13 0.202599 0.156524 0.344307
O O14 0.500000 0.000000 0.500000
O O15 0.726196 0.169134 0.869944
O O16 0.000000 0.000000 0.000000
O O17 0.500000 0.500000 0.500000
O O18 0.000000 0.500000 0.000000
#
# Coordination Sequence:
#
# PCOD8009194 Si02
#       8
#     2   2   2   2   2   2   2   2
#     4  10  21  36  60  89 113 147 199 243 277 342
#     4  10  21  38  61  88 115 150 199 239 286 343
#     4  10  21  36  58  90 113 146 202 239 279 344
#     4  10  21  37  60  88 117 149 195 244 286 340
#     4  11  19  36  62  84 111 152 195 229 284 339
#     4  11  23  39  58  86 123 153 184 241 296 344
#     4  11  19  38  63  82 109 154 199 235 282 340
#     4  11  23  39  58  83 124 156 183 239 294 338
#
# _framework density 18.511496000000001
#
# number of rings (size 3 to 8) (size 9 to 14) (size 15 to 20)
#    0.000    1.500    5.000    1.500    1.750    4.500 
#    0.000    1.250    0.000    0.000    0.000    0.000 
#    0.000    0.000    0.000    0.000    0.000    0.000 
#
# Total GULP energy -198401.694578 kJ/mol
# GULP energy per Si atom -12400.105911 kJ/mol
# Density = 1.846936 g / cm^3
# Si number density = 18.511496 Si / 1000 Ang^3
#
#
#
# Elastic Constant Matrix: (Units=GPa)
#
#
# Indices 1 2 3 4 5 6 
#
# 1 101.9458 57.6980 44.0353 11.1250 9.6678 13.4635
# 2 57.6980 128.8051 82.5377 6.0393 5.7800 18.9054
# 3 44.0353 82.5377 111.9105 1.1803 16.5060 26.3179
# 4 11.1250 6.0393 1.1803 45.5140 0.4523 6.8580
# 5 9.6678 5.7800 16.5060 0.4523 -6.7039 -42.1891
# 6 13.4635 18.9054 26.3179 6.8580 -42.1891 -23.6790
#
#
#
# Elastic Compliance Matrix: (Units=1/GPa)
#
#
# Indices 1 2 3 4 5 6 
#
# 1 0.013588 -0.004864 -0.002048 -0.002874 -0.000544 0.001701
# 2 -0.004864 0.016656 -0.009878 -0.000339 0.001329 -0.002912
# 3 -0.002048 -0.009878 0.015708 0.000789 0.002652 0.003910
# 4 -0.002874 -0.000339 0.000789 0.022771 0.003524 -0.000712
# 5 -0.000544 0.001329 0.002652 0.003524 0.016817 -0.025242
# 6 0.001701 -0.002912 0.003910 -0.000712 -0.025242 0.005524
#
#
# Mechanical properties :
#
#
# Convention : Reuss Voigt Hill
#
# Bulk Modulus (GPa) = 80.84031 79.02260 79.93146
# Shear Modulus (GPa) = 38.82958 13.58558 26.20758
#
# Velocity S-wave (km/s) = 4.58492 2.71200 3.76672
# Velocity P-wave (km/s) = 8.47312 7.25173 7.88611
#
# Compressibility (1/GPa) = 0.01237007
#
# Stress axis : x y z
#
# Youngs Moduli (GPa) = 73.59695 60.03795 63.66182
#
# Poissons Ratio (x) = 0.29205 0.13041
# Poissons Ratio (y) = 0.35801 0.62884
# Poissons Ratio (z) = 0.15076 0.59305
#
# Static dielectric constant tensor:
#      x y z
#    x 3.173330 0.187050 0.003210 
#    y 0.187050 4.472390 0.364580 
#    z 0.003210 0.364580 3.889650 
# 
# 
# High freq. dielectric constant tensor:
#      x y z
#    x 1.698170 0.008130 -0.003400 
#    y 0.008130 1.727940 -0.001260 
#    z -0.003400 -0.001260 1.729830 
# 
# From -- ./inp_files/37819.got.cif
#   From: 2010.06.25/outbox.cif.g09.slc.cpg/sg2_19_cif.got.tgz:37819.got - 2010.06.27 13:26:56.
