data_PCOD8009471
_publ_section_title
;
Structure prediction by ZEFSAII (Michael W. Deem and Ramdas Pophale) SiO2 
 PCOD8009471
Probable space group: P -1
;
_chemical_formula_sum "Si O2"
_cell_formula_units_Z 16
_cell_length_a 10.890308
_cell_length_b 8.775535
_cell_length_c 14.207153
_cell_angle_alpha 61.163574
_cell_angle_beta 40.598644
_cell_angle_gamma 78.091406
_cell_volume 742.947599
_symmetry_space_group_name_H-M "P -1"
_symmetry_group_IT_number 2
_symmetry_cell_setting 'triclinic'
loop_
_space_group_symop_operation_xyz
x,y,z
-x,-y,-z
loop_
_atom_site_type_symbol
_atom_site_label
_atom_site_fract_x
_atom_site_fract_y
_atom_site_fract_z
Si Si1 0.612050 0.870693 0.596512
Si Si2 0.063111 0.001017 0.338702
Si Si3 0.858617 0.799048 0.126112
Si Si4 0.225150 0.256101 0.022715
Si Si5 0.555555 0.533432 0.848833
Si Si6 0.474055 0.208364 0.537085
Si Si7 0.966454 0.692903 0.607983
Si Si8 0.088433 0.563634 0.759040
O O1 0.515151 0.715794 0.775487
O O2 0.617410 0.788741 0.513805
O O3 0.831801 0.975842 0.466620
O O4 0.481476 0.010257 0.625354
O O5 0.107898 0.820027 0.409170
O O6 0.177404 0.056637 0.157789
O O7 0.135234 0.171274 0.317168
O O8 0.673090 0.738162 0.321370
O O9 0.978793 0.651168 0.116599
O O10 0.771501 0.777206 0.079052
O O11 0.000000 0.000000 0.000000
O O12 0.057127 0.350229 0.123431
O O13 0.438281 0.370095 0.900111
O O14 0.788203 0.548698 0.701210
O O15 0.500000 0.500000 0.000000
O O16 0.687912 0.350748 0.365661
O O17 0.077882 0.594010 0.643444
#
# Coordination Sequence:
#
# PCOD8009471 Si02
#       8
#     2   2   2   2   2   2   2   2
#     4  10  21  36  65  93 119 163 215 248 306 383
#     4   9  16  34  59  92 120 150 211 255 297 363
#     4  12  28  41  62  93 135 164 202 267 321 358
#     4  11  22  40  65  96 127 162 210 258 310 373
#     4  11  20  34  62  99 126 154 206 267 308 358
#     4  11  23  41  64  89 124 170 208 257 309 370
#     4   9  18  33  60  95 115 161 205 258 299 364
#     4  11  22  41  65  91 124 165 217 247 306 382
#
# _framework density 21.535838999999999
#
# number of rings (size 3 to 8) (size 9 to 14) (size 15 to 20)
#    0.000    1.500    5.000    2.250    3.500    0.000 
#    0.000    0.000    0.000   18.750    0.000    0.000 
#    0.000    0.000    0.000    0.000    0.000    0.000 
#
# Total GULP energy -198324.236925 kJ/mol
# GULP energy per Si atom -12395.264808 kJ/mol
# Density = 2.148682 g / cm^3
# Si number density = 21.535839 Si / 1000 Ang^3
#
#
#
# Elastic Constant Matrix: (Units=GPa)
#
#
# Indices 1 2 3 4 5 6 
#
# 1 125.5831 35.9465 39.5401 -13.4245 20.2402 24.6844
# 2 35.9465 56.0746 35.9537 -10.2125 12.1552 18.4950
# 3 39.5401 35.9537 94.1276 -20.0020 17.4571 13.5586
# 4 -13.4245 -10.2125 -20.0020 35.3655 -5.5288 3.6604
# 5 20.2402 12.1552 17.4571 -5.5288 51.0756 -9.9820
# 6 24.6844 18.4950 13.5586 3.6604 -9.9820 22.9600
#
#
#
# Elastic Compliance Matrix: (Units=1/GPa)
#
#
# Indices 1 2 3 4 5 6 
#
# 1 0.013890 0.001179 -0.000341 0.006139 -0.009026 -0.020584
# 2 0.001179 0.036388 -0.004795 0.009798 -0.013284 -0.035085
# 3 -0.000341 -0.004795 0.016605 0.007994 -0.005325 -0.009167
# 4 0.006139 0.009798 0.007994 0.039601 -0.008960 -0.029422
# 5 -0.009026 -0.013284 -0.005325 -0.008960 0.035025 0.040206
# 6 -0.020584 -0.035085 -0.009167 -0.029422 0.040206 0.121529
#
#
# Mechanical properties :
#
#
# Convention : Reuss Voigt Hill
#
# Bulk Modulus (GPa) = 16.95809 55.40734 36.18271
# Shear Modulus (GPa) = 17.20518 32.83656 25.02087
#
# Velocity S-wave (km/s) = 2.82956 3.90903 3.41225
# Velocity P-wave (km/s) = 4.30891 6.79395 5.68878
#
# Compressibility (1/GPa) = 0.05896891
#
# Stress axis : x y z
#
# Youngs Moduli (GPa) = 71.99447 27.48159 60.22159
#
# Poissons Ratio (x) = -0.03239 0.02055
# Poissons Ratio (y) = -0.08485 0.28873
# Poissons Ratio (z) = 0.02457 0.13176
#
# Static dielectric constant tensor:
#      x y z
#    x 4.167210 0.053100 0.270290 
#    y 0.053100 3.581310 -0.448940 
#    z 0.270290 -0.448940 4.114760 
# 
# 
# High freq. dielectric constant tensor:
#      x y z
#    x 1.865640 0.012210 0.016350 
#    y 0.012210 1.800820 -0.036170 
#    z 0.016350 -0.036170 1.852660 
# 
# From -- ./inp_files/207980.got.cif
#   From: 2010.06.25/outbox.cif.g09.slc.cpg/sg2_104_cif.got.tgz:207980.got - 2010.06.27 13:26:56.
